MODEL 1
REMARK VINA RESULT:     -10.2      0.000      0.000
REMARK SMILES COc1ccc2cc([C@@H](C)C(=O)OCCOCCOC(=O)c3ccc(-c4c5nc(c(-c6cc(S(=O)(=O)[O-])ccc6F)c6ccc([nH]6)c(-c6cc(S(=O)(=O)[O-])ccc6F)c6nc(c(-c7cc(S(=O)(=O)[O-])ccc7F)c7ccc4[nH]7)C=C6)C=C5)cc3)ccc2c1
REMARK SMILES IDX 17 1 16 2 15 3 14 4 13 5 11 6 12 7 9 8 10 9 8 10 3 11 4 12
REMARK SMILES IDX 88 13 5 14 87 15 6 16 86 17 7 18 85 19 2 20 1 21 18 22 19 23
REMARK SMILES IDX 20 24 21 25 22 26 23 27 84 28 24 29 83 30 25 31 26 32 27 33
REMARK SMILES IDX 77 34 28 35 82 36 76 37 78 38 29 39 81 40 75 41 74 42 30 44
REMARK SMILES IDX 62 45 42 46 61 47 43 48 46 49 60 50 79 51 44 52 45 53 59 55
REMARK SMILES IDX 80 56 47 57 31 58 32 59 40 60 33 61 39 62 41 63 38 64 34 65
REMARK SMILES IDX 35 66 36 67 37 68 63 69 64 70 72 71 65 72 71 73 73 74 70 75
REMARK SMILES IDX 66 76 67 77 68 78 69 79 48 80 49 81 57 82 50 83 56 84 58 85
REMARK SMILES IDX 55 86 51 87 52 88 53 89 54 90
REMARK H PARENT 78 43 46 54
REMARK Flexibility Score: inf
ROOT
ATOM      1  C   UNL A   1      33.363  34.821  29.341  1.00  0.00     0.202 C 
ENDROOT
BRANCH   1   2
ATOM      2  O   UNL A   1      32.623  36.032  29.497  1.00  0.00    -0.374 OA
BRANCH   2   3
ATOM      3  C   UNL A   1      32.899  36.827  30.651  1.00  0.00     0.202 C 
BRANCH   3   4
ATOM      4  C   UNL A   1      33.052  36.069  31.973  1.00  0.00     0.261 C 
BRANCH   4   5
ATOM      5  O   UNL A   1      34.369  36.238  32.531  1.00  0.00    -0.463 OA
BRANCH   5   6
ATOM      6  C   UNL A   1      34.936  35.125  33.059  1.00  0.00     0.313 C 
ATOM      7  O   UNL A   1      34.851  34.793  34.239  1.00  0.00    -0.252 OA
BRANCH   6   8
ATOM      8  C   UNL A   1      35.745  34.309  32.065  1.00  0.00     0.126 C 
ATOM      9  C   UNL A   1      35.166  32.898  31.984  1.00  0.00     0.025 C 
BRANCH   8  10
ATOM     10  C   UNL A   1      37.263  34.292  32.206  1.00  0.00    -0.033 A 
ATOM     11  C   UNL A   1      42.289  34.804  31.560  1.00  0.00     0.119 A 
ATOM     12  C   UNL A   1      41.761  34.578  30.293  1.00  0.00     0.047 A 
ATOM     13  C   UNL A   1      41.453  34.755  32.676  1.00  0.00     0.055 A 
ATOM     14  C   UNL A   1      40.386  34.364  30.137  1.00  0.00     0.012 A 
ATOM     15  C   UNL A   1      40.070  34.557  32.533  1.00  0.00    -0.015 A 
ATOM     16  C   UNL A   1      39.522  34.374  31.245  1.00  0.00    -0.018 A 
ATOM     17  C   UNL A   1      39.216  34.562  33.643  1.00  0.00     0.009 A 
ATOM     18  C   UNL A   1      38.127  34.233  31.100  1.00  0.00     0.013 A 
ATOM     19  C   UNL A   1      37.833  34.435  33.482  1.00  0.00     0.005 A 
BRANCH  11  20
ATOM     20  O   UNL A   1      43.614  35.036  31.816  1.00  0.00    -0.497 OA
ATOM     21  C   UNL A   1      44.385  35.357  30.660  1.00  0.00     0.278 C 
ENDBRANCH  11  20
ENDBRANCH   8  10
ENDBRANCH   6   8
ENDBRANCH   5   6
ENDBRANCH   4   5
ENDBRANCH   3   4
ENDBRANCH   2   3
ENDBRANCH   1   2
BRANCH   1  22
ATOM     22  C   UNL A   1      33.149  34.034  28.042  1.00  0.00     0.261 C 
BRANCH  22  23
ATOM     23  O   UNL A   1      34.316  33.294  27.643  1.00  0.00    -0.460 OA
BRANCH  23  24
ATOM     24  C   UNL A   1      34.190  31.948  27.728  1.00  0.00     0.338 C 
ATOM     25  O   UNL A   1      33.196  31.285  27.453  1.00  0.00    -0.246 OA
BRANCH  24  26
ATOM     26  C   UNL A   1      35.494  31.328  28.026  1.00  0.00     0.060 A 
ATOM     27  C   UNL A   1      35.529  29.934  28.162  1.00  0.00     0.016 A 
ATOM     28  C   UNL A   1      36.643  32.090  28.250  1.00  0.00     0.016 A 
ATOM     29  C   UNL A   1      36.699  29.300  28.575  1.00  0.00     0.010 A 
ATOM     30  C   UNL A   1      37.816  31.451  28.673  1.00  0.00     0.010 A 
ATOM     31  C   UNL A   1      37.840  30.057  28.872  1.00  0.00    -0.014 A 
BRANCH  31  32
ATOM     32  C   UNL A   1      38.995  29.401  29.536  1.00  0.00     0.031 A 
ATOM     33  C   UNL A   1      39.389  29.848  30.919  1.00  0.00     0.074 A 
ATOM     34  C   UNL A   1      39.655  28.391  28.937  1.00  0.00     0.049 A 
ATOM     35  N   UNL A   1      40.376  29.440  31.674  1.00  0.00    -0.248 NA
ATOM     36  C   UNL A   1      38.558  30.898  31.530  1.00  0.00     0.031 C 
ATOM     37  C   UNL A   1      39.332  27.835  27.624  1.00  0.00     0.029 A 
ATOM     38  N   UNL A   1      40.735  27.656  29.356  1.00  0.00    -0.354 N 
ATOM     39  C   UNL A   1      40.290  30.184  32.847  1.00  0.00     0.074 A 
ATOM     40  C   UNL A   1      39.172  31.090  32.688  1.00  0.00     0.031 C 
ATOM     41  C   UNL A   1      40.205  26.853  27.339  1.00  0.00     0.029 A 
ATOM     42  C   UNL A   1      41.170  26.735  28.430  1.00  0.00     0.049 A 
ATOM     43  H   UNL A   1      41.161  27.776  30.236  1.00  0.00     0.167 HD
ATOM     44  C   UNL A   1      41.068  30.113  33.954  1.00  0.00     0.034 A 
ATOM     45  C   UNL A   1      42.239  25.910  28.451  1.00  0.00     0.034 A 
ATOM     46  C   UNL A   1      42.180  29.206  34.101  1.00  0.00     0.049 A 
ATOM     47  C   UNL A   1      43.139  25.909  29.667  1.00  0.00     0.074 A 
ATOM     48  C   UNL A   1      43.018  29.040  35.190  1.00  0.00     0.029 A 
ATOM     49  N   UNL A   1      42.615  28.317  33.127  1.00  0.00    -0.354 N 
ATOM     50  N   UNL A   1      43.036  26.610  30.773  1.00  0.00    -0.248 NA
ATOM     51  C   UNL A   1      44.292  24.998  29.639  1.00  0.00     0.031 C 
ATOM     52  C   UNL A   1      44.000  28.105  34.849  1.00  0.00     0.029 A 
ATOM     53  C   UNL A   1      43.731  27.628  33.576  1.00  0.00     0.049 A 
ATOM     54  H   UNL A   1      42.193  28.195  32.246  1.00  0.00     0.167 HD
ATOM     55  C   UNL A   1      44.091  26.196  31.584  1.00  0.00     0.074 A 
ATOM     56  C   UNL A   1      44.806  25.176  30.847  1.00  0.00     0.031 C 
ATOM     57  C   UNL A   1      44.436  26.615  32.829  1.00  0.00     0.034 A 
BRANCH  44  58
ATOM     58  C   UNL A   1      40.779  31.082  35.075  1.00  0.00     0.023 A 
ATOM     59  C   UNL A   1      39.661  30.939  35.912  1.00  0.00     0.031 A 
ATOM     60  C   UNL A   1      41.646  32.166  35.308  1.00  0.00     0.131 A 
ATOM     61  C   UNL A   1      39.412  31.891  36.913  1.00  0.00     0.055 A 
ATOM     62  C   UNL A   1      41.430  33.071  36.348  1.00  0.00     0.041 A 
ATOM     63  F   UNL A   1      42.718  32.363  34.524  1.00  0.00    -0.206 F 
ATOM     64  C   UNL A   1      40.302  32.942  37.151  1.00  0.00     0.022 A 
BRANCH  61  65
ATOM     65  S   UNL A   1      37.851  31.800  37.834  1.00  0.00     0.124 S 
ATOM     66  O   UNL A   1      37.075  32.867  37.208  1.00  0.00    -0.237 OA
ATOM     67  O   UNL A   1      37.403  30.439  37.562  1.00  0.00    -0.237 OA
ATOM     68  O   UNL A   1      38.253  32.059  39.216  1.00  0.00    -0.744 OA
ENDBRANCH  61  65
ENDBRANCH  44  58
BRANCH  45  69
ATOM     69  C   UNL A   1      42.564  25.052  27.274  1.00  0.00     0.023 A 
ATOM     70  C   UNL A   1      42.109  23.726  27.192  1.00  0.00     0.031 A 
ATOM     71  C   UNL A   1      43.412  25.521  26.255  1.00  0.00     0.131 A 
ATOM     72  C   UNL A   1      42.553  22.897  26.149  1.00  0.00     0.055 A 
ATOM     73  C   UNL A   1      43.802  24.710  25.187  1.00  0.00     0.041 A 
ATOM     74  F   UNL A   1      43.880  26.779  26.285  1.00  0.00    -0.206 F 
ATOM     75  C   UNL A   1      43.385  23.384  25.139  1.00  0.00     0.022 A 
BRANCH  72  76
ATOM     76  S   UNL A   1      42.121  21.136  26.195  1.00  0.00     0.124 S 
ATOM     77  O   UNL A   1      42.274  20.830  27.613  1.00  0.00    -0.237 OA
ATOM     78  O   UNL A   1      40.754  21.148  25.685  1.00  0.00    -0.237 OA
ATOM     79  O   UNL A   1      43.110  20.520  25.313  1.00  0.00    -0.744 OA
ENDBRANCH  72  76
ENDBRANCH  45  69
BRANCH  57  80
ATOM     80  C   UNL A   1      45.606  25.927  33.489  1.00  0.00     0.023 A 
ATOM     81  C   UNL A   1      45.431  24.842  34.366  1.00  0.00     0.031 A 
ATOM     82  C   UNL A   1      46.917  26.370  33.238  1.00  0.00     0.131 A 
ATOM     83  C   UNL A   1      46.544  24.274  35.005  1.00  0.00     0.055 A 
ATOM     84  C   UNL A   1      48.025  25.762  33.830  1.00  0.00     0.041 A 
ATOM     85  F   UNL A   1      47.143  27.401  32.409  1.00  0.00    -0.206 F 
ATOM     86  C   UNL A   1      47.841  24.716  34.729  1.00  0.00     0.022 A 
BRANCH  83  87
ATOM     87  S   UNL A   1      46.269  23.002  36.269  1.00  0.00     0.124 S 
ATOM     88  O   UNL A   1      47.319  22.037  35.963  1.00  0.00    -0.237 OA
ATOM     89  O   UNL A   1      46.435  23.753  37.509  1.00  0.00    -0.237 OA
ATOM     90  O   UNL A   1      44.907  22.541  36.002  1.00  0.00    -0.744 OA
ENDBRANCH  83  87
ENDBRANCH  57  80
ENDBRANCH  31  32
ENDBRANCH  24  26
ENDBRANCH  23  24
ENDBRANCH  22  23
ENDBRANCH   1  22
TORSDOF 19
ENDMDL
MODEL 2
REMARK VINA RESULT:     -10.0      3.807      7.153
REMARK SMILES COc1ccc2cc([C@@H](C)C(=O)OCCOCCOC(=O)c3ccc(-c4c5nc(c(-c6cc(S(=O)(=O)[O-])ccc6F)c6ccc([nH]6)c(-c6cc(S(=O)(=O)[O-])ccc6F)c6nc(c(-c7cc(S(=O)(=O)[O-])ccc7F)c7ccc4[nH]7)C=C6)C=C5)cc3)ccc2c1
REMARK SMILES IDX 17 1 16 2 15 3 14 4 13 5 11 6 12 7 9 8 10 9 8 10 3 11 4 12
REMARK SMILES IDX 88 13 5 14 87 15 6 16 86 17 7 18 85 19 2 20 1 21 18 22 19 23
REMARK SMILES IDX 20 24 21 25 22 26 23 27 84 28 24 29 83 30 25 31 26 32 27 33
REMARK SMILES IDX 77 34 28 35 82 36 76 37 78 38 29 39 81 40 75 41 74 42 30 44
REMARK SMILES IDX 62 45 42 46 61 47 43 48 46 49 60 50 79 51 44 52 45 53 59 55
REMARK SMILES IDX 80 56 47 57 31 58 32 59 40 60 33 61 39 62 41 63 38 64 34 65
REMARK SMILES IDX 35 66 36 67 37 68 63 69 64 70 72 71 65 72 71 73 73 74 70 75
REMARK SMILES IDX 66 76 67 77 68 78 69 79 48 80 49 81 57 82 50 83 56 84 58 85
REMARK SMILES IDX 55 86 51 87 52 88 53 89 54 90
REMARK H PARENT 78 43 46 54
REMARK Flexibility Score: inf
ROOT
ATOM      1  C   UNL A   1      32.156  30.046  25.492  1.00  0.00     0.202 C 
ENDROOT
BRANCH   1   2
ATOM      2  O   UNL A   1      31.385  28.873  25.749  1.00  0.00    -0.374 OA
BRANCH   2   3
ATOM      3  C   UNL A   1      31.737  28.093  26.893  1.00  0.00     0.202 C 
BRANCH   3   4
ATOM      4  C   UNL A   1      31.822  26.580  26.680  1.00  0.00     0.261 C 
BRANCH   4   5
ATOM      5  O   UNL A   1      30.519  25.995  26.496  1.00  0.00    -0.463 OA
BRANCH   5   6
ATOM      6  C   UNL A   1      30.499  24.740  25.984  1.00  0.00     0.313 C 
ATOM      7  O   UNL A   1      30.579  23.713  26.654  1.00  0.00    -0.252 OA
BRANCH   6   8
ATOM      8  C   UNL A   1      30.407  24.689  24.468  1.00  0.00     0.126 C 
ATOM      9  C   UNL A   1      31.578  23.877  23.919  1.00  0.00     0.025 C 
BRANCH   8  10
ATOM     10  C   UNL A   1      30.222  26.000  23.710  1.00  0.00    -0.033 A 
ATOM     11  C   UNL A   1      28.783  30.612  22.098  1.00  0.00     0.119 A 
ATOM     12  C   UNL A   1      27.651  30.034  22.666  1.00  0.00     0.047 A 
ATOM     13  C   UNL A   1      29.958  29.869  21.991  1.00  0.00     0.055 A 
ATOM     14  C   UNL A   1      27.715  28.734  23.181  1.00  0.00     0.012 A 
ATOM     15  C   UNL A   1      30.040  28.569  22.517  1.00  0.00    -0.015 A 
ATOM     16  C   UNL A   1      28.909  27.995  23.137  1.00  0.00    -0.018 A 
ATOM     17  C   UNL A   1      31.233  27.837  22.463  1.00  0.00     0.009 A 
ATOM     18  C   UNL A   1      29.012  26.714  23.715  1.00  0.00     0.013 A 
ATOM     19  C   UNL A   1      31.323  26.573  23.053  1.00  0.00     0.005 A 
BRANCH  11  20
ATOM     20  O   UNL A   1      28.828  31.879  21.580  1.00  0.00    -0.497 OA
ATOM     21  C   UNL A   1      27.999  32.071  20.435  1.00  0.00     0.278 C 
ENDBRANCH  11  20
ENDBRANCH   8  10
ENDBRANCH   6   8
ENDBRANCH   5   6
ENDBRANCH   4   5
ENDBRANCH   3   4
ENDBRANCH   2   3
ENDBRANCH   1   2
BRANCH   1  22
ATOM     22  C   UNL A   1      31.751  31.325  26.235  1.00  0.00     0.261 C 
BRANCH  22  23
ATOM     23  O   UNL A   1      32.378  31.441  27.524  1.00  0.00    -0.460 OA
BRANCH  23  24
ATOM     24  C   UNL A   1      33.282  32.445  27.625  1.00  0.00     0.338 C 
ATOM     25  O   UNL A   1      33.052  33.648  27.568  1.00  0.00    -0.246 OA
BRANCH  24  26
ATOM     26  C   UNL A   1      34.601  31.912  28.013  1.00  0.00     0.060 A 
ATOM     27  C   UNL A   1      34.707  30.527  28.198  1.00  0.00     0.016 A 
ATOM     28  C   UNL A   1      35.691  32.746  28.271  1.00  0.00     0.016 A 
ATOM     29  C   UNL A   1      35.887  29.975  28.694  1.00  0.00     0.010 A 
ATOM     30  C   UNL A   1      36.873  32.190  28.777  1.00  0.00     0.010 A 
ATOM     31  C   UNL A   1      36.965  30.807  29.024  1.00  0.00    -0.014 A 
BRANCH  31  32
ATOM     32  C   UNL A   1      38.117  30.240  29.771  1.00  0.00     0.031 A 
ATOM     33  C   UNL A   1      38.299  30.611  31.220  1.00  0.00     0.074 A 
ATOM     34  C   UNL A   1      38.963  29.373  29.183  1.00  0.00     0.049 A 
ATOM     35  N   UNL A   1      39.243  30.261  32.054  1.00  0.00    -0.248 NA
ATOM     36  C   UNL A   1      37.278  31.495  31.803  1.00  0.00     0.031 C 
ATOM     37  C   UNL A   1      38.858  28.897  27.804  1.00  0.00     0.029 A 
ATOM     38  N   UNL A   1      40.078  28.740  29.672  1.00  0.00    -0.354 N 
ATOM     39  C   UNL A   1      38.936  30.885  33.259  1.00  0.00     0.074 A 
ATOM     40  C   UNL A   1      37.733  31.659  33.036  1.00  0.00     0.031 C 
ATOM     41  C   UNL A   1      39.877  28.056  27.555  1.00  0.00     0.029 A 
ATOM     42  C   UNL A   1      40.726  27.961  28.740  1.00  0.00     0.049 A 
ATOM     43  H   UNL A   1      40.387  28.834  30.602  1.00  0.00     0.167 HD
ATOM     44  C   UNL A   1      39.593  30.814  34.442  1.00  0.00     0.034 A 
ATOM     45  C   UNL A   1      41.884  27.273  28.827  1.00  0.00     0.034 A 
ATOM     46  C   UNL A   1      40.790  30.038  34.654  1.00  0.00     0.049 A 
ATOM     47  C   UNL A   1      42.641  27.276  30.137  1.00  0.00     0.074 A 
ATOM     48  C   UNL A   1      41.520  29.881  35.818  1.00  0.00     0.029 A 
ATOM     49  N   UNL A   1      41.440  29.296  33.675  1.00  0.00    -0.354 N 
ATOM     50  N   UNL A   1      42.330  27.861  31.271  1.00  0.00    -0.248 NA
ATOM     51  C   UNL A   1      43.898  26.517  30.180  1.00  0.00     0.031 C 
ATOM     52  C   UNL A   1      42.647  29.105  35.529  1.00  0.00     0.029 A 
ATOM     53  C   UNL A   1      42.580  28.710  34.203  1.00  0.00     0.049 A 
ATOM     54  H   UNL A   1      41.134  29.200  32.744  1.00  0.00     0.167 HD
ATOM     55  C   UNL A   1      43.335  27.509  32.168  1.00  0.00     0.074 A 
ATOM     56  C   UNL A   1      44.252  26.651  31.449  1.00  0.00     0.031 C 
ATOM     57  C   UNL A   1      43.487  27.857  33.472  1.00  0.00     0.034 A 
BRANCH  44  58
ATOM     58  C   UNL A   1      39.061  31.640  35.588  1.00  0.00     0.023 A 
ATOM     59  C   UNL A   1      38.393  31.058  36.678  1.00  0.00     0.031 A 
ATOM     60  C   UNL A   1      39.233  33.036  35.586  1.00  0.00     0.131 A 
ATOM     61  C   UNL A   1      37.879  31.875  37.698  1.00  0.00     0.055 A 
ATOM     62  C   UNL A   1      38.779  33.836  36.636  1.00  0.00     0.041 A 
ATOM     63  F   UNL A   1      39.845  33.647  34.559  1.00  0.00    -0.206 F 
ATOM     64  C   UNL A   1      38.089  33.256  37.696  1.00  0.00     0.022 A 
BRANCH  61  65
ATOM     65  S   UNL A   1      36.839  31.119  38.978  1.00  0.00     0.124 S 
ATOM     66  O   UNL A   1      35.656  31.975  38.941  1.00  0.00    -0.237 OA
ATOM     67  O   UNL A   1      36.661  29.760  38.479  1.00  0.00    -0.237 OA
ATOM     68  O   UNL A   1      37.647  31.237  40.191  1.00  0.00    -0.744 OA
ENDBRANCH  61  65
ENDBRANCH  44  58
BRANCH  45  69
ATOM     69  C   UNL A   1      42.443  26.565  27.638  1.00  0.00     0.023 A 
ATOM     70  C   UNL A   1      42.143  25.217  27.386  1.00  0.00     0.031 A 
ATOM     71  C   UNL A   1      43.359  27.206  26.784  1.00  0.00     0.131 A 
ATOM     72  C   UNL A   1      42.799  24.536  26.347  1.00  0.00     0.055 A 
ATOM     73  C   UNL A   1      43.963  26.541  25.716  1.00  0.00     0.041 A 
ATOM     74  F   UNL A   1      43.686  28.493  26.981  1.00  0.00    -0.206 F 
ATOM     75  C   UNL A   1      43.696  25.192  25.503  1.00  0.00     0.022 A 
BRANCH  72  76
ATOM     76  S   UNL A   1      42.551  22.746  26.189  1.00  0.00     0.124 S 
ATOM     77  O   UNL A   1      43.420  22.232  27.242  1.00  0.00    -0.237 OA
ATOM     78  O   UNL A   1      41.116  22.620  26.422  1.00  0.00    -0.237 OA
ATOM     79  O   UNL A   1      42.987  22.462  24.824  1.00  0.00    -0.744 OA
ENDBRANCH  72  76
ENDBRANCH  45  69
BRANCH  57  80
ATOM     80  C   UNL A   1      44.659  27.261  34.214  1.00  0.00     0.023 A 
ATOM     81  C   UNL A   1      44.564  26.027  34.882  1.00  0.00     0.031 A 
ATOM     82  C   UNL A   1      45.888  27.945  34.256  1.00  0.00     0.131 A 
ATOM     83  C   UNL A   1      45.661  25.543  35.611  1.00  0.00     0.055 A 
ATOM     84  C   UNL A   1      46.993  27.428  34.932  1.00  0.00     0.041 A 
ATOM     85  F   UNL A   1      46.034  29.126  33.635  1.00  0.00    -0.206 F 
ATOM     86  C   UNL A   1      46.880  26.226  35.626  1.00  0.00     0.022 A 
BRANCH  83  87
ATOM     87  S   UNL A   1      45.449  24.044  36.612  1.00  0.00     0.124 S 
ATOM     88  O   UNL A   1      44.924  24.585  37.861  1.00  0.00    -0.237 OA
ATOM     89  O   UNL A   1      44.511  23.264  35.811  1.00  0.00    -0.237 OA
ATOM     90  O   UNL A   1      46.800  23.492  36.695  1.00  0.00    -0.744 OA
ENDBRANCH  83  87
ENDBRANCH  57  80
ENDBRANCH  31  32
ENDBRANCH  24  26
ENDBRANCH  23  24
ENDBRANCH  22  23
ENDBRANCH   1  22
TORSDOF 19
ENDMDL
MODEL 3
REMARK VINA RESULT:      -9.8      1.825      2.329
REMARK SMILES COc1ccc2cc([C@@H](C)C(=O)OCCOCCOC(=O)c3ccc(-c4c5nc(c(-c6cc(S(=O)(=O)[O-])ccc6F)c6ccc([nH]6)c(-c6cc(S(=O)(=O)[O-])ccc6F)c6nc(c(-c7cc(S(=O)(=O)[O-])ccc7F)c7ccc4[nH]7)C=C6)C=C5)cc3)ccc2c1
REMARK SMILES IDX 17 1 16 2 15 3 14 4 13 5 11 6 12 7 9 8 10 9 8 10 3 11 4 12
REMARK SMILES IDX 88 13 5 14 87 15 6 16 86 17 7 18 85 19 2 20 1 21 18 22 19 23
REMARK SMILES IDX 20 24 21 25 22 26 23 27 84 28 24 29 83 30 25 31 26 32 27 33
REMARK SMILES IDX 77 34 28 35 82 36 76 37 78 38 29 39 81 40 75 41 74 42 30 44
REMARK SMILES IDX 62 45 42 46 61 47 43 48 46 49 60 50 79 51 44 52 45 53 59 55
REMARK SMILES IDX 80 56 47 57 31 58 32 59 40 60 33 61 39 62 41 63 38 64 34 65
REMARK SMILES IDX 35 66 36 67 37 68 63 69 64 70 72 71 65 72 71 73 73 74 70 75
REMARK SMILES IDX 66 76 67 77 68 78 69 79 48 80 49 81 57 82 50 83 56 84 58 85
REMARK SMILES IDX 55 86 51 87 52 88 53 89 54 90
REMARK H PARENT 78 43 46 54
REMARK Flexibility Score: inf
ROOT
ATOM      1  C   UNL A   1      33.779  34.360  28.439  1.00  0.00     0.202 C 
ENDROOT
BRANCH   1   2
ATOM      2  O   UNL A   1      32.669  34.940  29.125  1.00  0.00    -0.374 OA
BRANCH   2   3
ATOM      3  C   UNL A   1      32.911  36.129  29.878  1.00  0.00     0.202 C 
BRANCH   3   4
ATOM      4  C   UNL A   1      33.010  35.959  31.396  1.00  0.00     0.261 C 
BRANCH   4   5
ATOM      5  O   UNL A   1      33.560  34.677  31.752  1.00  0.00    -0.463 OA
BRANCH   5   6
ATOM      6  C   UNL A   1      34.813  34.691  32.270  1.00  0.00     0.313 C 
ATOM      7  O   UNL A   1      35.243  35.557  33.029  1.00  0.00    -0.252 OA
BRANCH   6   8
ATOM      8  C   UNL A   1      35.692  33.544  31.800  1.00  0.00     0.126 C 
ATOM      9  C   UNL A   1      35.701  32.449  32.864  1.00  0.00     0.025 C 
BRANCH   8  10
ATOM     10  C   UNL A   1      37.098  33.865  31.305  1.00  0.00    -0.033 A 
ATOM     11  C   UNL A   1      42.128  34.446  30.757  1.00  0.00     0.119 A 
ATOM     12  C   UNL A   1      41.865  34.639  32.110  1.00  0.00     0.047 A 
ATOM     13  C   UNL A   1      41.071  34.250  29.869  1.00  0.00     0.055 A 
ATOM     14  C   UNL A   1      40.549  34.573  32.582  1.00  0.00     0.012 A 
ATOM     15  C   UNL A   1      39.746  34.167  30.331  1.00  0.00    -0.015 A 
ATOM     16  C   UNL A   1      39.479  34.314  31.709  1.00  0.00    -0.018 A 
ATOM     17  C   UNL A   1      38.685  33.914  29.453  1.00  0.00     0.009 A 
ATOM     18  C   UNL A   1      38.157  34.172  32.177  1.00  0.00     0.013 A 
ATOM     19  C   UNL A   1      37.381  33.763  29.933  1.00  0.00     0.005 A 
BRANCH  11  20
ATOM     20  O   UNL A   1      43.378  34.477  30.199  1.00  0.00    -0.497 OA
ATOM     21  C   UNL A   1      43.390  34.316  28.782  1.00  0.00     0.278 C 
ENDBRANCH  11  20
ENDBRANCH   8  10
ENDBRANCH   6   8
ENDBRANCH   5   6
ENDBRANCH   4   5
ENDBRANCH   3   4
ENDBRANCH   2   3
ENDBRANCH   1   2
BRANCH   1  22
ATOM     22  C   UNL A   1      34.004  32.854  28.622  1.00  0.00     0.261 C 
BRANCH  22  23
ATOM     23  O   UNL A   1      34.347  32.189  27.394  1.00  0.00    -0.460 OA
BRANCH  23  24
ATOM     24  C   UNL A   1      34.477  30.845  27.495  1.00  0.00     0.338 C 
ATOM     25  O   UNL A   1      33.793  29.998  26.933  1.00  0.00    -0.246 OA
BRANCH  24  26
ATOM     26  C   UNL A   1      35.702  30.502  28.242  1.00  0.00     0.060 A 
ATOM     27  C   UNL A   1      36.928  30.865  27.670  1.00  0.00     0.016 A 
ATOM     28  C   UNL A   1      35.664  29.770  29.430  1.00  0.00     0.016 A 
ATOM     29  C   UNL A   1      38.123  30.451  28.256  1.00  0.00     0.010 A 
ATOM     30  C   UNL A   1      36.867  29.349  30.013  1.00  0.00     0.010 A 
ATOM     31  C   UNL A   1      38.100  29.657  29.410  1.00  0.00    -0.014 A 
BRANCH  31  32
ATOM     32  C   UNL A   1      39.360  29.027  29.883  1.00  0.00     0.031 A 
ATOM     33  C   UNL A   1      40.020  29.565  31.126  1.00  0.00     0.074 A 
ATOM     34  C   UNL A   1      39.884  27.964  29.244  1.00  0.00     0.049 A 
ATOM     35  N   UNL A   1      41.134  29.193  31.702  1.00  0.00    -0.248 NA
ATOM     36  C   UNL A   1      39.331  30.672  31.807  1.00  0.00     0.031 C 
ATOM     37  C   UNL A   1      39.306  27.321  28.064  1.00  0.00     0.029 A 
ATOM     38  N   UNL A   1      41.021  27.239  29.498  1.00  0.00    -0.354 N 
ATOM     39  C   UNL A   1      41.283  30.021  32.810  1.00  0.00     0.074 A 
ATOM     40  C   UNL A   1      40.160  30.935  32.805  1.00  0.00     0.031 C 
ATOM     41  C   UNL A   1      40.102  26.303  27.689  1.00  0.00     0.029 A 
ATOM     42  C   UNL A   1      41.261  26.245  28.576  1.00  0.00     0.049 A 
ATOM     43  H   UNL A   1      41.612  27.414  30.266  1.00  0.00     0.167 HD
ATOM     44  C   UNL A   1      42.263  30.015  33.746  1.00  0.00     0.034 A 
ATOM     45  C   UNL A   1      42.309  25.403  28.450  1.00  0.00     0.034 A 
ATOM     46  C   UNL A   1      43.376  29.098  33.741  1.00  0.00     0.049 A 
ATOM     47  C   UNL A   1      43.430  25.472  29.464  1.00  0.00     0.074 A 
ATOM     48  C   UNL A   1      44.411  28.995  34.654  1.00  0.00     0.029 A 
ATOM     49  N   UNL A   1      43.608  28.133  32.769  1.00  0.00    -0.354 N 
ATOM     50  N   UNL A   1      43.550  26.252  30.513  1.00  0.00    -0.248 NA
ATOM     51  C   UNL A   1      44.550  24.539  29.280  1.00  0.00     0.031 C 
ATOM     52  C   UNL A   1      45.302  28.018  34.199  1.00  0.00     0.029 A 
ATOM     53  C   UNL A   1      44.786  27.456  33.043  1.00  0.00     0.049 A 
ATOM     54  H   UNL A   1      43.021  27.956  31.999  1.00  0.00     0.167 HD
ATOM     55  C   UNL A   1      44.740  25.877  31.131  1.00  0.00     0.074 A 
ATOM     56  C   UNL A   1      45.292  24.793  30.347  1.00  0.00     0.031 C 
ATOM     57  C   UNL A   1      45.325  26.377  32.250  1.00  0.00     0.034 A 
BRANCH  44  58
ATOM     58  C   UNL A   1      42.204  31.067  34.826  1.00  0.00     0.023 A 
ATOM     59  C   UNL A   1      42.851  32.307  34.694  1.00  0.00     0.031 A 
ATOM     60  C   UNL A   1      41.481  30.822  36.008  1.00  0.00     0.131 A 
ATOM     61  C   UNL A   1      42.803  33.236  35.745  1.00  0.00     0.055 A 
ATOM     62  C   UNL A   1      41.380  31.776  37.022  1.00  0.00     0.041 A 
ATOM     63  F   UNL A   1      40.861  29.646  36.197  1.00  0.00    -0.206 F 
ATOM     64  C   UNL A   1      42.052  32.988  36.897  1.00  0.00     0.022 A 
BRANCH  61  65
ATOM     65  S   UNL A   1      43.822  34.732  35.633  1.00  0.00     0.124 S 
ATOM     66  O   UNL A   1      44.624  34.455  34.445  1.00  0.00    -0.237 OA
ATOM     67  O   UNL A   1      42.822  35.786  35.498  1.00  0.00    -0.237 OA
ATOM     68  O   UNL A   1      44.565  34.736  36.893  1.00  0.00    -0.744 OA
ENDBRANCH  61  65
ENDBRANCH  44  58
BRANCH  45  69
ATOM     69  C   UNL A   1      42.392  24.456  27.300  1.00  0.00     0.023 A 
ATOM     70  C   UNL A   1      41.750  23.208  27.337  1.00  0.00     0.031 A 
ATOM     71  C   UNL A   1      43.192  24.751  26.181  1.00  0.00     0.131 A 
ATOM     72  C   UNL A   1      41.968  22.278  26.306  1.00  0.00     0.055 A 
ATOM     73  C   UNL A   1      43.357  23.847  25.131  1.00  0.00     0.041 A 
ATOM     74  F   UNL A   1      43.833  25.929  26.095  1.00  0.00    -0.206 F 
ATOM     75  C   UNL A   1      42.756  22.594  25.198  1.00  0.00     0.022 A 
BRANCH  72  76
ATOM     76  S   UNL A   1      41.301  20.601  26.494  1.00  0.00     0.124 S 
ATOM     77  O   UNL A   1      42.073  19.861  25.502  1.00  0.00    -0.237 OA
ATOM     78  O   UNL A   1      41.607  20.311  27.892  1.00  0.00    -0.237 OA
ATOM     79  O   UNL A   1      39.882  20.764  26.188  1.00  0.00    -0.744 OA
ENDBRANCH  72  76
ENDBRANCH  45  69
BRANCH  57  80
ATOM     80  C   UNL A   1      46.598  25.715  32.719  1.00  0.00     0.023 A 
ATOM     81  C   UNL A   1      46.585  24.638  33.622  1.00  0.00     0.031 A 
ATOM     82  C   UNL A   1      47.844  26.177  32.256  1.00  0.00     0.131 A 
ATOM     83  C   UNL A   1      47.797  24.095  34.078  1.00  0.00     0.055 A 
ATOM     84  C   UNL A   1      49.043  25.593  32.667  1.00  0.00     0.041 A 
ATOM     85  F   UNL A   1      47.915  27.202  31.392  1.00  0.00    -0.206 F 
ATOM     86  C   UNL A   1      49.025  24.554  33.593  1.00  0.00     0.022 A 
BRANCH  83  87
ATOM     87  S   UNL A   1      47.751  22.833  35.381  1.00  0.00     0.124 S 
ATOM     88  O   UNL A   1      47.052  21.737  34.718  1.00  0.00    -0.237 OA
ATOM     89  O   UNL A   1      49.167  22.613  35.653  1.00  0.00    -0.237 OA
ATOM     90  O   UNL A   1      47.006  23.480  36.459  1.00  0.00    -0.744 OA
ENDBRANCH  83  87
ENDBRANCH  57  80
ENDBRANCH  31  32
ENDBRANCH  24  26
ENDBRANCH  23  24
ENDBRANCH  22  23
ENDBRANCH   1  22
TORSDOF 19
ENDMDL
