MODEL 1
REMARK VINA RESULT:     -12.2      0.000      0.000
REMARK SMILES O=C(OCCOCCOC(=O)c1cc(N2C(=O)[C@H]3[C@@H]4C=C[C@@H]([C@@H]5C[C@H]45)[C@@H]3C2=O)ccc1Cl)c1ccc(-c2c3nc(c(-c4cc(S(=O)(=O)[O-])ccc4F)c4ccc([nH]4)c(-c4cc(S(=O)(=O)[O-])ccc4F)c4nc(c(-c5cc(S(=O)(=O)[O-])ccc5F)c5ccc2[nH]5)C=C4)C=C3)cc1
REMARK SMILES IDX 5 1 4 2 3 3 2 4 1 5 33 6 34 7 95 8 35 9 94 10 36 11 37 12
REMARK SMILES IDX 38 13 88 14 39 15 93 16 87 17 89 18 40 19 92 20 86 21 85 22
REMARK SMILES IDX 41 24 73 25 53 26 72 27 54 28 57 29 71 30 90 31 55 32 56 33
REMARK SMILES IDX 70 35 91 36 58 37 42 38 43 39 51 40 44 41 50 42 52 43 49 44
REMARK SMILES IDX 45 45 46 46 47 47 48 48 74 49 75 50 83 51 76 52 82 53 84 54
REMARK SMILES IDX 81 55 77 56 78 57 79 58 80 59 59 60 60 61 68 62 61 63 67 64
REMARK SMILES IDX 69 65 66 66 62 67 63 68 64 69 65 70 6 71 7 72 8 73 9 74
REMARK SMILES IDX 10 75 11 76 12 77 13 78 31 79 14 80 30 81 32 82 29 83 15 84
REMARK SMILES IDX 16 85 27 86 17 87 18 88 26 89 28 90 19 91 22 92 20 93 25 94
REMARK SMILES IDX 21 95 23 96 24 97
REMARK H PARENT 89 23 57 34
REMARK Flexibility Score: inf
ROOT
ATOM      1  C   UNL A   1      31.783  30.897  26.862  1.00  0.00     0.202 C 
ENDROOT
BRANCH   1   2
ATOM      2  C   UNL A   1      31.375  32.357  26.639  1.00  0.00     0.261 C 
BRANCH   2   3
ATOM      3  O   UNL A   1      32.512  33.232  26.768  1.00  0.00    -0.460 OA
BRANCH   3   4
ATOM      4  C   UNL A   1      33.065  33.724  27.902  1.00  0.00     0.338 C 
ATOM      5  O   UNL A   1      32.543  34.702  28.437  1.00  0.00    -0.246 OA
BRANCH   4   6
ATOM      6  C   UNL A   1      34.293  33.151  28.532  1.00  0.00     0.060 A 
ATOM      7  C   UNL A   1      34.349  31.892  29.125  1.00  0.00     0.016 A 
ATOM      8  C   UNL A   1      35.488  33.886  28.442  1.00  0.00     0.016 A 
ATOM      9  C   UNL A   1      35.513  31.399  29.681  1.00  0.00     0.010 A 
ATOM     10  C   UNL A   1      36.690  33.369  28.944  1.00  0.00     0.010 A 
ATOM     11  C   UNL A   1      36.697  32.121  29.576  1.00  0.00    -0.014 A 
BRANCH  11  12
ATOM     12  C   UNL A   1      37.882  31.528  30.220  1.00  0.00     0.031 A 
ATOM     13  C   UNL A   1      38.132  31.824  31.665  1.00  0.00     0.074 A 
ATOM     14  C   UNL A   1      38.565  30.571  29.559  1.00  0.00     0.049 A 
ATOM     15  N   UNL A   1      39.068  31.369  32.451  1.00  0.00    -0.248 NA
ATOM     16  C   UNL A   1      37.181  32.737  32.319  1.00  0.00     0.031 C 
ATOM     17  C   UNL A   1      38.274  30.132  28.188  1.00  0.00     0.029 A 
ATOM     18  N   UNL A   1      39.589  29.756  29.954  1.00  0.00    -0.354 N 
ATOM     19  C   UNL A   1      38.826  31.943  33.692  1.00  0.00     0.074 A 
ATOM     20  C   UNL A   1      37.669  32.799  33.548  1.00  0.00     0.031 C 
ATOM     21  C   UNL A   1      39.072  29.099  27.878  1.00  0.00     0.029 A 
ATOM     22  C   UNL A   1      39.987  28.861  28.986  1.00  0.00     0.049 A 
ATOM     23  H   UNL A   1      40.002  29.803  30.847  1.00  0.00     0.167 HD
ATOM     24  C   UNL A   1      39.516  31.763  34.844  1.00  0.00     0.034 A 
ATOM     25  C   UNL A   1      41.005  27.979  28.989  1.00  0.00     0.034 A 
ATOM     26  C   UNL A   1      40.681  30.919  34.928  1.00  0.00     0.049 A 
ATOM     27  C   UNL A   1      41.836  27.897  30.246  1.00  0.00     0.074 A 
ATOM     28  C   UNL A   1      41.551  30.741  35.986  1.00  0.00     0.029 A 
ATOM     29  N   UNL A   1      41.136  30.102  33.896  1.00  0.00    -0.354 N 
ATOM     30  N   UNL A   1      41.668  28.529  31.388  1.00  0.00    -0.248 NA
ATOM     31  C   UNL A   1      42.990  26.995  30.218  1.00  0.00     0.031 C 
ATOM     32  C   UNL A   1      42.562  29.863  35.575  1.00  0.00     0.029 A 
ATOM     33  C   UNL A   1      42.283  29.433  34.286  1.00  0.00     0.049 A 
ATOM     34  H   UNL A   1      40.704  30.014  33.016  1.00  0.00     0.167 HD
ATOM     35  C   UNL A   1      42.695  28.093  32.217  1.00  0.00     0.074 A 
ATOM     36  C   UNL A   1      43.445  27.112  31.456  1.00  0.00     0.031 C 
ATOM     37  C   UNL A   1      43.006  28.472  33.484  1.00  0.00     0.034 A 
BRANCH  24  38
ATOM     38  C   UNL A   1      39.069  32.571  36.037  1.00  0.00     0.023 A 
ATOM     39  C   UNL A   1      39.518  33.888  36.250  1.00  0.00     0.031 A 
ATOM     40  C   UNL A   1      38.263  31.981  37.025  1.00  0.00     0.131 A 
ATOM     41  C   UNL A   1      39.219  34.541  37.457  1.00  0.00     0.055 A 
ATOM     42  C   UNL A   1      37.905  32.664  38.189  1.00  0.00     0.041 A 
ATOM     43  F   UNL A   1      37.835  30.716  36.892  1.00  0.00    -0.206 F 
ATOM     44  C   UNL A   1      38.397  33.946  38.418  1.00  0.00     0.022 A 
BRANCH  41  45
ATOM     45  S   UNL A   1      40.044  36.116  37.824  1.00  0.00     0.124 S 
ATOM     46  O   UNL A   1      40.030  36.767  36.515  1.00  0.00    -0.237 OA
ATOM     47  O   UNL A   1      39.175  36.702  38.837  1.00  0.00    -0.237 OA
ATOM     48  O   UNL A   1      41.366  35.709  38.294  1.00  0.00    -0.744 OA
ENDBRANCH  41  45
ENDBRANCH  24  38
BRANCH  25  49
ATOM     49  C   UNL A   1      41.356  27.198  27.764  1.00  0.00     0.023 A 
ATOM     50  C   UNL A   1      41.142  25.811  27.679  1.00  0.00     0.031 A 
ATOM     51  C   UNL A   1      41.994  27.823  26.673  1.00  0.00     0.131 A 
ATOM     52  C   UNL A   1      41.610  25.095  26.563  1.00  0.00     0.055 A 
ATOM     53  C   UNL A   1      42.394  27.119  25.538  1.00  0.00     0.041 A 
ATOM     54  F   UNL A   1      42.243  29.143  26.696  1.00  0.00    -0.206 F 
ATOM     55  C   UNL A   1      42.220  25.742  25.486  1.00  0.00     0.022 A 
BRANCH  52  56
ATOM     56  S   UNL A   1      41.532  23.281  26.594  1.00  0.00     0.124 S 
ATOM     57  O   UNL A   1      40.100  23.042  26.454  1.00  0.00    -0.237 OA
ATOM     58  O   UNL A   1      42.357  22.925  25.445  1.00  0.00    -0.237 OA
ATOM     59  O   UNL A   1      42.097  22.938  27.897  1.00  0.00    -0.744 OA
ENDBRANCH  52  56
ENDBRANCH  25  49
BRANCH  37  60
ATOM     60  C   UNL A   1      44.197  27.790  34.108  1.00  0.00     0.023 A 
ATOM     61  C   UNL A   1      44.057  26.595  34.835  1.00  0.00     0.031 A 
ATOM     62  C   UNL A   1      45.476  28.361  34.003  1.00  0.00     0.131 A 
ATOM     63  C   UNL A   1      45.166  26.049  35.493  1.00  0.00     0.055 A 
ATOM     64  C   UNL A   1      46.590  27.774  34.602  1.00  0.00     0.041 A 
ATOM     65  F   UNL A   1      45.662  29.504  33.322  1.00  0.00    -0.206 F 
ATOM     66  C   UNL A   1      46.436  26.620  35.366  1.00  0.00     0.022 A 
BRANCH  63  67
ATOM     67  S   UNL A   1      44.904  24.649  36.614  1.00  0.00     0.124 S 
ATOM     68  O   UNL A   1      46.271  24.304  36.993  1.00  0.00    -0.237 OA
ATOM     69  O   UNL A   1      44.082  25.242  37.665  1.00  0.00    -0.237 OA
ATOM     70  O   UNL A   1      44.222  23.664  35.778  1.00  0.00    -0.744 OA
ENDBRANCH  63  67
ENDBRANCH  37  60
ENDBRANCH  11  12
ENDBRANCH   4   6
ENDBRANCH   3   4
ENDBRANCH   2   3
ENDBRANCH   1   2
BRANCH   1  71
ATOM     71  O   UNL A   1      32.355  30.244  25.727  1.00  0.00    -0.374 OA
BRANCH  71  72
ATOM     72  C   UNL A   1      33.164  29.097  26.012  1.00  0.00     0.202 C 
BRANCH  72  73
ATOM     73  C   UNL A   1      34.057  28.797  24.808  1.00  0.00     0.261 C 
BRANCH  73  74
ATOM     74  O   UNL A   1      33.405  29.328  23.645  1.00  0.00    -0.460 OA
BRANCH  74  75
ATOM     75  C   UNL A   1      33.262  28.463  22.611  1.00  0.00     0.339 C 
ATOM     76  O   UNL A   1      34.024  28.271  21.679  1.00  0.00    -0.246 OA
BRANCH  75  77
ATOM     77  C   UNL A   1      32.126  27.583  22.925  1.00  0.00     0.080 A 
ATOM     78  C   UNL A   1      32.434  26.305  23.436  1.00  0.00     0.044 A 
ATOM     79  C   UNL A   1      30.797  28.006  22.815  1.00  0.00     0.055 A 
ATOM     80  C   UNL A   1      31.407  25.470  23.862  1.00  0.00     0.053 A 
ATOM     81  C   UNL A   1      29.773  27.161  23.240  1.00  0.00     0.023 A 
ATOM     82  Cl  UNL A   1      30.334  29.530  22.146  1.00  0.00    -0.083 Cl
ATOM     83  C   UNL A   1      30.076  25.903  23.760  1.00  0.00     0.028 A 
BRANCH  80  84
ATOM     84  N   UNL A   1      31.666  24.238  24.502  1.00  0.00    -0.250 N 
ATOM     85  C   UNL A   1      32.278  23.185  23.785  1.00  0.00     0.238 C 
ATOM     86  C   UNL A   1      32.035  24.215  25.865  1.00  0.00     0.238 C 
ATOM     87  O   UNL A   1      32.428  23.054  22.583  1.00  0.00    -0.274 OA
ATOM     88  C   UNL A   1      32.778  22.263  24.856  1.00  0.00     0.100 C 
ATOM     89  C   UNL A   1      33.232  23.333  25.851  1.00  0.00     0.100 C 
ATOM     90  O   UNL A   1      31.676  24.934  26.778  1.00  0.00    -0.274 OA
ATOM     91  C   UNL A   1      33.837  21.144  24.815  1.00  0.00     0.028 C 
ATOM     92  C   UNL A   1      34.147  22.716  26.897  1.00  0.00     0.028 C 
ATOM     93  C   UNL A   1      33.560  20.467  26.182  1.00  0.00    -0.026 C 
ATOM     94  C   UNL A   1      35.307  21.601  24.919  1.00  0.00     0.001 C 
ATOM     95  C   UNL A   1      33.666  21.300  27.243  1.00  0.00    -0.026 C 
ATOM     96  C   UNL A   1      35.511  22.516  26.139  1.00  0.00     0.001 C 
ATOM     97  C   UNL A   1      35.867  22.978  24.724  1.00  0.00     0.009 C 
ENDBRANCH  80  84
ENDBRANCH  75  77
ENDBRANCH  74  75
ENDBRANCH  73  74
ENDBRANCH  72  73
ENDBRANCH  71  72
ENDBRANCH   1  71
TORSDOF 18
ENDMDL
MODEL 2
REMARK VINA RESULT:     -12.2      1.389      1.680
REMARK SMILES O=C(OCCOCCOC(=O)c1cc(N2C(=O)[C@H]3[C@@H]4C=C[C@@H]([C@@H]5C[C@H]45)[C@@H]3C2=O)ccc1Cl)c1ccc(-c2c3nc(c(-c4cc(S(=O)(=O)[O-])ccc4F)c4ccc([nH]4)c(-c4cc(S(=O)(=O)[O-])ccc4F)c4nc(c(-c5cc(S(=O)(=O)[O-])ccc5F)c5ccc2[nH]5)C=C4)C=C3)cc1
REMARK SMILES IDX 5 1 4 2 3 3 2 4 1 5 33 6 34 7 95 8 35 9 94 10 36 11 37 12
REMARK SMILES IDX 38 13 88 14 39 15 93 16 87 17 89 18 40 19 92 20 86 21 85 22
REMARK SMILES IDX 41 24 73 25 53 26 72 27 54 28 57 29 71 30 90 31 55 32 56 33
REMARK SMILES IDX 70 35 91 36 58 37 42 38 43 39 51 40 44 41 50 42 52 43 49 44
REMARK SMILES IDX 45 45 46 46 47 47 48 48 74 49 75 50 83 51 76 52 82 53 84 54
REMARK SMILES IDX 81 55 77 56 78 57 79 58 80 59 59 60 60 61 68 62 61 63 67 64
REMARK SMILES IDX 69 65 66 66 62 67 63 68 64 69 65 70 6 71 7 72 8 73 9 74
REMARK SMILES IDX 10 75 11 76 12 77 13 78 31 79 14 80 30 81 32 82 29 83 15 84
REMARK SMILES IDX 16 85 27 86 17 87 18 88 26 89 28 90 19 91 22 92 20 93 25 94
REMARK SMILES IDX 21 95 23 96 24 97
REMARK H PARENT 89 23 57 34
REMARK Flexibility Score: inf
ROOT
ATOM      1  C   UNL A   1      33.050  31.673  26.912  1.00  0.00     0.202 C 
ENDROOT
BRANCH   1   2
ATOM      2  C   UNL A   1      31.988  32.723  27.256  1.00  0.00     0.261 C 
BRANCH   2   3
ATOM      3  O   UNL A   1      32.603  33.983  27.589  1.00  0.00    -0.460 OA
BRANCH   3   4
ATOM      4  C   UNL A   1      33.185  34.347  28.756  1.00  0.00     0.338 C 
ATOM      5  O   UNL A   1      32.688  35.271  29.400  1.00  0.00    -0.246 OA
BRANCH   4   6
ATOM      6  C   UNL A   1      34.416  33.696  29.298  1.00  0.00     0.060 A 
ATOM      7  C   UNL A   1      34.404  32.580  30.131  1.00  0.00     0.016 A 
ATOM      8  C   UNL A   1      35.664  34.181  28.872  1.00  0.00     0.016 A 
ATOM      9  C   UNL A   1      35.570  32.003  30.595  1.00  0.00     0.010 A 
ATOM     10  C   UNL A   1      36.854  33.565  29.282  1.00  0.00     0.010 A 
ATOM     11  C   UNL A   1      36.803  32.475  30.158  1.00  0.00    -0.014 A 
BRANCH  11  12
ATOM     12  C   UNL A   1      37.992  31.814  30.725  1.00  0.00     0.031 A 
ATOM     13  C   UNL A   1      38.345  32.084  32.153  1.00  0.00     0.074 A 
ATOM     14  C   UNL A   1      38.582  30.830  30.017  1.00  0.00     0.049 A 
ATOM     15  N   UNL A   1      39.302  31.574  32.877  1.00  0.00    -0.248 NA
ATOM     16  C   UNL A   1      37.486  33.040  32.870  1.00  0.00     0.031 C 
ATOM     17  C   UNL A   1      38.185  30.418  28.664  1.00  0.00     0.029 A 
ATOM     18  N   UNL A   1      39.583  29.958  30.344  1.00  0.00    -0.354 N 
ATOM     19  C   UNL A   1      39.167  32.148  34.134  1.00  0.00     0.074 A 
ATOM     20  C   UNL A   1      38.050  33.065  34.067  1.00  0.00     0.031 C 
ATOM     21  C   UNL A   1      38.907  29.348  28.300  1.00  0.00     0.029 A 
ATOM     22  C   UNL A   1      39.874  29.053  29.347  1.00  0.00     0.049 A 
ATOM     23  H   UNL A   1      40.052  29.976  31.210  1.00  0.00     0.167 HD
ATOM     24  C   UNL A   1      39.915  31.921  35.241  1.00  0.00     0.034 A 
ATOM     25  C   UNL A   1      40.843  28.118  29.284  1.00  0.00     0.034 A 
ATOM     26  C   UNL A   1      41.036  31.017  35.249  1.00  0.00     0.049 A 
ATOM     27  C   UNL A   1      41.742  27.981  30.486  1.00  0.00     0.074 A 
ATOM     28  C   UNL A   1      41.959  30.784  36.250  1.00  0.00     0.029 A 
ATOM     29  N   UNL A   1      41.384  30.186  34.186  1.00  0.00    -0.354 N 
ATOM     30  N   UNL A   1      41.678  28.611  31.641  1.00  0.00    -0.248 NA
ATOM     31  C   UNL A   1      42.844  27.020  30.382  1.00  0.00     0.031 C 
ATOM     32  C   UNL A   1      42.895  29.858  35.772  1.00  0.00     0.029 A 
ATOM     33  C   UNL A   1      42.516  29.455  34.500  1.00  0.00     0.049 A 
ATOM     34  H   UNL A   1      40.895  30.129  33.333  1.00  0.00     0.167 HD
ATOM     35  C   UNL A   1      42.729  28.114  32.402  1.00  0.00     0.074 A 
ATOM     36  C   UNL A   1      43.378  27.102  31.591  1.00  0.00     0.031 C 
ATOM     37  C   UNL A   1      43.137  28.465  33.650  1.00  0.00     0.034 A 
BRANCH  24  38
ATOM     38  C   UNL A   1      39.585  32.741  36.463  1.00  0.00     0.023 A 
ATOM     39  C   UNL A   1      38.736  32.255  37.475  1.00  0.00     0.031 A 
ATOM     40  C   UNL A   1      40.048  34.063  36.570  1.00  0.00     0.131 A 
ATOM     41  C   UNL A   1      38.316  33.112  38.506  1.00  0.00     0.055 A 
ATOM     42  C   UNL A   1      39.689  34.886  37.640  1.00  0.00     0.041 A 
ATOM     43  F   UNL A   1      40.832  34.591  35.617  1.00  0.00    -0.206 F 
ATOM     44  C   UNL A   1      38.805  34.417  38.607  1.00  0.00     0.022 A 
BRANCH  41  45
ATOM     45  S   UNL A   1      37.004  32.548  39.627  1.00  0.00     0.124 S 
ATOM     46  O   UNL A   1      35.815  32.703  38.791  1.00  0.00    -0.237 OA
ATOM     47  O   UNL A   1      37.404  31.177  39.921  1.00  0.00    -0.237 OA
ATOM     48  O   UNL A   1      37.092  33.478  40.751  1.00  0.00    -0.744 OA
ENDBRANCH  41  45
ENDBRANCH  24  38
BRANCH  25  49
ATOM     49  C   UNL A   1      41.076  27.331  28.034  1.00  0.00     0.023 A 
ATOM     50  C   UNL A   1      40.778  25.960  27.952  1.00  0.00     0.031 A 
ATOM     51  C   UNL A   1      41.685  27.930  26.913  1.00  0.00     0.131 A 
ATOM     52  C   UNL A   1      41.138  25.229  26.806  1.00  0.00     0.055 A 
ATOM     53  C   UNL A   1      41.977  27.215  25.751  1.00  0.00     0.041 A 
ATOM     54  F   UNL A   1      42.011  29.232  26.930  1.00  0.00    -0.206 F 
ATOM     55  C   UNL A   1      41.721  25.852  25.700  1.00  0.00     0.022 A 
BRANCH  52  56
ATOM     56  S   UNL A   1      40.957  23.423  26.828  1.00  0.00     0.124 S 
ATOM     57  O   UNL A   1      41.341  23.102  28.198  1.00  0.00    -0.237 OA
ATOM     58  O   UNL A   1      39.545  23.257  26.503  1.00  0.00    -0.237 OA
ATOM     59  O   UNL A   1      41.891  22.974  25.798  1.00  0.00    -0.744 OA
ENDBRANCH  52  56
ENDBRANCH  25  49
BRANCH  37  60
ATOM     60  C   UNL A   1      44.326  27.716  34.195  1.00  0.00     0.023 A 
ATOM     61  C   UNL A   1      44.177  26.466  34.822  1.00  0.00     0.031 A 
ATOM     62  C   UNL A   1      45.612  28.275  34.119  1.00  0.00     0.131 A 
ATOM     63  C   UNL A   1      45.288  25.850  35.414  1.00  0.00     0.055 A 
ATOM     64  C   UNL A   1      46.725  27.624  34.648  1.00  0.00     0.041 A 
ATOM     65  F   UNL A   1      45.806  29.468  33.533  1.00  0.00    -0.206 F 
ATOM     66  C   UNL A   1      46.564  26.412  35.315  1.00  0.00     0.022 A 
BRANCH  63  67
ATOM     67  S   UNL A   1      45.019  24.365  36.418  1.00  0.00     0.124 S 
ATOM     68  O   UNL A   1      43.770  23.849  35.867  1.00  0.00    -0.237 OA
ATOM     69  O   UNL A   1      46.214  23.577  36.134  1.00  0.00    -0.237 OA
ATOM     70  O   UNL A   1      44.929  24.885  37.781  1.00  0.00    -0.744 OA
ENDBRANCH  63  67
ENDBRANCH  37  60
ENDBRANCH  11  12
ENDBRANCH   4   6
ENDBRANCH   3   4
ENDBRANCH   2   3
ENDBRANCH   1   2
BRANCH   1  71
ATOM     71  O   UNL A   1      32.940  30.439  27.626  1.00  0.00    -0.374 OA
BRANCH  71  72
ATOM     72  C   UNL A   1      32.644  29.285  26.830  1.00  0.00     0.202 C 
BRANCH  72  73
ATOM     73  C   UNL A   1      33.140  29.515  25.403  1.00  0.00     0.261 C 
BRANCH  73  74
ATOM     74  O   UNL A   1      31.985  29.615  24.556  1.00  0.00    -0.460 OA
BRANCH  74  75
ATOM     75  C   UNL A   1      32.017  28.856  23.433  1.00  0.00     0.339 C 
ATOM     76  O   UNL A   1      32.795  28.929  22.498  1.00  0.00    -0.246 OA
BRANCH  75  77
ATOM     77  C   UNL A   1      31.092  27.730  23.635  1.00  0.00     0.080 A 
ATOM     78  C   UNL A   1      31.664  26.495  24.001  1.00  0.00     0.044 A 
ATOM     79  C   UNL A   1      29.703  27.878  23.558  1.00  0.00     0.055 A 
ATOM     80  C   UNL A   1      30.838  25.422  24.319  1.00  0.00     0.053 A 
ATOM     81  C   UNL A   1      28.881  26.797  23.875  1.00  0.00     0.023 A 
ATOM     82  Cl  UNL A   1      28.925  29.339  23.061  1.00  0.00    -0.083 Cl
ATOM     83  C   UNL A   1      29.445  25.579  24.253  1.00  0.00     0.028 A 
BRANCH  80  84
ATOM     84  N   UNL A   1      31.355  24.207  24.819  1.00  0.00    -0.250 N 
ATOM     85  C   UNL A   1      32.090  23.350  23.970  1.00  0.00     0.238 C 
ATOM     86  C   UNL A   1      31.817  24.132  26.152  1.00  0.00     0.238 C 
ATOM     87  O   UNL A   1      32.175  23.355  22.755  1.00  0.00    -0.274 OA
ATOM     88  C   UNL A   1      32.820  22.444  24.916  1.00  0.00     0.100 C 
ATOM     89  C   UNL A   1      33.147  23.487  25.986  1.00  0.00     0.100 C 
ATOM     90  O   UNL A   1      31.403  24.691  27.150  1.00  0.00    -0.274 OA
ATOM     91  C   UNL A   1      34.053  21.545  24.707  1.00  0.00     0.028 C 
ATOM     92  C   UNL A   1      34.228  22.957  26.915  1.00  0.00     0.028 C 
ATOM     93  C   UNL A   1      33.998  20.711  26.014  1.00  0.00    -0.026 C 
ATOM     94  C   UNL A   1      35.423  22.251  24.777  1.00  0.00     0.001 C 
ATOM     95  C   UNL A   1      34.030  21.453  27.144  1.00  0.00    -0.026 C 
ATOM     96  C   UNL A   1      35.549  23.077  26.068  1.00  0.00     0.001 C 
ATOM     97  C   UNL A   1      35.717  23.718  24.689  1.00  0.00     0.009 C 
ENDBRANCH  80  84
ENDBRANCH  75  77
ENDBRANCH  74  75
ENDBRANCH  73  74
ENDBRANCH  72  73
ENDBRANCH  71  72
ENDBRANCH   1  71
TORSDOF 18
ENDMDL
MODEL 3
REMARK VINA RESULT:     -11.8      2.042      7.608
REMARK SMILES O=C(OCCOCCOC(=O)c1cc(N2C(=O)[C@H]3[C@@H]4C=C[C@@H]([C@@H]5C[C@H]45)[C@@H]3C2=O)ccc1Cl)c1ccc(-c2c3nc(c(-c4cc(S(=O)(=O)[O-])ccc4F)c4ccc([nH]4)c(-c4cc(S(=O)(=O)[O-])ccc4F)c4nc(c(-c5cc(S(=O)(=O)[O-])ccc5F)c5ccc2[nH]5)C=C4)C=C3)cc1
REMARK SMILES IDX 5 1 4 2 3 3 2 4 1 5 33 6 34 7 95 8 35 9 94 10 36 11 37 12
REMARK SMILES IDX 38 13 88 14 39 15 93 16 87 17 89 18 40 19 92 20 86 21 85 22
REMARK SMILES IDX 41 24 73 25 53 26 72 27 54 28 57 29 71 30 90 31 55 32 56 33
REMARK SMILES IDX 70 35 91 36 58 37 42 38 43 39 51 40 44 41 50 42 52 43 49 44
REMARK SMILES IDX 45 45 46 46 47 47 48 48 74 49 75 50 83 51 76 52 82 53 84 54
REMARK SMILES IDX 81 55 77 56 78 57 79 58 80 59 59 60 60 61 68 62 61 63 67 64
REMARK SMILES IDX 69 65 66 66 62 67 63 68 64 69 65 70 6 71 7 72 8 73 9 74
REMARK SMILES IDX 10 75 11 76 12 77 13 78 31 79 14 80 30 81 32 82 29 83 15 84
REMARK SMILES IDX 16 85 27 86 17 87 18 88 26 89 28 90 19 91 22 92 20 93 25 94
REMARK SMILES IDX 21 95 23 96 24 97
REMARK H PARENT 89 23 57 34
REMARK Flexibility Score: inf
ROOT
ATOM      1  C   UNL A   1      33.022  31.535  26.894  1.00  0.00     0.202 C 
ENDROOT
BRANCH   1   2
ATOM      2  C   UNL A   1      32.031  32.578  27.423  1.00  0.00     0.261 C 
BRANCH   2   3
ATOM      3  O   UNL A   1      32.682  33.849  27.617  1.00  0.00    -0.460 OA
BRANCH   3   4
ATOM      4  C   UNL A   1      33.201  34.356  28.761  1.00  0.00     0.338 C 
ATOM      5  O   UNL A   1      32.718  35.390  29.220  1.00  0.00    -0.246 OA
BRANCH   4   6
ATOM      6  C   UNL A   1      34.350  33.734  29.488  1.00  0.00     0.060 A 
ATOM      7  C   UNL A   1      34.214  32.727  30.440  1.00  0.00     0.016 A 
ATOM      8  C   UNL A   1      35.650  34.122  29.126  1.00  0.00     0.016 A 
ATOM      9  C   UNL A   1      35.308  32.172  31.075  1.00  0.00     0.010 A 
ATOM     10  C   UNL A   1      36.771  33.520  29.715  1.00  0.00     0.010 A 
ATOM     11  C   UNL A   1      36.594  32.546  30.703  1.00  0.00    -0.014 A 
BRANCH  11  12
ATOM     12  C   UNL A   1      37.698  31.919  31.451  1.00  0.00     0.031 A 
ATOM     13  C   UNL A   1      38.467  30.814  30.798  1.00  0.00     0.074 A 
ATOM     14  C   UNL A   1      38.118  32.505  32.591  1.00  0.00     0.049 A 
ATOM     15  N   UNL A   1      39.507  30.161  31.236  1.00  0.00    -0.248 NA
ATOM     16  C   UNL A   1      38.016  30.408  29.457  1.00  0.00     0.031 C 
ATOM     17  C   UNL A   1      37.494  33.683  33.206  1.00  0.00     0.029 A 
ATOM     18  N   UNL A   1      39.190  32.243  33.399  1.00  0.00    -0.354 N 
ATOM     19  C   UNL A   1      39.836  29.263  30.230  1.00  0.00     0.074 A 
ATOM     20  C   UNL A   1      38.868  29.437  29.169  1.00  0.00     0.031 C 
ATOM     21  C   UNL A   1      38.222  34.064  34.266  1.00  0.00     0.029 A 
ATOM     22  C   UNL A   1      39.306  33.112  34.461  1.00  0.00     0.049 A 
ATOM     23  H   UNL A   1      39.820  31.503  33.236  1.00  0.00     0.167 HD
ATOM     24  C   UNL A   1      40.859  28.375  30.205  1.00  0.00     0.034 A 
ATOM     25  C   UNL A   1      40.173  33.106  35.492  1.00  0.00     0.034 A 
ATOM     26  C   UNL A   1      41.781  28.220  31.301  1.00  0.00     0.049 A 
ATOM     27  C   UNL A   1      41.222  32.022  35.500  1.00  0.00     0.074 A 
ATOM     28  C   UNL A   1      42.779  27.281  31.472  1.00  0.00     0.029 A 
ATOM     29  N   UNL A   1      41.811  29.043  32.425  1.00  0.00    -0.354 N 
ATOM     30  N   UNL A   1      41.459  31.098  34.593  1.00  0.00    -0.248 NA
ATOM     31  C   UNL A   1      42.112  31.970  36.663  1.00  0.00     0.031 C 
ATOM     32  C   UNL A   1      43.374  27.501  32.721  1.00  0.00     0.029 A 
ATOM     33  C   UNL A   1      42.798  28.623  33.299  1.00  0.00     0.049 A 
ATOM     34  H   UNL A   1      41.215  29.812  32.575  1.00  0.00     0.167 HD
ATOM     35  C   UNL A   1      42.533  30.360  35.076  1.00  0.00     0.074 A 
ATOM     36  C   UNL A   1      42.922  30.978  36.329  1.00  0.00     0.031 C 
ATOM     37  C   UNL A   1      43.140  29.264  34.548  1.00  0.00     0.034 A 
BRANCH  24  38
ATOM     38  C   UNL A   1      40.940  27.466  29.004  1.00  0.00     0.023 A 
ATOM     39  C   UNL A   1      41.881  27.676  27.978  1.00  0.00     0.031 A 
ATOM     40  C   UNL A   1      40.000  26.437  28.834  1.00  0.00     0.131 A 
ATOM     41  C   UNL A   1      41.810  26.917  26.798  1.00  0.00     0.055 A 
ATOM     42  C   UNL A   1      39.983  25.633  27.692  1.00  0.00     0.041 A 
ATOM     43  F   UNL A   1      39.057  26.213  29.763  1.00  0.00    -0.206 F 
ATOM     44  C   UNL A   1      40.881  25.882  26.659  1.00  0.00     0.022 A 
BRANCH  41  45
ATOM     45  S   UNL A   1      42.846  27.399  25.387  1.00  0.00     0.124 S 
ATOM     46  O   UNL A   1      42.848  26.173  24.591  1.00  0.00    -0.237 OA
ATOM     47  O   UNL A   1      42.111  28.524  24.823  1.00  0.00    -0.237 OA
ATOM     48  O   UNL A   1      44.128  27.735  26.003  1.00  0.00    -0.744 OA
ENDBRANCH  41  45
ENDBRANCH  24  38
BRANCH  25  49
ATOM     49  C   UNL A   1      40.030  34.069  36.628  1.00  0.00     0.023 A 
ATOM     50  C   UNL A   1      39.536  33.671  37.882  1.00  0.00     0.031 A 
ATOM     51  C   UNL A   1      40.312  35.438  36.446  1.00  0.00     0.131 A 
ATOM     52  C   UNL A   1      39.290  34.632  38.878  1.00  0.00     0.055 A 
ATOM     53  C   UNL A   1      40.132  36.378  37.461  1.00  0.00     0.041 A 
ATOM     54  F   UNL A   1      40.772  35.888  35.268  1.00  0.00    -0.206 F 
ATOM     55  C   UNL A   1      39.600  35.980  38.680  1.00  0.00     0.022 A 
BRANCH  52  56
ATOM     56  S   UNL A   1      38.432  34.121  40.394  1.00  0.00     0.124 S 
ATOM     57  O   UNL A   1      37.306  33.366  39.858  1.00  0.00    -0.237 OA
ATOM     58  O   UNL A   1      39.461  33.342  41.074  1.00  0.00    -0.237 OA
ATOM     59  O   UNL A   1      38.086  35.388  41.033  1.00  0.00    -0.744 OA
ENDBRANCH  52  56
ENDBRANCH  25  49
BRANCH  37  60
ATOM     60  C   UNL A   1      44.296  28.702  35.334  1.00  0.00     0.023 A 
ATOM     61  C   UNL A   1      44.115  27.654  36.253  1.00  0.00     0.031 A 
ATOM     62  C   UNL A   1      45.583  29.244  35.187  1.00  0.00     0.131 A 
ATOM     63  C   UNL A   1      45.190  27.231  37.045  1.00  0.00     0.055 A 
ATOM     64  C   UNL A   1      46.665  28.771  35.928  1.00  0.00     0.041 A 
ATOM     65  F   UNL A   1      45.808  30.248  34.324  1.00  0.00    -0.206 F 
ATOM     66  C   UNL A   1      46.468  27.770  36.876  1.00  0.00     0.022 A 
BRANCH  63  67
ATOM     67  S   UNL A   1      44.867  26.051  38.383  1.00  0.00     0.124 S 
ATOM     68  O   UNL A   1      44.524  24.841  37.643  1.00  0.00    -0.237 OA
ATOM     69  O   UNL A   1      46.143  26.026  39.091  1.00  0.00    -0.237 OA
ATOM     70  O   UNL A   1      43.763  26.663  39.119  1.00  0.00    -0.744 OA
ENDBRANCH  63  67
ENDBRANCH  37  60
ENDBRANCH  11  12
ENDBRANCH   4   6
ENDBRANCH   3   4
ENDBRANCH   2   3
ENDBRANCH   1   2
BRANCH   1  71
ATOM     71  O   UNL A   1      32.769  30.190  27.308  1.00  0.00    -0.374 OA
BRANCH  71  72
ATOM     72  C   UNL A   1      31.754  29.494  26.575  1.00  0.00     0.202 C 
BRANCH  72  73
ATOM     73  C   UNL A   1      31.937  29.761  25.081  1.00  0.00     0.261 C 
BRANCH  73  74
ATOM     74  O   UNL A   1      30.635  29.741  24.477  1.00  0.00    -0.460 OA
BRANCH  74  75
ATOM     75  C   UNL A   1      30.573  29.178  23.245  1.00  0.00     0.339 C 
ATOM     76  O   UNL A   1      30.596  29.734  22.161  1.00  0.00    -0.246 OA
BRANCH  75  77
ATOM     77  C   UNL A   1      30.728  27.725  23.415  1.00  0.00     0.080 A 
ATOM     78  C   UNL A   1      32.045  27.221  23.413  1.00  0.00     0.044 A 
ATOM     79  C   UNL A   1      29.641  26.878  23.658  1.00  0.00     0.055 A 
ATOM     80  C   UNL A   1      32.266  25.875  23.685  1.00  0.00     0.053 A 
ATOM     81  C   UNL A   1      29.871  25.530  23.926  1.00  0.00     0.023 A 
ATOM     82  Cl  UNL A   1      27.996  27.404  23.620  1.00  0.00    -0.083 Cl
ATOM     83  C   UNL A   1      31.174  25.032  23.939  1.00  0.00     0.028 A 
BRANCH  80  84
ATOM     84  N   UNL A   1      33.569  25.349  23.826  1.00  0.00    -0.250 N 
ATOM     85  C   UNL A   1      34.180  25.309  25.099  1.00  0.00     0.238 C 
ATOM     86  C   UNL A   1      33.982  24.263  23.022  1.00  0.00     0.238 C 
ATOM     87  O   UNL A   1      33.864  25.885  26.125  1.00  0.00    -0.274 OA
ATOM     88  C   UNL A   1      35.297  24.323  24.932  1.00  0.00     0.100 C 
ATOM     89  C   UNL A   1      34.563  23.333  24.027  1.00  0.00     0.100 C 
ATOM     90  O   UNL A   1      33.697  23.998  21.869  1.00  0.00    -0.274 OA
ATOM     91  C   UNL A   1      36.114  23.532  25.972  1.00  0.00     0.028 C 
ATOM     92  C   UNL A   1      35.313  22.011  23.986  1.00  0.00     0.028 C 
ATOM     93  C   UNL A   1      37.254  23.000  25.065  1.00  0.00    -0.026 C 
ATOM     94  C   UNL A   1      35.449  22.252  26.520  1.00  0.00     0.001 C 
ATOM     95  C   UNL A   1      36.826  22.265  24.013  1.00  0.00    -0.026 C 
ATOM     96  C   UNL A   1      34.981  21.343  25.372  1.00  0.00     0.001 C 
ATOM     97  C   UNL A   1      34.007  21.848  26.440  1.00  0.00     0.009 C 
ENDBRANCH  80  84
ENDBRANCH  75  77
ENDBRANCH  74  75
ENDBRANCH  73  74
ENDBRANCH  72  73
ENDBRANCH  71  72
ENDBRANCH   1  71
TORSDOF 18
ENDMDL
