MODEL 1
REMARK VINA RESULT:     -11.8      0.000      0.000
REMARK SMILES COc1cc([C@H]2CC(c3ccc(S(C)(=O)=O)cc3)=NN2c2ccc(C(=O)OCCOCCOC(=O)c3ccc(-c4c5nc(c(-c6cc(S(=O)(=O)[O-])ccc6F)c6ccc([nH]6)c(-c6cc(S(=O)(=O)[O-])ccc6F)c6nc(c(-c7cc(S(=O)(=O)[O-])ccc7F)c7ccc4[nH]7)C=C6)C=C5)cc3)cc2)cc(OC)c1OC
REMARK SMILES IDX 30 1 29 2 28 3 27 4 25 5 26 6 24 7 21 8 22 9 100 10 23 11
REMARK SMILES IDX 99 12 20 13 6 14 7 15 8 16 19 17 5 18 3 19 4 20 105 21
REMARK SMILES IDX 102 22 101 23 2 24 1 25 106 26 107 27 103 28 104 29 9 30
REMARK SMILES IDX 10 31 18 32 11 33 17 34 12 35 13 36 14 37 15 38 16 39 31 40
REMARK SMILES IDX 32 41 33 42 34 43 35 44 36 45 37 46 98 47 38 48 97 49 39 50
REMARK SMILES IDX 40 51 41 52 91 53 42 54 96 55 90 56 92 57 43 58 95 59 89 60
REMARK SMILES IDX 88 61 44 63 76 64 56 65 75 66 57 67 60 68 74 69 93 70 58 71
REMARK SMILES IDX 59 72 73 74 94 75 61 76 45 77 46 78 54 79 47 80 53 81 55 82
REMARK SMILES IDX 52 83 48 84 49 85 50 86 51 87 77 88 78 89 86 90 79 91 85 92
REMARK SMILES IDX 87 93 84 94 80 95 81 96 82 97 83 98 62 99 63 100 71 101
REMARK SMILES IDX 64 102 70 103 72 104 69 105 65 106 66 107 67 108 68 109
REMARK H PARENT 92 62 60 73
REMARK Flexibility Score: inf
ROOT
ATOM      1  O   UNL A   1      42.507  21.950  26.566  1.00  0.00    -0.374 OA
ENDROOT
BRANCH   1   2
ATOM      2  C   UNL A   1      41.152  21.922  26.116  1.00  0.00     0.202 C 
BRANCH   2   3
ATOM      3  C   UNL A   1      40.112  22.417  27.125  1.00  0.00     0.261 C 
BRANCH   3   4
ATOM      4  O   UNL A   1      38.966  22.974  26.460  1.00  0.00    -0.460 OA
BRANCH   4   5
ATOM      5  C   UNL A   1      38.207  22.077  25.786  1.00  0.00     0.338 C 
ATOM      6  O   UNL A   1      38.233  20.862  25.893  1.00  0.00    -0.246 OA
BRANCH   5   7
ATOM      7  C   UNL A   1      37.194  22.781  24.968  1.00  0.00     0.060 A 
ATOM      8  C   UNL A   1      35.097  24.034  23.585  1.00  0.00     0.060 A 
ATOM      9  C   UNL A   1      35.351  24.344  24.926  1.00  0.00     0.029 A 
ATOM     10  C   UNL A   1      35.972  23.157  22.923  1.00  0.00     0.029 A 
ATOM     11  C   UNL A   1      36.372  23.703  25.624  1.00  0.00     0.018 A 
ATOM     12  C   UNL A   1      37.028  22.541  23.603  1.00  0.00     0.018 A 
BRANCH   8  13
ATOM     13  N   UNL A   1      33.936  24.490  22.964  1.00  0.00    -0.257 N 
ATOM     14  C   UNL A   1      32.988  23.545  22.350  1.00  0.00     0.144 C 
ATOM     15  C   UNL A   1      31.719  24.398  22.197  1.00  0.00     0.091 C 
ATOM     16  C   UNL A   1      32.162  25.667  22.872  1.00  0.00     0.071 C 
ATOM     17  N   UNL A   1      33.381  25.684  23.312  1.00  0.00    -0.176 NA
BRANCH  14  18
ATOM     18  C   UNL A   1      32.789  22.277  23.178  1.00  0.00    -0.015 A 
ATOM     19  C   UNL A   1      32.628  21.193  25.360  1.00  0.00     0.164 A 
ATOM     20  C   UNL A   1      32.859  22.334  24.577  1.00  0.00     0.056 A 
ATOM     21  C   UNL A   1      32.288  19.962  24.773  1.00  0.00     0.203 A 
ATOM     22  C   UNL A   1      32.196  19.902  23.370  1.00  0.00     0.164 A 
ATOM     23  C   UNL A   1      32.446  21.048  22.595  1.00  0.00     0.056 A 
BRANCH  19  24
ATOM     24  O   UNL A   1      32.684  21.359  26.721  1.00  0.00    -0.493 OA
ATOM     25  C   UNL A   1      34.031  21.468  27.179  1.00  0.00     0.278 C 
ENDBRANCH  19  24
BRANCH  21  26
ATOM     26  O   UNL A   1      32.138  18.791  25.468  1.00  0.00    -0.490 OA
ATOM     27  C   UNL A   1      33.309  18.041  25.770  1.00  0.00     0.278 C 
ENDBRANCH  21  26
BRANCH  22  28
ATOM     28  O   UNL A   1      31.897  18.803  22.599  1.00  0.00    -0.493 OA
ATOM     29  C   UNL A   1      32.911  17.818  22.448  1.00  0.00     0.278 C 
ENDBRANCH  22  28
ENDBRANCH  14  18
BRANCH  16  30
ATOM     30  C   UNL A   1      31.271  26.836  22.950  1.00  0.00    -0.002 A 
ATOM     31  C   UNL A   1      31.787  28.090  22.603  1.00  0.00     0.011 A 
ATOM     32  C   UNL A   1      29.936  26.699  23.338  1.00  0.00     0.011 A 
ATOM     33  C   UNL A   1      30.959  29.214  22.619  1.00  0.00     0.021 A 
ATOM     34  C   UNL A   1      29.111  27.828  23.382  1.00  0.00     0.021 A 
ATOM     35  C   UNL A   1      29.626  29.077  23.018  1.00  0.00     0.067 A 
BRANCH  35  36
ATOM     36  S   UNL A   1      28.571  30.511  23.021  1.00  0.00     0.175 S 
ATOM     37  C   UNL A   1      29.273  31.581  24.248  1.00  0.00     0.163 C 
ATOM     38  O   UNL A   1      28.718  31.142  21.724  1.00  0.00    -0.224 OA
ATOM     39  O   UNL A   1      27.267  30.095  23.503  1.00  0.00    -0.224 OA
ENDBRANCH  35  36
ENDBRANCH  16  30
ENDBRANCH   8  13
ENDBRANCH   5   7
ENDBRANCH   4   5
ENDBRANCH   3   4
ENDBRANCH   2   3
ENDBRANCH   1   2
BRANCH   1  40
ATOM     40  C   UNL A   1      43.482  21.376  25.691  1.00  0.00     0.202 C 
BRANCH  40  41
ATOM     41  C   UNL A   1      44.185  22.353  24.743  1.00  0.00     0.261 C 
BRANCH  41  42
ATOM     42  O   UNL A   1      43.732  23.704  24.947  1.00  0.00    -0.460 OA
BRANCH  42  43
ATOM     43  C   UNL A   1      44.711  24.597  25.236  1.00  0.00     0.338 C 
ATOM     44  O   UNL A   1      45.675  24.875  24.543  1.00  0.00    -0.246 OA
BRANCH  43  45
ATOM     45  C   UNL A   1      44.360  25.351  26.457  1.00  0.00     0.060 A 
ATOM     46  C   UNL A   1      43.534  24.713  27.391  1.00  0.00     0.016 A 
ATOM     47  C   UNL A   1      44.777  26.669  26.667  1.00  0.00     0.016 A 
ATOM     48  C   UNL A   1      43.080  25.405  28.512  1.00  0.00     0.010 A 
ATOM     49  C   UNL A   1      44.313  27.365  27.789  1.00  0.00     0.010 A 
ATOM     50  C   UNL A   1      43.436  26.747  28.699  1.00  0.00    -0.014 A 
BRANCH  50  51
ATOM     51  C   UNL A   1      42.768  27.538  29.763  1.00  0.00     0.031 A 
ATOM     52  C   UNL A   1      43.405  27.606  31.126  1.00  0.00     0.074 A 
ATOM     53  C   UNL A   1      41.633  28.214  29.511  1.00  0.00     0.049 A 
ATOM     54  N   UNL A   1      42.990  28.213  32.208  1.00  0.00    -0.248 NA
ATOM     55  C   UNL A   1      44.679  26.890  31.285  1.00  0.00     0.031 C 
ATOM     56  C   UNL A   1      40.948  28.258  28.220  1.00  0.00     0.029 A 
ATOM     57  N   UNL A   1      40.854  28.989  30.332  1.00  0.00    -0.354 N 
ATOM     58  C   UNL A   1      43.951  27.952  33.180  1.00  0.00     0.074 A 
ATOM     59  C   UNL A   1      44.949  27.101  32.565  1.00  0.00     0.031 C 
ATOM     60  C   UNL A   1      39.842  29.013  28.340  1.00  0.00     0.029 A 
ATOM     61  C   UNL A   1      39.723  29.477  29.722  1.00  0.00     0.049 A 
ATOM     62  H   UNL A   1      41.082  29.177  31.271  1.00  0.00     0.167 HD
ATOM     63  C   UNL A   1      44.002  28.392  34.461  1.00  0.00     0.034 A 
ATOM     64  C   UNL A   1      38.698  30.193  30.227  1.00  0.00     0.034 A 
ATOM     65  C   UNL A   1      42.993  29.227  35.065  1.00  0.00     0.049 A 
ATOM     66  C   UNL A   1      38.732  30.598  31.680  1.00  0.00     0.074 A 
ATOM     67  C   UNL A   1      42.952  29.739  36.351  1.00  0.00     0.029 A 
ATOM     68  N   UNL A   1      41.838  29.663  34.429  1.00  0.00    -0.354 N 
ATOM     69  N   UNL A   1      39.651  30.354  32.585  1.00  0.00    -0.248 NA
ATOM     70  C   UNL A   1      37.592  31.382  32.177  1.00  0.00     0.031 C 
ATOM     71  C   UNL A   1      41.742  30.426  36.512  1.00  0.00     0.029 A 
ATOM     72  C   UNL A   1      41.061  30.407  35.305  1.00  0.00     0.049 A 
ATOM     73  H   UNL A   1      41.603  29.472  33.492  1.00  0.00     0.167 HD
ATOM     74  C   UNL A   1      39.213  30.980  33.751  1.00  0.00     0.074 A 
ATOM     75  C   UNL A   1      37.954  31.620  33.429  1.00  0.00     0.031 C 
ATOM     76  C   UNL A   1      39.801  31.028  34.974  1.00  0.00     0.034 A 
BRANCH  63  77
ATOM     77  C   UNL A   1      45.164  27.925  35.304  1.00  0.00     0.023 A 
ATOM     78  C   UNL A   1      45.084  26.769  36.102  1.00  0.00     0.031 A 
ATOM     79  C   UNL A   1      46.358  28.665  35.337  1.00  0.00     0.131 A 
ATOM     80  C   UNL A   1      46.149  26.428  36.950  1.00  0.00     0.055 A 
ATOM     81  C   UNL A   1      47.444  28.278  36.126  1.00  0.00     0.041 A 
ATOM     82  F   UNL A   1      46.486  29.789  34.614  1.00  0.00    -0.206 F 
ATOM     83  C   UNL A   1      47.337  27.162  36.950  1.00  0.00     0.022 A 
BRANCH  80  84
ATOM     84  S   UNL A   1      45.907  25.093  38.154  1.00  0.00     0.124 S 
ATOM     85  O   UNL A   1      46.927  25.408  39.152  1.00  0.00    -0.237 OA
ATOM     86  O   UNL A   1      44.524  25.292  38.571  1.00  0.00    -0.237 OA
ATOM     87  O   UNL A   1      46.158  23.882  37.377  1.00  0.00    -0.744 OA
ENDBRANCH  80  84
ENDBRANCH  63  77
BRANCH  64  88
ATOM     88  C   UNL A   1      37.527  30.541  29.371  1.00  0.00     0.023 A 
ATOM     89  C   UNL A   1      37.034  31.853  29.309  1.00  0.00     0.031 A 
ATOM     90  C   UNL A   1      36.849  29.546  28.644  1.00  0.00     0.131 A 
ATOM     91  C   UNL A   1      35.871  32.128  28.572  1.00  0.00     0.055 A 
ATOM     92  C   UNL A   1      35.722  29.832  27.874  1.00  0.00     0.041 A 
ATOM     93  F   UNL A   1      37.280  28.274  28.670  1.00  0.00    -0.206 F 
ATOM     94  C   UNL A   1      35.219  31.129  27.844  1.00  0.00     0.022 A 
BRANCH  91  95
ATOM     95  S   UNL A   1      35.173  33.801  28.639  1.00  0.00     0.124 S 
ATOM     96  O   UNL A   1      36.309  34.578  29.121  1.00  0.00    -0.237 OA
ATOM     97  O   UNL A   1      34.785  34.023  27.251  1.00  0.00    -0.237 OA
ATOM     98  O   UNL A   1      34.063  33.668  29.580  1.00  0.00    -0.744 OA
ENDBRANCH  91  95
ENDBRANCH  64  88
BRANCH  76  99
ATOM     99  C   UNL A   1      39.102  31.839  36.039  1.00  0.00     0.023 A 
ATOM    100  C   UNL A   1      38.347  31.231  37.057  1.00  0.00     0.031 A 
ATOM    101  C   UNL A   1      39.188  33.242  36.026  1.00  0.00     0.131 A 
ATOM    102  C   UNL A   1      37.663  32.027  37.991  1.00  0.00     0.055 A 
ATOM    103  C   UNL A   1      38.552  34.027  36.990  1.00  0.00     0.041 A 
ATOM    104  F   UNL A   1      39.894  33.876  35.077  1.00  0.00    -0.206 F 
ATOM    105  C   UNL A   1      37.774  33.419  37.972  1.00  0.00     0.022 A 
BRANCH 102 106
ATOM    106  S   UNL A   1      36.558  31.220  39.181  1.00  0.00     0.124 S 
ATOM    107  O   UNL A   1      36.282  29.946  38.525  1.00  0.00    -0.237 OA
ATOM    108  O   UNL A   1      37.386  31.153  40.381  1.00  0.00    -0.237 OA
ATOM    109  O   UNL A   1      35.419  32.133  39.265  1.00  0.00    -0.744 OA
ENDBRANCH 102 106
ENDBRANCH  76  99
ENDBRANCH  50  51
ENDBRANCH  43  45
ENDBRANCH  42  43
ENDBRANCH  41  42
ENDBRANCH  40  41
ENDBRANCH   1  40
TORSDOF 24
ENDMDL
MODEL 2
REMARK VINA RESULT:     -11.6      0.966      7.184
REMARK SMILES COc1cc([C@H]2CC(c3ccc(S(C)(=O)=O)cc3)=NN2c2ccc(C(=O)OCCOCCOC(=O)c3ccc(-c4c5nc(c(-c6cc(S(=O)(=O)[O-])ccc6F)c6ccc([nH]6)c(-c6cc(S(=O)(=O)[O-])ccc6F)c6nc(c(-c7cc(S(=O)(=O)[O-])ccc7F)c7ccc4[nH]7)C=C6)C=C5)cc3)cc2)cc(OC)c1OC
REMARK SMILES IDX 30 1 29 2 28 3 27 4 25 5 26 6 24 7 21 8 22 9 100 10 23 11
REMARK SMILES IDX 99 12 20 13 6 14 7 15 8 16 19 17 5 18 3 19 4 20 105 21
REMARK SMILES IDX 102 22 101 23 2 24 1 25 106 26 107 27 103 28 104 29 9 30
REMARK SMILES IDX 10 31 18 32 11 33 17 34 12 35 13 36 14 37 15 38 16 39 31 40
REMARK SMILES IDX 32 41 33 42 34 43 35 44 36 45 37 46 98 47 38 48 97 49 39 50
REMARK SMILES IDX 40 51 41 52 91 53 42 54 96 55 90 56 92 57 43 58 95 59 89 60
REMARK SMILES IDX 88 61 44 63 76 64 56 65 75 66 57 67 60 68 74 69 93 70 58 71
REMARK SMILES IDX 59 72 73 74 94 75 61 76 45 77 46 78 54 79 47 80 53 81 55 82
REMARK SMILES IDX 52 83 48 84 49 85 50 86 51 87 77 88 78 89 86 90 79 91 85 92
REMARK SMILES IDX 87 93 84 94 80 95 81 96 82 97 83 98 62 99 63 100 71 101
REMARK SMILES IDX 64 102 70 103 72 104 69 105 65 106 66 107 67 108 68 109
REMARK H PARENT 92 62 60 73
REMARK Flexibility Score: inf
ROOT
ATOM      1  O   UNL A   1      42.379  22.634  26.258  1.00  0.00    -0.374 OA
ENDROOT
BRANCH   1   2
ATOM      2  C   UNL A   1      41.158  21.932  26.021  1.00  0.00     0.202 C 
BRANCH   2   3
ATOM      3  C   UNL A   1      40.038  22.200  27.030  1.00  0.00     0.261 C 
BRANCH   3   4
ATOM      4  O   UNL A   1      38.900  22.807  26.394  1.00  0.00    -0.460 OA
BRANCH   4   5
ATOM      5  C   UNL A   1      38.157  21.967  25.634  1.00  0.00     0.338 C 
ATOM      6  O   UNL A   1      38.189  20.748  25.638  1.00  0.00    -0.246 OA
BRANCH   5   7
ATOM      7  C   UNL A   1      37.155  22.734  24.862  1.00  0.00     0.060 A 
ATOM      8  C   UNL A   1      35.081  24.123  23.577  1.00  0.00     0.060 A 
ATOM      9  C   UNL A   1      35.439  24.437  24.894  1.00  0.00     0.029 A 
ATOM     10  C   UNL A   1      35.842  23.168  22.885  1.00  0.00     0.029 A 
ATOM     11  C   UNL A   1      36.448  23.730  25.544  1.00  0.00     0.018 A 
ATOM     12  C   UNL A   1      36.887  22.483  23.515  1.00  0.00     0.018 A 
BRANCH   8  13
ATOM     13  N   UNL A   1      33.922  24.658  23.016  1.00  0.00    -0.257 N 
ATOM     14  C   UNL A   1      32.876  23.780  22.466  1.00  0.00     0.144 C 
ATOM     15  C   UNL A   1      31.665  24.723  22.373  1.00  0.00     0.091 C 
ATOM     16  C   UNL A   1      32.236  25.960  23.008  1.00  0.00     0.071 C 
ATOM     17  N   UNL A   1      33.475  25.892  23.380  1.00  0.00    -0.176 NA
BRANCH  14  18
ATOM     18  C   UNL A   1      32.632  22.536  23.318  1.00  0.00    -0.015 A 
ATOM     19  C   UNL A   1      32.159  20.145  23.462  1.00  0.00     0.164 A 
ATOM     20  C   UNL A   1      32.335  21.312  22.703  1.00  0.00     0.056 A 
ATOM     21  C   UNL A   1      32.307  20.154  24.860  1.00  0.00     0.203 A 
ATOM     22  C   UNL A   1      32.626  21.376  25.483  1.00  0.00     0.164 A 
ATOM     23  C   UNL A   1      32.783  22.542  24.713  1.00  0.00     0.056 A 
BRANCH  19  24
ATOM     24  O   UNL A   1      31.906  18.990  22.766  1.00  0.00    -0.493 OA
ATOM     25  C   UNL A   1      33.090  18.213  22.595  1.00  0.00     0.278 C 
ENDBRANCH  19  24
BRANCH  21  26
ATOM     26  O   UNL A   1      32.062  19.076  25.670  1.00  0.00    -0.490 OA
ATOM     27  C   UNL A   1      33.128  18.162  25.900  1.00  0.00     0.278 C 
ENDBRANCH  21  26
BRANCH  22  28
ATOM     28  O   UNL A   1      32.797  21.608  26.827  1.00  0.00    -0.493 OA
ATOM     29  C   UNL A   1      34.129  21.613  27.323  1.00  0.00     0.278 C 
ENDBRANCH  22  28
ENDBRANCH  14  18
BRANCH  16  30
ATOM     30  C   UNL A   1      31.438  27.191  23.122  1.00  0.00    -0.002 A 
ATOM     31  C   UNL A   1      30.154  27.206  22.565  1.00  0.00     0.011 A 
ATOM     32  C   UNL A   1      31.937  28.314  23.787  1.00  0.00     0.011 A 
ATOM     33  C   UNL A   1      29.350  28.340  22.695  1.00  0.00     0.021 A 
ATOM     34  C   UNL A   1      31.144  29.462  23.895  1.00  0.00     0.021 A 
ATOM     35  C   UNL A   1      29.854  29.466  23.352  1.00  0.00     0.067 A 
BRANCH  35  36
ATOM     36  S   UNL A   1      28.818  30.903  23.529  1.00  0.00     0.175 S 
ATOM     37  C   UNL A   1      28.928  31.728  21.964  1.00  0.00     0.163 C 
ATOM     38  O   UNL A   1      27.461  30.423  23.699  1.00  0.00    -0.224 OA
ATOM     39  O   UNL A   1      29.432  31.767  24.520  1.00  0.00    -0.224 OA
ENDBRANCH  35  36
ENDBRANCH  16  30
ENDBRANCH   8  13
ENDBRANCH   5   7
ENDBRANCH   4   5
ENDBRANCH   3   4
ENDBRANCH   2   3
ENDBRANCH   1   2
BRANCH   1  40
ATOM     40  C   UNL A   1      43.477  22.310  25.400  1.00  0.00     0.202 C 
BRANCH  40  41
ATOM     41  C   UNL A   1      44.263  23.503  24.846  1.00  0.00     0.261 C 
BRANCH  41  42
ATOM     42  O   UNL A   1      43.680  24.755  25.253  1.00  0.00    -0.460 OA
BRANCH  42  43
ATOM     43  C   UNL A   1      44.572  25.747  25.500  1.00  0.00     0.338 C 
ATOM     44  O   UNL A   1      45.427  26.168  24.740  1.00  0.00    -0.246 OA
BRANCH  43  45
ATOM     45  C   UNL A   1      44.252  26.401  26.786  1.00  0.00     0.060 A 
ATOM     46  C   UNL A   1      43.456  25.687  27.690  1.00  0.00     0.016 A 
ATOM     47  C   UNL A   1      44.670  27.701  27.086  1.00  0.00     0.016 A 
ATOM     48  C   UNL A   1      43.032  26.287  28.874  1.00  0.00     0.010 A 
ATOM     49  C   UNL A   1      44.235  28.305  28.271  1.00  0.00     0.010 A 
ATOM     50  C   UNL A   1      43.387  27.612  29.155  1.00  0.00    -0.014 A 
BRANCH  50  51
ATOM     51  C   UNL A   1      42.747  28.314  30.296  1.00  0.00     0.031 A 
ATOM     52  C   UNL A   1      41.371  28.897  30.110  1.00  0.00     0.074 A 
ATOM     53  C   UNL A   1      43.365  28.402  31.487  1.00  0.00     0.049 A 
ATOM     54  N   UNL A   1      40.632  29.569  30.954  1.00  0.00    -0.248 NA
ATOM     55  C   UNL A   1      40.749  28.691  28.793  1.00  0.00     0.031 C 
ATOM     56  C   UNL A   1      44.678  27.840  31.798  1.00  0.00     0.029 A 
ATOM     57  N   UNL A   1      42.970  29.002  32.656  1.00  0.00    -0.354 N 
ATOM     58  C   UNL A   1      39.457  29.870  30.272  1.00  0.00     0.074 A 
ATOM     59  C   UNL A   1      39.602  29.337  28.933  1.00  0.00     0.031 C 
ATOM     60  C   UNL A   1      44.985  28.133  33.074  1.00  0.00     0.029 A 
ATOM     61  C   UNL A   1      43.908  28.929  33.658  1.00  0.00     0.049 A 
ATOM     62  H   UNL A   1      42.097  29.443  32.767  1.00  0.00     0.167 HD
ATOM     63  C   UNL A   1      38.357  30.521  30.724  1.00  0.00     0.034 A 
ATOM     64  C   UNL A   1      43.907  29.467  34.895  1.00  0.00     0.034 A 
ATOM     65  C   UNL A   1      38.233  31.060  32.057  1.00  0.00     0.049 A 
ATOM     66  C   UNL A   1      42.707  30.262  35.349  1.00  0.00     0.074 A 
ATOM     67  C   UNL A   1      37.159  31.725  32.623  1.00  0.00     0.029 A 
ATOM     68  N   UNL A   1      39.223  31.009  33.030  1.00  0.00    -0.354 N 
ATOM     69  N   UNL A   1      41.599  30.531  34.698  1.00  0.00    -0.248 NA
ATOM     70  C   UNL A   1      42.757  30.821  36.708  1.00  0.00     0.031 C 
ATOM     71  C   UNL A   1      37.524  32.134  33.911  1.00  0.00     0.029 A 
ATOM     72  C   UNL A   1      38.798  31.660  34.178  1.00  0.00     0.049 A 
ATOM     73  H   UNL A   1      40.099  30.573  32.921  1.00  0.00     0.167 HD
ATOM     74  C   UNL A   1      40.808  31.265  35.580  1.00  0.00     0.074 A 
ATOM     75  C   UNL A   1      41.563  31.386  36.810  1.00  0.00     0.031 C 
ATOM     76  C   UNL A   1      39.568  31.785  35.394  1.00  0.00     0.034 A 
BRANCH  63  77
ATOM     77  C   UNL A   1      37.227  30.728  29.745  1.00  0.00     0.023 A 
ATOM     78  C   UNL A   1      36.750  32.012  29.425  1.00  0.00     0.031 A 
ATOM     79  C   UNL A   1      36.597  29.623  29.147  1.00  0.00     0.131 A 
ATOM     80  C   UNL A   1      35.631  32.155  28.591  1.00  0.00     0.055 A 
ATOM     81  C   UNL A   1      35.531  29.776  28.257  1.00  0.00     0.041 A 
ATOM     82  F   UNL A   1      36.994  28.373  29.431  1.00  0.00    -0.206 F 
ATOM     83  C   UNL A   1      35.033  31.047  27.986  1.00  0.00     0.022 A 
BRANCH  80  84
ATOM     84  S   UNL A   1      34.882  33.797  28.416  1.00  0.00     0.124 S 
ATOM     85  O   UNL A   1      33.463  33.465  28.308  1.00  0.00    -0.237 OA
ATOM     86  O   UNL A   1      35.289  34.463  29.648  1.00  0.00    -0.237 OA
ATOM     87  O   UNL A   1      35.486  34.322  27.194  1.00  0.00    -0.744 OA
ENDBRANCH  80  84
ENDBRANCH  63  77
BRANCH  64  88
ATOM     88  C   UNL A   1      45.094  29.314  35.785  1.00  0.00     0.023 A 
ATOM     89  C   UNL A   1      45.133  28.331  36.786  1.00  0.00     0.031 A 
ATOM     90  C   UNL A   1      46.188  30.192  35.679  1.00  0.00     0.131 A 
ATOM     91  C   UNL A   1      46.223  28.278  37.670  1.00  0.00     0.055 A 
ATOM     92  C   UNL A   1      47.291  30.104  36.528  1.00  0.00     0.041 A 
ATOM     93  F   UNL A   1      46.200  31.151  34.738  1.00  0.00    -0.206 F 
ATOM     94  C   UNL A   1      47.308  29.149  37.539  1.00  0.00     0.022 A 
BRANCH  91  95
ATOM     95  S   UNL A   1      46.169  27.098  39.048  1.00  0.00     0.124 S 
ATOM     96  O   UNL A   1      46.909  27.815  40.080  1.00  0.00    -0.237 OA
ATOM     97  O   UNL A   1      44.735  26.956  39.267  1.00  0.00    -0.237 OA
ATOM     98  O   UNL A   1      46.835  25.915  38.508  1.00  0.00    -0.744 OA
ENDBRANCH  91  95
ENDBRANCH  64  88
BRANCH  76  99
ATOM     99  C   UNL A   1      38.939  32.495  36.568  1.00  0.00     0.023 A 
ATOM    100  C   UNL A   1      38.075  31.832  37.457  1.00  0.00     0.031 A 
ATOM    101  C   UNL A   1      39.202  33.858  36.793  1.00  0.00     0.131 A 
ATOM    102  C   UNL A   1      37.462  32.546  38.500  1.00  0.00     0.055 A 
ATOM    103  C   UNL A   1      38.634  34.549  37.864  1.00  0.00     0.041 A 
ATOM    104  F   UNL A   1      40.018  34.540  35.975  1.00  0.00    -0.206 F 
ATOM    105  C   UNL A   1      37.749  33.896  38.718  1.00  0.00     0.022 A 
BRANCH 102 106
ATOM    106  S   UNL A   1      36.220  31.706  39.520  1.00  0.00     0.124 S 
ATOM    107  O   UNL A   1      36.717  31.952  40.869  1.00  0.00    -0.237 OA
ATOM    108  O   UNL A   1      34.992  32.405  39.156  1.00  0.00    -0.237 OA
ATOM    109  O   UNL A   1      36.295  30.315  39.076  1.00  0.00    -0.744 OA
ENDBRANCH 102 106
ENDBRANCH  76  99
ENDBRANCH  50  51
ENDBRANCH  43  45
ENDBRANCH  42  43
ENDBRANCH  41  42
ENDBRANCH  40  41
ENDBRANCH   1  40
TORSDOF 24
ENDMDL
MODEL 3
REMARK VINA RESULT:     -10.6      3.925      4.594
REMARK SMILES COc1cc([C@H]2CC(c3ccc(S(C)(=O)=O)cc3)=NN2c2ccc(C(=O)OCCOCCOC(=O)c3ccc(-c4c5nc(c(-c6cc(S(=O)(=O)[O-])ccc6F)c6ccc([nH]6)c(-c6cc(S(=O)(=O)[O-])ccc6F)c6nc(c(-c7cc(S(=O)(=O)[O-])ccc7F)c7ccc4[nH]7)C=C6)C=C5)cc3)cc2)cc(OC)c1OC
REMARK SMILES IDX 30 1 29 2 28 3 27 4 25 5 26 6 24 7 21 8 22 9 100 10 23 11
REMARK SMILES IDX 99 12 20 13 6 14 7 15 8 16 19 17 5 18 3 19 4 20 105 21
REMARK SMILES IDX 102 22 101 23 2 24 1 25 106 26 107 27 103 28 104 29 9 30
REMARK SMILES IDX 10 31 18 32 11 33 17 34 12 35 13 36 14 37 15 38 16 39 31 40
REMARK SMILES IDX 32 41 33 42 34 43 35 44 36 45 37 46 98 47 38 48 97 49 39 50
REMARK SMILES IDX 40 51 41 52 91 53 42 54 96 55 90 56 92 57 43 58 95 59 89 60
REMARK SMILES IDX 88 61 44 63 76 64 56 65 75 66 57 67 60 68 74 69 93 70 58 71
REMARK SMILES IDX 59 72 73 74 94 75 61 76 45 77 46 78 54 79 47 80 53 81 55 82
REMARK SMILES IDX 52 83 48 84 49 85 50 86 51 87 77 88 78 89 86 90 79 91 85 92
REMARK SMILES IDX 87 93 84 94 80 95 81 96 82 97 83 98 62 99 63 100 71 101
REMARK SMILES IDX 64 102 70 103 72 104 69 105 65 106 66 107 67 108 68 109
REMARK H PARENT 92 62 60 73
REMARK Flexibility Score: inf
ROOT
ATOM      1  O   UNL A   1      42.627  22.459  26.323  1.00  0.00    -0.374 OA
ENDROOT
BRANCH   1   2
ATOM      2  C   UNL A   1      41.247  22.111  26.202  1.00  0.00     0.202 C 
BRANCH   2   3
ATOM      3  C   UNL A   1      40.295  22.863  27.135  1.00  0.00     0.261 C 
BRANCH   3   4
ATOM      4  O   UNL A   1      39.105  23.277  26.441  1.00  0.00    -0.460 OA
BRANCH   4   5
ATOM      5  C   UNL A   1      38.375  22.267  25.911  1.00  0.00     0.338 C 
ATOM      6  O   UNL A   1      38.489  21.075  26.142  1.00  0.00    -0.246 OA
BRANCH   5   7
ATOM      7  C   UNL A   1      37.277  22.814  25.084  1.00  0.00     0.060 A 
ATOM      8  C   UNL A   1      35.033  23.788  23.707  1.00  0.00     0.060 A 
ATOM      9  C   UNL A   1      35.366  24.291  24.970  1.00  0.00     0.029 A 
ATOM     10  C   UNL A   1      35.897  22.858  23.106  1.00  0.00     0.029 A 
ATOM     11  C   UNL A   1      36.463  23.790  25.668  1.00  0.00     0.018 A 
ATOM     12  C   UNL A   1      37.025  22.380  23.781  1.00  0.00     0.018 A 
BRANCH   8  13
ATOM     13  N   UNL A   1      33.811  24.112  23.120  1.00  0.00    -0.257 N 
ATOM     14  C   UNL A   1      32.881  23.058  22.681  1.00  0.00     0.144 C 
ATOM     15  C   UNL A   1      31.559  23.824  22.521  1.00  0.00     0.091 C 
ATOM     16  C   UNL A   1      31.971  25.182  23.019  1.00  0.00     0.071 C 
ATOM     17  N   UNL A   1      33.211  25.309  23.370  1.00  0.00    -0.176 NA
BRANCH  14  18
ATOM     18  C   UNL A   1      32.807  21.885  23.656  1.00  0.00    -0.015 A 
ATOM     19  C   UNL A   1      32.480  19.497  24.054  1.00  0.00     0.164 A 
ATOM     20  C   UNL A   1      32.503  20.599  23.185  1.00  0.00     0.056 A 
ATOM     21  C   UNL A   1      32.793  19.636  25.418  1.00  0.00     0.203 A 
ATOM     22  C   UNL A   1      33.120  20.920  25.893  1.00  0.00     0.164 A 
ATOM     23  C   UNL A   1      33.122  22.020  25.017  1.00  0.00     0.056 A 
BRANCH  19  24
ATOM     24  O   UNL A   1      32.207  18.276  23.491  1.00  0.00    -0.493 OA
ATOM     25  C   UNL A   1      33.132  17.961  22.452  1.00  0.00     0.278 C 
ENDBRANCH  19  24
BRANCH  21  26
ATOM     26  O   UNL A   1      32.704  18.625  26.337  1.00  0.00    -0.490 OA
ATOM     27  C   UNL A   1      32.534  17.298  25.851  1.00  0.00     0.278 C 
ENDBRANCH  21  26
BRANCH  22  28
ATOM     28  O   UNL A   1      33.437  21.277  27.182  1.00  0.00    -0.493 OA
ATOM     29  C   UNL A   1      33.524  22.667  27.470  1.00  0.00     0.278 C 
ENDBRANCH  22  28
ENDBRANCH  14  18
BRANCH  16  30
ATOM     30  C   UNL A   1      31.022  26.307  23.027  1.00  0.00    -0.002 A 
ATOM     31  C   UNL A   1      31.410  27.509  22.425  1.00  0.00     0.011 A 
ATOM     32  C   UNL A   1      29.755  26.176  23.603  1.00  0.00     0.011 A 
ATOM     33  C   UNL A   1      30.519  28.582  22.372  1.00  0.00     0.021 A 
ATOM     34  C   UNL A   1      28.870  27.258  23.575  1.00  0.00     0.021 A 
ATOM     35  C   UNL A   1      29.255  28.453  22.956  1.00  0.00     0.067 A 
BRANCH  35  36
ATOM     36  S   UNL A   1      28.117  29.819  22.871  1.00  0.00     0.175 S 
ATOM     37  C   UNL A   1      28.967  31.160  23.661  1.00  0.00     0.163 C 
ATOM     38  O   UNL A   1      27.955  30.143  21.467  1.00  0.00    -0.224 OA
ATOM     39  O   UNL A   1      26.970  29.487  23.696  1.00  0.00    -0.224 OA
ENDBRANCH  35  36
ENDBRANCH  16  30
ENDBRANCH   8  13
ENDBRANCH   5   7
ENDBRANCH   4   5
ENDBRANCH   3   4
ENDBRANCH   2   3
ENDBRANCH   1   2
BRANCH   1  40
ATOM     40  C   UNL A   1      43.316  22.767  25.108  1.00  0.00     0.202 C 
BRANCH  40  41
ATOM     41  C   UNL A   1      44.793  23.147  25.257  1.00  0.00     0.261 C 
BRANCH  41  42
ATOM     42  O   UNL A   1      44.978  24.574  25.213  1.00  0.00    -0.460 OA
BRANCH  42  43
ATOM     43  C   UNL A   1      45.974  25.045  26.004  1.00  0.00     0.338 C 
ATOM     44  O   UNL A   1      47.140  24.687  26.004  1.00  0.00    -0.246 OA
BRANCH  43  45
ATOM     45  C   UNL A   1      45.496  26.214  26.771  1.00  0.00     0.060 A 
ATOM     46  C   UNL A   1      46.450  26.940  27.496  1.00  0.00     0.016 A 
ATOM     47  C   UNL A   1      44.145  26.565  26.831  1.00  0.00     0.016 A 
ATOM     48  C   UNL A   1      46.051  27.988  28.323  1.00  0.00     0.010 A 
ATOM     49  C   UNL A   1      43.745  27.613  27.670  1.00  0.00     0.010 A 
ATOM     50  C   UNL A   1      44.692  28.308  28.444  1.00  0.00    -0.014 A 
BRANCH  50  51
ATOM     51  C   UNL A   1      44.257  29.264  29.493  1.00  0.00     0.031 A 
ATOM     52  C   UNL A   1      43.973  28.744  30.877  1.00  0.00     0.074 A 
ATOM     53  C   UNL A   1      44.150  30.577  29.228  1.00  0.00     0.049 A 
ATOM     54  N   UNL A   1      43.560  29.387  31.938  1.00  0.00    -0.248 NA
ATOM     55  C   UNL A   1      44.184  27.303  31.088  1.00  0.00     0.031 C 
ATOM     56  C   UNL A   1      44.439  31.203  27.938  1.00  0.00     0.029 A 
ATOM     57  N   UNL A   1      43.763  31.622  30.029  1.00  0.00    -0.354 N 
ATOM     58  C   UNL A   1      43.459  28.432  32.945  1.00  0.00     0.074 A 
ATOM     59  C   UNL A   1      43.819  27.160  32.353  1.00  0.00     0.031 C 
ATOM     60  C   UNL A   1      44.208  32.524  28.034  1.00  0.00     0.029 A 
ATOM     61  C   UNL A   1      43.723  32.832  29.378  1.00  0.00     0.049 A 
ATOM     62  H   UNL A   1      43.534  31.515  30.980  1.00  0.00     0.167 HD
ATOM     63  C   UNL A   1      43.109  28.601  34.244  1.00  0.00     0.034 A 
ATOM     64  C   UNL A   1      43.318  34.044  29.811  1.00  0.00     0.034 A 
ATOM     65  C   UNL A   1      42.738  29.872  34.817  1.00  0.00     0.049 A 
ATOM     66  C   UNL A   1      42.849  34.194  31.238  1.00  0.00     0.074 A 
ATOM     67  C   UNL A   1      42.379  30.159  36.122  1.00  0.00     0.029 A 
ATOM     68  N   UNL A   1      42.664  31.069  34.115  1.00  0.00    -0.354 N 
ATOM     69  N   UNL A   1      42.769  33.285  32.182  1.00  0.00    -0.248 NA
ATOM     70  C   UNL A   1      42.424  35.536  31.659  1.00  0.00     0.031 C 
ATOM     71  C   UNL A   1      42.024  31.512  36.194  1.00  0.00     0.029 A 
ATOM     72  C   UNL A   1      42.232  32.087  34.951  1.00  0.00     0.049 A 
ATOM     73  H   UNL A   1      42.887  31.178  33.162  1.00  0.00     0.167 HD
ATOM     74  C   UNL A   1      42.311  33.953  33.316  1.00  0.00     0.074 A 
ATOM     75  C   UNL A   1      42.144  35.342  32.939  1.00  0.00     0.031 C 
ATOM     76  C   UNL A   1      42.057  33.466  34.557  1.00  0.00     0.034 A 
BRANCH  63  77
ATOM     77  C   UNL A   1      43.062  27.367  35.112  1.00  0.00     0.023 A 
ATOM     78  C   UNL A   1      44.163  26.964  35.888  1.00  0.00     0.031 A 
ATOM     79  C   UNL A   1      41.909  26.563  35.137  1.00  0.00     0.131 A 
ATOM     80  C   UNL A   1      44.113  25.755  36.598  1.00  0.00     0.055 A 
ATOM     81  C   UNL A   1      41.839  25.400  35.907  1.00  0.00     0.041 A 
ATOM     82  F   UNL A   1      40.834  26.886  34.399  1.00  0.00    -0.206 F 
ATOM     83  C   UNL A   1      42.950  24.982  36.631  1.00  0.00     0.022 A 
BRANCH  80  84
ATOM     84  S   UNL A   1      45.635  25.136  37.367  1.00  0.00     0.124 S 
ATOM     85  O   UNL A   1      45.267  23.758  37.686  1.00  0.00    -0.237 OA
ATOM     86  O   UNL A   1      46.617  25.303  36.302  1.00  0.00    -0.237 OA
ATOM     87  O   UNL A   1      45.814  26.009  38.524  1.00  0.00    -0.744 OA
ENDBRANCH  80  84
ENDBRANCH  63  77
BRANCH  64  88
ATOM     88  C   UNL A   1      43.292  35.208  28.879  1.00  0.00     0.023 A 
ATOM     89  C   UNL A   1      44.465  35.904  28.549  1.00  0.00     0.031 A 
ATOM     90  C   UNL A   1      42.076  35.674  28.348  1.00  0.00     0.131 A 
ATOM     91  C   UNL A   1      44.393  37.055  27.748  1.00  0.00     0.055 A 
ATOM     92  C   UNL A   1      42.015  36.790  27.513  1.00  0.00     0.041 A 
ATOM     93  F   UNL A   1      40.925  35.044  28.634  1.00  0.00    -0.206 F 
ATOM     94  C   UNL A   1      43.177  37.495  27.217  1.00  0.00     0.022 A 
BRANCH  91  95
ATOM     95  S   UNL A   1      45.904  38.019  27.470  1.00  0.00     0.124 S 
ATOM     96  O   UNL A   1      46.473  37.349  26.305  1.00  0.00    -0.237 OA
ATOM     97  O   UNL A   1      45.372  39.357  27.245  1.00  0.00    -0.237 OA
ATOM     98  O   UNL A   1      46.649  37.848  28.715  1.00  0.00    -0.744 OA
ENDBRANCH  91  95
ENDBRANCH  64  88
BRANCH  76  99
ATOM     99  C   UNL A   1      41.616  34.457  35.606  1.00  0.00     0.023 A 
ATOM    100  C   UNL A   1      42.541  35.153  36.404  1.00  0.00     0.031 A 
ATOM    101  C   UNL A   1      40.247  34.701  35.815  1.00  0.00     0.131 A 
ATOM    102  C   UNL A   1      42.085  36.020  37.410  1.00  0.00     0.055 A 
ATOM    103  C   UNL A   1      39.800  35.607  36.778  1.00  0.00     0.041 A 
ATOM    104  F   UNL A   1      39.320  34.065  35.082  1.00  0.00    -0.206 F 
ATOM    105  C   UNL A   1      40.721  36.263  37.591  1.00  0.00     0.022 A 
BRANCH 102 106
ATOM    106  S   UNL A   1      43.296  36.764  38.536  1.00  0.00     0.124 S 
ATOM    107  O   UNL A   1      43.496  35.701  39.514  1.00  0.00    -0.237 OA
ATOM    108  O   UNL A   1      44.423  37.034  37.649  1.00  0.00    -0.237 OA
ATOM    109  O   UNL A   1      42.609  37.952  39.042  1.00  0.00    -0.744 OA
ENDBRANCH 102 106
ENDBRANCH  76  99
ENDBRANCH  50  51
ENDBRANCH  43  45
ENDBRANCH  42  43
ENDBRANCH  41  42
ENDBRANCH  40  41
ENDBRANCH   1  40
TORSDOF 24
ENDMDL
