MODEL 1
REMARK VINA RESULT:      -7.6      0.000      0.000
REMARK SMILES CC(C)C[C@H](NC(=O)[C@H](Cc1ccccc1)NC(=O)CNC(=O)CNC(=O)OCc1ccccc1)C(=O)OCCOCCOC(=O)c1ccc(-c2c3nc(c(-c4cc(S(=O)(=O)[O-])ccc4F)c4ccc([nH]4)c(-c4cc(S(=O)(=O)[O-])ccc4F)c4nc(c(-c5cc(S(=O)(=O)[O-])ccc5F)c5ccc2[nH]5)C=C4)C=C3)cc1
REMARK SMILES IDX 36 1 37 2 5 3 4 4 2 5 1 6 3 7 6 8 7 9 8 11 9 12 17 13 18 14
REMARK SMILES IDX 19 16 20 17 21 18 22 19 23 21 24 22 25 23 26 24 27 26 28 27
REMARK SMILES IDX 29 28 30 29 31 30 35 31 32 32 34 33 33 34 10 35 11 36 12 37
REMARK SMILES IDX 16 38 13 39 15 40 14 41 38 42 39 43 40 44 41 45 42 46 43 47
REMARK SMILES IDX 44 48 45 49 46 50 47 51 48 52 109 53 49 54 108 55 50 56
REMARK SMILES IDX 51 57 52 58 102 59 53 60 107 61 101 62 103 63 54 64 106 65
REMARK SMILES IDX 100 66 99 67 55 69 87 70 67 71 86 72 68 73 71 74 85 75
REMARK SMILES IDX 104 76 69 77 70 78 84 80 105 81 72 82 56 83 57 84 65 85
REMARK SMILES IDX 58 86 64 87 66 88 63 89 59 90 60 91 61 92 62 93 88 94 89 95
REMARK SMILES IDX 97 96 90 97 96 98 98 99 95 100 91 101 92 102 93 103 94 104
REMARK SMILES IDX 73 105 74 106 82 107 75 108 81 109 83 110 80 111 76 112
REMARK SMILES IDX 77 113 78 114 79 115
REMARK H PARENT 6 10 17 15 21 20 25 25 103 68 71 79
REMARK Flexibility Score: inf
ROOT
ATOM      1  C   UNL A   1      45.711  24.848  29.485  1.00  0.00     0.328 C 
ATOM      2  O   UNL A   1      46.798  25.419  29.308  1.00  0.00    -0.250 OA
ENDROOT
BRANCH   1   3
ATOM      3  C   UNL A   1      45.130  24.833  30.995  1.00  0.00     0.192 C 
BRANCH   3   4
ATOM      4  C   UNL A   1      44.301  23.645  32.051  1.00  0.00     0.040 C 
BRANCH   4   5
ATOM      5  C   UNL A   1      44.007  23.327  33.849  1.00  0.00    -0.015 C 
ATOM      6  C   UNL A   1      42.755  23.599  34.879  1.00  0.00     0.007 C 
ATOM      7  C   UNL A   1      44.518  22.010  34.491  1.00  0.00     0.007 C 
ENDBRANCH   4   5
ENDBRANCH   3   4
BRANCH   3   8
ATOM      8  N   UNL A   1      44.623  26.234  31.229  1.00  0.00    -0.341 N 
ATOM      9  C   UNL A   1      45.083  27.366  31.858  1.00  0.00     0.243 C 
ATOM     10  H   UNL A   1      43.735  26.374  30.830  1.00  0.00     0.164 HD
ATOM     11  O   UNL A   1      44.440  28.383  31.543  1.00  0.00    -0.273 OA
BRANCH   9  12
ATOM     12  C   UNL A   1      46.313  27.529  32.893  1.00  0.00     0.175 C 
BRANCH  12  13
ATOM     13  N   UNL A   1      46.390  28.913  33.379  1.00  0.00    -0.342 N 
ATOM     14  C   UNL A   1      45.585  29.700  34.139  1.00  0.00     0.240 C 
ATOM     15  H   UNL A   1      47.211  29.374  33.088  1.00  0.00     0.164 HD
ATOM     16  O   UNL A   1      45.945  30.877  34.275  1.00  0.00    -0.273 OA
BRANCH  14  17
ATOM     17  C   UNL A   1      44.343  29.230  34.931  1.00  0.00     0.216 C 
BRANCH  17  18
ATOM     18  N   UNL A   1      43.312  28.366  34.374  1.00  0.00    -0.346 N 
ATOM     19  C   UNL A   1      41.957  28.463  34.539  1.00  0.00     0.239 C 
ATOM     20  H   UNL A   1      43.628  27.623  33.810  1.00  0.00     0.164 HD
ATOM     21  O   UNL A   1      41.223  27.864  33.751  1.00  0.00    -0.273 OA
BRANCH  19  22
ATOM     22  C   UNL A   1      41.385  29.275  35.712  1.00  0.00     0.219 C 
BRANCH  22  23
ATOM     23  N   UNL A   1      40.177  29.823  35.189  1.00  0.00    -0.312 N 
ATOM     24  C   UNL A   1      39.232  30.684  35.596  1.00  0.00     0.407 C 
ATOM     25  H   UNL A   1      39.986  29.477  34.288  1.00  0.00     0.167 HD
ATOM     26  O   UNL A   1      38.184  30.163  35.193  1.00  0.00    -0.225 OA
BRANCH  24  27
ATOM     27  O   UNL A   1      39.472  31.915  36.172  1.00  0.00    -0.445 OA
BRANCH  27  28
ATOM     28  C   UNL A   1      39.923  32.622  37.613  1.00  0.00     0.270 C 
BRANCH  28  29
ATOM     29  C   UNL A   1      40.402  34.140  38.114  1.00  0.00    -0.011 A 
ATOM     30  C   UNL A   1      39.418  35.074  38.401  1.00  0.00     0.007 A 
ATOM     31  C   UNL A   1      41.663  34.709  38.421  1.00  0.00     0.007 A 
ATOM     32  C   UNL A   1      39.680  36.479  38.413  1.00  0.00     0.000 A 
ATOM     33  C   UNL A   1      41.969  36.083  38.343  1.00  0.00     0.000 A 
ATOM     34  C   UNL A   1      40.950  36.978  38.214  1.00  0.00     0.000 A 
ENDBRANCH  28  29
ENDBRANCH  27  28
ENDBRANCH  24  27
ENDBRANCH  22  23
ENDBRANCH  19  22
ENDBRANCH  17  18
ENDBRANCH  14  17
ENDBRANCH  12  13
BRANCH  12  35
ATOM     35  C   UNL A   1      46.029  26.516  34.099  1.00  0.00     0.070 C 
BRANCH  35  36
ATOM     36  C   UNL A   1      47.098  25.788  34.919  1.00  0.00    -0.045 A 
ATOM     37  C   UNL A   1      47.331  24.416  34.879  1.00  0.00     0.004 A 
ATOM     38  C   UNL A   1      48.004  26.546  35.690  1.00  0.00     0.004 A 
ATOM     39  C   UNL A   1      48.302  23.792  35.675  1.00  0.00     0.000 A 
ATOM     40  C   UNL A   1      49.025  25.939  36.441  1.00  0.00     0.000 A 
ATOM     41  C   UNL A   1      49.152  24.555  36.460  1.00  0.00     0.000 A 
ENDBRANCH  35  36
ENDBRANCH  12  35
ENDBRANCH   9  12
ENDBRANCH   3   8
ENDBRANCH   1   3
BRANCH   1  42
ATOM     42  O   UNL A   1      45.025  24.378  28.404  1.00  0.00    -0.462 OA
BRANCH  42  43
ATOM     43  C   UNL A   1      45.818  24.306  27.144  1.00  0.00     0.261 C 
BRANCH  43  44
ATOM     44  C   UNL A   1      45.614  23.110  26.214  1.00  0.00     0.202 C 
BRANCH  44  45
ATOM     45  O   UNL A   1      44.270  22.781  25.903  1.00  0.00    -0.374 OA
BRANCH  45  46
ATOM     46  C   UNL A   1      43.801  21.555  26.435  1.00  0.00     0.202 C 
BRANCH  46  47
ATOM     47  C   UNL A   1      42.328  21.220  26.163  1.00  0.00     0.261 C 
BRANCH  47  48
ATOM     48  O   UNL A   1      41.490  22.315  25.736  1.00  0.00    -0.460 OA
BRANCH  48  49
ATOM     49  C   UNL A   1      40.303  22.425  26.392  1.00  0.00     0.338 C 
ATOM     50  O   UNL A   1      39.516  21.524  26.621  1.00  0.00    -0.246 OA
BRANCH  49  51
ATOM     51  C   UNL A   1      40.083  23.803  26.890  1.00  0.00     0.060 A 
ATOM     52  C   UNL A   1      39.940  24.855  25.972  1.00  0.00     0.016 A 
ATOM     53  C   UNL A   1      40.237  24.082  28.248  1.00  0.00     0.016 A 
ATOM     54  C   UNL A   1      40.002  26.187  26.408  1.00  0.00     0.010 A 
ATOM     55  C   UNL A   1      40.309  25.416  28.680  1.00  0.00     0.010 A 
ATOM     56  C   UNL A   1      40.235  26.478  27.760  1.00  0.00    -0.014 A 
BRANCH  56  57
ATOM     57  C   UNL A   1      40.620  27.859  28.179  1.00  0.00     0.031 A 
ATOM     58  C   UNL A   1      42.084  28.221  28.203  1.00  0.00     0.074 A 
ATOM     59  C   UNL A   1      39.706  28.787  28.522  1.00  0.00     0.049 A 
ATOM     60  N   UNL A   1      42.662  29.334  28.578  1.00  0.00    -0.248 NA
ATOM     61  C   UNL A   1      43.018  27.183  27.743  1.00  0.00     0.031 C 
ATOM     62  C   UNL A   1      38.260  28.595  28.495  1.00  0.00     0.029 A 
ATOM     63  N   UNL A   1      39.859  30.078  28.971  1.00  0.00    -0.354 N 
ATOM     64  C   UNL A   1      44.026  29.135  28.392  1.00  0.00     0.074 A 
ATOM     65  C   UNL A   1      44.189  27.776  27.919  1.00  0.00     0.031 C 
ATOM     66  C   UNL A   1      37.657  29.718  28.919  1.00  0.00     0.029 A 
ATOM     67  C   UNL A   1      38.673  30.700  29.291  1.00  0.00     0.049 A 
ATOM     68  H   UNL A   1      40.737  30.517  29.057  1.00  0.00     0.167 HD
ATOM     69  C   UNL A   1      45.050  30.006  28.583  1.00  0.00     0.034 A 
ATOM     70  C   UNL A   1      38.429  31.907  29.844  1.00  0.00     0.034 A 
ATOM     71  C   UNL A   1      44.882  31.350  29.081  1.00  0.00     0.049 A 
ATOM     72  C   UNL A   1      39.592  32.819  30.162  1.00  0.00     0.074 A 
ATOM     73  C   UNL A   1      45.852  32.311  29.309  1.00  0.00     0.029 A 
ATOM     74  N   UNL A   1      43.670  31.921  29.447  1.00  0.00    -0.354 N 
ATOM     75  N   UNL A   1      40.876  32.621  29.966  1.00  0.00    -0.248 NA
ATOM     76  C   UNL A   1      39.271  34.122  30.761  1.00  0.00     0.031 C 
ATOM     77  C   UNL A   1      45.240  33.428  29.888  1.00  0.00     0.029 A 
ATOM     78  C   UNL A   1      43.874  33.204  29.934  1.00  0.00     0.049 A 
ATOM     79  H   UNL A   1      42.793  31.479  29.372  1.00  0.00     0.167 HD
ATOM     80  C   UNL A   1      41.507  33.792  30.378  1.00  0.00     0.074 A 
ATOM     81  C   UNL A   1      40.465  34.693  30.820  1.00  0.00     0.031 C 
ATOM     82  C   UNL A   1      42.831  34.098  30.382  1.00  0.00     0.034 A 
BRANCH  69  83
ATOM     83  C   UNL A   1      46.445  29.506  28.297  1.00  0.00     0.023 A 
ATOM     84  C   UNL A   1      47.254  28.954  29.306  1.00  0.00     0.031 A 
ATOM     85  C   UNL A   1      46.987  29.606  27.002  1.00  0.00     0.131 A 
ATOM     86  C   UNL A   1      48.581  28.595  29.024  1.00  0.00     0.055 A 
ATOM     87  C   UNL A   1      48.280  29.166  26.709  1.00  0.00     0.041 A 
ATOM     88  F   UNL A   1      46.272  30.143  26.002  1.00  0.00    -0.206 F 
ATOM     89  C   UNL A   1      49.091  28.672  27.726  1.00  0.00     0.022 A 
BRANCH  86  90
ATOM     90  S   UNL A   1      49.675  28.170  30.406  1.00  0.00     0.124 S 
ATOM     91  O   UNL A   1      50.973  28.609  29.899  1.00  0.00    -0.237 OA
ATOM     92  O   UNL A   1      49.118  28.953  31.502  1.00  0.00    -0.237 OA
ATOM     93  O   UNL A   1      49.522  26.722  30.532  1.00  0.00    -0.744 OA
ENDBRANCH  86  90
ENDBRANCH  69  83
BRANCH  70  94
ATOM     94  C   UNL A   1      37.033  32.327  30.174  1.00  0.00     0.023 A 
ATOM     95  C   UNL A   1      36.233  33.001  29.236  1.00  0.00     0.031 A 
ATOM     96  C   UNL A   1      36.506  32.130  31.464  1.00  0.00     0.131 A 
ATOM     97  C   UNL A   1      34.978  33.501  29.617  1.00  0.00     0.055 A 
ATOM     98  C   UNL A   1      35.231  32.576  31.819  1.00  0.00     0.041 A 
ATOM     99  F   UNL A   1      37.226  31.495  32.403  1.00  0.00    -0.206 F 
ATOM    100  C   UNL A   1      34.465  33.281  30.897  1.00  0.00     0.022 A 
BRANCH  97 101
ATOM    101  S   UNL A   1      34.065  34.543  28.443  1.00  0.00     0.124 S 
ATOM    102  O   UNL A   1      34.985  34.590  27.312  1.00  0.00    -0.237 OA
ATOM    103  O   UNL A   1      32.842  33.774  28.246  1.00  0.00    -0.237 OA
ATOM    104  O   UNL A   1      33.898  35.802  29.166  1.00  0.00    -0.744 OA
ENDBRANCH  97 101
ENDBRANCH  70  94
BRANCH  82 105
ATOM    105  C   UNL A   1      43.220  35.490  30.825  1.00  0.00     0.023 A 
ATOM    106  C   UNL A   1      43.322  36.560  29.918  1.00  0.00     0.031 A 
ATOM    107  C   UNL A   1      43.506  35.746  32.179  1.00  0.00     0.131 A 
ATOM    108  C   UNL A   1      43.759  37.818  30.365  1.00  0.00     0.055 A 
ATOM    109  C   UNL A   1      43.872  37.015  32.628  1.00  0.00     0.041 A 
ATOM    110  F   UNL A   1      43.432  34.763  33.090  1.00  0.00    -0.206 F 
ATOM    111  C   UNL A   1      44.015  38.056  31.717  1.00  0.00     0.022 A 
BRANCH 108 112
ATOM    112  S   UNL A   1      44.094  39.111  29.138  1.00  0.00     0.124 S 
ATOM    113  O   UNL A   1      43.808  38.420  27.884  1.00  0.00    -0.237 OA
ATOM    114  O   UNL A   1      43.149  40.156  29.519  1.00  0.00    -0.237 OA
ATOM    115  O   UNL A   1      45.501  39.438  29.359  1.00  0.00    -0.744 OA
ENDBRANCH 108 112
ENDBRANCH  82 105
ENDBRANCH  56  57
ENDBRANCH  49  51
ENDBRANCH  48  49
ENDBRANCH  47  48
ENDBRANCH  46  47
ENDBRANCH  45  46
ENDBRANCH  44  45
ENDBRANCH  43  44
ENDBRANCH  42  43
ENDBRANCH   1  42
TORSDOF 31
ENDMDL
MODEL 2
REMARK VINA RESULT:      -7.2      2.456      4.023
REMARK SMILES CC(C)C[C@H](NC(=O)[C@H](Cc1ccccc1)NC(=O)CNC(=O)CNC(=O)OCc1ccccc1)C(=O)OCCOCCOC(=O)c1ccc(-c2c3nc(c(-c4cc(S(=O)(=O)[O-])ccc4F)c4ccc([nH]4)c(-c4cc(S(=O)(=O)[O-])ccc4F)c4nc(c(-c5cc(S(=O)(=O)[O-])ccc5F)c5ccc2[nH]5)C=C4)C=C3)cc1
REMARK SMILES IDX 36 1 37 2 5 3 4 4 2 5 1 6 3 7 6 8 7 9 8 11 9 12 17 13 18 14
REMARK SMILES IDX 19 16 20 17 21 18 22 19 23 21 24 22 25 23 26 24 27 26 28 27
REMARK SMILES IDX 29 28 30 29 31 30 35 31 32 32 34 33 33 34 10 35 11 36 12 37
REMARK SMILES IDX 16 38 13 39 15 40 14 41 38 42 39 43 40 44 41 45 42 46 43 47
REMARK SMILES IDX 44 48 45 49 46 50 47 51 48 52 109 53 49 54 108 55 50 56
REMARK SMILES IDX 51 57 52 58 102 59 53 60 107 61 101 62 103 63 54 64 106 65
REMARK SMILES IDX 100 66 99 67 55 69 87 70 67 71 86 72 68 73 71 74 85 75
REMARK SMILES IDX 104 76 69 77 70 78 84 80 105 81 72 82 56 83 57 84 65 85
REMARK SMILES IDX 58 86 64 87 66 88 63 89 59 90 60 91 61 92 62 93 88 94 89 95
REMARK SMILES IDX 97 96 90 97 96 98 98 99 95 100 91 101 92 102 93 103 94 104
REMARK SMILES IDX 73 105 74 106 82 107 75 108 81 109 83 110 80 111 76 112
REMARK SMILES IDX 77 113 78 114 79 115
REMARK H PARENT 6 10 17 15 21 20 25 25 103 68 71 79
REMARK Flexibility Score: inf
ROOT
ATOM      1  C   UNL A   1      45.882  24.817  29.294  1.00  0.00     0.328 C 
ATOM      2  O   UNL A   1      47.009  25.303  29.114  1.00  0.00    -0.250 OA
ENDROOT
BRANCH   1   3
ATOM      3  C   UNL A   1      45.308  24.841  30.806  1.00  0.00     0.192 C 
BRANCH   3   4
ATOM      4  C   UNL A   1      44.384  23.721  31.859  1.00  0.00     0.040 C 
BRANCH   4   5
ATOM      5  C   UNL A   1      44.234  23.274  33.647  1.00  0.00    -0.015 C 
ATOM      6  C   UNL A   1      42.994  23.232  34.725  1.00  0.00     0.007 C 
ATOM      7  C   UNL A   1      45.035  22.069  34.208  1.00  0.00     0.007 C 
ENDBRANCH   4   5
ENDBRANCH   3   4
BRANCH   3   8
ATOM      8  N   UNL A   1      44.925  26.279  31.054  1.00  0.00    -0.341 N 
ATOM      9  C   UNL A   1      45.488  27.364  31.682  1.00  0.00     0.243 C 
ATOM     10  H   UNL A   1      44.047  26.497  30.666  1.00  0.00     0.164 HD
ATOM     11  O   UNL A   1      44.930  28.434  31.380  1.00  0.00    -0.273 OA
BRANCH   9  12
ATOM     12  C   UNL A   1      46.739  27.416  32.703  1.00  0.00     0.175 C 
BRANCH  12  13
ATOM     13  N   UNL A   1      46.742  28.685  33.442  1.00  0.00    -0.342 N 
ATOM     14  C   UNL A   1      45.819  29.357  34.179  1.00  0.00     0.240 C 
ATOM     15  H   UNL A   1      47.607  29.153  33.393  1.00  0.00     0.164 HD
ATOM     16  O   UNL A   1      46.163  30.474  34.593  1.00  0.00    -0.273 OA
BRANCH  14  17
ATOM     17  C   UNL A   1      44.449  28.809  34.636  1.00  0.00     0.216 C 
BRANCH  17  18
ATOM     18  N   UNL A   1      43.227  28.941  33.854  1.00  0.00    -0.346 N 
ATOM     19  C   UNL A   1      42.114  28.146  33.898  1.00  0.00     0.239 C 
ATOM     20  H   UNL A   1      43.199  29.693  33.219  1.00  0.00     0.164 HD
ATOM     21  O   UNL A   1      41.062  28.578  33.420  1.00  0.00    -0.273 OA
BRANCH  19  22
ATOM     22  C   UNL A   1      42.204  26.733  34.497  1.00  0.00     0.219 C 
BRANCH  22  23
ATOM     23  N   UNL A   1      42.079  26.951  35.901  1.00  0.00    -0.312 N 
ATOM     24  C   UNL A   1      42.599  26.435  37.025  1.00  0.00     0.407 C 
ATOM     25  H   UNL A   1      41.440  27.673  36.097  1.00  0.00     0.167 HD
ATOM     26  O   UNL A   1      41.629  26.398  37.793  1.00  0.00    -0.225 OA
BRANCH  24  27
ATOM     27  O   UNL A   1      43.940  26.190  37.241  1.00  0.00    -0.445 OA
BRANCH  27  28
ATOM     28  C   UNL A   1      45.149  25.104  36.874  1.00  0.00     0.270 C 
BRANCH  28  29
ATOM     29  C   UNL A   1      46.332  24.284  37.719  1.00  0.00    -0.011 A 
ATOM     30  C   UNL A   1      46.661  23.001  37.306  1.00  0.00     0.007 A 
ATOM     31  C   UNL A   1      47.201  24.650  38.777  1.00  0.00     0.007 A 
ATOM     32  C   UNL A   1      47.310  22.065  38.169  1.00  0.00     0.000 A 
ATOM     33  C   UNL A   1      47.774  23.751  39.700  1.00  0.00     0.000 A 
ATOM     34  C   UNL A   1      47.715  22.415  39.440  1.00  0.00     0.000 A 
ENDBRANCH  28  29
ENDBRANCH  27  28
ENDBRANCH  24  27
ENDBRANCH  22  23
ENDBRANCH  19  22
ENDBRANCH  17  18
ENDBRANCH  14  17
ENDBRANCH  12  13
BRANCH  12  35
ATOM     35  C   UNL A   1      46.564  26.175  33.699  1.00  0.00     0.070 C 
BRANCH  35  36
ATOM     36  C   UNL A   1      47.702  25.445  34.419  1.00  0.00    -0.045 A 
ATOM     37  C   UNL A   1      48.135  24.156  34.116  1.00  0.00     0.004 A 
ATOM     38  C   UNL A   1      48.464  26.142  35.380  1.00  0.00     0.004 A 
ATOM     39  C   UNL A   1      49.161  23.518  34.827  1.00  0.00     0.000 A 
ATOM     40  C   UNL A   1      49.539  25.536  36.053  1.00  0.00     0.000 A 
ATOM     41  C   UNL A   1      49.866  24.210  35.800  1.00  0.00     0.000 A 
ENDBRANCH  35  36
ENDBRANCH  12  35
ENDBRANCH   9  12
ENDBRANCH   3   8
ENDBRANCH   1   3
BRANCH   1  42
ATOM     42  O   UNL A   1      45.155  24.408  28.215  1.00  0.00    -0.462 OA
BRANCH  42  43
ATOM     43  C   UNL A   1      45.956  24.155  26.983  1.00  0.00     0.261 C 
BRANCH  43  44
ATOM     44  C   UNL A   1      45.622  22.935  26.126  1.00  0.00     0.202 C 
BRANCH  44  45
ATOM     45  O   UNL A   1      44.247  22.726  25.844  1.00  0.00    -0.374 OA
BRANCH  45  46
ATOM     46  C   UNL A   1      43.652  21.615  26.491  1.00  0.00     0.202 C 
BRANCH  46  47
ATOM     47  C   UNL A   1      42.144  21.435  26.274  1.00  0.00     0.261 C 
BRANCH  47  48
ATOM     48  O   UNL A   1      41.421  22.595  25.810  1.00  0.00    -0.460 OA
BRANCH  48  49
ATOM     49  C   UNL A   1      40.258  22.853  26.468  1.00  0.00     0.338 C 
ATOM     50  O   UNL A   1      39.352  22.065  26.673  1.00  0.00    -0.246 OA
BRANCH  49  51
ATOM     51  C   UNL A   1      40.232  24.235  27.002  1.00  0.00     0.060 A 
ATOM     52  C   UNL A   1      40.143  25.317  26.113  1.00  0.00     0.016 A 
ATOM     53  C   UNL A   1      40.512  24.463  28.349  1.00  0.00     0.016 A 
ATOM     54  C   UNL A   1      40.386  26.624  26.564  1.00  0.00     0.010 A 
ATOM     55  C   UNL A   1      40.765  25.770  28.795  1.00  0.00     0.010 A 
ATOM     56  C   UNL A   1      40.747  26.856  27.899  1.00  0.00    -0.014 A 
BRANCH  56  57
ATOM     57  C   UNL A   1      41.314  28.174  28.310  1.00  0.00     0.031 A 
ATOM     58  C   UNL A   1      42.806  28.377  28.211  1.00  0.00     0.074 A 
ATOM     59  C   UNL A   1      40.540  29.184  28.752  1.00  0.00     0.049 A 
ATOM     60  N   UNL A   1      43.531  29.410  28.556  1.00  0.00    -0.248 NA
ATOM     61  C   UNL A   1      43.578  27.259  27.650  1.00  0.00     0.031 C 
ATOM     62  C   UNL A   1      39.085  29.149  28.848  1.00  0.00     0.029 A 
ATOM     63  N   UNL A   1      40.871  30.437  29.211  1.00  0.00    -0.354 N 
ATOM     64  C   UNL A   1      44.845  29.072  28.247  1.00  0.00     0.074 A 
ATOM     65  C   UNL A   1      44.818  27.718  27.733  1.00  0.00     0.031 C 
ATOM     66  C   UNL A   1      38.645  30.316  29.347  1.00  0.00     0.029 A 
ATOM     67  C   UNL A   1      39.791  31.173  29.647  1.00  0.00     0.049 A 
ATOM     68  H   UNL A   1      41.795  30.777  29.228  1.00  0.00     0.167 HD
ATOM     69  C   UNL A   1      45.970  29.823  28.364  1.00  0.00     0.034 A 
ATOM     70  C   UNL A   1      39.728  32.383  30.243  1.00  0.00     0.034 A 
ATOM     71  C   UNL A   1      45.993  31.162  28.902  1.00  0.00     0.049 A 
ATOM     72  C   UNL A   1      41.007  33.155  30.475  1.00  0.00     0.074 A 
ATOM     73  C   UNL A   1      47.078  32.007  29.061  1.00  0.00     0.029 A 
ATOM     74  N   UNL A   1      44.886  31.848  29.384  1.00  0.00    -0.354 N 
ATOM     75  N   UNL A   1      42.240  32.826  30.163  1.00  0.00    -0.248 NA
ATOM     76  C   UNL A   1      40.882  34.466  31.126  1.00  0.00     0.031 C 
ATOM     77  C   UNL A   1      46.643  33.166  29.714  1.00  0.00     0.029 A 
ATOM     78  C   UNL A   1      45.270  33.087  29.877  1.00  0.00     0.049 A 
ATOM     79  H   UNL A   1      43.963  31.505  29.378  1.00  0.00     0.167 HD
ATOM     80  C   UNL A   1      43.028  33.912  30.540  1.00  0.00     0.074 A 
ATOM     81  C   UNL A   1      42.132  34.905  31.091  1.00  0.00     0.031 C 
ATOM     82  C   UNL A   1      44.372  34.074  30.433  1.00  0.00     0.034 A 
BRANCH  69  83
ATOM     83  C   UNL A   1      47.273  29.186  27.945  1.00  0.00     0.023 A 
ATOM     84  C   UNL A   1      48.153  28.617  28.883  1.00  0.00     0.031 A 
ATOM     85  C   UNL A   1      47.656  29.169  26.592  1.00  0.00     0.131 A 
ATOM     86  C   UNL A   1      49.399  28.125  28.469  1.00  0.00     0.055 A 
ATOM     87  C   UNL A   1      48.862  28.600  26.175  1.00  0.00     0.041 A 
ATOM     88  F   UNL A   1      46.870  29.716  25.652  1.00  0.00    -0.206 F 
ATOM     89  C   UNL A   1      49.749  28.089  27.117  1.00  0.00     0.022 A 
BRANCH  86  90
ATOM     90  S   UNL A   1      50.618  27.676  29.734  1.00  0.00     0.124 S 
ATOM     91  O   UNL A   1      51.308  26.558  29.094  1.00  0.00    -0.237 OA
ATOM     92  O   UNL A   1      51.389  28.905  29.879  1.00  0.00    -0.237 OA
ATOM     93  O   UNL A   1      49.797  27.314  30.888  1.00  0.00    -0.744 OA
ENDBRANCH  86  90
ENDBRANCH  69  83
BRANCH  70  94
ATOM     94  C   UNL A   1      38.420  32.939  30.704  1.00  0.00     0.023 A 
ATOM     95  C   UNL A   1      38.092  32.993  32.069  1.00  0.00     0.031 A 
ATOM     96  C   UNL A   1      37.445  33.354  29.778  1.00  0.00     0.131 A 
ATOM     97  C   UNL A   1      36.806  33.396  32.465  1.00  0.00     0.055 A 
ATOM     98  C   UNL A   1      36.188  33.811  30.181  1.00  0.00     0.041 A 
ATOM     99  F   UNL A   1      37.701  33.321  28.460  1.00  0.00    -0.206 F 
ATOM    100  C   UNL A   1      35.857  33.819  31.531  1.00  0.00     0.022 A 
BRANCH  97 101
ATOM    101  S   UNL A   1      36.353  33.255  34.217  1.00  0.00     0.124 S 
ATOM    102  O   UNL A   1      37.026  32.019  34.598  1.00  0.00    -0.237 OA
ATOM    103  O   UNL A   1      36.905  34.485  34.771  1.00  0.00    -0.237 OA
ATOM    104  O   UNL A   1      34.893  33.189  34.185  1.00  0.00    -0.744 OA
ENDBRANCH  97 101
ENDBRANCH  70  94
BRANCH  82 105
ATOM    105  C   UNL A   1      44.948  35.403  30.868  1.00  0.00     0.023 A 
ATOM    106  C   UNL A   1      45.011  36.508  30.000  1.00  0.00     0.031 A 
ATOM    107  C   UNL A   1      45.452  35.561  32.171  1.00  0.00     0.131 A 
ATOM    108  C   UNL A   1      45.621  37.699  30.425  1.00  0.00     0.055 A 
ATOM    109  C   UNL A   1      45.994  36.769  32.611  1.00  0.00     0.041 A 
ATOM    110  F   UNL A   1      45.426  34.540  33.043  1.00  0.00    -0.206 F 
ATOM    111  C   UNL A   1      46.095  37.842  31.732  1.00  0.00     0.022 A 
BRANCH 108 112
ATOM    112  S   UNL A   1      45.887  39.023  29.215  1.00  0.00     0.124 S 
ATOM    113  O   UNL A   1      45.670  38.326  27.951  1.00  0.00    -0.237 OA
ATOM    114  O   UNL A   1      44.866  39.997  29.589  1.00  0.00    -0.237 OA
ATOM    115  O   UNL A   1      47.264  39.444  29.463  1.00  0.00    -0.744 OA
ENDBRANCH 108 112
ENDBRANCH  82 105
ENDBRANCH  56  57
ENDBRANCH  49  51
ENDBRANCH  48  49
ENDBRANCH  47  48
ENDBRANCH  46  47
ENDBRANCH  45  46
ENDBRANCH  44  45
ENDBRANCH  43  44
ENDBRANCH  42  43
ENDBRANCH   1  42
TORSDOF 31
ENDMDL
MODEL 3
REMARK VINA RESULT:      -6.9      7.099     13.917
REMARK SMILES CC(C)C[C@H](NC(=O)[C@H](Cc1ccccc1)NC(=O)CNC(=O)CNC(=O)OCc1ccccc1)C(=O)OCCOCCOC(=O)c1ccc(-c2c3nc(c(-c4cc(S(=O)(=O)[O-])ccc4F)c4ccc([nH]4)c(-c4cc(S(=O)(=O)[O-])ccc4F)c4nc(c(-c5cc(S(=O)(=O)[O-])ccc5F)c5ccc2[nH]5)C=C4)C=C3)cc1
REMARK SMILES IDX 36 1 37 2 5 3 4 4 2 5 1 6 3 7 6 8 7 9 8 11 9 12 17 13 18 14
REMARK SMILES IDX 19 16 20 17 21 18 22 19 23 21 24 22 25 23 26 24 27 26 28 27
REMARK SMILES IDX 29 28 30 29 31 30 35 31 32 32 34 33 33 34 10 35 11 36 12 37
REMARK SMILES IDX 16 38 13 39 15 40 14 41 38 42 39 43 40 44 41 45 42 46 43 47
REMARK SMILES IDX 44 48 45 49 46 50 47 51 48 52 109 53 49 54 108 55 50 56
REMARK SMILES IDX 51 57 52 58 102 59 53 60 107 61 101 62 103 63 54 64 106 65
REMARK SMILES IDX 100 66 99 67 55 69 87 70 67 71 86 72 68 73 71 74 85 75
REMARK SMILES IDX 104 76 69 77 70 78 84 80 105 81 72 82 56 83 57 84 65 85
REMARK SMILES IDX 58 86 64 87 66 88 63 89 59 90 60 91 61 92 62 93 88 94 89 95
REMARK SMILES IDX 97 96 90 97 96 98 98 99 95 100 91 101 92 102 93 103 94 104
REMARK SMILES IDX 73 105 74 106 82 107 75 108 81 109 83 110 80 111 76 112
REMARK SMILES IDX 77 113 78 114 79 115
REMARK H PARENT 6 10 17 15 21 20 25 25 103 68 71 79
REMARK Flexibility Score: inf
ROOT
ATOM      1  C   UNL A   1      35.967  33.048  32.831  1.00  0.00     0.328 C 
ATOM      2  O   UNL A   1      35.647  32.278  33.750  1.00  0.00    -0.250 OA
ENDROOT
BRANCH   1   3
ATOM      3  C   UNL A   1      35.603  32.582  31.325  1.00  0.00     0.192 C 
BRANCH   3   4
ATOM      4  C   UNL A   1      34.451  33.101  30.052  1.00  0.00     0.040 C 
BRANCH   4   5
ATOM      5  C   UNL A   1      33.669  34.649  29.410  1.00  0.00    -0.015 C 
ATOM      6  C   UNL A   1      32.903  35.927  30.104  1.00  0.00     0.007 C 
ATOM      7  C   UNL A   1      34.337  35.420  28.241  1.00  0.00     0.007 C 
ENDBRANCH   4   5
ENDBRANCH   3   4
BRANCH   3   8
ATOM      8  N   UNL A   1      35.795  31.086  31.325  1.00  0.00    -0.341 N 
ATOM      9  C   UNL A   1      36.334  30.153  30.473  1.00  0.00     0.243 C 
ATOM     10  H   UNL A   1      35.444  30.671  32.145  1.00  0.00     0.164 HD
ATOM     11  O   UNL A   1      36.532  29.056  31.027  1.00  0.00    -0.273 OA
BRANCH   9  12
ATOM     12  C   UNL A   1      36.738  30.306  28.916  1.00  0.00     0.175 C 
BRANCH  12  13
ATOM     13  N   UNL A   1      38.142  29.924  28.713  1.00  0.00    -0.342 N 
ATOM     14  C   UNL A   1      39.330  30.390  29.178  1.00  0.00     0.240 C 
ATOM     15  H   UNL A   1      38.244  29.157  28.104  1.00  0.00     0.164 HD
ATOM     16  O   UNL A   1      40.345  29.856  28.709  1.00  0.00    -0.273 OA
BRANCH  14  17
ATOM     17  C   UNL A   1      39.519  31.428  30.307  1.00  0.00     0.216 C 
BRANCH  17  18
ATOM     18  N   UNL A   1      39.143  32.829  30.184  1.00  0.00    -0.346 N 
ATOM     19  C   UNL A   1      39.963  33.899  29.947  1.00  0.00     0.239 C 
ATOM     20  H   UNL A   1      38.185  33.031  30.283  1.00  0.00     0.164 HD
ATOM     21  O   UNL A   1      39.458  34.953  29.552  1.00  0.00    -0.273 OA
BRANCH  19  22
ATOM     22  C   UNL A   1      41.473  33.781  30.209  1.00  0.00     0.219 C 
BRANCH  22  23
ATOM     23  N   UNL A   1      41.547  33.184  31.502  1.00  0.00    -0.312 N 
ATOM     24  C   UNL A   1      42.063  33.497  32.701  1.00  0.00     0.407 C 
ATOM     25  H   UNL A   1      41.101  32.307  31.519  1.00  0.00     0.167 HD
ATOM     26  O   UNL A   1      42.527  32.421  33.098  1.00  0.00    -0.225 OA
BRANCH  24  27
ATOM     27  O   UNL A   1      41.919  34.715  33.334  1.00  0.00    -0.445 OA
BRANCH  27  28
ATOM     28  C   UNL A   1      41.600  35.387  34.826  1.00  0.00     0.270 C 
BRANCH  28  29
ATOM     29  C   UNL A   1      42.438  35.614  36.251  1.00  0.00    -0.011 A 
ATOM     30  C   UNL A   1      42.259  36.810  36.931  1.00  0.00     0.007 A 
ATOM     31  C   UNL A   1      43.278  34.777  37.028  1.00  0.00     0.007 A 
ATOM     32  C   UNL A   1      43.207  37.293  37.885  1.00  0.00     0.000 A 
ATOM     33  C   UNL A   1      44.285  35.234  37.902  1.00  0.00     0.000 A 
ATOM     34  C   UNL A   1      44.316  36.554  38.240  1.00  0.00     0.000 A 
ENDBRANCH  28  29
ENDBRANCH  27  28
ENDBRANCH  24  27
ENDBRANCH  22  23
ENDBRANCH  19  22
ENDBRANCH  17  18
ENDBRANCH  14  17
ENDBRANCH  12  13
BRANCH  12  35
ATOM     35  C   UNL A   1      35.760  29.342  28.095  1.00  0.00     0.070 C 
BRANCH  35  36
ATOM     36  C   UNL A   1      34.361  29.712  27.593  1.00  0.00    -0.045 A 
ATOM     37  C   UNL A   1      33.321  28.806  27.401  1.00  0.00     0.004 A 
ATOM     38  C   UNL A   1      34.034  31.073  27.417  1.00  0.00     0.004 A 
ATOM     39  C   UNL A   1      32.066  29.191  26.908  1.00  0.00     0.000 A 
ATOM     40  C   UNL A   1      32.759  31.478  26.988  1.00  0.00     0.000 A 
ATOM     41  C   UNL A   1      31.783  30.532  26.700  1.00  0.00     0.000 A 
ENDBRANCH  35  36
ENDBRANCH  12  35
ENDBRANCH   9  12
ENDBRANCH   3   8
ENDBRANCH   1   3
BRANCH   1  42
ATOM     42  O   UNL A   1      36.489  34.270  33.141  1.00  0.00    -0.462 OA
BRANCH  42  43
ATOM     43  C   UNL A   1      37.966  34.286  33.337  1.00  0.00     0.261 C 
BRANCH  43  44
ATOM     44  C   UNL A   1      38.706  32.954  33.462  1.00  0.00     0.202 C 
BRANCH  44  45
ATOM     45  O   UNL A   1      39.219  32.641  34.747  1.00  0.00    -0.374 OA
BRANCH  45  46
ATOM     46  C   UNL A   1      39.211  31.267  35.091  1.00  0.00     0.202 C 
BRANCH  46  47
ATOM     47  C   UNL A   1      38.259  30.859  36.223  1.00  0.00     0.261 C 
BRANCH  47  48
ATOM     48  O   UNL A   1      37.401  31.898  36.744  1.00  0.00    -0.460 OA
BRANCH  48  49
ATOM     49  C   UNL A   1      37.304  31.941  38.100  1.00  0.00     0.338 C 
ATOM     50  O   UNL A   1      36.865  31.065  38.824  1.00  0.00    -0.246 OA
BRANCH  49  51
ATOM     51  C   UNL A   1      37.882  33.192  38.646  1.00  0.00     0.060 A 
ATOM     52  C   UNL A   1      38.638  34.026  37.808  1.00  0.00     0.016 A 
ATOM     53  C   UNL A   1      37.861  33.423  40.022  1.00  0.00     0.016 A 
ATOM     54  C   UNL A   1      39.413  35.061  38.354  1.00  0.00     0.010 A 
ATOM     55  C   UNL A   1      38.645  34.453  40.566  1.00  0.00     0.010 A 
ATOM     56  C   UNL A   1      39.461  35.252  39.742  1.00  0.00    -0.014 A 
BRANCH  56  57
ATOM     57  C   UNL A   1      40.511  36.122  40.348  1.00  0.00     0.031 A 
ATOM     58  C   UNL A   1      41.801  35.484  40.801  1.00  0.00     0.074 A 
ATOM     59  C   UNL A   1      40.349  37.452  40.493  1.00  0.00     0.049 A 
ATOM     60  N   UNL A   1      42.832  36.022  41.399  1.00  0.00    -0.248 NA
ATOM     61  C   UNL A   1      41.938  34.043  40.543  1.00  0.00     0.031 C 
ATOM     62  C   UNL A   1      39.182  38.209  40.054  1.00  0.00     0.029 A 
ATOM     63  N   UNL A   1      41.166  38.403  41.058  1.00  0.00    -0.354 N 
ATOM     64  C   UNL A   1      43.746  34.989  41.583  1.00  0.00     0.074 A 
ATOM     65  C   UNL A   1      43.122  33.784  41.077  1.00  0.00     0.031 C 
ATOM     66  C   UNL A   1      39.347  39.504  40.375  1.00  0.00     0.029 A 
ATOM     67  C   UNL A   1      40.616  39.665  41.082  1.00  0.00     0.049 A 
ATOM     68  H   UNL A   1      42.061  38.199  41.413  1.00  0.00     0.167 HD
ATOM     69  C   UNL A   1      44.996  35.038  42.111  1.00  0.00     0.034 A 
ATOM     70  C   UNL A   1      41.065  40.814  41.631  1.00  0.00     0.034 A 
ATOM     71  C   UNL A   1      45.601  36.238  42.638  1.00  0.00     0.049 A 
ATOM     72  C   UNL A   1      42.410  40.822  42.322  1.00  0.00     0.074 A 
ATOM     73  C   UNL A   1      46.861  36.395  43.192  1.00  0.00     0.029 A 
ATOM     74  N   UNL A   1      44.989  37.483  42.696  1.00  0.00    -0.354 N 
ATOM     75  N   UNL A   1      43.268  39.840  42.474  1.00  0.00    -0.248 NA
ATOM     76  C   UNL A   1      42.851  42.099  42.901  1.00  0.00     0.031 C 
ATOM     77  C   UNL A   1      46.977  37.709  43.659  1.00  0.00     0.029 A 
ATOM     78  C   UNL A   1      45.829  38.400  43.311  1.00  0.00     0.049 A 
ATOM     79  H   UNL A   1      44.089  37.685  42.350  1.00  0.00     0.167 HD
ATOM     80  C   UNL A   1      44.367  40.394  43.127  1.00  0.00     0.074 A 
ATOM     81  C   UNL A   1      44.068  41.795  43.328  1.00  0.00     0.031 C 
ATOM     82  C   UNL A   1      45.524  39.798  43.517  1.00  0.00     0.034 A 
BRANCH  69  83
ATOM     83  C   UNL A   1      45.767  33.742  42.184  1.00  0.00     0.023 A 
ATOM     84  C   UNL A   1      45.647  32.873  43.283  1.00  0.00     0.031 A 
ATOM     85  C   UNL A   1      46.656  33.382  41.156  1.00  0.00     0.131 A 
ATOM     86  C   UNL A   1      46.454  31.728  43.364  1.00  0.00     0.055 A 
ATOM     87  C   UNL A   1      47.394  32.197  41.202  1.00  0.00     0.041 A 
ATOM     88  F   UNL A   1      46.831  34.181  40.093  1.00  0.00    -0.206 F 
ATOM     89  C   UNL A   1      47.308  31.370  42.318  1.00  0.00     0.022 A 
BRANCH  86  90
ATOM     90  S   UNL A   1      46.485  30.798  44.920  1.00  0.00     0.124 S 
ATOM     91  O   UNL A   1      47.921  30.672  45.159  1.00  0.00    -0.237 OA
ATOM     92  O   UNL A   1      45.760  31.680  45.829  1.00  0.00    -0.237 OA
ATOM     93  O   UNL A   1      45.804  29.549  44.587  1.00  0.00    -0.744 OA
ENDBRANCH  86  90
ENDBRANCH  69  83
BRANCH  70  94
ATOM     94  C   UNL A   1      40.232  42.054  41.594  1.00  0.00     0.023 A 
ATOM     95  C   UNL A   1      39.327  42.355  42.625  1.00  0.00     0.031 A 
ATOM     96  C   UNL A   1      40.273  42.919  40.484  1.00  0.00     0.131 A 
ATOM     97  C   UNL A   1      38.462  43.455  42.499  1.00  0.00     0.055 A 
ATOM     98  C   UNL A   1      39.453  44.045  40.392  1.00  0.00     0.041 A 
ATOM     99  F   UNL A   1      41.116  42.679  39.467  1.00  0.00    -0.206 F 
ATOM    100  C   UNL A   1      38.529  44.310  41.397  1.00  0.00     0.022 A 
BRANCH  97 101
ATOM    101  S   UNL A   1      37.169  43.690  43.751  1.00  0.00     0.124 S 
ATOM    102  O   UNL A   1      37.959  43.983  44.942  1.00  0.00    -0.237 OA
ATOM    103  O   UNL A   1      36.409  44.803  43.194  1.00  0.00    -0.237 OA
ATOM    104  O   UNL A   1      36.471  42.406  43.764  1.00  0.00    -0.744 OA
ENDBRANCH  97 101
ENDBRANCH  70  94
BRANCH  82 105
ATOM    105  C   UNL A   1      46.579  40.677  44.148  1.00  0.00     0.023 A 
ATOM    106  C   UNL A   1      47.546  41.349  43.381  1.00  0.00     0.031 A 
ATOM    107  C   UNL A   1      46.622  40.834  45.546  1.00  0.00     0.131 A 
ATOM    108  C   UNL A   1      48.552  42.095  44.018  1.00  0.00     0.055 A 
ATOM    109  C   UNL A   1      47.581  41.634  46.169  1.00  0.00     0.041 A 
ATOM    110  F   UNL A   1      45.729  40.212  46.332  1.00  0.00    -0.206 F 
ATOM    111  C   UNL A   1      48.562  42.257  45.405  1.00  0.00     0.022 A 
BRANCH 108 112
ATOM    112  S   UNL A   1      49.909  42.762  43.017  1.00  0.00     0.124 S 
ATOM    113  O   UNL A   1      50.134  41.686  42.056  1.00  0.00    -0.237 OA
ATOM    114  O   UNL A   1      49.327  43.987  42.477  1.00  0.00    -0.237 OA
ATOM    115  O   UNL A   1      50.984  42.962  43.986  1.00  0.00    -0.744 OA
ENDBRANCH 108 112
ENDBRANCH  82 105
ENDBRANCH  56  57
ENDBRANCH  49  51
ENDBRANCH  48  49
ENDBRANCH  47  48
ENDBRANCH  46  47
ENDBRANCH  45  46
ENDBRANCH  44  45
ENDBRANCH  43  44
ENDBRANCH  42  43
ENDBRANCH   1  42
TORSDOF 31
ENDMDL
