MODEL 1
REMARK VINA RESULT:     -11.8      0.000      0.000
REMARK SMILES C[C@H](C(=O)OCCOCCOC(=O)c1ccc(-c2c3nc(c(-c4cc(S(=O)(=O)[O-])ccc4F)c4ccc([nH]4)c(-c4cc(S(=O)(=O)[O-])ccc4F)c4nc(c(-c5cc(S(=O)(=O)[O-])ccc5F)c5ccc2[nH]5)C=C4)C=C3)cc1)N1C(=O)C[C@@H](N2C(=O)/C(=C/c3ccccc3)SC2=S)C1=O
REMARK SMILES IDX 8 1 7 2 6 3 5 4 3 5 4 6 2 7 1 8 77 9 78 10 96 11 79 12 80 13
REMARK SMILES IDX 81 14 97 15 82 16 83 17 94 18 84 19 85 20 93 21 95 22 86 23
REMARK SMILES IDX 87 24 88 25 92 26 89 27 91 28 90 29 9 30 10 31 11 32 12 33
REMARK SMILES IDX 13 34 14 35 15 36 76 37 16 38 75 39 17 40 18 41 19 42 69 43
REMARK SMILES IDX 20 44 74 45 68 46 70 47 21 48 73 49 67 50 66 51 22 53 54 54
REMARK SMILES IDX 34 55 53 56 35 57 38 58 52 59 71 60 36 61 37 62 51 64 72 65
REMARK SMILES IDX 39 66 23 67 24 68 32 69 25 70 31 71 33 72 30 73 26 74 27 75
REMARK SMILES IDX 28 76 29 77 55 78 56 79 64 80 57 81 63 82 65 83 62 84 58 85
REMARK SMILES IDX 59 86 60 87 61 88 40 89 41 90 49 91 42 92 48 93 50 94 47 95
REMARK SMILES IDX 43 96 44 97 45 98 46 99
REMARK H PARENT 70 52 38 63
REMARK Flexibility Score: inf
ROOT
ATOM      1  O   UNL A   1      35.113  31.512  27.684  1.00  0.00    -0.374 OA
ENDROOT
BRANCH   1   2
ATOM      2  C   UNL A   1      35.495  30.140  27.592  1.00  0.00     0.202 C 
BRANCH   2   3
ATOM      3  C   UNL A   1      34.372  29.156  27.251  1.00  0.00     0.261 C 
BRANCH   3   4
ATOM      4  O   UNL A   1      34.013  29.200  25.855  1.00  0.00    -0.462 OA
BRANCH   4   5
ATOM      5  C   UNL A   1      32.675  29.240  25.600  1.00  0.00     0.329 C 
ATOM      6  O   UNL A   1      31.842  29.768  26.330  1.00  0.00    -0.250 OA
BRANCH   5   7
ATOM      7  C   UNL A   1      32.285  28.599  24.265  1.00  0.00     0.200 C 
ATOM      8  C   UNL A   1      33.541  28.445  23.403  1.00  0.00     0.044 C 
BRANCH   7   9
ATOM      9  N   UNL A   1      31.486  27.371  24.334  1.00  0.00    -0.267 N 
ATOM     10  C   UNL A   1      30.356  27.219  23.582  1.00  0.00     0.232 C 
ATOM     11  C   UNL A   1      31.774  26.254  25.066  1.00  0.00     0.253 C 
ATOM     12  O   UNL A   1      29.832  28.076  22.887  1.00  0.00    -0.274 OA
ATOM     13  C   UNL A   1      29.830  25.820  23.714  1.00  0.00     0.136 C 
ATOM     14  C   UNL A   1      30.765  25.172  24.720  1.00  0.00     0.191 C 
ATOM     15  O   UNL A   1      32.727  26.080  25.813  1.00  0.00    -0.272 OA
BRANCH  14  16
ATOM     16  N   UNL A   1      31.477  23.973  24.235  1.00  0.00    -0.280 N 
ATOM     17  C   UNL A   1      31.409  22.801  24.970  1.00  0.00     0.266 C 
ATOM     18  C   UNL A   1      32.228  23.918  23.078  1.00  0.00     0.149 C 
ATOM     19  O   UNL A   1      30.823  22.667  26.037  1.00  0.00    -0.268 OA
ATOM     20  C   UNL A   1      32.147  21.705  24.292  1.00  0.00     0.081 C 
ATOM     21  S   UNL A   1      32.883  22.296  22.863  1.00  0.00    -0.054 SA
ATOM     22  S   UNL A   1      32.557  25.149  22.004  1.00  0.00    -0.052 S 
ATOM     23  C   UNL A   1      32.162  20.459  24.788  1.00  0.00     0.029 C 
BRANCH  23  24
ATOM     24  C   UNL A   1      32.875  19.300  24.238  1.00  0.00    -0.024 A 
ATOM     25  C   UNL A   1      32.273  18.525  23.238  1.00  0.00     0.008 A 
ATOM     26  C   UNL A   1      34.118  18.909  24.748  1.00  0.00     0.008 A 
ATOM     27  C   UNL A   1      32.915  17.384  22.747  1.00  0.00     0.001 A 
ATOM     28  C   UNL A   1      34.758  17.769  24.256  1.00  0.00     0.001 A 
ATOM     29  C   UNL A   1      34.156  17.007  23.257  1.00  0.00     0.000 A 
ENDBRANCH  23  24
ENDBRANCH  14  16
ENDBRANCH   7   9
ENDBRANCH   5   7
ENDBRANCH   4   5
ENDBRANCH   3   4
ENDBRANCH   2   3
ENDBRANCH   1   2
BRANCH   1  30
ATOM     30  C   UNL A   1      33.776  31.786  28.112  1.00  0.00     0.202 C 
BRANCH  30  31
ATOM     31  C   UNL A   1      33.163  33.096  27.603  1.00  0.00     0.261 C 
BRANCH  31  32
ATOM     32  O   UNL A   1      33.880  34.248  28.092  1.00  0.00    -0.460 OA
BRANCH  32  33
ATOM     33  C   UNL A   1      33.679  34.510  29.407  1.00  0.00     0.338 C 
ATOM     34  O   UNL A   1      32.656  34.944  29.921  1.00  0.00    -0.246 OA
BRANCH  33  35
ATOM     35  C   UNL A   1      34.812  34.016  30.208  1.00  0.00     0.060 A 
ATOM     36  C   UNL A   1      36.100  34.312  29.745  1.00  0.00     0.016 A 
ATOM     37  C   UNL A   1      34.629  33.194  31.322  1.00  0.00     0.016 A 
ATOM     38  C   UNL A   1      37.211  33.739  30.358  1.00  0.00     0.010 A 
ATOM     39  C   UNL A   1      35.749  32.615  31.935  1.00  0.00     0.010 A 
ATOM     40  C   UNL A   1      37.042  32.851  31.429  1.00  0.00    -0.014 A 
BRANCH  40  41
ATOM     41  C   UNL A   1      38.206  32.054  31.896  1.00  0.00     0.031 A 
ATOM     42  C   UNL A   1      38.804  32.356  33.245  1.00  0.00     0.074 A 
ATOM     43  C   UNL A   1      38.684  31.034  31.160  1.00  0.00     0.049 A 
ATOM     44  N   UNL A   1      39.811  31.787  33.855  1.00  0.00    -0.248 NA
ATOM     45  C   UNL A   1      38.178  33.448  34.006  1.00  0.00     0.031 C 
ATOM     46  C   UNL A   1      38.155  30.608  29.866  1.00  0.00     0.029 A 
ATOM     47  N   UNL A   1      39.720  30.165  31.402  1.00  0.00    -0.354 N 
ATOM     48  C   UNL A   1      39.943  32.449  35.071  1.00  0.00     0.074 A 
ATOM     49  C   UNL A   1      38.935  33.489  35.093  1.00  0.00     0.031 C 
ATOM     50  C   UNL A   1      38.873  29.560  29.425  1.00  0.00     0.029 A 
ATOM     51  C   UNL A   1      39.932  29.262  30.387  1.00  0.00     0.049 A 
ATOM     52  H   UNL A   1      40.260  30.188  32.225  1.00  0.00     0.167 HD
ATOM     53  C   UNL A   1      40.816  32.208  36.081  1.00  0.00     0.034 A 
ATOM     54  C   UNL A   1      40.884  28.316  30.244  1.00  0.00     0.034 A 
ATOM     55  C   UNL A   1      41.821  31.173  36.046  1.00  0.00     0.049 A 
ATOM     56  C   UNL A   1      41.903  28.127  31.341  1.00  0.00     0.074 A 
ATOM     57  C   UNL A   1      42.743  30.833  37.022  1.00  0.00     0.029 A 
ATOM     58  N   UNL A   1      42.048  30.321  34.974  1.00  0.00    -0.354 N 
ATOM     59  N   UNL A   1      42.012  28.755  32.489  1.00  0.00    -0.248 NA
ATOM     60  C   UNL A   1      42.926  27.094  31.125  1.00  0.00     0.031 C 
ATOM     61  C   UNL A   1      43.570  29.825  36.513  1.00  0.00     0.029 A 
ATOM     62  C   UNL A   1      43.119  29.481  35.249  1.00  0.00     0.049 A 
ATOM     63  H   UNL A   1      41.525  30.312  34.140  1.00  0.00     0.167 HD
ATOM     64  C   UNL A   1      43.095  28.172  33.141  1.00  0.00     0.074 A 
ATOM     65  C   UNL A   1      43.599  27.136  32.264  1.00  0.00     0.031 C 
ATOM     66  C   UNL A   1      43.621  28.461  34.360  1.00  0.00     0.034 A 
BRANCH  53  67
ATOM     67  C   UNL A   1      40.754  33.120  37.282  1.00  0.00     0.023 A 
ATOM     68  C   UNL A   1      39.984  32.805  38.416  1.00  0.00     0.031 A 
ATOM     69  C   UNL A   1      41.454  34.340  37.280  1.00  0.00     0.131 A 
ATOM     70  C   UNL A   1      39.880  33.728  39.470  1.00  0.00     0.055 A 
ATOM     71  C   UNL A   1      41.406  35.220  38.362  1.00  0.00     0.041 A 
ATOM     72  F   UNL A   1      42.187  34.704  36.216  1.00  0.00    -0.206 F 
ATOM     73  C   UNL A   1      40.604  34.922  39.460  1.00  0.00     0.022 A 
BRANCH  70  74
ATOM     74  S   UNL A   1      38.678  33.408  40.790  1.00  0.00     0.124 S 
ATOM     75  O   UNL A   1      38.900  34.550  41.674  1.00  0.00    -0.237 OA
ATOM     76  O   UNL A   1      37.412  33.396  40.067  1.00  0.00    -0.237 OA
ATOM     77  O   UNL A   1      39.100  32.119  41.332  1.00  0.00    -0.744 OA
ENDBRANCH  70  74
ENDBRANCH  53  67
BRANCH  54  78
ATOM     78  C   UNL A   1      40.953  27.499  28.999  1.00  0.00     0.023 A 
ATOM     79  C   UNL A   1      41.945  27.728  28.031  1.00  0.00     0.031 A 
ATOM     80  C   UNL A   1      39.988  26.512  28.733  1.00  0.00     0.131 A 
ATOM     81  C   UNL A   1      41.922  27.010  26.825  1.00  0.00     0.055 A 
ATOM     82  C   UNL A   1      39.999  25.767  27.552  1.00  0.00     0.041 A 
ATOM     83  F   UNL A   1      39.016  26.255  29.623  1.00  0.00    -0.206 F 
ATOM     84  C   UNL A   1      40.964  26.024  26.584  1.00  0.00     0.022 A 
BRANCH  81  85
ATOM     85  S   UNL A   1      43.120  27.445  25.532  1.00  0.00     0.124 S 
ATOM     86  O   UNL A   1      42.301  28.236  24.622  1.00  0.00    -0.237 OA
ATOM     87  O   UNL A   1      44.129  28.178  26.290  1.00  0.00    -0.237 OA
ATOM     88  O   UNL A   1      43.550  26.147  25.018  1.00  0.00    -0.744 OA
ENDBRANCH  81  85
ENDBRANCH  54  78
BRANCH  66  89
ATOM     89  C   UNL A   1      44.777  27.610  34.828  1.00  0.00     0.023 A 
ATOM     90  C   UNL A   1      44.578  26.365  35.448  1.00  0.00     0.031 A 
ATOM     91  C   UNL A   1      46.099  28.061  34.658  1.00  0.00     0.131 A 
ATOM     92  C   UNL A   1      45.680  25.637  35.925  1.00  0.00     0.055 A 
ATOM     93  C   UNL A   1      47.194  27.306  35.082  1.00  0.00     0.041 A 
ATOM     94  F   UNL A   1      46.348  29.243  34.072  1.00  0.00    -0.206 F 
ATOM     95  C   UNL A   1      46.987  26.092  35.731  1.00  0.00     0.022 A 
BRANCH  92  96
ATOM     96  S   UNL A   1      45.380  24.123  36.879  1.00  0.00     0.124 S 
ATOM     97  O   UNL A   1      44.762  24.648  38.093  1.00  0.00    -0.237 OA
ATOM     98  O   UNL A   1      44.503  23.364  35.994  1.00  0.00    -0.237 OA
ATOM     99  O   UNL A   1      46.717  23.560  37.059  1.00  0.00    -0.744 OA
ENDBRANCH  92  96
ENDBRANCH  66  89
ENDBRANCH  40  41
ENDBRANCH  33  35
ENDBRANCH  32  33
ENDBRANCH  31  32
ENDBRANCH  30  31
ENDBRANCH   1  30
TORSDOF 20
ENDMDL
MODEL 2
REMARK VINA RESULT:     -11.7      2.584      7.892
REMARK SMILES C[C@H](C(=O)OCCOCCOC(=O)c1ccc(-c2c3nc(c(-c4cc(S(=O)(=O)[O-])ccc4F)c4ccc([nH]4)c(-c4cc(S(=O)(=O)[O-])ccc4F)c4nc(c(-c5cc(S(=O)(=O)[O-])ccc5F)c5ccc2[nH]5)C=C4)C=C3)cc1)N1C(=O)C[C@@H](N2C(=O)/C(=C/c3ccccc3)SC2=S)C1=O
REMARK SMILES IDX 8 1 7 2 6 3 5 4 3 5 4 6 2 7 1 8 77 9 78 10 96 11 79 12 80 13
REMARK SMILES IDX 81 14 97 15 82 16 83 17 94 18 84 19 85 20 93 21 95 22 86 23
REMARK SMILES IDX 87 24 88 25 92 26 89 27 91 28 90 29 9 30 10 31 11 32 12 33
REMARK SMILES IDX 13 34 14 35 15 36 76 37 16 38 75 39 17 40 18 41 19 42 69 43
REMARK SMILES IDX 20 44 74 45 68 46 70 47 21 48 73 49 67 50 66 51 22 53 54 54
REMARK SMILES IDX 34 55 53 56 35 57 38 58 52 59 71 60 36 61 37 62 51 64 72 65
REMARK SMILES IDX 39 66 23 67 24 68 32 69 25 70 31 71 33 72 30 73 26 74 27 75
REMARK SMILES IDX 28 76 29 77 55 78 56 79 64 80 57 81 63 82 65 83 62 84 58 85
REMARK SMILES IDX 59 86 60 87 61 88 40 89 41 90 49 91 42 92 48 93 50 94 47 95
REMARK SMILES IDX 43 96 44 97 45 98 46 99
REMARK H PARENT 70 52 38 63
REMARK Flexibility Score: inf
ROOT
ATOM      1  O   UNL A   1      29.926  31.134  24.371  1.00  0.00    -0.374 OA
ENDROOT
BRANCH   1   2
ATOM      2  C   UNL A   1      30.047  29.799  23.882  1.00  0.00     0.202 C 
BRANCH   2   3
ATOM      3  C   UNL A   1      30.088  29.647  22.358  1.00  0.00     0.261 C 
BRANCH   3   4
ATOM      4  O   UNL A   1      30.340  28.286  21.951  1.00  0.00    -0.462 OA
BRANCH   4   5
ATOM      5  C   UNL A   1      31.546  27.779  22.334  1.00  0.00     0.329 C 
ATOM      6  O   UNL A   1      32.559  28.449  22.508  1.00  0.00    -0.250 OA
BRANCH   5   7
ATOM      7  C   UNL A   1      31.524  26.269  22.587  1.00  0.00     0.200 C 
ATOM      8  C   UNL A   1      31.936  25.545  21.302  1.00  0.00     0.044 C 
BRANCH   7   9
ATOM      9  N   UNL A   1      32.248  25.791  23.770  1.00  0.00    -0.267 N 
ATOM     10  C   UNL A   1      31.693  25.865  25.017  1.00  0.00     0.232 C 
ATOM     11  C   UNL A   1      33.473  25.186  23.784  1.00  0.00     0.253 C 
ATOM     12  O   UNL A   1      30.639  26.412  25.305  1.00  0.00    -0.274 OA
ATOM     13  C   UNL A   1      32.564  25.160  26.014  1.00  0.00     0.136 C 
ATOM     14  C   UNL A   1      33.767  24.717  25.199  1.00  0.00     0.191 C 
ATOM     15  O   UNL A   1      34.199  24.957  22.828  1.00  0.00    -0.272 OA
BRANCH  14  16
ATOM     16  N   UNL A   1      34.019  23.262  25.191  1.00  0.00    -0.280 N 
ATOM     17  C   UNL A   1      32.974  22.395  24.918  1.00  0.00     0.266 C 
ATOM     18  C   UNL A   1      35.243  22.674  25.440  1.00  0.00     0.149 C 
ATOM     19  O   UNL A   1      31.814  22.726  24.709  1.00  0.00    -0.268 OA
ATOM     20  C   UNL A   1      33.442  20.985  24.910  1.00  0.00     0.081 C 
ATOM     21  S   UNL A   1      35.107  20.922  25.308  1.00  0.00    -0.054 SA
ATOM     22  S   UNL A   1      36.677  23.416  25.851  1.00  0.00    -0.052 S 
ATOM     23  C   UNL A   1      32.616  19.975  24.602  1.00  0.00     0.029 C 
BRANCH  23  24
ATOM     24  C   UNL A   1      32.941  18.543  24.589  1.00  0.00    -0.024 A 
ATOM     25  C   UNL A   1      32.708  17.768  25.732  1.00  0.00     0.008 A 
ATOM     26  C   UNL A   1      33.549  17.952  23.476  1.00  0.00     0.008 A 
ATOM     27  C   UNL A   1      33.067  16.417  25.754  1.00  0.00     0.001 A 
ATOM     28  C   UNL A   1      33.907  16.602  23.500  1.00  0.00     0.001 A 
ATOM     29  C   UNL A   1      33.666  15.835  24.638  1.00  0.00     0.000 A 
ENDBRANCH  23  24
ENDBRANCH  14  16
ENDBRANCH   7   9
ENDBRANCH   5   7
ENDBRANCH   4   5
ENDBRANCH   3   4
ENDBRANCH   2   3
ENDBRANCH   1   2
BRANCH   1  30
ATOM     30  C   UNL A   1      30.653  31.459  25.559  1.00  0.00     0.202 C 
BRANCH  30  31
ATOM     31  C   UNL A   1      31.932  30.651  25.807  1.00  0.00     0.261 C 
BRANCH  31  32
ATOM     32  O   UNL A   1      32.405  30.799  27.161  1.00  0.00    -0.460 OA
BRANCH  32  33
ATOM     33  C   UNL A   1      33.197  31.882  27.356  1.00  0.00     0.338 C 
ATOM     34  O   UNL A   1      32.856  33.057  27.326  1.00  0.00    -0.246 OA
BRANCH  33  35
ATOM     35  C   UNL A   1      34.534  31.465  27.812  1.00  0.00     0.060 A 
ATOM     36  C   UNL A   1      34.702  30.117  28.155  1.00  0.00     0.016 A 
ATOM     37  C   UNL A   1      35.570  32.381  28.007  1.00  0.00     0.016 A 
ATOM     38  C   UNL A   1      35.886  29.690  28.750  1.00  0.00     0.010 A 
ATOM     39  C   UNL A   1      36.760  31.950  28.609  1.00  0.00     0.010 A 
ATOM     40  C   UNL A   1      36.907  30.611  29.022  1.00  0.00    -0.014 A 
BRANCH  40  41
ATOM     41  C   UNL A   1      38.043  30.194  29.884  1.00  0.00     0.031 A 
ATOM     42  C   UNL A   1      39.055  29.221  29.339  1.00  0.00     0.074 A 
ATOM     43  C   UNL A   1      38.208  30.722  31.111  1.00  0.00     0.049 A 
ATOM     44  N   UNL A   1      40.124  28.728  29.907  1.00  0.00    -0.248 NA
ATOM     45  C   UNL A   1      38.827  28.744  27.966  1.00  0.00     0.031 C 
ATOM     46  C   UNL A   1      37.329  31.713  31.728  1.00  0.00     0.029 A 
ATOM     47  N   UNL A   1      39.181  30.502  32.056  1.00  0.00    -0.354 N 
ATOM     48  C   UNL A   1      40.700  27.881  28.965  1.00  0.00     0.074 A 
ATOM     49  C   UNL A   1      39.836  27.899  27.803  1.00  0.00     0.031 C 
ATOM     50  C   UNL A   1      37.800  32.014  32.951  1.00  0.00     0.029 A 
ATOM     51  C   UNL A   1      38.993  31.212  33.218  1.00  0.00     0.049 A 
ATOM     52  H   UNL A   1      39.939  29.891  31.914  1.00  0.00     0.167 HD
ATOM     53  C   UNL A   1      41.845  27.160  29.055  1.00  0.00     0.034 A 
ATOM     54  C   UNL A   1      39.694  31.203  34.370  1.00  0.00     0.034 A 
ATOM     55  C   UNL A   1      42.696  27.143  30.221  1.00  0.00     0.049 A 
ATOM     56  C   UNL A   1      40.916  30.323  34.481  1.00  0.00     0.074 A 
ATOM     57  C   UNL A   1      43.887  26.464  30.410  1.00  0.00     0.029 A 
ATOM     58  N   UNL A   1      42.439  27.825  31.403  1.00  0.00    -0.354 N 
ATOM     59  N   UNL A   1      41.451  29.532  33.580  1.00  0.00    -0.248 NA
ATOM     60  C   UNL A   1      41.631  30.339  35.765  1.00  0.00     0.031 C 
ATOM     61  C   UNL A   1      44.312  26.678  31.726  1.00  0.00     0.029 A 
ATOM     62  C   UNL A   1      43.428  27.552  32.337  1.00  0.00     0.049 A 
ATOM     63  H   UNL A   1      41.667  28.417  31.556  1.00  0.00     0.167 HD
ATOM     64  C   UNL A   1      42.582  28.983  34.180  1.00  0.00     0.074 A 
ATOM     65  C   UNL A   1      42.656  29.540  35.514  1.00  0.00     0.031 C 
ATOM     66  C   UNL A   1      43.483  28.103  33.671  1.00  0.00     0.034 A 
BRANCH  53  67
ATOM     67  C   UNL A   1      42.210  26.289  27.878  1.00  0.00     0.023 A 
ATOM     68  C   UNL A   1      41.757  24.962  27.766  1.00  0.00     0.031 A 
ATOM     69  C   UNL A   1      43.050  26.785  26.865  1.00  0.00     0.131 A 
ATOM     70  C   UNL A   1      42.200  24.158  26.703  1.00  0.00     0.055 A 
ATOM     71  C   UNL A   1      43.428  26.004  25.772  1.00  0.00     0.041 A 
ATOM     72  F   UNL A   1      43.531  28.036  26.931  1.00  0.00    -0.206 F 
ATOM     73  C   UNL A   1      43.013  24.678  25.694  1.00  0.00     0.022 A 
BRANCH  70  74
ATOM     74  S   UNL A   1      41.810  22.387  26.732  1.00  0.00     0.124 S 
ATOM     75  O   UNL A   1      42.299  21.957  25.423  1.00  0.00    -0.237 OA
ATOM     76  O   UNL A   1      42.570  21.916  27.884  1.00  0.00    -0.237 OA
ATOM     77  O   UNL A   1      40.358  22.358  26.886  1.00  0.00    -0.744 OA
ENDBRANCH  70  74
ENDBRANCH  53  67
BRANCH  54  78
ATOM     78  C   UNL A   1      39.242  32.018  35.535  1.00  0.00     0.023 A 
ATOM     79  C   UNL A   1      38.550  31.433  36.608  1.00  0.00     0.031 A 
ATOM     80  C   UNL A   1      39.447  33.408  35.561  1.00  0.00     0.131 A 
ATOM     81  C   UNL A   1      38.049  32.244  37.640  1.00  0.00     0.055 A 
ATOM     82  C   UNL A   1      38.990  34.203  36.614  1.00  0.00     0.041 A 
ATOM     83  F   UNL A   1      40.101  34.017  34.558  1.00  0.00    -0.206 F 
ATOM     84  C   UNL A   1      38.275  33.622  37.655  1.00  0.00     0.022 A 
BRANCH  81  85
ATOM     85  S   UNL A   1      37.022  31.479  38.925  1.00  0.00     0.124 S 
ATOM     86  O   UNL A   1      37.843  31.671  40.115  1.00  0.00    -0.237 OA
ATOM     87  O   UNL A   1      35.802  32.277  38.851  1.00  0.00    -0.237 OA
ATOM     88  O   UNL A   1      36.888  30.096  38.474  1.00  0.00    -0.744 OA
ENDBRANCH  81  85
ENDBRANCH  54  78
BRANCH  66  89
ATOM     89  C   UNL A   1      44.650  27.727  34.552  1.00  0.00     0.023 A 
ATOM     90  C   UNL A   1      45.852  28.455  34.543  1.00  0.00     0.031 A 
ATOM     91  C   UNL A   1      44.557  26.614  35.408  1.00  0.00     0.131 A 
ATOM     92  C   UNL A   1      46.932  28.031  35.333  1.00  0.00     0.055 A 
ATOM     93  C   UNL A   1      45.615  26.231  36.234  1.00  0.00     0.041 A 
ATOM     94  F   UNL A   1      43.432  25.882  35.458  1.00  0.00    -0.206 F 
ATOM     95  C   UNL A   1      46.816  26.934  36.190  1.00  0.00     0.022 A 
BRANCH  92  96
ATOM     96  S   UNL A   1      48.525  28.884  35.162  1.00  0.00     0.124 S 
ATOM     97  O   UNL A   1      48.246  29.837  34.093  1.00  0.00    -0.237 OA
ATOM     98  O   UNL A   1      48.718  29.454  36.492  1.00  0.00    -0.237 OA
ATOM     99  O   UNL A   1      49.452  27.811  34.809  1.00  0.00    -0.744 OA
ENDBRANCH  92  96
ENDBRANCH  66  89
ENDBRANCH  40  41
ENDBRANCH  33  35
ENDBRANCH  32  33
ENDBRANCH  31  32
ENDBRANCH  30  31
ENDBRANCH   1  30
TORSDOF 20
ENDMDL
MODEL 3
REMARK VINA RESULT:     -11.1      5.611     10.181
REMARK SMILES C[C@H](C(=O)OCCOCCOC(=O)c1ccc(-c2c3nc(c(-c4cc(S(=O)(=O)[O-])ccc4F)c4ccc([nH]4)c(-c4cc(S(=O)(=O)[O-])ccc4F)c4nc(c(-c5cc(S(=O)(=O)[O-])ccc5F)c5ccc2[nH]5)C=C4)C=C3)cc1)N1C(=O)C[C@@H](N2C(=O)/C(=C/c3ccccc3)SC2=S)C1=O
REMARK SMILES IDX 8 1 7 2 6 3 5 4 3 5 4 6 2 7 1 8 77 9 78 10 96 11 79 12 80 13
REMARK SMILES IDX 81 14 97 15 82 16 83 17 94 18 84 19 85 20 93 21 95 22 86 23
REMARK SMILES IDX 87 24 88 25 92 26 89 27 91 28 90 29 9 30 10 31 11 32 12 33
REMARK SMILES IDX 13 34 14 35 15 36 76 37 16 38 75 39 17 40 18 41 19 42 69 43
REMARK SMILES IDX 20 44 74 45 68 46 70 47 21 48 73 49 67 50 66 51 22 53 54 54
REMARK SMILES IDX 34 55 53 56 35 57 38 58 52 59 71 60 36 61 37 62 51 64 72 65
REMARK SMILES IDX 39 66 23 67 24 68 32 69 25 70 31 71 33 72 30 73 26 74 27 75
REMARK SMILES IDX 28 76 29 77 55 78 56 79 64 80 57 81 63 82 65 83 62 84 58 85
REMARK SMILES IDX 59 86 60 87 61 88 40 89 41 90 49 91 42 92 48 93 50 94 47 95
REMARK SMILES IDX 43 96 44 97 45 98 46 99
REMARK H PARENT 70 52 38 63
REMARK Flexibility Score: inf
ROOT
ATOM      1  O   UNL A   1      36.839  19.659  24.951  1.00  0.00    -0.374 OA
ENDROOT
BRANCH   1   2
ATOM      2  C   UNL A   1      36.190  20.866  25.348  1.00  0.00     0.202 C 
BRANCH   2   3
ATOM      3  C   UNL A   1      34.712  20.735  25.728  1.00  0.00     0.261 C 
BRANCH   3   4
ATOM      4  O   UNL A   1      34.403  21.416  26.962  1.00  0.00    -0.462 OA
BRANCH   4   5
ATOM      5  C   UNL A   1      33.202  22.061  26.985  1.00  0.00     0.329 C 
ATOM      6  O   UNL A   1      32.565  22.309  28.004  1.00  0.00    -0.250 OA
BRANCH   5   7
ATOM      7  C   UNL A   1      32.719  22.509  25.603  1.00  0.00     0.200 C 
ATOM      8  C   UNL A   1      31.190  22.599  25.617  1.00  0.00     0.044 C 
BRANCH   7   9
ATOM      9  N   UNL A   1      33.357  23.703  25.039  1.00  0.00    -0.267 N 
ATOM     10  C   UNL A   1      33.903  23.689  23.787  1.00  0.00     0.232 C 
ATOM     11  C   UNL A   1      33.436  24.935  25.624  1.00  0.00     0.253 C 
ATOM     12  O   UNL A   1      34.027  22.711  23.066  1.00  0.00    -0.274 OA
ATOM     13  C   UNL A   1      34.333  25.072  23.394  1.00  0.00     0.136 C 
ATOM     14  C   UNL A   1      34.039  25.909  24.626  1.00  0.00     0.191 C 
ATOM     15  O   UNL A   1      33.018  25.263  26.726  1.00  0.00    -0.272 OA
BRANCH  14  16
ATOM     16  N   UNL A   1      33.108  27.034  24.414  1.00  0.00    -0.280 N 
ATOM     17  C   UNL A   1      32.086  26.902  23.488  1.00  0.00     0.266 C 
ATOM     18  C   UNL A   1      33.168  28.243  25.078  1.00  0.00     0.149 C 
ATOM     19  O   UNL A   1      31.894  25.923  22.779  1.00  0.00    -0.268 OA
ATOM     20  C   UNL A   1      31.234  28.119  23.459  1.00  0.00     0.081 C 
ATOM     21  S   UNL A   1      31.858  29.292  24.541  1.00  0.00    -0.054 SA
ATOM     22  S   UNL A   1      34.291  28.745  26.202  1.00  0.00    -0.052 S 
ATOM     23  C   UNL A   1      30.143  28.192  22.683  1.00  0.00     0.029 C 
BRANCH  23  24
ATOM     24  C   UNL A   1      29.240  29.340  22.537  1.00  0.00    -0.024 A 
ATOM     25  C   UNL A   1      29.565  30.370  21.646  1.00  0.00     0.008 A 
ATOM     26  C   UNL A   1      28.094  29.461  23.330  1.00  0.00     0.008 A 
ATOM     27  C   UNL A   1      28.744  31.497  21.539  1.00  0.00     0.001 A 
ATOM     28  C   UNL A   1      27.275  30.588  23.223  1.00  0.00     0.001 A 
ATOM     29  C   UNL A   1      27.601  31.605  22.329  1.00  0.00     0.000 A 
ENDBRANCH  23  24
ENDBRANCH  14  16
ENDBRANCH   7   9
ENDBRANCH   5   7
ENDBRANCH   4   5
ENDBRANCH   3   4
ENDBRANCH   2   3
ENDBRANCH   1   2
BRANCH   1  30
ATOM     30  C   UNL A   1      38.267  19.683  24.878  1.00  0.00     0.202 C 
BRANCH  30  31
ATOM     31  C   UNL A   1      38.964  20.778  25.694  1.00  0.00     0.261 C 
BRANCH  31  32
ATOM     32  O   UNL A   1      39.843  20.223  26.694  1.00  0.00    -0.460 OA
BRANCH  32  33
ATOM     33  C   UNL A   1      41.082  19.920  26.235  1.00  0.00     0.338 C 
ATOM     34  O   UNL A   1      41.417  18.904  25.640  1.00  0.00    -0.246 OA
BRANCH  33  35
ATOM     35  C   UNL A   1      41.979  21.080  26.374  1.00  0.00     0.060 A 
ATOM     36  C   UNL A   1      42.328  21.467  27.675  1.00  0.00     0.016 A 
ATOM     37  C   UNL A   1      42.383  21.840  25.276  1.00  0.00     0.016 A 
ATOM     38  C   UNL A   1      43.033  22.648  27.886  1.00  0.00     0.010 A 
ATOM     39  C   UNL A   1      43.089  23.032  25.491  1.00  0.00     0.010 A 
ATOM     40  C   UNL A   1      43.381  23.463  26.800  1.00  0.00    -0.014 A 
BRANCH  40  41
ATOM     41  C   UNL A   1      43.895  24.832  27.061  1.00  0.00     0.031 A 
ATOM     42  C   UNL A   1      42.956  25.870  27.619  1.00  0.00     0.074 A 
ATOM     43  C   UNL A   1      45.192  25.132  26.866  1.00  0.00     0.049 A 
ATOM     44  N   UNL A   1      43.188  27.119  27.929  1.00  0.00    -0.248 NA
ATOM     45  C   UNL A   1      41.572  25.436  27.859  1.00  0.00     0.031 C 
ATOM     46  C   UNL A   1      46.209  24.199  26.382  1.00  0.00     0.029 A 
ATOM     47  N   UNL A   1      45.877  26.307  27.056  1.00  0.00    -0.354 N 
ATOM     48  C   UNL A   1      41.980  27.624  28.401  1.00  0.00     0.074 A 
ATOM     49  C   UNL A   1      41.010  26.553  28.298  1.00  0.00     0.031 C 
ATOM     50  C   UNL A   1      47.390  24.840  26.312  1.00  0.00     0.029 A 
ATOM     51  C   UNL A   1      47.206  26.234  26.711  1.00  0.00     0.049 A 
ATOM     52  H   UNL A   1      45.455  27.124  27.406  1.00  0.00     0.167 HD
ATOM     53  C   UNL A   1      41.705  28.861  28.884  1.00  0.00     0.034 A 
ATOM     54  C   UNL A   1      48.159  27.189  26.700  1.00  0.00     0.034 A 
ATOM     55  C   UNL A   1      42.678  29.923  28.976  1.00  0.00     0.049 A 
ATOM     56  C   UNL A   1      47.808  28.584  27.156  1.00  0.00     0.074 A 
ATOM     57  C   UNL A   1      42.509  31.207  29.467  1.00  0.00     0.029 A 
ATOM     58  N   UNL A   1      43.998  29.832  28.555  1.00  0.00    -0.354 N 
ATOM     59  N   UNL A   1      46.664  29.045  27.605  1.00  0.00    -0.248 NA
ATOM     60  C   UNL A   1      48.881  29.588  27.107  1.00  0.00     0.031 C 
ATOM     61  C   UNL A   1      43.704  31.911  29.278  1.00  0.00     0.029 A 
ATOM     62  C   UNL A   1      44.644  31.046  28.740  1.00  0.00     0.049 A 
ATOM     63  H   UNL A   1      44.416  29.022  28.182  1.00  0.00     0.167 HD
ATOM     64  C   UNL A   1      46.890  30.382  27.921  1.00  0.00     0.074 A 
ATOM     65  C   UNL A   1      48.281  30.650  27.620  1.00  0.00     0.031 C 
ATOM     66  C   UNL A   1      46.028  31.305  28.423  1.00  0.00     0.034 A 
BRANCH  53  67
ATOM     67  C   UNL A   1      40.280  29.144  29.294  1.00  0.00     0.023 A 
ATOM     68  C   UNL A   1      39.873  29.106  30.640  1.00  0.00     0.031 A 
ATOM     69  C   UNL A   1      39.307  29.426  28.320  1.00  0.00     0.131 A 
ATOM     70  C   UNL A   1      38.519  29.280  30.967  1.00  0.00     0.055 A 
ATOM     71  C   UNL A   1      37.975  29.672  28.657  1.00  0.00     0.041 A 
ATOM     72  F   UNL A   1      39.633  29.452  27.018  1.00  0.00    -0.206 F 
ATOM     73  C   UNL A   1      37.572  29.585  29.986  1.00  0.00     0.022 A 
BRANCH  70  74
ATOM     74  S   UNL A   1      37.988  28.967  32.672  1.00  0.00     0.124 S 
ATOM     75  O   UNL A   1      37.870  27.510  32.681  1.00  0.00    -0.237 OA
ATOM     76  O   UNL A   1      39.088  29.523  33.452  1.00  0.00    -0.237 OA
ATOM     77  O   UNL A   1      36.722  29.687  32.776  1.00  0.00    -0.744 OA
ENDBRANCH  70  74
ENDBRANCH  53  67
BRANCH  54  78
ATOM     78  C   UNL A   1      49.531  26.879  26.203  1.00  0.00     0.023 A 
ATOM     79  C   UNL A   1      49.927  27.216  24.898  1.00  0.00     0.031 A 
ATOM     80  C   UNL A   1      50.448  26.186  27.012  1.00  0.00     0.131 A 
ATOM     81  C   UNL A   1      51.189  26.820  24.428  1.00  0.00     0.055 A 
ATOM     82  C   UNL A   1      51.721  25.839  26.556  1.00  0.00     0.041 A 
ATOM     83  F   UNL A   1      50.119  25.838  28.267  1.00  0.00    -0.206 F 
ATOM     84  C   UNL A   1      52.092  26.145  25.251  1.00  0.00     0.022 A 
BRANCH  81  85
ATOM     85  S   UNL A   1      51.604  27.129  22.688  1.00  0.00     0.124 S 
ATOM     86  O   UNL A   1      52.033  28.522  22.728  1.00  0.00    -0.237 OA
ATOM     87  O   UNL A   1      52.650  26.141  22.448  1.00  0.00    -0.237 OA
ATOM     88  O   UNL A   1      50.344  26.883  21.990  1.00  0.00    -0.744 OA
ENDBRANCH  81  85
ENDBRANCH  54  78
BRANCH  66  89
ATOM     89  C   UNL A   1      46.585  32.677  28.716  1.00  0.00     0.023 A 
ATOM     90  C   UNL A   1      46.757  33.639  27.707  1.00  0.00     0.031 A 
ATOM     91  C   UNL A   1      46.959  33.021  30.029  1.00  0.00     0.131 A 
ATOM     92  C   UNL A   1      47.338  34.880  28.015  1.00  0.00     0.055 A 
ATOM     93  C   UNL A   1      47.483  34.277  30.339  1.00  0.00     0.041 A 
ATOM     94  F   UNL A   1      46.817  32.140  31.032  1.00  0.00    -0.206 F 
ATOM     95  C   UNL A   1      47.686  35.211  29.327  1.00  0.00     0.022 A 
BRANCH  92  96
ATOM     96  S   UNL A   1      47.711  36.029  26.661  1.00  0.00     0.124 S 
ATOM     97  O   UNL A   1      46.451  36.052  25.925  1.00  0.00    -0.237 OA
ATOM     98  O   UNL A   1      48.055  37.254  27.376  1.00  0.00    -0.237 OA
ATOM     99  O   UNL A   1      48.824  35.387  25.964  1.00  0.00    -0.744 OA
ENDBRANCH  92  96
ENDBRANCH  66  89
ENDBRANCH  40  41
ENDBRANCH  33  35
ENDBRANCH  32  33
ENDBRANCH  31  32
ENDBRANCH  30  31
ENDBRANCH   1  30
TORSDOF 20
ENDMDL
