MODEL 1
REMARK VINA RESULT:     -11.0      0.000      0.000
REMARK SMILES Cc1nsc(NC(=O)CC2([NH3+])CCC2)c1C(=O)OCCOCCOC(=O)c1ccc(-c2c3nc(c(-c4cc(S(=O)(=O)[O-])ccc4F)c4ccc([nH]4)c(-c4cc(S(=O)(=O)[O-])ccc4F)c4nc(c(-c5cc(S(=O)(=O)[O-])ccc5F)c5ccc2[nH]5)C=C4)C=C3)cc1
REMARK SMILES IDX 20 1 19 2 18 3 16 4 17 5 15 6 1 7 2 8 3 9 4 10 5 11 6 12
REMARK SMILES IDX 7 13 8 15 9 16 10 17 12 18 14 19 13 20 11 21 21 25 22 26
REMARK SMILES IDX 23 27 24 28 25 29 26 30 27 31 28 32 89 33 29 34 88 35 30 36
REMARK SMILES IDX 31 37 32 38 82 39 33 40 87 41 81 42 83 43 34 44 86 45 80 46
REMARK SMILES IDX 79 47 35 49 67 50 47 51 66 52 48 53 51 54 65 55 84 56 49 57
REMARK SMILES IDX 50 58 64 60 85 61 52 62 36 63 37 64 45 65 38 66 44 67 46 68
REMARK SMILES IDX 43 69 39 70 40 71 41 72 42 73 68 74 69 75 77 76 70 77 76 78
REMARK SMILES IDX 78 79 75 80 71 81 72 82 73 83 74 84 53 85 54 86 62 87 55 88
REMARK SMILES IDX 61 89 63 90 60 91 56 92 57 93 58 94 59 95
REMARK H PARENT 6 14 11 22 11 23 11 24 83 48 51 59
REMARK Flexibility Score: inf
ROOT
ATOM      1  C   UNL A   1      31.931  30.741  26.161  1.00  0.00     0.202 C 
ENDROOT
BRANCH   1   2
ATOM      2  C   UNL A   1      31.471  29.539  25.335  1.00  0.00     0.261 C 
BRANCH   2   3
ATOM      3  O   UNL A   1      32.486  28.531  25.201  1.00  0.00    -0.460 OA
BRANCH   3   4
ATOM      4  C   UNL A   1      32.036  27.255  25.352  1.00  0.00     0.343 C 
ATOM      5  O   UNL A   1      31.076  26.939  26.046  1.00  0.00    -0.246 OA
BRANCH   4   6
ATOM      6  C   UNL A   1      32.738  26.274  24.541  1.00  0.00     0.117 A 
ATOM      7  C   UNL A   1      32.304  27.068  22.063  1.00  0.00     0.069 C 
ATOM      8  C   UNL A   1      32.947  26.227  23.111  1.00  0.00     0.068 A 
ATOM      9  N   UNL A   1      33.823  25.307  22.693  1.00  0.00    -0.195 NA
ATOM     10  S   UNL A   1      34.313  24.420  23.995  1.00  0.00    -0.017 S 
ATOM     11  C   UNL A   1      33.196  25.078  25.085  1.00  0.00     0.130 A 
BRANCH  11  12
ATOM     12  N   UNL A   1      32.838  24.521  26.300  1.00  0.00    -0.315 N 
ATOM     13  C   UNL A   1      32.404  23.270  26.638  1.00  0.00     0.231 C 
ATOM     14  H   UNL A   1      32.907  25.141  27.062  1.00  0.00     0.170 HD
ATOM     15  O   UNL A   1      31.967  23.117  27.786  1.00  0.00    -0.274 OA
BRANCH  13  16
ATOM     16  C   UNL A   1      32.444  22.083  25.707  1.00  0.00     0.168 C 
BRANCH  16  17
ATOM     17  C   UNL A   1      33.583  21.085  25.872  1.00  0.00     0.103 C 
ATOM     18  C   UNL A   1      34.183  20.604  24.520  1.00  0.00     0.069 C 
ATOM     19  C   UNL A   1      35.017  21.562  26.245  1.00  0.00     0.069 C 
ATOM     20  C   UNL A   1      35.575  20.589  25.178  1.00  0.00     0.013 C 
BRANCH  17  21
ATOM     21  N   UNL A   1      33.284  19.897  26.690  1.00  0.00    -0.352 N 
ATOM     22  H   UNL A   1      33.858  19.115  26.375  1.00  0.00     0.344 HD
ATOM     23  H   UNL A   1      32.297  19.657  26.591  1.00  0.00     0.344 HD
ATOM     24  H   UNL A   1      33.489  20.098  27.668  1.00  0.00     0.344 HD
ENDBRANCH  17  21
ENDBRANCH  16  17
ENDBRANCH  13  16
ENDBRANCH  11  12
ENDBRANCH   4   6
ENDBRANCH   3   4
ENDBRANCH   2   3
ENDBRANCH   1   2
BRANCH   1  25
ATOM     25  O   UNL A   1      32.689  30.469  27.337  1.00  0.00    -0.374 OA
BRANCH  25  26
ATOM     26  C   UNL A   1      34.073  30.811  27.375  1.00  0.00     0.202 C 
BRANCH  26  27
ATOM     27  C   UNL A   1      35.099  29.693  27.315  1.00  0.00     0.261 C 
BRANCH  27  28
ATOM     28  O   UNL A   1      36.380  30.125  27.758  1.00  0.00    -0.460 OA
BRANCH  28  29
ATOM     29  C   UNL A   1      36.848  29.436  28.829  1.00  0.00     0.338 C 
ATOM     30  O   UNL A   1      36.397  29.445  29.954  1.00  0.00    -0.246 OA
BRANCH  29  31
ATOM     31  C   UNL A   1      38.103  28.780  28.439  1.00  0.00     0.060 A 
ATOM     32  C   UNL A   1      38.597  27.820  29.321  1.00  0.00     0.016 A 
ATOM     33  C   UNL A   1      38.875  29.278  27.377  1.00  0.00     0.016 A 
ATOM     34  C   UNL A   1      39.937  27.503  29.251  1.00  0.00     0.010 A 
ATOM     35  C   UNL A   1      40.215  28.961  27.312  1.00  0.00     0.010 A 
ATOM     36  C   UNL A   1      40.747  28.137  28.297  1.00  0.00    -0.014 A 
BRANCH  36  37
ATOM     37  C   UNL A   1      42.149  27.773  28.255  1.00  0.00     0.031 A 
ATOM     38  C   UNL A   1      42.369  26.549  27.457  1.00  0.00     0.074 A 
ATOM     39  C   UNL A   1      43.145  28.469  28.836  1.00  0.00     0.049 A 
ATOM     40  N   UNL A   1      42.580  25.366  27.922  1.00  0.00    -0.248 NA
ATOM     41  C   UNL A   1      42.088  26.587  26.015  1.00  0.00     0.031 C 
ATOM     42  C   UNL A   1      43.092  29.782  29.477  1.00  0.00     0.029 A 
ATOM     43  N   UNL A   1      44.465  28.144  28.917  1.00  0.00    -0.354 N 
ATOM     44  C   UNL A   1      42.720  24.548  26.813  1.00  0.00     0.074 A 
ATOM     45  C   UNL A   1      42.196  25.294  25.700  1.00  0.00     0.031 C 
ATOM     46  C   UNL A   1      44.354  30.231  29.687  1.00  0.00     0.029 A 
ATOM     47  C   UNL A   1      45.298  29.182  29.328  1.00  0.00     0.049 A 
ATOM     48  H   UNL A   1      44.804  27.246  28.702  1.00  0.00     0.167 HD
ATOM     49  C   UNL A   1      43.498  23.436  26.877  1.00  0.00     0.034 A 
ATOM     50  C   UNL A   1      46.661  29.181  29.346  1.00  0.00     0.034 A 
ATOM     51  C   UNL A   1      43.759  23.067  28.252  1.00  0.00     0.049 A 
ATOM     52  C   UNL A   1      47.080  27.759  29.431  1.00  0.00     0.074 A 
ATOM     53  C   UNL A   1      42.967  22.706  29.325  1.00  0.00     0.029 A 
ATOM     54  N   UNL A   1      44.973  23.431  28.792  1.00  0.00    -0.354 N 
ATOM     55  N   UNL A   1      46.845  27.014  30.475  1.00  0.00    -0.248 NA
ATOM     56  C   UNL A   1      47.300  27.028  28.192  1.00  0.00     0.031 C 
ATOM     57  C   UNL A   1      43.571  23.329  30.457  1.00  0.00     0.029 A 
ATOM     58  C   UNL A   1      44.742  23.964  30.037  1.00  0.00     0.049 A 
ATOM     59  H   UNL A   1      45.853  23.328  28.361  1.00  0.00     0.167 HD
ATOM     60  C   UNL A   1      46.433  25.795  29.960  1.00  0.00     0.074 A 
ATOM     61  C   UNL A   1      46.830  25.830  28.553  1.00  0.00     0.031 C 
ATOM     62  C   UNL A   1      45.563  24.995  30.648  1.00  0.00     0.034 A 
BRANCH  49  63
ATOM     63  C   UNL A   1      44.345  22.931  25.735  1.00  0.00     0.023 A 
ATOM     64  C   UNL A   1      44.361  21.542  25.518  1.00  0.00     0.031 A 
ATOM     65  C   UNL A   1      45.347  23.672  25.066  1.00  0.00     0.131 A 
ATOM     66  C   UNL A   1      45.388  20.942  24.773  1.00  0.00     0.055 A 
ATOM     67  C   UNL A   1      46.326  23.077  24.269  1.00  0.00     0.041 A 
ATOM     68  F   UNL A   1      45.502  24.991  25.219  1.00  0.00    -0.206 F 
ATOM     69  C   UNL A   1      46.373  21.700  24.145  1.00  0.00     0.022 A 
BRANCH  66  70
ATOM     70  S   UNL A   1      45.515  19.138  24.793  1.00  0.00     0.124 S 
ATOM     71  O   UNL A   1      46.741  18.940  25.558  1.00  0.00    -0.237 OA
ATOM     72  O   UNL A   1      44.272  18.757  25.456  1.00  0.00    -0.237 OA
ATOM     73  O   UNL A   1      45.598  18.789  23.377  1.00  0.00    -0.744 OA
ENDBRANCH  66  70
ENDBRANCH  49  63
BRANCH  50  74
ATOM     74  C   UNL A   1      47.583  30.280  28.925  1.00  0.00     0.023 A 
ATOM     75  C   UNL A   1      47.283  31.194  27.886  1.00  0.00     0.031 A 
ATOM     76  C   UNL A   1      48.685  30.607  29.747  1.00  0.00     0.131 A 
ATOM     77  C   UNL A   1      48.062  32.366  27.713  1.00  0.00     0.055 A 
ATOM     78  C   UNL A   1      49.446  31.765  29.575  1.00  0.00     0.041 A 
ATOM     79  F   UNL A   1      49.008  29.851  30.808  1.00  0.00    -0.206 F 
ATOM     80  C   UNL A   1      49.131  32.657  28.563  1.00  0.00     0.022 A 
BRANCH  77  81
ATOM     81  S   UNL A   1      47.650  33.592  26.422  1.00  0.00     0.124 S 
ATOM     82  O   UNL A   1      46.373  33.100  25.920  1.00  0.00    -0.237 OA
ATOM     83  O   UNL A   1      47.616  34.841  27.173  1.00  0.00    -0.237 OA
ATOM     84  O   UNL A   1      48.763  33.481  25.477  1.00  0.00    -0.744 OA
ENDBRANCH  77  81
ENDBRANCH  50  74
BRANCH  62  85
ATOM     85  C   UNL A   1      45.302  25.313  32.110  1.00  0.00     0.023 A 
ATOM     86  C   UNL A   1      46.107  24.899  33.197  1.00  0.00     0.031 A 
ATOM     87  C   UNL A   1      44.220  26.166  32.394  1.00  0.00     0.131 A 
ATOM     88  C   UNL A   1      45.804  25.327  34.506  1.00  0.00     0.055 A 
ATOM     89  C   UNL A   1      43.939  26.610  33.685  1.00  0.00     0.041 A 
ATOM     90  F   UNL A   1      43.427  26.612  31.405  1.00  0.00    -0.206 F 
ATOM     91  C   UNL A   1      44.726  26.186  34.748  1.00  0.00     0.022 A 
BRANCH  88  92
ATOM     92  S   UNL A   1      46.789  24.756  35.930  1.00  0.00     0.124 S 
ATOM     93  O   UNL A   1      45.892  23.837  36.620  1.00  0.00    -0.237 OA
ATOM     94  O   UNL A   1      47.953  24.151  35.289  1.00  0.00    -0.237 OA
ATOM     95  O   UNL A   1      47.075  25.992  36.663  1.00  0.00    -0.744 OA
ENDBRANCH  88  92
ENDBRANCH  62  85
ENDBRANCH  36  37
ENDBRANCH  29  31
ENDBRANCH  28  29
ENDBRANCH  27  28
ENDBRANCH  26  27
ENDBRANCH  25  26
ENDBRANCH   1  25
TORSDOF 21
ENDMDL
MODEL 2
REMARK VINA RESULT:     -10.7      2.346      7.409
REMARK SMILES Cc1nsc(NC(=O)CC2([NH3+])CCC2)c1C(=O)OCCOCCOC(=O)c1ccc(-c2c3nc(c(-c4cc(S(=O)(=O)[O-])ccc4F)c4ccc([nH]4)c(-c4cc(S(=O)(=O)[O-])ccc4F)c4nc(c(-c5cc(S(=O)(=O)[O-])ccc5F)c5ccc2[nH]5)C=C4)C=C3)cc1
REMARK SMILES IDX 20 1 19 2 18 3 16 4 17 5 15 6 1 7 2 8 3 9 4 10 5 11 6 12
REMARK SMILES IDX 7 13 8 15 9 16 10 17 12 18 14 19 13 20 11 21 21 25 22 26
REMARK SMILES IDX 23 27 24 28 25 29 26 30 27 31 28 32 89 33 29 34 88 35 30 36
REMARK SMILES IDX 31 37 32 38 82 39 33 40 87 41 81 42 83 43 34 44 86 45 80 46
REMARK SMILES IDX 79 47 35 49 67 50 47 51 66 52 48 53 51 54 65 55 84 56 49 57
REMARK SMILES IDX 50 58 64 60 85 61 52 62 36 63 37 64 45 65 38 66 44 67 46 68
REMARK SMILES IDX 43 69 39 70 40 71 41 72 42 73 68 74 69 75 77 76 70 77 76 78
REMARK SMILES IDX 78 79 75 80 71 81 72 82 73 83 74 84 53 85 54 86 62 87 55 88
REMARK SMILES IDX 61 89 63 90 60 91 56 92 57 93 58 94 59 95
REMARK H PARENT 6 14 11 22 11 23 11 24 83 48 51 59
REMARK Flexibility Score: inf
ROOT
ATOM      1  C   UNL A   1      34.053  28.745  26.715  1.00  0.00     0.202 C 
ENDROOT
BRANCH   1   2
ATOM      2  C   UNL A   1      33.154  27.528  26.492  1.00  0.00     0.261 C 
BRANCH   2   3
ATOM      3  O   UNL A   1      31.784  27.881  26.242  1.00  0.00    -0.460 OA
BRANCH   3   4
ATOM      4  C   UNL A   1      31.006  26.850  25.814  1.00  0.00     0.343 C 
ATOM      5  O   UNL A   1      30.186  26.266  26.514  1.00  0.00    -0.246 OA
BRANCH   4   6
ATOM      6  C   UNL A   1      31.158  26.534  24.403  1.00  0.00     0.117 A 
ATOM      7  C   UNL A   1      30.700  28.828  23.184  1.00  0.00     0.069 C 
ATOM      8  C   UNL A   1      31.122  27.400  23.247  1.00  0.00     0.068 A 
ATOM      9  N   UNL A   1      31.513  26.835  22.099  1.00  0.00    -0.195 NA
ATOM     10  S   UNL A   1      31.814  25.238  22.377  1.00  0.00    -0.017 S 
ATOM     11  C   UNL A   1      31.202  25.216  23.956  1.00  0.00     0.130 A 
BRANCH  11  12
ATOM     12  N   UNL A   1      30.841  24.082  24.661  1.00  0.00    -0.315 N 
ATOM     13  C   UNL A   1      31.534  23.295  25.538  1.00  0.00     0.231 C 
ATOM     14  H   UNL A   1      29.916  23.787  24.503  1.00  0.00     0.170 HD
ATOM     15  O   UNL A   1      31.009  22.222  25.865  1.00  0.00    -0.274 OA
BRANCH  13  16
ATOM     16  C   UNL A   1      32.872  23.663  26.128  1.00  0.00     0.168 C 
BRANCH  16  17
ATOM     17  C   UNL A   1      34.126  23.264  25.359  1.00  0.00     0.103 C 
ATOM     18  C   UNL A   1      34.930  24.479  24.816  1.00  0.00     0.069 C 
ATOM     19  C   UNL A   1      35.423  22.843  26.108  1.00  0.00     0.069 C 
ATOM     20  C   UNL A   1      36.232  23.711  25.113  1.00  0.00     0.013 C 
BRANCH  17  21
ATOM     21  N   UNL A   1      33.925  22.314  24.251  1.00  0.00    -0.352 N 
ATOM     22  H   UNL A   1      33.059  22.541  23.763  1.00  0.00     0.344 HD
ATOM     23  H   UNL A   1      33.869  21.366  24.623  1.00  0.00     0.344 HD
ATOM     24  H   UNL A   1      34.709  22.380  23.602  1.00  0.00     0.344 HD
ENDBRANCH  17  21
ENDBRANCH  16  17
ENDBRANCH  13  16
ENDBRANCH  11  12
ENDBRANCH   4   6
ENDBRANCH   3   4
ENDBRANCH   2   3
ENDBRANCH   1   2
BRANCH   1  25
ATOM     25  O   UNL A   1      33.614  29.709  27.668  1.00  0.00    -0.374 OA
BRANCH  25  26
ATOM     26  C   UNL A   1      33.373  31.051  27.250  1.00  0.00     0.202 C 
BRANCH  26  27
ATOM     27  C   UNL A   1      34.165  32.168  27.905  1.00  0.00     0.261 C 
BRANCH  27  28
ATOM     28  O   UNL A   1      35.558  32.062  27.631  1.00  0.00    -0.460 OA
BRANCH  28  29
ATOM     29  C   UNL A   1      36.345  32.631  28.578  1.00  0.00     0.338 C 
ATOM     30  O   UNL A   1      36.433  33.812  28.839  1.00  0.00    -0.246 OA
BRANCH  29  31
ATOM     31  C   UNL A   1      37.204  31.585  29.149  1.00  0.00     0.060 A 
ATOM     32  C   UNL A   1      38.404  32.013  29.715  1.00  0.00     0.016 A 
ATOM     33  C   UNL A   1      36.943  30.227  28.904  1.00  0.00     0.016 A 
ATOM     34  C   UNL A   1      39.420  31.092  29.857  1.00  0.00     0.010 A 
ATOM     35  C   UNL A   1      37.962  29.310  29.044  1.00  0.00     0.010 A 
ATOM     36  C   UNL A   1      39.212  29.767  29.446  1.00  0.00    -0.014 A 
BRANCH  36  37
ATOM     37  C   UNL A   1      40.305  28.830  29.614  1.00  0.00     0.031 A 
ATOM     38  C   UNL A   1      40.621  28.615  31.041  1.00  0.00     0.074 A 
ATOM     39  C   UNL A   1      40.942  28.198  28.610  1.00  0.00     0.049 A 
ATOM     40  N   UNL A   1      41.610  29.130  31.687  1.00  0.00    -0.248 NA
ATOM     41  C   UNL A   1      39.616  27.968  31.897  1.00  0.00     0.031 C 
ATOM     42  C   UNL A   1      40.605  28.168  27.187  1.00  0.00     0.029 A 
ATOM     43  N   UNL A   1      42.028  27.380  28.683  1.00  0.00    -0.354 N 
ATOM     44  C   UNL A   1      41.498  28.656  32.983  1.00  0.00     0.074 A 
ATOM     45  C   UNL A   1      40.160  28.142  33.104  1.00  0.00     0.031 C 
ATOM     46  C   UNL A   1      41.338  27.207  26.573  1.00  0.00     0.029 A 
ATOM     47  C   UNL A   1      42.292  26.654  27.524  1.00  0.00     0.049 A 
ATOM     48  H   UNL A   1      42.584  27.308  29.492  1.00  0.00     0.167 HD
ATOM     49  C   UNL A   1      42.607  28.494  33.751  1.00  0.00     0.034 A 
ATOM     50  C   UNL A   1      43.210  25.658  27.371  1.00  0.00     0.034 A 
ATOM     51  C   UNL A   1      43.727  29.228  33.201  1.00  0.00     0.049 A 
ATOM     52  C   UNL A   1      44.247  25.878  28.411  1.00  0.00     0.074 A 
ATOM     53  C   UNL A   1      43.974  30.561  32.935  1.00  0.00     0.029 A 
ATOM     54  N   UNL A   1      44.653  28.524  32.463  1.00  0.00    -0.354 N 
ATOM     55  N   UNL A   1      45.041  26.913  28.410  1.00  0.00    -0.248 NA
ATOM     56  C   UNL A   1      44.072  25.240  29.707  1.00  0.00     0.031 C 
ATOM     57  C   UNL A   1      44.692  30.565  31.702  1.00  0.00     0.029 A 
ATOM     58  C   UNL A   1      44.922  29.241  31.322  1.00  0.00     0.049 A 
ATOM     59  H   UNL A   1      45.051  27.657  32.710  1.00  0.00     0.167 HD
ATOM     60  C   UNL A   1      45.090  27.329  29.731  1.00  0.00     0.074 A 
ATOM     61  C   UNL A   1      44.557  26.202  30.497  1.00  0.00     0.031 C 
ATOM     62  C   UNL A   1      45.292  28.643  30.051  1.00  0.00     0.034 A 
BRANCH  49  63
ATOM     63  C   UNL A   1      42.791  27.373  34.743  1.00  0.00     0.023 A 
ATOM     64  C   UNL A   1      43.588  26.287  34.337  1.00  0.00     0.031 A 
ATOM     65  C   UNL A   1      42.008  27.164  35.902  1.00  0.00     0.131 A 
ATOM     66  C   UNL A   1      43.505  25.049  34.993  1.00  0.00     0.055 A 
ATOM     67  C   UNL A   1      41.981  25.951  36.592  1.00  0.00     0.041 A 
ATOM     68  F   UNL A   1      41.154  28.077  36.378  1.00  0.00    -0.206 F 
ATOM     69  C   UNL A   1      42.705  24.872  36.119  1.00  0.00     0.022 A 
BRANCH  66  70
ATOM     70  S   UNL A   1      44.320  23.624  34.233  1.00  0.00     0.124 S 
ATOM     71  O   UNL A   1      43.865  22.536  35.090  1.00  0.00    -0.237 OA
ATOM     72  O   UNL A   1      43.773  23.653  32.880  1.00  0.00    -0.237 OA
ATOM     73  O   UNL A   1      45.740  23.952  34.339  1.00  0.00    -0.744 OA
ENDBRANCH  66  70
ENDBRANCH  49  63
BRANCH  50  74
ATOM     74  C   UNL A   1      43.041  24.360  26.648  1.00  0.00     0.023 A 
ATOM     75  C   UNL A   1      44.057  23.771  25.857  1.00  0.00     0.031 A 
ATOM     76  C   UNL A   1      41.932  23.541  26.955  1.00  0.00     0.131 A 
ATOM     77  C   UNL A   1      43.938  22.426  25.422  1.00  0.00     0.055 A 
ATOM     78  C   UNL A   1      41.822  22.216  26.528  1.00  0.00     0.041 A 
ATOM     79  F   UNL A   1      40.950  23.974  27.763  1.00  0.00    -0.206 F 
ATOM     80  C   UNL A   1      42.831  21.648  25.767  1.00  0.00     0.022 A 
BRANCH  77  81
ATOM     81  S   UNL A   1      45.268  21.625  24.458  1.00  0.00     0.124 S 
ATOM     82  O   UNL A   1      45.957  22.766  23.868  1.00  0.00    -0.237 OA
ATOM     83  O   UNL A   1      45.995  20.883  25.482  1.00  0.00    -0.237 OA
ATOM     84  O   UNL A   1      44.541  20.788  23.502  1.00  0.00    -0.744 OA
ENDBRANCH  77  81
ENDBRANCH  50  74
BRANCH  62  85
ATOM     85  C   UNL A   1      45.768  29.581  28.956  1.00  0.00     0.023 A 
ATOM     86  C   UNL A   1      44.953  30.494  28.246  1.00  0.00     0.031 A 
ATOM     87  C   UNL A   1      47.150  29.606  28.693  1.00  0.00     0.131 A 
ATOM     88  C   UNL A   1      45.530  31.373  27.305  1.00  0.00     0.055 A 
ATOM     89  C   UNL A   1      47.720  30.494  27.783  1.00  0.00     0.041 A 
ATOM     90  F   UNL A   1      47.982  28.779  29.348  1.00  0.00    -0.206 F 
ATOM     91  C   UNL A   1      46.910  31.377  27.079  1.00  0.00     0.022 A 
BRANCH  88  92
ATOM     92  S   UNL A   1      44.492  32.514  26.332  1.00  0.00     0.124 S 
ATOM     93  O   UNL A   1      45.433  33.118  25.397  1.00  0.00    -0.237 OA
ATOM     94  O   UNL A   1      43.497  31.619  25.749  1.00  0.00    -0.237 OA
ATOM     95  O   UNL A   1      43.962  33.435  27.341  1.00  0.00    -0.744 OA
ENDBRANCH  88  92
ENDBRANCH  62  85
ENDBRANCH  36  37
ENDBRANCH  29  31
ENDBRANCH  28  29
ENDBRANCH  27  28
ENDBRANCH  26  27
ENDBRANCH  25  26
ENDBRANCH   1  25
TORSDOF 21
ENDMDL
MODEL 3
REMARK VINA RESULT:     -10.7      2.745      7.857
REMARK SMILES Cc1nsc(NC(=O)CC2([NH3+])CCC2)c1C(=O)OCCOCCOC(=O)c1ccc(-c2c3nc(c(-c4cc(S(=O)(=O)[O-])ccc4F)c4ccc([nH]4)c(-c4cc(S(=O)(=O)[O-])ccc4F)c4nc(c(-c5cc(S(=O)(=O)[O-])ccc5F)c5ccc2[nH]5)C=C4)C=C3)cc1
REMARK SMILES IDX 20 1 19 2 18 3 16 4 17 5 15 6 1 7 2 8 3 9 4 10 5 11 6 12
REMARK SMILES IDX 7 13 8 15 9 16 10 17 12 18 14 19 13 20 11 21 21 25 22 26
REMARK SMILES IDX 23 27 24 28 25 29 26 30 27 31 28 32 89 33 29 34 88 35 30 36
REMARK SMILES IDX 31 37 32 38 82 39 33 40 87 41 81 42 83 43 34 44 86 45 80 46
REMARK SMILES IDX 79 47 35 49 67 50 47 51 66 52 48 53 51 54 65 55 84 56 49 57
REMARK SMILES IDX 50 58 64 60 85 61 52 62 36 63 37 64 45 65 38 66 44 67 46 68
REMARK SMILES IDX 43 69 39 70 40 71 41 72 42 73 68 74 69 75 77 76 70 77 76 78
REMARK SMILES IDX 78 79 75 80 71 81 72 82 73 83 74 84 53 85 54 86 62 87 55 88
REMARK SMILES IDX 61 89 63 90 60 91 56 92 57 93 58 94 59 95
REMARK H PARENT 6 14 11 22 11 23 11 24 83 48 51 59
REMARK Flexibility Score: inf
ROOT
ATOM      1  C   UNL A   1      34.053  29.403  27.122  1.00  0.00     0.202 C 
ENDROOT
BRANCH   1   2
ATOM      2  C   UNL A   1      33.568  28.459  26.021  1.00  0.00     0.261 C 
BRANCH   2   3
ATOM      3  O   UNL A   1      33.289  27.134  26.502  1.00  0.00    -0.460 OA
BRANCH   3   4
ATOM      4  C   UNL A   1      31.966  26.815  26.534  1.00  0.00     0.343 C 
ATOM      5  O   UNL A   1      31.141  27.360  27.258  1.00  0.00    -0.246 OA
BRANCH   4   6
ATOM      6  C   UNL A   1      31.572  25.810  25.560  1.00  0.00     0.117 A 
ATOM      7  C   UNL A   1      31.860  23.526  26.849  1.00  0.00     0.069 C 
ATOM      8  C   UNL A   1      31.428  24.379  25.706  1.00  0.00     0.068 A 
ATOM      9  N   UNL A   1      30.838  23.758  24.679  1.00  0.00    -0.195 NA
ATOM     10  S   UNL A   1      30.558  24.864  23.488  1.00  0.00    -0.017 S 
ATOM     11  C   UNL A   1      31.428  26.124  24.212  1.00  0.00     0.130 A 
BRANCH  11  12
ATOM     12  N   UNL A   1      31.882  27.260  23.566  1.00  0.00    -0.315 N 
ATOM     13  C   UNL A   1      31.225  28.356  23.080  1.00  0.00     0.231 C 
ATOM     14  H   UNL A   1      32.856  27.284  23.430  1.00  0.00     0.170 HD
ATOM     15  O   UNL A   1      31.877  29.132  22.368  1.00  0.00    -0.274 OA
BRANCH  13  16
ATOM     16  C   UNL A   1      29.780  28.673  23.372  1.00  0.00     0.168 C 
BRANCH  16  17
ATOM     17  C   UNL A   1      29.236  30.019  22.909  1.00  0.00     0.103 C 
ATOM     18  C   UNL A   1      27.682  30.071  22.852  1.00  0.00     0.069 C 
ATOM     19  C   UNL A   1      29.160  31.229  23.884  1.00  0.00     0.069 C 
ATOM     20  C   UNL A   1      27.745  31.533  23.334  1.00  0.00     0.013 C 
BRANCH  17  21
ATOM     21  N   UNL A   1      29.759  30.516  21.625  1.00  0.00    -0.352 N 
ATOM     22  H   UNL A   1      29.087  30.317  20.884  1.00  0.00     0.344 HD
ATOM     23  H   UNL A   1      30.644  30.051  21.416  1.00  0.00     0.344 HD
ATOM     24  H   UNL A   1      29.909  31.523  21.686  1.00  0.00     0.344 HD
ENDBRANCH  17  21
ENDBRANCH  16  17
ENDBRANCH  13  16
ENDBRANCH  11  12
ENDBRANCH   4   6
ENDBRANCH   3   4
ENDBRANCH   2   3
ENDBRANCH   1   2
BRANCH   1  25
ATOM     25  O   UNL A   1      33.671  30.772  27.018  1.00  0.00    -0.374 OA
BRANCH  25  26
ATOM     26  C   UNL A   1      34.016  31.679  28.063  1.00  0.00     0.202 C 
BRANCH  26  27
ATOM     27  C   UNL A   1      34.802  32.929  27.709  1.00  0.00     0.261 C 
BRANCH  27  28
ATOM     28  O   UNL A   1      36.156  32.844  28.142  1.00  0.00    -0.460 OA
BRANCH  28  29
ATOM     29  C   UNL A   1      36.305  32.936  29.487  1.00  0.00     0.338 C 
ATOM     30  O   UNL A   1      35.895  33.821  30.207  1.00  0.00    -0.246 OA
BRANCH  29  31
ATOM     31  C   UNL A   1      37.188  31.847  29.926  1.00  0.00     0.060 A 
ATOM     32  C   UNL A   1      38.426  32.226  30.442  1.00  0.00     0.016 A 
ATOM     33  C   UNL A   1      36.897  30.511  29.603  1.00  0.00     0.016 A 
ATOM     34  C   UNL A   1      39.439  31.292  30.452  1.00  0.00     0.010 A 
ATOM     35  C   UNL A   1      37.914  29.581  29.611  1.00  0.00     0.010 A 
ATOM     36  C   UNL A   1      39.191  30.000  29.963  1.00  0.00    -0.014 A 
BRANCH  36  37
ATOM     37  C   UNL A   1      40.283  29.047  29.993  1.00  0.00     0.031 A 
ATOM     38  C   UNL A   1      40.661  28.700  31.378  1.00  0.00     0.074 A 
ATOM     39  C   UNL A   1      40.868  28.509  28.907  1.00  0.00     0.049 A 
ATOM     40  N   UNL A   1      41.683  29.150  32.023  1.00  0.00    -0.248 NA
ATOM     41  C   UNL A   1      39.691  27.981  32.217  1.00  0.00     0.031 C 
ATOM     42  C   UNL A   1      40.467  28.611  27.504  1.00  0.00     0.029 A 
ATOM     43  N   UNL A   1      41.950  27.683  28.854  1.00  0.00    -0.354 N 
ATOM     44  C   UNL A   1      41.627  28.558  33.273  1.00  0.00     0.074 A 
ATOM     45  C   UNL A   1      40.291  28.040  33.408  1.00  0.00     0.031 C 
ATOM     46  C   UNL A   1      41.163  27.709  26.771  1.00  0.00     0.029 A 
ATOM     47  C   UNL A   1      42.154  27.066  27.622  1.00  0.00     0.049 A 
ATOM     48  H   UNL A   1      42.541  27.534  29.626  1.00  0.00     0.167 HD
ATOM     49  C   UNL A   1      42.768  28.321  33.971  1.00  0.00     0.034 A 
ATOM     50  C   UNL A   1      43.057  26.085  27.336  1.00  0.00     0.034 A 
ATOM     51  C   UNL A   1      43.868  29.098  33.440  1.00  0.00     0.049 A 
ATOM     52  C   UNL A   1      44.141  26.204  28.342  1.00  0.00     0.074 A 
ATOM     53  C   UNL A   1      44.114  30.449  33.287  1.00  0.00     0.029 A 
ATOM     54  N   UNL A   1      44.754  28.461  32.598  1.00  0.00    -0.354 N 
ATOM     55  N   UNL A   1      44.943  27.231  28.400  1.00  0.00    -0.248 NA
ATOM     56  C   UNL A   1      44.021  25.449  29.581  1.00  0.00     0.031 C 
ATOM     57  C   UNL A   1      44.774  30.564  32.027  1.00  0.00     0.029 A 
ATOM     58  C   UNL A   1      44.976  29.280  31.517  1.00  0.00     0.049 A 
ATOM     59  H   UNL A   1      45.156  27.575  32.745  1.00  0.00     0.167 HD
ATOM     60  C   UNL A   1      45.056  27.523  29.750  1.00  0.00     0.074 A 
ATOM     61  C   UNL A   1      44.549  26.333  30.433  1.00  0.00     0.031 C 
ATOM     62  C   UNL A   1      45.283  28.800  30.181  1.00  0.00     0.034 A 
BRANCH  49  63
ATOM     63  C   UNL A   1      42.988  27.112  34.846  1.00  0.00     0.023 A 
ATOM     64  C   UNL A   1      43.776  26.075  34.314  1.00  0.00     0.031 A 
ATOM     65  C   UNL A   1      42.243  26.789  36.003  1.00  0.00     0.131 A 
ATOM     66  C   UNL A   1      43.718  24.780  34.851  1.00  0.00     0.055 A 
ATOM     67  C   UNL A   1      42.243  25.516  36.576  1.00  0.00     0.041 A 
ATOM     68  F   UNL A   1      41.401  27.646  36.590  1.00  0.00    -0.206 F 
ATOM     69  C   UNL A   1      42.956  24.491  35.980  1.00  0.00     0.022 A 
BRANCH  66  70
ATOM     70  S   UNL A   1      44.515  23.439  33.935  1.00  0.00     0.124 S 
ATOM     71  O   UNL A   1      43.862  23.546  32.635  1.00  0.00    -0.237 OA
ATOM     72  O   UNL A   1      45.919  23.834  33.986  1.00  0.00    -0.237 OA
ATOM     73  O   UNL A   1      44.173  22.250  34.711  1.00  0.00    -0.744 OA
ENDBRANCH  66  70
ENDBRANCH  49  63
BRANCH  50  74
ATOM     74  C   UNL A   1      42.844  24.860  26.505  1.00  0.00     0.023 A 
ATOM     75  C   UNL A   1      43.789  24.383  25.565  1.00  0.00     0.031 A 
ATOM     76  C   UNL A   1      41.787  23.982  26.832  1.00  0.00     0.131 A 
ATOM     77  C   UNL A   1      43.656  23.084  25.009  1.00  0.00     0.055 A 
ATOM     78  C   UNL A   1      41.663  22.703  26.285  1.00  0.00     0.041 A 
ATOM     79  F   UNL A   1      40.880  24.304  27.769  1.00  0.00    -0.206 F 
ATOM     80  C   UNL A   1      42.604  22.244  25.378  1.00  0.00     0.022 A 
BRANCH  77  81
ATOM     81  S   UNL A   1      44.901  22.422  23.848  1.00  0.00     0.124 S 
ATOM     82  O   UNL A   1      45.909  23.475  23.837  1.00  0.00    -0.237 OA
ATOM     83  O   UNL A   1      45.282  21.163  24.478  1.00  0.00    -0.237 OA
ATOM     84  O   UNL A   1      44.158  22.275  22.595  1.00  0.00    -0.744 OA
ENDBRANCH  77  81
ENDBRANCH  50  74
BRANCH  62  85
ATOM     85  C   UNL A   1      45.717  29.835  29.156  1.00  0.00     0.023 A 
ATOM     86  C   UNL A   1      47.049  30.072  28.743  1.00  0.00     0.031 A 
ATOM     87  C   UNL A   1      44.698  30.550  28.501  1.00  0.00     0.131 A 
ATOM     88  C   UNL A   1      47.317  31.007  27.722  1.00  0.00     0.055 A 
ATOM     89  C   UNL A   1      44.964  31.452  27.473  1.00  0.00     0.041 A 
ATOM     90  F   UNL A   1      43.410  30.357  28.832  1.00  0.00    -0.206 F 
ATOM     91  C   UNL A   1      46.276  31.691  27.084  1.00  0.00     0.022 A 
BRANCH  88  92
ATOM     92  S   UNL A   1      49.030  31.376  27.216  1.00  0.00     0.124 S 
ATOM     93  O   UNL A   1      48.895  32.577  26.402  1.00  0.00    -0.237 OA
ATOM     94  O   UNL A   1      49.709  31.544  28.497  1.00  0.00    -0.237 OA
ATOM     95  O   UNL A   1      49.429  30.179  26.471  1.00  0.00    -0.744 OA
ENDBRANCH  88  92
ENDBRANCH  62  85
ENDBRANCH  36  37
ENDBRANCH  29  31
ENDBRANCH  28  29
ENDBRANCH  27  28
ENDBRANCH  26  27
ENDBRANCH  25  26
ENDBRANCH   1  25
TORSDOF 21
ENDMDL
