MODEL 1
REMARK VINA RESULT:     -11.3      0.000      0.000
REMARK SMILES O=C(NCc1ccc(C(=O)OCCOCCOC(=O)c2ccc(-c3c4nc(c(-c5cc(S(=O)(=O)[O-])ccc5F)c5ccc([nH]5)c(-c5cc(S(=O)(=O)[O-])ccc5F)c5nc(c(-c6cc(S(=O)(=O)[O-])ccc6F)c6ccc3[nH]6)C=C5)C=C4)cc2)cc1)Nc1ccccc1Br
REMARK SMILES IDX 14 1 13 2 12 3 11 4 9 5 10 6 8 7 5 8 6 9 84 10 7 11 83 12
REMARK SMILES IDX 4 13 3 14 1 15 2 16 85 17 86 20 87 21 91 22 88 23 90 24
REMARK SMILES IDX 92 25 89 26 15 27 16 28 17 29 18 30 19 31 20 32 21 33 82 34
REMARK SMILES IDX 22 35 81 36 23 37 24 38 25 39 75 40 26 41 80 42 74 43 76 44
REMARK SMILES IDX 27 45 79 46 73 47 72 48 28 50 60 51 40 52 59 53 41 54 44 55
REMARK SMILES IDX 58 56 77 57 42 58 43 59 57 61 78 62 45 63 29 64 30 65 38 66
REMARK SMILES IDX 31 67 37 68 39 69 36 70 32 71 33 72 34 73 35 74 61 75 62 76
REMARK SMILES IDX 70 77 63 78 69 79 71 80 68 81 64 82 65 83 66 84 67 85 46 86
REMARK SMILES IDX 47 87 55 88 48 89 54 90 56 91 53 92 49 93 50 94 51 95 52 96
REMARK H PARENT 3 18 85 19 76 49 44 60
REMARK Flexibility Score: inf
ROOT
ATOM      1  O   UNL A   1      31.419  29.666  24.134  1.00  0.00    -0.374 OA
ENDROOT
BRANCH   1   2
ATOM      2  C   UNL A   1      30.030  29.910  23.909  1.00  0.00     0.202 C 
BRANCH   2   3
ATOM      3  C   UNL A   1      29.352  29.000  22.881  1.00  0.00     0.261 C 
BRANCH   3   4
ATOM      4  O   UNL A   1      30.072  27.765  22.729  1.00  0.00    -0.460 OA
BRANCH   4   5
ATOM      5  C   UNL A   1      29.784  26.818  23.651  1.00  0.00     0.338 C 
ATOM      6  O   UNL A   1      28.680  26.363  23.917  1.00  0.00    -0.246 OA
BRANCH   5   7
ATOM      7  C   UNL A   1      31.027  26.268  24.241  1.00  0.00     0.060 A 
ATOM      8  C   UNL A   1      33.424  25.136  25.163  1.00  0.00    -0.029 A 
ATOM      9  C   UNL A   1      33.385  25.798  23.928  1.00  0.00     0.006 A 
ATOM     10  C   UNL A   1      32.271  25.116  25.964  1.00  0.00     0.006 A 
ATOM     11  C   UNL A   1      32.192  26.353  23.469  1.00  0.00     0.016 A 
ATOM     12  C   UNL A   1      31.074  25.678  25.507  1.00  0.00     0.016 A 
BRANCH   8  13
ATOM     13  C   UNL A   1      34.669  24.406  25.591  1.00  0.00     0.153 C 
BRANCH  13  14
ATOM     14  N   UNL A   1      34.423  23.454  26.648  1.00  0.00    -0.334 N 
ATOM     15  O   UNL A   1      34.218  21.493  27.670  1.00  0.00    -0.248 OA
ATOM     16  C   UNL A   1      34.382  22.094  26.614  1.00  0.00     0.319 C 
ATOM     17  N   UNL A   1      34.592  21.518  25.393  1.00  0.00    -0.307 N 
ATOM     18  H   UNL A   1      34.257  23.851  27.533  1.00  0.00     0.165 HD
ATOM     19  H   UNL A   1      34.962  22.100  24.691  1.00  0.00     0.171 HD
BRANCH  17  20
ATOM     20  C   UNL A   1      34.336  20.176  25.031  1.00  0.00     0.057 A 
ATOM     21  C   UNL A   1      32.983  19.796  25.074  1.00  0.00     0.027 A 
ATOM     22  C   UNL A   1      35.292  19.203  24.693  1.00  0.00     0.041 A 
ATOM     23  C   UNL A   1      32.578  18.510  24.714  1.00  0.00     0.002 A 
ATOM     24  C   UNL A   1      34.878  17.915  24.319  1.00  0.00     0.018 A 
ATOM     25  Br  UNL A   1      37.170  19.414  24.921  1.00  0.00    -0.049 Br
ATOM     26  C   UNL A   1      33.526  17.573  24.319  1.00  0.00     0.001 A 
ENDBRANCH  17  20
ENDBRANCH  13  14
ENDBRANCH   8  13
ENDBRANCH   5   7
ENDBRANCH   4   5
ENDBRANCH   3   4
ENDBRANCH   2   3
ENDBRANCH   1   2
BRANCH   1  27
ATOM     27  C   UNL A   1      31.853  29.618  25.495  1.00  0.00     0.202 C 
BRANCH  27  28
ATOM     28  C   UNL A   1      31.858  30.949  26.258  1.00  0.00     0.261 C 
BRANCH  28  29
ATOM     29  O   UNL A   1      32.643  30.876  27.462  1.00  0.00    -0.460 OA
BRANCH  29  30
ATOM     30  C   UNL A   1      33.485  31.920  27.652  1.00  0.00     0.338 C 
ATOM     31  O   UNL A   1      33.177  33.102  27.728  1.00  0.00    -0.246 OA
BRANCH  30  32
ATOM     32  C   UNL A   1      34.845  31.433  27.954  1.00  0.00     0.060 A 
ATOM     33  C   UNL A   1      34.991  30.067  28.224  1.00  0.00     0.016 A 
ATOM     34  C   UNL A   1      35.944  32.292  28.037  1.00  0.00     0.016 A 
ATOM     35  C   UNL A   1      36.220  29.564  28.640  1.00  0.00     0.010 A 
ATOM     36  C   UNL A   1      37.179  31.784  28.461  1.00  0.00     0.010 A 
ATOM     37  C   UNL A   1      37.311  30.426  28.803  1.00  0.00    -0.014 A 
BRANCH  37  38
ATOM     38  C   UNL A   1      38.530  29.927  29.489  1.00  0.00     0.031 A 
ATOM     39  C   UNL A   1      38.857  30.452  30.861  1.00  0.00     0.074 A 
ATOM     40  C   UNL A   1      39.303  28.981  28.922  1.00  0.00     0.049 A 
ATOM     41  N   UNL A   1      39.861  30.160  31.648  1.00  0.00    -0.248 NA
ATOM     42  C   UNL A   1      37.925  31.444  31.418  1.00  0.00     0.031 C 
ATOM     43  C   UNL A   1      39.064  28.367  27.618  1.00  0.00     0.029 A 
ATOM     44  N   UNL A   1      40.447  28.372  29.377  1.00  0.00    -0.354 N 
ATOM     45  C   UNL A   1      39.682  30.929  32.793  1.00  0.00     0.074 A 
ATOM     46  C   UNL A   1      38.499  31.734  32.576  1.00  0.00     0.031 C 
ATOM     47  C   UNL A   1      40.034  27.470  27.374  1.00  0.00     0.029 A 
ATOM     48  C   UNL A   1      40.981  27.468  28.489  1.00  0.00     0.049 A 
ATOM     49  H   UNL A   1      40.846  28.565  30.256  1.00  0.00     0.167 HD
ATOM     50  C   UNL A   1      40.429  30.955  33.925  1.00  0.00     0.034 A 
ATOM     51  C   UNL A   1      42.113  26.739  28.561  1.00  0.00     0.034 A 
ATOM     52  C   UNL A   1      41.614  30.154  34.122  1.00  0.00     0.049 A 
ATOM     53  C   UNL A   1      42.973  26.842  29.798  1.00  0.00     0.074 A 
ATOM     54  C   UNL A   1      42.438  30.092  35.232  1.00  0.00     0.029 A 
ATOM     55  N   UNL A   1      42.152  29.284  33.180  1.00  0.00    -0.354 N 
ATOM     56  N   UNL A   1      42.787  27.565  30.878  1.00  0.00    -0.248 NA
ATOM     57  C   UNL A   1      44.190  26.019  29.828  1.00  0.00     0.031 C 
ATOM     58  C   UNL A   1      43.510  29.241  34.935  1.00  0.00     0.029 A 
ATOM     59  C   UNL A   1      43.314  28.709  33.671  1.00  0.00     0.049 A 
ATOM     60  H   UNL A   1      41.764  29.103  32.294  1.00  0.00     0.167 HD
ATOM     61  C   UNL A   1      43.847  27.258  31.729  1.00  0.00     0.074 A 
ATOM     62  C   UNL A   1      44.658  26.275  31.040  1.00  0.00     0.031 C 
ATOM     63  C   UNL A   1      44.123  27.739  32.969  1.00  0.00     0.034 A 
BRANCH  50  64
ATOM     64  C   UNL A   1      40.010  31.919  35.008  1.00  0.00     0.023 A 
ATOM     65  C   UNL A   1      39.229  31.512  36.104  1.00  0.00     0.031 A 
ATOM     66  C   UNL A   1      40.368  33.276  34.925  1.00  0.00     0.131 A 
ATOM     67  C   UNL A   1      38.771  32.462  37.030  1.00  0.00     0.055 A 
ATOM     68  C   UNL A   1      39.976  34.203  35.893  1.00  0.00     0.041 A 
ATOM     69  F   UNL A   1      41.094  33.730  33.891  1.00  0.00    -0.206 F 
ATOM     70  C   UNL A   1      39.160  33.800  36.946  1.00  0.00     0.022 A 
BRANCH  67  71
ATOM     71  S   UNL A   1      37.542  31.950  38.262  1.00  0.00     0.124 S 
ATOM     72  O   UNL A   1      38.300  32.076  39.505  1.00  0.00    -0.237 OA
ATOM     73  O   UNL A   1      36.473  32.922  38.065  1.00  0.00    -0.237 OA
ATOM     74  O   UNL A   1      37.218  30.579  37.875  1.00  0.00    -0.744 OA
ENDBRANCH  67  71
ENDBRANCH  50  64
BRANCH  51  75
ATOM     75  C   UNL A   1      42.526  25.874  27.418  1.00  0.00     0.023 A 
ATOM     76  C   UNL A   1      42.097  24.541  27.320  1.00  0.00     0.031 A 
ATOM     77  C   UNL A   1      43.407  26.357  26.435  1.00  0.00     0.131 A 
ATOM     78  C   UNL A   1      42.585  23.724  26.287  1.00  0.00     0.055 A 
ATOM     79  C   UNL A   1      43.848  25.557  25.379  1.00  0.00     0.041 A 
ATOM     80  F   UNL A   1      43.849  27.624  26.481  1.00  0.00    -0.206 F 
ATOM     81  C   UNL A   1      43.446  24.227  25.310  1.00  0.00     0.022 A 
BRANCH  78  82
ATOM     82  S   UNL A   1      42.139  21.965  26.285  1.00  0.00     0.124 S 
ATOM     83  O   UNL A   1      42.578  21.547  27.611  1.00  0.00    -0.237 OA
ATOM     84  O   UNL A   1      40.697  22.018  26.072  1.00  0.00    -0.237 OA
ATOM     85  O   UNL A   1      42.912  21.421  25.171  1.00  0.00    -0.744 OA
ENDBRANCH  78  82
ENDBRANCH  51  75
BRANCH  63  86
ATOM     86  C   UNL A   1      45.330  27.169  33.675  1.00  0.00     0.023 A 
ATOM     87  C   UNL A   1      45.241  26.030  34.496  1.00  0.00     0.031 A 
ATOM     88  C   UNL A   1      46.585  27.786  33.537  1.00  0.00     0.131 A 
ATOM     89  C   UNL A   1      46.374  25.580  35.192  1.00  0.00     0.055 A 
ATOM     90  C   UNL A   1      47.722  27.297  34.183  1.00  0.00     0.041 A 
ATOM     91  F   UNL A   1      46.730  28.877  32.768  1.00  0.00    -0.206 F 
ATOM     92  C   UNL A   1      47.617  26.196  35.028  1.00  0.00     0.022 A 
BRANCH  89  93
ATOM     93  S   UNL A   1      46.179  24.237  36.396  1.00  0.00     0.124 S 
ATOM     94  O   UNL A   1      47.202  24.563  37.384  1.00  0.00    -0.237 OA
ATOM     95  O   UNL A   1      44.796  24.406  36.830  1.00  0.00    -0.237 OA
ATOM     96  O   UNL A   1      46.438  23.031  35.610  1.00  0.00    -0.744 OA
ENDBRANCH  89  93
ENDBRANCH  63  86
ENDBRANCH  37  38
ENDBRANCH  30  32
ENDBRANCH  29  30
ENDBRANCH  28  29
ENDBRANCH  27  28
ENDBRANCH   1  27
TORSDOF 20
ENDMDL
MODEL 2
REMARK VINA RESULT:     -11.2      2.056      2.609
REMARK SMILES O=C(NCc1ccc(C(=O)OCCOCCOC(=O)c2ccc(-c3c4nc(c(-c5cc(S(=O)(=O)[O-])ccc5F)c5ccc([nH]5)c(-c5cc(S(=O)(=O)[O-])ccc5F)c5nc(c(-c6cc(S(=O)(=O)[O-])ccc6F)c6ccc3[nH]6)C=C5)C=C4)cc2)cc1)Nc1ccccc1Br
REMARK SMILES IDX 14 1 13 2 12 3 11 4 9 5 10 6 8 7 5 8 6 9 84 10 7 11 83 12
REMARK SMILES IDX 4 13 3 14 1 15 2 16 85 17 86 20 87 21 91 22 88 23 90 24
REMARK SMILES IDX 92 25 89 26 15 27 16 28 17 29 18 30 19 31 20 32 21 33 82 34
REMARK SMILES IDX 22 35 81 36 23 37 24 38 25 39 75 40 26 41 80 42 74 43 76 44
REMARK SMILES IDX 27 45 79 46 73 47 72 48 28 50 60 51 40 52 59 53 41 54 44 55
REMARK SMILES IDX 58 56 77 57 42 58 43 59 57 61 78 62 45 63 29 64 30 65 38 66
REMARK SMILES IDX 31 67 37 68 39 69 36 70 32 71 33 72 34 73 35 74 61 75 62 76
REMARK SMILES IDX 70 77 63 78 69 79 71 80 68 81 64 82 65 83 66 84 67 85 46 86
REMARK SMILES IDX 47 87 55 88 48 89 54 90 56 91 53 92 49 93 50 94 51 95 52 96
REMARK H PARENT 3 18 85 19 76 49 44 60
REMARK Flexibility Score: inf
ROOT
ATOM      1  O   UNL A   1      32.084  29.089  25.519  1.00  0.00    -0.374 OA
ENDROOT
BRANCH   1   2
ATOM      2  C   UNL A   1      33.221  28.854  24.687  1.00  0.00     0.202 C 
BRANCH   2   3
ATOM      3  C   UNL A   1      32.977  28.960  23.179  1.00  0.00     0.261 C 
BRANCH   3   4
ATOM      4  O   UNL A   1      32.671  27.674  22.613  1.00  0.00    -0.460 OA
BRANCH   4   5
ATOM      5  C   UNL A   1      31.357  27.354  22.595  1.00  0.00     0.338 C 
ATOM      6  O   UNL A   1      30.470  27.924  21.974  1.00  0.00    -0.246 OA
BRANCH   5   7
ATOM      7  C   UNL A   1      31.114  26.098  23.343  1.00  0.00     0.060 A 
ATOM      8  C   UNL A   1      30.734  23.819  24.936  1.00  0.00    -0.029 A 
ATOM      9  C   UNL A   1      30.347  25.081  25.406  1.00  0.00     0.006 A 
ATOM     10  C   UNL A   1      31.241  23.701  23.631  1.00  0.00     0.006 A 
ATOM     11  C   UNL A   1      30.543  26.212  24.616  1.00  0.00     0.016 A 
ATOM     12  C   UNL A   1      31.433  24.835  22.835  1.00  0.00     0.016 A 
BRANCH   8  13
ATOM     13  C   UNL A   1      30.665  22.620  25.844  1.00  0.00     0.153 C 
BRANCH  13  14
ATOM     14  N   UNL A   1      31.613  22.686  26.930  1.00  0.00    -0.334 N 
ATOM     15  O   UNL A   1      33.571  22.715  27.979  1.00  0.00    -0.248 OA
ATOM     16  C   UNL A   1      32.968  22.549  26.924  1.00  0.00     0.319 C 
ATOM     17  N   UNL A   1      33.539  22.295  25.711  1.00  0.00    -0.307 N 
ATOM     18  H   UNL A   1      31.218  22.857  27.816  1.00  0.00     0.165 HD
ATOM     19  H   UNL A   1      32.973  22.441  24.919  1.00  0.00     0.171 HD
BRANCH  17  20
ATOM     20  C   UNL A   1      34.858  21.845  25.470  1.00  0.00     0.057 A 
ATOM     21  C   UNL A   1      35.849  22.838  25.549  1.00  0.00     0.027 A 
ATOM     22  C   UNL A   1      35.245  20.540  25.118  1.00  0.00     0.041 A 
ATOM     23  C   UNL A   1      37.199  22.533  25.363  1.00  0.00     0.002 A 
ATOM     24  C   UNL A   1      36.604  20.237  24.945  1.00  0.00     0.018 A 
ATOM     25  Br  UNL A   1      34.038  19.157  24.616  1.00  0.00    -0.049 Br
ATOM     26  C   UNL A   1      37.578  21.226  25.079  1.00  0.00     0.001 A 
ENDBRANCH  17  20
ENDBRANCH  13  14
ENDBRANCH   8  13
ENDBRANCH   5   7
ENDBRANCH   4   5
ENDBRANCH   3   4
ENDBRANCH   2   3
ENDBRANCH   1   2
BRANCH   1  27
ATOM     27  C   UNL A   1      31.395  30.328  25.333  1.00  0.00     0.202 C 
BRANCH  27  28
ATOM     28  C   UNL A   1      31.529  31.360  26.459  1.00  0.00     0.261 C 
BRANCH  28  29
ATOM     29  O   UNL A   1      32.634  31.065  27.331  1.00  0.00    -0.460 OA
BRANCH  29  30
ATOM     30  C   UNL A   1      33.455  32.114  27.578  1.00  0.00     0.338 C 
ATOM     31  O   UNL A   1      33.139  33.295  27.620  1.00  0.00    -0.246 OA
BRANCH  30  32
ATOM     32  C   UNL A   1      34.788  31.634  27.991  1.00  0.00     0.060 A 
ATOM     33  C   UNL A   1      34.931  30.261  28.225  1.00  0.00     0.016 A 
ATOM     34  C   UNL A   1      35.860  32.504  28.208  1.00  0.00     0.016 A 
ATOM     35  C   UNL A   1      36.124  29.760  28.737  1.00  0.00     0.010 A 
ATOM     36  C   UNL A   1      37.058  31.998  28.728  1.00  0.00     0.010 A 
ATOM     37  C   UNL A   1      37.180  30.630  29.033  1.00  0.00    -0.014 A 
BRANCH  37  38
ATOM     38  C   UNL A   1      38.338  30.122  29.813  1.00  0.00     0.031 A 
ATOM     39  C   UNL A   1      38.526  30.603  31.227  1.00  0.00     0.074 A 
ATOM     40  C   UNL A   1      39.175  29.208  29.291  1.00  0.00     0.049 A 
ATOM     41  N   UNL A   1      39.456  30.295  32.095  1.00  0.00    -0.248 NA
ATOM     42  C   UNL A   1      37.530  31.562  31.728  1.00  0.00     0.031 C 
ATOM     43  C   UNL A   1      39.069  28.637  27.949  1.00  0.00     0.029 A 
ATOM     44  N   UNL A   1      40.281  28.598  29.829  1.00  0.00    -0.354 N 
ATOM     45  C   UNL A   1      39.159  31.021  33.244  1.00  0.00     0.074 A 
ATOM     46  C   UNL A   1      37.988  31.818  32.944  1.00  0.00     0.031 C 
ATOM     47  C   UNL A   1      40.073  27.762  27.768  1.00  0.00     0.029 A 
ATOM     48  C   UNL A   1      40.911  27.733  28.966  1.00  0.00     0.049 A 
ATOM     49  H   UNL A   1      40.593  28.764  30.748  1.00  0.00     0.167 HD
ATOM     50  C   UNL A   1      39.796  31.016  34.441  1.00  0.00     0.034 A 
ATOM     51  C   UNL A   1      42.043  27.016  29.119  1.00  0.00     0.034 A 
ATOM     52  C   UNL A   1      40.969  30.225  34.721  1.00  0.00     0.049 A 
ATOM     53  C   UNL A   1      42.781  27.086  30.434  1.00  0.00     0.074 A 
ATOM     54  C   UNL A   1      41.687  30.134  35.901  1.00  0.00     0.029 A 
ATOM     55  N   UNL A   1      41.607  29.396  33.806  1.00  0.00    -0.354 N 
ATOM     56  N   UNL A   1      42.483  27.768  31.517  1.00  0.00    -0.248 NA
ATOM     57  C   UNL A   1      44.003  26.278  30.551  1.00  0.00     0.031 C 
ATOM     58  C   UNL A   1      42.796  29.308  35.679  1.00  0.00     0.029 A 
ATOM     59  C   UNL A   1      42.728  28.818  34.384  1.00  0.00     0.049 A 
ATOM     60  H   UNL A   1      41.308  29.242  32.881  1.00  0.00     0.167 HD
ATOM     61  C   UNL A   1      43.464  27.445  32.452  1.00  0.00     0.074 A 
ATOM     62  C   UNL A   1      44.352  26.497  31.810  1.00  0.00     0.031 C 
ATOM     63  C   UNL A   1      43.614  27.884  33.728  1.00  0.00     0.034 A 
BRANCH  50  64
ATOM     64  C   UNL A   1      39.262  31.936  35.512  1.00  0.00     0.023 A 
ATOM     65  C   UNL A   1      39.709  33.263  35.644  1.00  0.00     0.031 A 
ATOM     66  C   UNL A   1      38.314  31.468  36.440  1.00  0.00     0.131 A 
ATOM     67  C   UNL A   1      39.266  34.049  36.719  1.00  0.00     0.055 A 
ATOM     68  C   UNL A   1      37.817  32.281  37.461  1.00  0.00     0.041 A 
ATOM     69  F   UNL A   1      37.865  30.205  36.380  1.00  0.00    -0.206 F 
ATOM     70  C   UNL A   1      38.305  33.575  37.613  1.00  0.00     0.022 A 
BRANCH  67  71
ATOM     71  S   UNL A   1      40.073  35.647  37.016  1.00  0.00     0.124 S 
ATOM     72  O   UNL A   1      39.491  36.037  38.298  1.00  0.00    -0.237 OA
ATOM     73  O   UNL A   1      41.486  35.287  37.038  1.00  0.00    -0.237 OA
ATOM     74  O   UNL A   1      39.653  36.460  35.877  1.00  0.00    -0.744 OA
ENDBRANCH  67  71
ENDBRANCH  50  64
BRANCH  51  75
ATOM     75  C   UNL A   1      42.575  26.197  27.991  1.00  0.00     0.023 A 
ATOM     76  C   UNL A   1      42.182  24.862  27.810  1.00  0.00     0.031 A 
ATOM     77  C   UNL A   1      43.533  26.729  27.110  1.00  0.00     0.131 A 
ATOM     78  C   UNL A   1      42.778  24.089  26.800  1.00  0.00     0.055 A 
ATOM     79  C   UNL A   1      44.084  25.972  26.074  1.00  0.00     0.041 A 
ATOM     80  F   UNL A   1      43.945  28.000  27.238  1.00  0.00    -0.206 F 
ATOM     81  C   UNL A   1      43.715  24.639  25.924  1.00  0.00     0.022 A 
BRANCH  78  82
ATOM     82  S   UNL A   1      42.368  22.325  26.700  1.00  0.00     0.124 S 
ATOM     83  O   UNL A   1      41.044  22.362  26.090  1.00  0.00    -0.237 OA
ATOM     84  O   UNL A   1      43.447  21.810  25.863  1.00  0.00    -0.237 OA
ATOM     85  O   UNL A   1      42.401  21.889  28.094  1.00  0.00    -0.744 OA
ENDBRANCH  78  82
ENDBRANCH  51  75
BRANCH  63  86
ATOM     86  C   UNL A   1      44.759  27.305  34.525  1.00  0.00     0.023 A 
ATOM     87  C   UNL A   1      46.027  27.913  34.554  1.00  0.00     0.031 A 
ATOM     88  C   UNL A   1      44.581  26.116  35.253  1.00  0.00     0.131 A 
ATOM     89  C   UNL A   1      47.081  27.299  35.248  1.00  0.00     0.055 A 
ATOM     90  C   UNL A   1      45.617  25.542  35.992  1.00  0.00     0.041 A 
ATOM     91  F   UNL A   1      43.393  25.490  35.261  1.00  0.00    -0.206 F 
ATOM     92  C   UNL A   1      46.880  26.126  35.980  1.00  0.00     0.022 A 
BRANCH  89  93
ATOM     93  S   UNL A   1      48.748  27.999  35.097  1.00  0.00     0.124 S 
ATOM     94  O   UNL A   1      48.887  28.729  36.353  1.00  0.00    -0.237 OA
ATOM     95  O   UNL A   1      49.576  26.806  34.958  1.00  0.00    -0.237 OA
ATOM     96  O   UNL A   1      48.661  28.835  33.900  1.00  0.00    -0.744 OA
ENDBRANCH  89  93
ENDBRANCH  63  86
ENDBRANCH  37  38
ENDBRANCH  30  32
ENDBRANCH  29  30
ENDBRANCH  28  29
ENDBRANCH  27  28
ENDBRANCH   1  27
TORSDOF 20
ENDMDL
MODEL 3
REMARK VINA RESULT:     -10.9      5.793     11.234
REMARK SMILES O=C(NCc1ccc(C(=O)OCCOCCOC(=O)c2ccc(-c3c4nc(c(-c5cc(S(=O)(=O)[O-])ccc5F)c5ccc([nH]5)c(-c5cc(S(=O)(=O)[O-])ccc5F)c5nc(c(-c6cc(S(=O)(=O)[O-])ccc6F)c6ccc3[nH]6)C=C5)C=C4)cc2)cc1)Nc1ccccc1Br
REMARK SMILES IDX 14 1 13 2 12 3 11 4 9 5 10 6 8 7 5 8 6 9 84 10 7 11 83 12
REMARK SMILES IDX 4 13 3 14 1 15 2 16 85 17 86 20 87 21 91 22 88 23 90 24
REMARK SMILES IDX 92 25 89 26 15 27 16 28 17 29 18 30 19 31 20 32 21 33 82 34
REMARK SMILES IDX 22 35 81 36 23 37 24 38 25 39 75 40 26 41 80 42 74 43 76 44
REMARK SMILES IDX 27 45 79 46 73 47 72 48 28 50 60 51 40 52 59 53 41 54 44 55
REMARK SMILES IDX 58 56 77 57 42 58 43 59 57 61 78 62 45 63 29 64 30 65 38 66
REMARK SMILES IDX 31 67 37 68 39 69 36 70 32 71 33 72 34 73 35 74 61 75 62 76
REMARK SMILES IDX 70 77 63 78 69 79 71 80 68 81 64 82 65 83 66 84 67 85 46 86
REMARK SMILES IDX 47 87 55 88 48 89 54 90 56 91 53 92 49 93 50 94 51 95 52 96
REMARK H PARENT 3 18 85 19 76 49 44 60
REMARK Flexibility Score: inf
ROOT
ATOM      1  O   UNL A   1      41.917  19.654  27.404  1.00  0.00    -0.374 OA
ENDROOT
BRANCH   1   2
ATOM      2  C   UNL A   1      41.135  20.845  27.505  1.00  0.00     0.202 C 
BRANCH   2   3
ATOM      3  C   UNL A   1      40.816  21.546  26.182  1.00  0.00     0.261 C 
BRANCH   3   4
ATOM      4  O   UNL A   1      39.396  21.639  25.974  1.00  0.00    -0.460 OA
BRANCH   4   5
ATOM      5  C   UNL A   1      38.832  22.797  26.386  1.00  0.00     0.338 C 
ATOM      6  O   UNL A   1      39.317  23.621  27.148  1.00  0.00    -0.246 OA
BRANCH   5   7
ATOM      7  C   UNL A   1      37.553  23.036  25.676  1.00  0.00     0.060 A 
ATOM      8  C   UNL A   1      35.244  23.487  24.144  1.00  0.00    -0.029 A 
ATOM      9  C   UNL A   1      36.171  22.511  23.754  1.00  0.00     0.006 A 
ATOM     10  C   UNL A   1      35.447  24.178  25.350  1.00  0.00     0.006 A 
ATOM     11  C   UNL A   1      37.320  22.293  24.512  1.00  0.00     0.016 A 
ATOM     12  C   UNL A   1      36.597  23.957  26.115  1.00  0.00     0.016 A 
BRANCH   8  13
ATOM     13  C   UNL A   1      34.083  23.828  23.249  1.00  0.00     0.153 C 
BRANCH  13  14
ATOM     14  N   UNL A   1      32.833  23.920  23.967  1.00  0.00    -0.334 N 
ATOM     15  O   UNL A   1      31.099  24.837  25.009  1.00  0.00    -0.248 OA
ATOM     16  C   UNL A   1      32.200  25.003  24.495  1.00  0.00     0.319 C 
ATOM     17  N   UNL A   1      32.838  26.202  24.345  1.00  0.00    -0.307 N 
ATOM     18  H   UNL A   1      32.365  23.064  24.094  1.00  0.00     0.165 HD
ATOM     19  H   UNL A   1      33.578  26.228  23.697  1.00  0.00     0.171 HD
BRANCH  17  20
ATOM     20  C   UNL A   1      32.547  27.409  25.022  1.00  0.00     0.057 A 
ATOM     21  C   UNL A   1      33.150  27.543  26.285  1.00  0.00     0.027 A 
ATOM     22  C   UNL A   1      31.692  28.432  24.577  1.00  0.00     0.041 A 
ATOM     23  C   UNL A   1      32.975  28.696  27.053  1.00  0.00     0.002 A 
ATOM     24  C   UNL A   1      31.531  29.593  25.348  1.00  0.00     0.018 A 
ATOM     25  Br  UNL A   1      30.519  28.283  23.085  1.00  0.00    -0.049 Br
ATOM     26  C   UNL A   1      32.179  29.730  26.575  1.00  0.00     0.001 A 
ENDBRANCH  17  20
ENDBRANCH  13  14
ENDBRANCH   8  13
ENDBRANCH   5   7
ENDBRANCH   4   5
ENDBRANCH   3   4
ENDBRANCH   2   3
ENDBRANCH   1   2
BRANCH   1  27
ATOM     27  C   UNL A   1      41.966  19.022  26.123  1.00  0.00     0.202 C 
BRANCH  27  28
ATOM     28  C   UNL A   1      43.362  18.736  25.555  1.00  0.00     0.261 C 
BRANCH  28  29
ATOM     29  O   UNL A   1      43.658  19.560  24.413  1.00  0.00    -0.460 OA
BRANCH  29  30
ATOM     30  C   UNL A   1      44.820  20.251  24.502  1.00  0.00     0.338 C 
ATOM     31  O   UNL A   1      45.894  19.942  24.003  1.00  0.00    -0.246 OA
BRANCH  30  32
ATOM     32  C   UNL A   1      44.587  21.563  25.136  1.00  0.00     0.060 A 
ATOM     33  C   UNL A   1      44.350  22.652  24.287  1.00  0.00     0.016 A 
ATOM     34  C   UNL A   1      44.662  21.748  26.519  1.00  0.00     0.016 A 
ATOM     35  C   UNL A   1      44.249  23.937  24.811  1.00  0.00     0.010 A 
ATOM     36  C   UNL A   1      44.565  23.043  27.043  1.00  0.00     0.010 A 
ATOM     37  C   UNL A   1      44.399  24.147  26.187  1.00  0.00    -0.014 A 
BRANCH  37  38
ATOM     38  C   UNL A   1      44.547  25.535  26.694  1.00  0.00     0.031 A 
ATOM     39  C   UNL A   1      45.904  26.185  26.644  1.00  0.00     0.074 A 
ATOM     40  C   UNL A   1      43.482  26.225  27.141  1.00  0.00     0.049 A 
ATOM     41  N   UNL A   1      46.270  27.382  27.024  1.00  0.00    -0.248 NA
ATOM     42  C   UNL A   1      46.996  25.370  26.090  1.00  0.00     0.031 C 
ATOM     43  C   UNL A   1      42.112  25.717  27.198  1.00  0.00     0.029 A 
ATOM     44  N   UNL A   1      43.387  27.504  27.631  1.00  0.00    -0.354 N 
ATOM     45  C   UNL A   1      47.632  27.466  26.756  1.00  0.00     0.074 A 
ATOM     46  C   UNL A   1      48.034  26.181  26.224  1.00  0.00     0.031 C 
ATOM     47  C   UNL A   1      41.313  26.674  27.699  1.00  0.00     0.029 A 
ATOM     48  C   UNL A   1      42.117  27.851  28.028  1.00  0.00     0.049 A 
ATOM     49  H   UNL A   1      44.156  28.116  27.691  1.00  0.00     0.167 HD
ATOM     50  C   UNL A   1      48.469  28.520  26.928  1.00  0.00     0.034 A 
ATOM     51  C   UNL A   1      41.662  28.979  28.608  1.00  0.00     0.034 A 
ATOM     52  C   UNL A   1      48.055  29.791  27.471  1.00  0.00     0.049 A 
ATOM     53  C   UNL A   1      42.627  30.113  28.863  1.00  0.00     0.074 A 
ATOM     54  C   UNL A   1      48.815  30.930  27.677  1.00  0.00     0.029 A 
ATOM     55  N   UNL A   1      46.770  30.090  27.907  1.00  0.00    -0.354 N 
ATOM     56  N   UNL A   1      43.911  30.183  28.596  1.00  0.00    -0.248 NA
ATOM     57  C   UNL A   1      42.076  31.323  29.489  1.00  0.00     0.031 C 
ATOM     58  C   UNL A   1      48.009  31.889  28.301  1.00  0.00     0.029 A 
ATOM     59  C   UNL A   1      46.725  31.381  28.413  1.00  0.00     0.049 A 
ATOM     60  H   UNL A   1      46.003  29.474  27.865  1.00  0.00     0.167 HD
ATOM     61  C   UNL A   1      44.312  31.458  28.991  1.00  0.00     0.074 A 
ATOM     62  C   UNL A   1      43.131  32.124  29.502  1.00  0.00     0.031 C 
ATOM     63  C   UNL A   1      45.542  32.029  28.932  1.00  0.00     0.034 A 
BRANCH  50  64
ATOM     64  C   UNL A   1      49.922  28.314  26.573  1.00  0.00     0.023 A 
ATOM     65  C   UNL A   1      50.420  28.595  25.288  1.00  0.00     0.031 A 
ATOM     66  C   UNL A   1      50.817  27.794  27.526  1.00  0.00     0.131 A 
ATOM     67  C   UNL A   1      51.752  28.288  24.970  1.00  0.00     0.055 A 
ATOM     68  C   UNL A   1      52.162  27.565  27.225  1.00  0.00     0.041 A 
ATOM     69  F   UNL A   1      50.397  27.485  28.762  1.00  0.00    -0.206 F 
ATOM     70  C   UNL A   1      52.632  27.798  25.936  1.00  0.00     0.022 A 
BRANCH  67  71
ATOM     71  S   UNL A   1      52.278  28.400  23.237  1.00  0.00     0.124 S 
ATOM     72  O   UNL A   1      53.597  29.016  23.369  1.00  0.00    -0.237 OA
ATOM     73  O   UNL A   1      52.263  27.006  22.812  1.00  0.00    -0.237 OA
ATOM     74  O   UNL A   1      51.260  29.251  22.624  1.00  0.00    -0.744 OA
ENDBRANCH  67  71
ENDBRANCH  50  64
BRANCH  51  75
ATOM     75  C   UNL A   1      40.233  29.090  29.025  1.00  0.00     0.023 A 
ATOM     76  C   UNL A   1      39.860  29.020  30.376  1.00  0.00     0.031 A 
ATOM     77  C   UNL A   1      39.214  29.212  28.064  1.00  0.00     0.131 A 
ATOM     78  C   UNL A   1      38.500  29.027  30.726  1.00  0.00     0.055 A 
ATOM     79  C   UNL A   1      37.865  29.271  28.421  1.00  0.00     0.041 A 
ATOM     80  F   UNL A   1      39.515  29.282  26.758  1.00  0.00    -0.206 F 
ATOM     81  C   UNL A   1      37.502  29.165  29.760  1.00  0.00     0.022 A 
BRANCH  78  82
ATOM     82  S   UNL A   1      38.049  28.769  32.465  1.00  0.00     0.124 S 
ATOM     83  O   UNL A   1      36.654  29.192  32.475  1.00  0.00    -0.237 OA
ATOM     84  O   UNL A   1      38.288  27.339  32.631  1.00  0.00    -0.237 OA
ATOM     85  O   UNL A   1      38.972  29.641  33.188  1.00  0.00    -0.744 OA
ENDBRANCH  78  82
ENDBRANCH  51  75
BRANCH  63  86
ATOM     86  C   UNL A   1      45.657  33.464  29.391  1.00  0.00     0.023 A 
ATOM     87  C   UNL A   1      45.524  34.542  28.498  1.00  0.00     0.031 A 
ATOM     88  C   UNL A   1      45.922  33.754  30.741  1.00  0.00     0.131 A 
ATOM     89  C   UNL A   1      45.713  35.856  28.955  1.00  0.00     0.055 A 
ATOM     90  C   UNL A   1      46.048  35.066  31.202  1.00  0.00     0.041 A 
ATOM     91  F   UNL A   1      46.061  32.765  31.638  1.00  0.00    -0.206 F 
ATOM     92  C   UNL A   1      45.958  36.125  30.304  1.00  0.00     0.022 A 
BRANCH  89  93
ATOM     93  S   UNL A   1      45.736  37.205  27.742  1.00  0.00     0.124 S 
ATOM     94  O   UNL A   1      45.853  36.480  26.482  1.00  0.00    -0.237 OA
ATOM     95  O   UNL A   1      44.455  37.861  27.983  1.00  0.00    -0.237 OA
ATOM     96  O   UNL A   1      46.912  37.986  28.121  1.00  0.00    -0.744 OA
ENDBRANCH  89  93
ENDBRANCH  63  86
ENDBRANCH  37  38
ENDBRANCH  30  32
ENDBRANCH  29  30
ENDBRANCH  28  29
ENDBRANCH  27  28
ENDBRANCH   1  27
TORSDOF 20
ENDMDL
