MODEL 1
REMARK VINA RESULT:     -10.1      0.000      0.000
REMARK SMILES COC(=O)[C@H]1CCN(S(=O)(=O)N2CCC[C@H](C(=O)OCCOCCOC(=O)c3ccc(-c4c5nc(c(-c6cc(S(=O)(=O)[O-])ccc6F)c6ccc([nH]6)c(-c6cc(S(=O)(=O)[O-])ccc6F)c6nc(c(-c7cc(S(=O)(=O)[O-])ccc7F)c7ccc4[nH]7)C=C6)C=C5)cc3)C2)C1
REMARK SMILES IDX 21 1 20 2 19 3 17 4 18 5 16 6 12 7 13 8 91 9 14 10 15 11
REMARK SMILES IDX 9 12 10 13 11 14 8 15 5 16 6 17 92 18 7 19 3 20 4 21 2 22
REMARK SMILES IDX 1 23 22 24 23 25 24 26 25 27 26 28 27 29 28 30 29 31 90 32
REMARK SMILES IDX 30 33 89 34 31 35 32 36 33 37 83 38 34 39 88 40 82 41 84 42
REMARK SMILES IDX 35 43 87 44 81 45 80 46 36 48 68 49 48 50 67 51 49 52 52 53
REMARK SMILES IDX 66 54 85 55 50 56 51 57 65 59 86 60 53 61 37 62 38 63 46 64
REMARK SMILES IDX 39 65 45 66 47 67 44 68 40 69 41 70 42 71 43 72 69 73 70 74
REMARK SMILES IDX 78 75 71 76 77 77 79 78 76 79 72 80 73 81 74 82 75 83 54 84
REMARK SMILES IDX 55 85 63 86 56 87 62 88 64 89 61 90 57 91 58 92 59 93 60 94
REMARK H PARENT 84 47 52 58
REMARK Flexibility Score: inf
ROOT
ATOM      1  C   UNL A   1      34.647  29.610  27.532  1.00  0.00     0.202 C 
ENDROOT
BRANCH   1   2
ATOM      2  C   UNL A   1      33.677  28.502  27.116  1.00  0.00     0.261 C 
BRANCH   2   3
ATOM      3  O   UNL A   1      34.030  27.967  25.834  1.00  0.00    -0.463 OA
BRANCH   3   4
ATOM      4  C   UNL A   1      33.298  28.427  24.792  1.00  0.00     0.310 C 
ATOM      5  O   UNL A   1      33.753  28.829  23.725  1.00  0.00    -0.252 OA
BRANCH   4   6
ATOM      6  C   UNL A   1      31.808  28.361  25.040  1.00  0.00     0.114 C 
ATOM      7  N   UNL A   1      31.283  26.596  23.432  1.00  0.00    -0.188 NA
ATOM      8  C   UNL A   1      30.278  27.385  22.695  1.00  0.00     0.103 C 
ATOM      9  C   UNL A   1      31.390  26.926  24.858  1.00  0.00     0.118 C 
ATOM     10  C   UNL A   1      30.608  28.873  22.831  1.00  0.00     0.018 C 
ATOM     11  C   UNL A   1      30.861  29.293  24.277  1.00  0.00     0.018 C 
BRANCH   7  12
ATOM     12  S   UNL A   1      31.584  25.022  22.951  1.00  0.00     0.282 S 
ATOM     13  O   UNL A   1      32.276  25.055  21.688  1.00  0.00    -0.195 OA
ATOM     14  O   UNL A   1      30.366  24.262  23.128  1.00  0.00    -0.195 OA
BRANCH  12  15
ATOM     15  N   UNL A   1      32.696  24.480  24.124  1.00  0.00    -0.188 NA
ATOM     16  C   UNL A   1      33.187  22.112  24.437  1.00  0.00     0.116 C 
ATOM     17  C   UNL A   1      34.084  22.701  23.368  1.00  0.00     0.033 C 
ATOM     18  C   UNL A   1      32.210  23.229  24.813  1.00  0.00     0.118 C 
ATOM     19  C   UNL A   1      34.082  24.171  23.701  1.00  0.00     0.104 C 
BRANCH  16  20
ATOM     20  C   UNL A   1      32.495  20.885  23.905  1.00  0.00     0.310 C 
ATOM     21  O   UNL A   1      32.151  20.701  22.749  1.00  0.00    -0.252 OA
BRANCH  20  22
ATOM     22  O   UNL A   1      32.328  19.988  24.920  1.00  0.00    -0.469 OA
ATOM     23  C   UNL A   1      32.532  18.633  24.523  1.00  0.00     0.282 C 
ENDBRANCH  20  22
ENDBRANCH  16  20
ENDBRANCH  12  15
ENDBRANCH   7  12
ENDBRANCH   4   6
ENDBRANCH   3   4
ENDBRANCH   2   3
ENDBRANCH   1   2
BRANCH   1  24
ATOM     24  O   UNL A   1      34.141  30.941  27.623  1.00  0.00    -0.374 OA
BRANCH  24  25
ATOM     25  C   UNL A   1      32.798  31.193  27.220  1.00  0.00     0.202 C 
BRANCH  25  26
ATOM     26  C   UNL A   1      32.259  32.630  27.279  1.00  0.00     0.261 C 
BRANCH  26  27
ATOM     27  O   UNL A   1      33.287  33.637  27.264  1.00  0.00    -0.460 OA
BRANCH  27  28
ATOM     28  C   UNL A   1      33.352  34.371  28.405  1.00  0.00     0.338 C 
ATOM     29  O   UNL A   1      32.542  35.201  28.783  1.00  0.00    -0.246 OA
BRANCH  28  30
ATOM     30  C   UNL A   1      34.449  33.900  29.272  1.00  0.00     0.060 A 
ATOM     31  C   UNL A   1      35.757  34.166  28.847  1.00  0.00     0.016 A 
ATOM     32  C   UNL A   1      34.216  33.111  30.399  1.00  0.00     0.016 A 
ATOM     33  C   UNL A   1      36.838  33.596  29.512  1.00  0.00     0.010 A 
ATOM     34  C   UNL A   1      35.306  32.533  31.062  1.00  0.00     0.010 A 
ATOM     35  C   UNL A   1      36.619  32.738  30.597  1.00  0.00    -0.014 A 
BRANCH  35  36
ATOM     36  C   UNL A   1      37.757  31.948  31.135  1.00  0.00     0.031 A 
ATOM     37  C   UNL A   1      38.260  32.243  32.525  1.00  0.00     0.074 A 
ATOM     38  C   UNL A   1      38.300  30.949  30.415  1.00  0.00     0.049 A 
ATOM     39  N   UNL A   1      39.259  31.707  33.177  1.00  0.00    -0.248 NA
ATOM     40  C   UNL A   1      37.542  33.284  33.277  1.00  0.00     0.031 C 
ATOM     41  C   UNL A   1      37.860  30.538  29.082  1.00  0.00     0.029 A 
ATOM     42  N   UNL A   1      39.342  30.102  30.700  1.00  0.00    -0.354 N 
ATOM     43  C   UNL A   1      39.305  32.357  34.406  1.00  0.00     0.074 A 
ATOM     44  C   UNL A   1      38.246  33.344  34.399  1.00  0.00     0.031 C 
ATOM     45  C   UNL A   1      38.635  29.524  28.661  1.00  0.00     0.029 A 
ATOM     46  C   UNL A   1      39.656  29.247  29.669  1.00  0.00     0.049 A 
ATOM     47  H   UNL A   1      39.820  30.107  31.561  1.00  0.00     0.167 HD
ATOM     48  C   UNL A   1      40.153  32.148  35.443  1.00  0.00     0.034 A 
ATOM     49  C   UNL A   1      40.673  28.368  29.539  1.00  0.00     0.034 A 
ATOM     50  C   UNL A   1      41.196  31.152  35.435  1.00  0.00     0.049 A 
ATOM     51  C   UNL A   1      41.651  28.209  30.681  1.00  0.00     0.074 A 
ATOM     52  C   UNL A   1      42.080  30.826  36.449  1.00  0.00     0.029 A 
ATOM     53  N   UNL A   1      41.513  30.333  34.358  1.00  0.00    -0.354 N 
ATOM     54  N   UNL A   1      41.666  28.813  31.849  1.00  0.00    -0.248 NA
ATOM     55  C   UNL A   1      42.742  27.245  30.492  1.00  0.00     0.031 C 
ATOM     56  C   UNL A   1      42.988  29.884  35.955  1.00  0.00     0.029 A 
ATOM     57  C   UNL A   1      42.609  29.542  34.668  1.00  0.00     0.049 A 
ATOM     58  H   UNL A   1      41.030  30.316  33.500  1.00  0.00     0.167 HD
ATOM     59  C   UNL A   1      42.746  28.271  32.542  1.00  0.00     0.074 A 
ATOM     60  C   UNL A   1      43.344  27.281  31.671  1.00  0.00     0.031 C 
ATOM     61  C   UNL A   1      43.202  28.560  33.788  1.00  0.00     0.034 A 
BRANCH  48  62
ATOM     62  C   UNL A   1      40.038  33.053  36.646  1.00  0.00     0.023 A 
ATOM     63  C   UNL A   1      40.891  34.152  36.848  1.00  0.00     0.031 A 
ATOM     64  C   UNL A   1      39.037  32.813  37.606  1.00  0.00     0.131 A 
ATOM     65  C   UNL A   1      40.758  34.938  38.005  1.00  0.00     0.055 A 
ATOM     66  C   UNL A   1      38.861  33.643  38.714  1.00  0.00     0.041 A 
ATOM     67  F   UNL A   1      38.210  31.763  37.481  1.00  0.00    -0.206 F 
ATOM     68  C   UNL A   1      39.731  34.708  38.924  1.00  0.00     0.022 A 
BRANCH  65  69
ATOM     69  S   UNL A   1      42.020  36.192  38.357  1.00  0.00     0.124 S 
ATOM     70  O   UNL A   1      43.072  35.387  38.973  1.00  0.00    -0.237 OA
ATOM     71  O   UNL A   1      42.315  36.725  37.033  1.00  0.00    -0.237 OA
ATOM     72  O   UNL A   1      41.341  37.115  39.265  1.00  0.00    -0.744 OA
ENDBRANCH  65  69
ENDBRANCH  48  62
BRANCH  49  73
ATOM     73  C   UNL A   1      40.868  27.613  28.265  1.00  0.00     0.023 A 
ATOM     74  C   UNL A   1      40.604  26.237  28.183  1.00  0.00     0.031 A 
ATOM     75  C   UNL A   1      41.410  28.245  27.131  1.00  0.00     0.131 A 
ATOM     76  C   UNL A   1      40.943  25.526  27.020  1.00  0.00     0.055 A 
ATOM     77  C   UNL A   1      41.676  27.549  25.951  1.00  0.00     0.041 A 
ATOM     78  F   UNL A   1      41.697  29.557  27.155  1.00  0.00    -0.206 F 
ATOM     79  C   UNL A   1      41.461  26.175  25.897  1.00  0.00     0.022 A 
BRANCH  76  80
ATOM     80  S   UNL A   1      40.828  23.716  27.047  1.00  0.00     0.124 S 
ATOM     81  O   UNL A   1      39.408  23.506  26.794  1.00  0.00    -0.237 OA
ATOM     82  O   UNL A   1      41.735  23.337  25.968  1.00  0.00    -0.237 OA
ATOM     83  O   UNL A   1      41.281  23.365  28.393  1.00  0.00    -0.744 OA
ENDBRANCH  76  80
ENDBRANCH  49  73
BRANCH  61  84
ATOM     84  C   UNL A   1      44.370  27.753  34.306  1.00  0.00     0.023 A 
ATOM     85  C   UNL A   1      44.193  26.539  34.993  1.00  0.00     0.031 A 
ATOM     86  C   UNL A   1      45.685  28.214  34.114  1.00  0.00     0.131 A 
ATOM     87  C   UNL A   1      45.305  25.861  35.515  1.00  0.00     0.055 A 
ATOM     88  C   UNL A   1      46.792  27.499  34.572  1.00  0.00     0.041 A 
ATOM     89  F   UNL A   1      45.918  29.369  33.470  1.00  0.00    -0.206 F 
ATOM     90  C   UNL A   1      46.605  26.322  35.291  1.00  0.00     0.022 A 
BRANCH  87  91
ATOM     91  S   UNL A   1      45.028  24.422  36.584  1.00  0.00     0.124 S 
ATOM     92  O   UNL A   1      43.876  24.847  37.371  1.00  0.00    -0.237 OA
ATOM     93  O   UNL A   1      44.782  23.357  35.618  1.00  0.00    -0.237 OA
ATOM     94  O   UNL A   1      46.279  24.303  37.331  1.00  0.00    -0.744 OA
ENDBRANCH  87  91
ENDBRANCH  61  84
ENDBRANCH  35  36
ENDBRANCH  28  30
ENDBRANCH  27  28
ENDBRANCH  26  27
ENDBRANCH  25  26
ENDBRANCH  24  25
ENDBRANCH   1  24
TORSDOF 21
ENDMDL
MODEL 2
REMARK VINA RESULT:      -9.9      1.989      2.399
REMARK SMILES COC(=O)[C@H]1CCN(S(=O)(=O)N2CCC[C@H](C(=O)OCCOCCOC(=O)c3ccc(-c4c5nc(c(-c6cc(S(=O)(=O)[O-])ccc6F)c6ccc([nH]6)c(-c6cc(S(=O)(=O)[O-])ccc6F)c6nc(c(-c7cc(S(=O)(=O)[O-])ccc7F)c7ccc4[nH]7)C=C6)C=C5)cc3)C2)C1
REMARK SMILES IDX 21 1 20 2 19 3 17 4 18 5 16 6 12 7 13 8 91 9 14 10 15 11
REMARK SMILES IDX 9 12 10 13 11 14 8 15 5 16 6 17 92 18 7 19 3 20 4 21 2 22
REMARK SMILES IDX 1 23 22 24 23 25 24 26 25 27 26 28 27 29 28 30 29 31 90 32
REMARK SMILES IDX 30 33 89 34 31 35 32 36 33 37 83 38 34 39 88 40 82 41 84 42
REMARK SMILES IDX 35 43 87 44 81 45 80 46 36 48 68 49 48 50 67 51 49 52 52 53
REMARK SMILES IDX 66 54 85 55 50 56 51 57 65 59 86 60 53 61 37 62 38 63 46 64
REMARK SMILES IDX 39 65 45 66 47 67 44 68 40 69 41 70 42 71 43 72 69 73 70 74
REMARK SMILES IDX 78 75 71 76 77 77 79 78 76 79 72 80 73 81 74 82 75 83 54 84
REMARK SMILES IDX 55 85 63 86 56 87 62 88 64 89 61 90 57 91 58 92 59 93 60 94
REMARK H PARENT 84 47 52 58
REMARK Flexibility Score: inf
ROOT
ATOM      1  C   UNL A   1      31.949  29.193  27.065  1.00  0.00     0.202 C 
ENDROOT
BRANCH   1   2
ATOM      2  C   UNL A   1      31.403  28.616  25.758  1.00  0.00     0.261 C 
BRANCH   2   3
ATOM      3  O   UNL A   1      32.000  27.346  25.469  1.00  0.00    -0.463 OA
BRANCH   3   4
ATOM      4  C   UNL A   1      31.165  26.283  25.537  1.00  0.00     0.310 C 
ATOM      5  O   UNL A   1      31.032  25.542  26.507  1.00  0.00    -0.252 OA
BRANCH   4   6
ATOM      6  C   UNL A   1      30.339  26.098  24.283  1.00  0.00     0.114 C 
ATOM      7  N   UNL A   1      31.919  24.695  23.052  1.00  0.00    -0.188 NA
ATOM      8  C   UNL A   1      31.983  25.576  21.872  1.00  0.00     0.103 C 
ATOM      9  C   UNL A   1      30.632  24.716  23.759  1.00  0.00     0.118 C 
ATOM     10  C   UNL A   1      31.683  27.015  22.299  1.00  0.00     0.018 C 
ATOM     11  C   UNL A   1      30.421  27.126  23.151  1.00  0.00     0.018 C 
BRANCH   7  12
ATOM     12  S   UNL A   1      32.805  23.276  23.050  1.00  0.00     0.282 S 
ATOM     13  O   UNL A   1      34.118  23.559  22.528  1.00  0.00    -0.195 OA
ATOM     14  O   UNL A   1      31.974  22.234  22.486  1.00  0.00    -0.195 OA
BRANCH  12  15
ATOM     15  N   UNL A   1      32.980  22.943  24.712  1.00  0.00    -0.188 NA
ATOM     16  C   UNL A   1      33.052  20.660  25.568  1.00  0.00     0.116 C 
ATOM     17  C   UNL A   1      34.439  21.118  25.167  1.00  0.00     0.033 C 
ATOM     18  C   UNL A   1      32.108  21.788  25.141  1.00  0.00     0.118 C 
ATOM     19  C   UNL A   1      34.328  22.620  25.234  1.00  0.00     0.104 C 
BRANCH  16  20
ATOM     20  C   UNL A   1      32.733  19.348  24.900  1.00  0.00     0.310 C 
ATOM     21  O   UNL A   1      32.707  19.145  23.697  1.00  0.00    -0.252 OA
BRANCH  20  22
ATOM     22  O   UNL A   1      32.497  18.404  25.856  1.00  0.00    -0.469 OA
ATOM     23  C   UNL A   1      32.421  17.076  25.339  1.00  0.00     0.282 C 
ENDBRANCH  20  22
ENDBRANCH  16  20
ENDBRANCH  12  15
ENDBRANCH   7  12
ENDBRANCH   4   6
ENDBRANCH   3   4
ENDBRANCH   2   3
ENDBRANCH   1   2
BRANCH   1  24
ATOM     24  O   UNL A   1      32.411  30.544  27.058  1.00  0.00    -0.374 OA
BRANCH  24  25
ATOM     25  C   UNL A   1      33.733  30.819  27.510  1.00  0.00     0.202 C 
BRANCH  25  26
ATOM     26  C   UNL A   1      34.192  32.280  27.628  1.00  0.00     0.261 C 
BRANCH  26  27
ATOM     27  O   UNL A   1      33.141  33.191  27.996  1.00  0.00    -0.460 OA
BRANCH  27  28
ATOM     28  C   UNL A   1      33.549  34.202  28.805  1.00  0.00     0.338 C 
ATOM     29  O   UNL A   1      33.022  35.297  28.923  1.00  0.00    -0.246 OA
BRANCH  28  30
ATOM     30  C   UNL A   1      34.624  33.752  29.710  1.00  0.00     0.060 A 
ATOM     31  C   UNL A   1      35.932  34.135  29.386  1.00  0.00     0.016 A 
ATOM     32  C   UNL A   1      34.382  32.876  30.768  1.00  0.00     0.016 A 
ATOM     33  C   UNL A   1      37.010  33.597  30.082  1.00  0.00     0.010 A 
ATOM     34  C   UNL A   1      35.470  32.331  31.462  1.00  0.00     0.010 A 
ATOM     35  C   UNL A   1      36.790  32.657  31.096  1.00  0.00    -0.014 A 
BRANCH  35  36
ATOM     36  C   UNL A   1      37.948  31.913  31.656  1.00  0.00     0.031 A 
ATOM     37  C   UNL A   1      38.479  32.299  33.012  1.00  0.00     0.074 A 
ATOM     38  C   UNL A   1      38.486  30.876  30.987  1.00  0.00     0.049 A 
ATOM     39  N   UNL A   1      39.498  31.814  33.673  1.00  0.00    -0.248 NA
ATOM     40  C   UNL A   1      37.767  33.378  33.715  1.00  0.00     0.031 C 
ATOM     41  C   UNL A   1      38.021  30.379  29.692  1.00  0.00     0.029 A 
ATOM     42  N   UNL A   1      39.544  30.059  31.300  1.00  0.00    -0.354 N 
ATOM     43  C   UNL A   1      39.564  32.541  34.858  1.00  0.00     0.074 A 
ATOM     44  C   UNL A   1      38.495  33.515  34.814  1.00  0.00     0.031 C 
ATOM     45  C   UNL A   1      38.798  29.348  29.317  1.00  0.00     0.029 A 
ATOM     46  C   UNL A   1      39.844  29.144  30.317  1.00  0.00     0.049 A 
ATOM     47  H   UNL A   1      40.041  30.122  32.147  1.00  0.00     0.167 HD
ATOM     48  C   UNL A   1      40.438  32.405  35.886  1.00  0.00     0.034 A 
ATOM     49  C   UNL A   1      40.867  28.269  30.218  1.00  0.00     0.034 A 
ATOM     50  C   UNL A   1      41.492  31.420  35.916  1.00  0.00     0.049 A 
ATOM     51  C   UNL A   1      41.873  28.191  31.345  1.00  0.00     0.074 A 
ATOM     52  C   UNL A   1      42.402  31.167  36.928  1.00  0.00     0.029 A 
ATOM     53  N   UNL A   1      41.793  30.538  34.885  1.00  0.00    -0.354 N 
ATOM     54  N   UNL A   1      41.908  28.867  32.472  1.00  0.00    -0.248 NA
ATOM     55  C   UNL A   1      42.970  27.227  31.191  1.00  0.00     0.031 C 
ATOM     56  C   UNL A   1      43.308  30.205  36.473  1.00  0.00     0.029 A 
ATOM     57  C   UNL A   1      42.905  29.779  35.218  1.00  0.00     0.049 A 
ATOM     58  H   UNL A   1      41.291  30.464  34.042  1.00  0.00     0.167 HD
ATOM     59  C   UNL A   1      43.009  28.379  33.173  1.00  0.00     0.074 A 
ATOM     60  C   UNL A   1      43.598  27.344  32.351  1.00  0.00     0.031 C 
ATOM     61  C   UNL A   1      43.489  28.750  34.388  1.00  0.00     0.034 A 
BRANCH  48  62
ATOM     62  C   UNL A   1      40.340  33.382  37.033  1.00  0.00     0.023 A 
ATOM     63  C   UNL A   1      39.613  33.101  38.203  1.00  0.00     0.031 A 
ATOM     64  C   UNL A   1      41.006  34.619  36.954  1.00  0.00     0.131 A 
ATOM     65  C   UNL A   1      39.530  34.064  39.223  1.00  0.00     0.055 A 
ATOM     66  C   UNL A   1      40.983  35.540  38.002  1.00  0.00     0.041 A 
ATOM     67  F   UNL A   1      41.694  34.955  35.851  1.00  0.00    -0.206 F 
ATOM     68  C   UNL A   1      40.234  35.269  39.142  1.00  0.00     0.022 A 
BRANCH  65  69
ATOM     69  S   UNL A   1      38.392  33.774  40.606  1.00  0.00     0.124 S 
ATOM     70  O   UNL A   1      37.275  33.115  39.934  1.00  0.00    -0.237 OA
ATOM     71  O   UNL A   1      39.186  32.938  41.498  1.00  0.00    -0.237 OA
ATOM     72  O   UNL A   1      38.105  35.119  41.101  1.00  0.00    -0.744 OA
ENDBRANCH  65  69
ENDBRANCH  48  62
BRANCH  49  73
ATOM     73  C   UNL A   1      41.042  27.438  28.990  1.00  0.00     0.023 A 
ATOM     74  C   UNL A   1      42.035  27.733  28.042  1.00  0.00     0.031 A 
ATOM     75  C   UNL A   1      40.155  26.384  28.703  1.00  0.00     0.131 A 
ATOM     76  C   UNL A   1      42.075  27.031  26.827  1.00  0.00     0.055 A 
ATOM     77  C   UNL A   1      40.246  25.639  27.526  1.00  0.00     0.041 A 
ATOM     78  F   UNL A   1      39.177  26.064  29.565  1.00  0.00    -0.206 F 
ATOM     79  C   UNL A   1      41.199  25.974  26.569  1.00  0.00     0.022 A 
BRANCH  76  80
ATOM     80  S   UNL A   1      43.199  27.613  25.527  1.00  0.00     0.124 S 
ATOM     81  O   UNL A   1      42.273  28.239  24.592  1.00  0.00    -0.237 OA
ATOM     82  O   UNL A   1      44.075  28.517  26.265  1.00  0.00    -0.237 OA
ATOM     83  O   UNL A   1      43.832  26.385  25.049  1.00  0.00    -0.744 OA
ENDBRANCH  76  80
ENDBRANCH  49  73
BRANCH  61  84
ATOM     84  C   UNL A   1      44.677  27.988  34.927  1.00  0.00     0.023 A 
ATOM     85  C   UNL A   1      44.529  26.813  35.685  1.00  0.00     0.031 A 
ATOM     86  C   UNL A   1      45.982  28.454  34.684  1.00  0.00     0.131 A 
ATOM     87  C   UNL A   1      45.660  26.179  36.223  1.00  0.00     0.055 A 
ATOM     88  C   UNL A   1      47.107  27.780  35.161  1.00  0.00     0.041 A 
ATOM     89  F   UNL A   1      46.187  29.574  33.972  1.00  0.00    -0.206 F 
ATOM     90  C   UNL A   1      46.949  26.644  35.948  1.00  0.00     0.022 A 
BRANCH  87  91
ATOM     91  S   UNL A   1      45.422  24.800  37.377  1.00  0.00     0.124 S 
ATOM     92  O   UNL A   1      46.531  24.987  38.306  1.00  0.00    -0.237 OA
ATOM     93  O   UNL A   1      44.090  25.066  37.911  1.00  0.00    -0.237 OA
ATOM     94  O   UNL A   1      45.521  23.617  36.523  1.00  0.00    -0.744 OA
ENDBRANCH  87  91
ENDBRANCH  61  84
ENDBRANCH  35  36
ENDBRANCH  28  30
ENDBRANCH  27  28
ENDBRANCH  26  27
ENDBRANCH  25  26
ENDBRANCH  24  25
ENDBRANCH   1  24
TORSDOF 21
ENDMDL
MODEL 3
REMARK VINA RESULT:      -9.7      2.122      7.555
REMARK SMILES COC(=O)[C@H]1CCN(S(=O)(=O)N2CCC[C@H](C(=O)OCCOCCOC(=O)c3ccc(-c4c5nc(c(-c6cc(S(=O)(=O)[O-])ccc6F)c6ccc([nH]6)c(-c6cc(S(=O)(=O)[O-])ccc6F)c6nc(c(-c7cc(S(=O)(=O)[O-])ccc7F)c7ccc4[nH]7)C=C6)C=C5)cc3)C2)C1
REMARK SMILES IDX 21 1 20 2 19 3 17 4 18 5 16 6 12 7 13 8 91 9 14 10 15 11
REMARK SMILES IDX 9 12 10 13 11 14 8 15 5 16 6 17 92 18 7 19 3 20 4 21 2 22
REMARK SMILES IDX 1 23 22 24 23 25 24 26 25 27 26 28 27 29 28 30 29 31 90 32
REMARK SMILES IDX 30 33 89 34 31 35 32 36 33 37 83 38 34 39 88 40 82 41 84 42
REMARK SMILES IDX 35 43 87 44 81 45 80 46 36 48 68 49 48 50 67 51 49 52 52 53
REMARK SMILES IDX 66 54 85 55 50 56 51 57 65 59 86 60 53 61 37 62 38 63 46 64
REMARK SMILES IDX 39 65 45 66 47 67 44 68 40 69 41 70 42 71 43 72 69 73 70 74
REMARK SMILES IDX 78 75 71 76 77 77 79 78 76 79 72 80 73 81 74 82 75 83 54 84
REMARK SMILES IDX 55 85 63 86 56 87 62 88 64 89 61 90 57 91 58 92 59 93 60 94
REMARK H PARENT 84 47 52 58
REMARK Flexibility Score: inf
ROOT
ATOM      1  C   UNL A   1      34.859  29.653  27.854  1.00  0.00     0.202 C 
ENDROOT
BRANCH   1   2
ATOM      2  C   UNL A   1      33.813  28.698  27.277  1.00  0.00     0.261 C 
BRANCH   2   3
ATOM      3  O   UNL A   1      34.399  27.817  26.311  1.00  0.00    -0.463 OA
BRANCH   3   4
ATOM      4  C   UNL A   1      33.552  27.340  25.370  1.00  0.00     0.310 C 
ATOM      5  O   UNL A   1      33.692  27.464  24.156  1.00  0.00    -0.252 OA
BRANCH   4   6
ATOM      6  C   UNL A   1      32.389  26.571  25.956  1.00  0.00     0.114 C 
ATOM      7  N   UNL A   1      32.547  24.594  24.525  1.00  0.00    -0.188 NA
ATOM      8  C   UNL A   1      31.159  24.677  24.035  1.00  0.00     0.103 C 
ATOM      9  C   UNL A   1      32.744  25.108  25.886  1.00  0.00     0.118 C 
ATOM     10  C   UNL A   1      30.693  26.134  24.080  1.00  0.00     0.018 C 
ATOM     11  C   UNL A   1      30.970  26.801  25.426  1.00  0.00     0.018 C 
BRANCH   7  12
ATOM     12  S   UNL A   1      33.516  23.336  23.999  1.00  0.00     0.282 S 
ATOM     13  O   UNL A   1      34.856  23.835  23.821  1.00  0.00    -0.195 OA
ATOM     14  O   UNL A   1      32.815  22.650  22.935  1.00  0.00    -0.195 OA
BRANCH  12  15
ATOM     15  N   UNL A   1      33.538  22.293  25.347  1.00  0.00    -0.188 NA
ATOM     16  C   UNL A   1      33.124  19.900  25.131  1.00  0.00     0.116 C 
ATOM     17  C   UNL A   1      34.592  20.204  24.915  1.00  0.00     0.033 C 
ATOM     18  C   UNL A   1      32.439  21.262  25.269  1.00  0.00     0.118 C 
ATOM     19  C   UNL A   1      34.770  21.520  25.627  1.00  0.00     0.104 C 
BRANCH  16  20
ATOM     20  C   UNL A   1      32.593  19.093  23.975  1.00  0.00     0.310 C 
ATOM     21  O   UNL A   1      32.230  19.537  22.899  1.00  0.00    -0.252 OA
BRANCH  20  22
ATOM     22  O   UNL A   1      32.600  17.770  24.311  1.00  0.00    -0.469 OA
ATOM     23  C   UNL A   1      33.438  16.974  23.474  1.00  0.00     0.282 C 
ENDBRANCH  20  22
ENDBRANCH  16  20
ENDBRANCH  12  15
ENDBRANCH   7  12
ENDBRANCH   4   6
ENDBRANCH   3   4
ENDBRANCH   2   3
ENDBRANCH   1   2
BRANCH   1  24
ATOM     24  O   UNL A   1      34.437  30.968  28.214  1.00  0.00    -0.374 OA
BRANCH  24  25
ATOM     25  C   UNL A   1      33.657  31.715  27.285  1.00  0.00     0.202 C 
BRANCH  25  26
ATOM     26  C   UNL A   1      32.928  32.978  27.769  1.00  0.00     0.261 C 
BRANCH  26  27
ATOM     27  O   UNL A   1      33.812  34.039  28.175  1.00  0.00    -0.460 OA
BRANCH  27  28
ATOM     28  C   UNL A   1      33.586  34.489  29.436  1.00  0.00     0.338 C 
ATOM     29  O   UNL A   1      32.581  35.054  29.838  1.00  0.00    -0.246 OA
BRANCH  28  30
ATOM     30  C   UNL A   1      34.645  34.032  30.356  1.00  0.00     0.060 A 
ATOM     31  C   UNL A   1      35.905  34.629  30.226  1.00  0.00     0.016 A 
ATOM     32  C   UNL A   1      34.453  32.963  31.232  1.00  0.00     0.016 A 
ATOM     33  C   UNL A   1      36.995  34.124  30.927  1.00  0.00     0.010 A 
ATOM     34  C   UNL A   1      35.554  32.452  31.932  1.00  0.00     0.010 A 
ATOM     35  C   UNL A   1      36.837  33.002  31.751  1.00  0.00    -0.014 A 
BRANCH  35  36
ATOM     36  C   UNL A   1      38.045  32.329  32.294  1.00  0.00     0.031 A 
ATOM     37  C   UNL A   1      38.710  31.249  31.478  1.00  0.00     0.074 A 
ATOM     38  C   UNL A   1      38.570  32.708  33.473  1.00  0.00     0.049 A 
ATOM     39  N   UNL A   1      39.747  30.507  31.772  1.00  0.00    -0.248 NA
ATOM     40  C   UNL A   1      38.126  30.970  30.157  1.00  0.00     0.031 C 
ATOM     41  C   UNL A   1      38.045  33.776  34.324  1.00  0.00     0.029 A 
ATOM     42  N   UNL A   1      39.659  32.235  34.164  1.00  0.00    -0.354 N 
ATOM     43  C   UNL A   1      39.927  29.658  30.685  1.00  0.00     0.074 A 
ATOM     44  C   UNL A   1      38.878  29.963  29.735  1.00  0.00     0.031 C 
ATOM     45  C   UNL A   1      38.806  33.869  35.427  1.00  0.00     0.029 A 
ATOM     46  C   UNL A   1      39.840  32.838  35.387  1.00  0.00     0.049 A 
ATOM     47  H   UNL A   1      40.253  31.532  33.816  1.00  0.00     0.167 HD
ATOM     48  C   UNL A   1      40.880  28.712  30.499  1.00  0.00     0.034 A 
ATOM     49  C   UNL A   1      40.716  32.563  36.378  1.00  0.00     0.034 A 
ATOM     50  C   UNL A   1      41.925  28.430  31.454  1.00  0.00     0.049 A 
ATOM     51  C   UNL A   1      41.721  31.451  36.175  1.00  0.00     0.074 A 
ATOM     52  C   UNL A   1      42.967  27.526  31.344  1.00  0.00     0.029 A 
ATOM     53  N   UNL A   1      42.052  29.030  32.701  1.00  0.00    -0.354 N 
ATOM     54  N   UNL A   1      41.897  30.673  35.131  1.00  0.00    -0.248 NA
ATOM     55  C   UNL A   1      42.651  31.187  37.281  1.00  0.00     0.031 C 
ATOM     56  C   UNL A   1      43.663  27.509  32.556  1.00  0.00     0.029 A 
ATOM     57  C   UNL A   1      43.124  28.477  33.386  1.00  0.00     0.049 A 
ATOM     58  H   UNL A   1      41.468  29.742  33.047  1.00  0.00     0.167 HD
ATOM     59  C   UNL A   1      42.981  29.856  35.444  1.00  0.00     0.074 A 
ATOM     60  C   UNL A   1      43.428  30.247  36.764  1.00  0.00     0.031 C 
ATOM     61  C   UNL A   1      43.558  28.872  34.707  1.00  0.00     0.034 A 
BRANCH  48  62
ATOM     62  C   UNL A   1      40.805  27.865  29.251  1.00  0.00     0.023 A 
ATOM     63  C   UNL A   1      41.677  28.045  28.163  1.00  0.00     0.031 A 
ATOM     64  C   UNL A   1      39.843  26.843  29.160  1.00  0.00     0.131 A 
ATOM     65  C   UNL A   1      41.537  27.248  27.015  1.00  0.00     0.055 A 
ATOM     66  C   UNL A   1      39.758  26.004  28.047  1.00  0.00     0.041 A 
ATOM     67  F   UNL A   1      38.965  26.641  30.155  1.00  0.00    -0.206 F 
ATOM     68  C   UNL A   1      40.602  26.211  26.962  1.00  0.00     0.022 A 
BRANCH  65  69
ATOM     69  S   UNL A   1      42.511  27.663  25.542  1.00  0.00     0.124 S 
ATOM     70  O   UNL A   1      41.838  28.873  25.074  1.00  0.00    -0.237 OA
ATOM     71  O   UNL A   1      43.849  27.846  26.088  1.00  0.00    -0.237 OA
ATOM     72  O   UNL A   1      42.342  26.494  24.680  1.00  0.00    -0.744 OA
ENDBRANCH  65  69
ENDBRANCH  48  62
BRANCH  49  73
ATOM     73  C   UNL A   1      40.654  33.299  37.676  1.00  0.00     0.023 A 
ATOM     74  C   UNL A   1      39.756  32.923  38.687  1.00  0.00     0.031 A 
ATOM     75  C   UNL A   1      41.434  34.451  37.887  1.00  0.00     0.131 A 
ATOM     76  C   UNL A   1      39.612  33.726  39.830  1.00  0.00     0.055 A 
ATOM     77  C   UNL A   1      41.341  35.204  39.059  1.00  0.00     0.041 A 
ATOM     78  F   UNL A   1      42.299  34.868  36.949  1.00  0.00    -0.206 F 
ATOM     79  C   UNL A   1      40.411  34.853  40.031  1.00  0.00     0.022 A 
BRANCH  76  80
ATOM     80  S   UNL A   1      38.265  33.351  40.987  1.00  0.00     0.124 S 
ATOM     81  O   UNL A   1      37.749  34.683  41.281  1.00  0.00    -0.237 OA
ATOM     82  O   UNL A   1      37.403  32.492  40.182  1.00  0.00    -0.237 OA
ATOM     83  O   UNL A   1      38.944  32.687  42.098  1.00  0.00    -0.744 OA
ENDBRANCH  76  80
ENDBRANCH  49  73
BRANCH  61  84
ATOM     84  C   UNL A   1      44.776  28.192  35.289  1.00  0.00     0.023 A 
ATOM     85  C   UNL A   1      44.679  27.026  36.069  1.00  0.00     0.031 A 
ATOM     86  C   UNL A   1      46.057  28.729  35.065  1.00  0.00     0.131 A 
ATOM     87  C   UNL A   1      45.832  26.471  36.646  1.00  0.00     0.055 A 
ATOM     88  C   UNL A   1      47.208  28.132  35.582  1.00  0.00     0.041 A 
ATOM     89  F   UNL A   1      46.214  29.844  34.334  1.00  0.00    -0.206 F 
ATOM     90  C   UNL A   1      47.098  27.005  36.389  1.00  0.00     0.022 A 
BRANCH  87  91
ATOM     91  S   UNL A   1      45.648  25.104  37.823  1.00  0.00     0.124 S 
ATOM     92  O   UNL A   1      46.738  25.359  38.757  1.00  0.00    -0.237 OA
ATOM     93  O   UNL A   1      44.300  25.318  38.342  1.00  0.00    -0.237 OA
ATOM     94  O   UNL A   1      45.808  23.911  36.993  1.00  0.00    -0.744 OA
ENDBRANCH  87  91
ENDBRANCH  61  84
ENDBRANCH  35  36
ENDBRANCH  28  30
ENDBRANCH  27  28
ENDBRANCH  26  27
ENDBRANCH  25  26
ENDBRANCH  24  25
ENDBRANCH   1  24
TORSDOF 21
ENDMDL
