MODEL 1
REMARK VINA RESULT:     -11.0      0.000      0.000
REMARK SMILES C[C@H](Sc1ccccn1)C(=O)N[C@H](C(=O)OCCOCCOC(=O)c1ccc(-c2c3nc(c(-c4cc(S(=O)(=O)[O-])ccc4F)c4ccc([nH]4)c(-c4cc(S(=O)(=O)[O-])ccc4F)c4nc(c(-c5cc(S(=O)(=O)[O-])ccc5F)c5ccc2[nH]5)C=C4)C=C3)cc1)c1ccc(F)cc1
REMARK SMILES IDX 18 1 17 2 16 3 14 4 15 5 13 6 12 7 10 8 11 9 2 11 1 12 3 13
REMARK SMILES IDX 4 14 5 15 9 16 6 17 8 18 7 19 88 20 89 21 94 22 90 23 93 24
REMARK SMILES IDX 91 25 92 26 19 27 20 28 21 29 22 30 23 31 24 32 25 33 26 34
REMARK SMILES IDX 87 35 27 36 86 37 28 38 29 39 30 40 80 41 31 42 85 43 79 44
REMARK SMILES IDX 81 45 32 46 84 47 78 48 77 49 33 51 65 52 45 53 64 54 46 55
REMARK SMILES IDX 49 56 63 57 82 58 47 59 48 60 62 62 83 63 50 64 34 65 35 66
REMARK SMILES IDX 43 67 36 68 42 69 44 70 41 71 37 72 38 73 39 74 40 75 66 76
REMARK SMILES IDX 67 77 75 78 68 79 74 80 76 81 73 82 69 83 70 84 71 85 72 86
REMARK SMILES IDX 51 87 52 88 60 89 53 90 59 91 61 92 58 93 54 94 55 95 56 96
REMARK SMILES IDX 57 97
REMARK H PARENT 12 10 81 50 49 61
REMARK Flexibility Score: inf
ROOT
ATOM      1  C   UNL A   1      30.078  30.376  23.942  1.00  0.00     0.202 C 
ENDROOT
BRANCH   1   2
ATOM      2  C   UNL A   1      29.703  28.929  23.629  1.00  0.00     0.261 C 
BRANCH   2   3
ATOM      3  O   UNL A   1      30.601  28.023  24.283  1.00  0.00    -0.461 OA
BRANCH   3   4
ATOM      4  C   UNL A   1      30.070  26.821  24.576  1.00  0.00     0.333 C 
ATOM      5  O   UNL A   1      29.215  26.255  23.898  1.00  0.00    -0.249 OA
BRANCH   4   6
ATOM      6  C   UNL A   1      30.540  26.283  25.940  1.00  0.00     0.223 C 
BRANCH   6   7
ATOM      7  N   UNL A   1      30.346  24.910  26.451  1.00  0.00    -0.338 N 
ATOM      8  C   UNL A   1      30.817  23.647  26.363  1.00  0.00     0.234 C 
ATOM      9  O   UNL A   1      30.324  22.893  27.220  1.00  0.00    -0.274 OA
ATOM     10  H   UNL A   1      29.599  24.920  27.093  1.00  0.00     0.164 HD
BRANCH   8  11
ATOM     11  C   UNL A   1      31.766  23.038  25.306  1.00  0.00     0.139 C 
ATOM     12  C   UNL A   1      31.281  23.223  23.888  1.00  0.00     0.030 C 
BRANCH  11  13
ATOM     13  S   UNL A   1      32.365  21.434  25.982  1.00  0.00    -0.093 SA
BRANCH  13  14
ATOM     14  C   UNL A   1      32.370  20.108  24.806  1.00  0.00     0.097 A 
ATOM     15  C   UNL A   1      32.361  20.143  23.430  1.00  0.00     0.035 A 
ATOM     16  N   UNL A   1      32.487  18.911  25.435  1.00  0.00    -0.250 NA
ATOM     17  C   UNL A   1      32.432  18.928  22.717  1.00  0.00     0.004 A 
ATOM     18  C   UNL A   1      32.561  17.752  24.748  1.00  0.00     0.112 A 
ATOM     19  C   UNL A   1      32.530  17.709  23.383  1.00  0.00     0.020 A 
ENDBRANCH  13  14
ENDBRANCH  11  13
ENDBRANCH   8  11
ENDBRANCH   6   7
BRANCH   6  20
ATOM     20  C   UNL A   1      31.838  26.974  26.396  1.00  0.00    -0.014 A 
ATOM     21  C   UNL A   1      31.787  28.051  27.302  1.00  0.00     0.009 A 
ATOM     22  C   UNL A   1      33.064  26.715  25.745  1.00  0.00     0.009 A 
ATOM     23  C   UNL A   1      32.896  28.889  27.476  1.00  0.00     0.039 A 
ATOM     24  C   UNL A   1      34.156  27.570  25.898  1.00  0.00     0.039 A 
ATOM     25  C   UNL A   1      34.057  28.658  26.750  1.00  0.00     0.123 A 
ATOM     26  F   UNL A   1      35.087  29.510  26.853  1.00  0.00    -0.207 F 
ENDBRANCH   6  20
ENDBRANCH   4   6
ENDBRANCH   3   4
ENDBRANCH   2   3
ENDBRANCH   1   2
BRANCH   1  27
ATOM     27  O   UNL A   1      30.754  30.566  25.183  1.00  0.00    -0.374 OA
BRANCH  27  28
ATOM     28  C   UNL A   1      30.738  31.933  25.643  1.00  0.00     0.202 C 
BRANCH  28  29
ATOM     29  C   UNL A   1      31.550  32.202  26.928  1.00  0.00     0.261 C 
BRANCH  29  30
ATOM     30  O   UNL A   1      32.586  33.200  26.724  1.00  0.00    -0.460 OA
BRANCH  30  31
ATOM     31  C   UNL A   1      33.090  33.753  27.867  1.00  0.00     0.338 C 
ATOM     32  O   UNL A   1      32.566  34.643  28.514  1.00  0.00    -0.246 OA
BRANCH  31  33
ATOM     33  C   UNL A   1      34.352  33.092  28.304  1.00  0.00     0.060 A 
ATOM     34  C   UNL A   1      34.249  31.930  29.074  1.00  0.00     0.016 A 
ATOM     35  C   UNL A   1      35.621  33.609  28.024  1.00  0.00     0.016 A 
ATOM     36  C   UNL A   1      35.384  31.207  29.449  1.00  0.00     0.010 A 
ATOM     37  C   UNL A   1      36.770  32.933  28.488  1.00  0.00     0.010 A 
ATOM     38  C   UNL A   1      36.660  31.715  29.185  1.00  0.00    -0.014 A 
BRANCH  38  39
ATOM     39  C   UNL A   1      37.831  31.055  29.830  1.00  0.00     0.031 A 
ATOM     40  C   UNL A   1      38.150  31.415  31.258  1.00  0.00     0.074 A 
ATOM     41  C   UNL A   1      38.531  30.077  29.219  1.00  0.00     0.049 A 
ATOM     42  N   UNL A   1      39.123  31.002  32.028  1.00  0.00    -0.248 NA
ATOM     43  C   UNL A   1      37.221  32.350  31.910  1.00  0.00     0.031 C 
ATOM     44  C   UNL A   1      38.233  29.526  27.899  1.00  0.00     0.029 A 
ATOM     45  N   UNL A   1      39.629  29.361  29.638  1.00  0.00    -0.354 N 
ATOM     46  C   UNL A   1      38.922  31.623  33.257  1.00  0.00     0.074 A 
ATOM     47  C   UNL A   1      37.734  32.439  33.125  1.00  0.00     0.031 C 
ATOM     48  C   UNL A   1      39.135  28.568  27.610  1.00  0.00     0.029 A 
ATOM     49  C   UNL A   1      40.110  28.475  28.698  1.00  0.00     0.049 A 
ATOM     50  H   UNL A   1      40.035  29.471  30.528  1.00  0.00     0.167 HD
ATOM     51  C   UNL A   1      39.666  31.536  34.386  1.00  0.00     0.034 A 
ATOM     52  C   UNL A   1      41.229  27.714  28.700  1.00  0.00     0.034 A 
ATOM     53  C   UNL A   1      40.880  30.767  34.485  1.00  0.00     0.049 A 
ATOM     54  C   UNL A   1      42.147  27.777  29.905  1.00  0.00     0.074 A 
ATOM     55  C   UNL A   1      41.755  30.666  35.553  1.00  0.00     0.029 A 
ATOM     56  N   UNL A   1      41.407  29.981  33.467  1.00  0.00    -0.354 N 
ATOM     57  N   UNL A   1      41.982  28.416  31.041  1.00  0.00    -0.248 NA
ATOM     58  C   UNL A   1      43.408  27.023  29.823  1.00  0.00     0.031 C 
ATOM     59  C   UNL A   1      42.848  29.892  35.151  1.00  0.00     0.029 A 
ATOM     60  C   UNL A   1      42.614  29.430  33.866  1.00  0.00     0.049 A 
ATOM     61  H   UNL A   1      40.984  29.838  32.589  1.00  0.00     0.167 HD
ATOM     62  C   UNL A   1      43.106  28.122  31.813  1.00  0.00     0.074 A 
ATOM     63  C   UNL A   1      43.928  27.230  31.023  1.00  0.00     0.031 C 
ATOM     64  C   UNL A   1      43.430  28.549  33.062  1.00  0.00     0.034 A 
BRANCH  51  65
ATOM     65  C   UNL A   1      39.234  32.389  35.555  1.00  0.00     0.023 A 
ATOM     66  C   UNL A   1      39.605  33.740  35.668  1.00  0.00     0.031 A 
ATOM     67  C   UNL A   1      38.503  31.815  36.609  1.00  0.00     0.131 A 
ATOM     68  C   UNL A   1      39.312  34.447  36.845  1.00  0.00     0.055 A 
ATOM     69  C   UNL A   1      38.143  32.548  37.741  1.00  0.00     0.041 A 
ATOM     70  F   UNL A   1      38.148  30.521  36.570  1.00  0.00    -0.206 F 
ATOM     71  C   UNL A   1      38.561  33.868  37.871  1.00  0.00     0.022 A 
BRANCH  68  72
ATOM     72  S   UNL A   1      40.063  36.082  37.087  1.00  0.00     0.124 S 
ATOM     73  O   UNL A   1      41.450  35.729  37.377  1.00  0.00    -0.237 OA
ATOM     74  O   UNL A   1      39.825  36.733  35.804  1.00  0.00    -0.237 OA
ATOM     75  O   UNL A   1      39.319  36.638  38.216  1.00  0.00    -0.744 OA
ENDBRANCH  68  72
ENDBRANCH  51  65
BRANCH  52  76
ATOM     76  C   UNL A   1      41.621  26.906  27.501  1.00  0.00     0.023 A 
ATOM     77  C   UNL A   1      41.420  25.514  27.445  1.00  0.00     0.031 A 
ATOM     78  C   UNL A   1      42.305  27.506  26.425  1.00  0.00     0.131 A 
ATOM     79  C   UNL A   1      41.936  24.770  26.368  1.00  0.00     0.055 A 
ATOM     80  C   UNL A   1      42.761  26.771  25.329  1.00  0.00     0.041 A 
ATOM     81  F   UNL A   1      42.552  28.825  26.428  1.00  0.00    -0.206 F 
ATOM     82  C   UNL A   1      42.590  25.391  25.302  1.00  0.00     0.022 A 
BRANCH  79  83
ATOM     83  S   UNL A   1      41.835  22.957  26.424  1.00  0.00     0.124 S 
ATOM     84  O   UNL A   1      42.540  22.583  25.205  1.00  0.00    -0.237 OA
ATOM     85  O   UNL A   1      42.515  22.656  27.679  1.00  0.00    -0.237 OA
ATOM     86  O   UNL A   1      40.397  22.695  26.420  1.00  0.00    -0.744 OA
ENDBRANCH  79  83
ENDBRANCH  52  76
BRANCH  64  87
ATOM     87  C   UNL A   1      44.713  28.024  33.665  1.00  0.00     0.023 A 
ATOM     88  C   UNL A   1      44.741  26.861  34.455  1.00  0.00     0.031 A 
ATOM     89  C   UNL A   1      45.929  28.694  33.438  1.00  0.00     0.131 A 
ATOM     90  C   UNL A   1      45.947  26.435  35.032  1.00  0.00     0.055 A 
ATOM     91  C   UNL A   1      47.136  28.227  33.958  1.00  0.00     0.041 A 
ATOM     92  F   UNL A   1      45.964  29.812  32.694  1.00  0.00    -0.206 F 
ATOM     93  C   UNL A   1      47.148  27.098  34.771  1.00  0.00     0.022 A 
BRANCH  90  94
ATOM     94  S   UNL A   1      45.912  25.055  36.209  1.00  0.00     0.124 S 
ATOM     95  O   UNL A   1      44.577  24.508  35.995  1.00  0.00    -0.237 OA
ATOM     96  O   UNL A   1      47.022  24.225  35.751  1.00  0.00    -0.237 OA
ATOM     97  O   UNL A   1      46.117  25.703  37.503  1.00  0.00    -0.744 OA
ENDBRANCH  90  94
ENDBRANCH  64  87
ENDBRANCH  38  39
ENDBRANCH  31  33
ENDBRANCH  30  31
ENDBRANCH  29  30
ENDBRANCH  28  29
ENDBRANCH  27  28
ENDBRANCH   1  27
TORSDOF 22
ENDMDL
MODEL 2
REMARK VINA RESULT:     -10.9      1.727      2.242
REMARK SMILES C[C@H](Sc1ccccn1)C(=O)N[C@H](C(=O)OCCOCCOC(=O)c1ccc(-c2c3nc(c(-c4cc(S(=O)(=O)[O-])ccc4F)c4ccc([nH]4)c(-c4cc(S(=O)(=O)[O-])ccc4F)c4nc(c(-c5cc(S(=O)(=O)[O-])ccc5F)c5ccc2[nH]5)C=C4)C=C3)cc1)c1ccc(F)cc1
REMARK SMILES IDX 18 1 17 2 16 3 14 4 15 5 13 6 12 7 10 8 11 9 2 11 1 12 3 13
REMARK SMILES IDX 4 14 5 15 9 16 6 17 8 18 7 19 88 20 89 21 94 22 90 23 93 24
REMARK SMILES IDX 91 25 92 26 19 27 20 28 21 29 22 30 23 31 24 32 25 33 26 34
REMARK SMILES IDX 87 35 27 36 86 37 28 38 29 39 30 40 80 41 31 42 85 43 79 44
REMARK SMILES IDX 81 45 32 46 84 47 78 48 77 49 33 51 65 52 45 53 64 54 46 55
REMARK SMILES IDX 49 56 63 57 82 58 47 59 48 60 62 62 83 63 50 64 34 65 35 66
REMARK SMILES IDX 43 67 36 68 42 69 44 70 41 71 37 72 38 73 39 74 40 75 66 76
REMARK SMILES IDX 67 77 75 78 68 79 74 80 76 81 73 82 69 83 70 84 71 85 72 86
REMARK SMILES IDX 51 87 52 88 60 89 53 90 59 91 61 92 58 93 54 94 55 95 56 96
REMARK SMILES IDX 57 97
REMARK H PARENT 12 10 81 50 49 61
REMARK Flexibility Score: inf
ROOT
ATOM      1  C   UNL A   1      32.795  28.908  27.069  1.00  0.00     0.202 C 
ENDROOT
BRANCH   1   2
ATOM      2  C   UNL A   1      32.983  28.478  25.615  1.00  0.00     0.261 C 
BRANCH   2   3
ATOM      3  O   UNL A   1      34.011  27.484  25.513  1.00  0.00    -0.461 OA
BRANCH   3   4
ATOM      4  C   UNL A   1      33.853  26.617  24.494  1.00  0.00     0.333 C 
ATOM      5  O   UNL A   1      33.773  26.943  23.311  1.00  0.00    -0.249 OA
BRANCH   4   6
ATOM      6  C   UNL A   1      33.636  25.172  24.975  1.00  0.00     0.223 C 
BRANCH   6   7
ATOM      7  N   UNL A   1      32.364  24.419  24.932  1.00  0.00    -0.338 N 
ATOM      8  C   UNL A   1      31.845  23.184  24.759  1.00  0.00     0.234 C 
ATOM      9  O   UNL A   1      30.629  23.139  25.016  1.00  0.00    -0.274 OA
ATOM     10  H   UNL A   1      31.624  25.049  25.090  1.00  0.00     0.164 HD
BRANCH   8  11
ATOM     11  C   UNL A   1      32.527  21.914  24.201  1.00  0.00     0.139 C 
ATOM     12  C   UNL A   1      32.148  21.611  22.771  1.00  0.00     0.030 C 
BRANCH  11  13
ATOM     13  S   UNL A   1      32.518  20.663  25.550  1.00  0.00    -0.093 SA
BRANCH  13  14
ATOM     14  C   UNL A   1      33.218  19.100  25.093  1.00  0.00     0.097 A 
ATOM     15  C   UNL A   1      34.421  18.809  24.489  1.00  0.00     0.035 A 
ATOM     16  N   UNL A   1      32.426  18.080  25.512  1.00  0.00    -0.250 NA
ATOM     17  C   UNL A   1      34.771  17.457  24.288  1.00  0.00     0.004 A 
ATOM     18  C   UNL A   1      32.769  16.790  25.322  1.00  0.00     0.112 A 
ATOM     19  C   UNL A   1      33.934  16.427  24.706  1.00  0.00     0.020 A 
ENDBRANCH  13  14
ENDBRANCH  11  13
ENDBRANCH   8  11
ENDBRANCH   6   7
BRANCH   6  20
ATOM     20  C   UNL A   1      34.906  24.322  24.786  1.00  0.00    -0.014 A 
ATOM     21  C   UNL A   1      35.345  23.981  23.493  1.00  0.00     0.009 A 
ATOM     22  C   UNL A   1      35.510  23.670  25.884  1.00  0.00     0.009 A 
ATOM     23  C   UNL A   1      36.286  22.961  23.306  1.00  0.00     0.039 A 
ATOM     24  C   UNL A   1      36.425  22.634  25.692  1.00  0.00     0.039 A 
ATOM     25  C   UNL A   1      36.793  22.278  24.405  1.00  0.00     0.123 A 
ATOM     26  F   UNL A   1      37.627  21.246  24.219  1.00  0.00    -0.207 F 
ENDBRANCH   6  20
ENDBRANCH   4   6
ENDBRANCH   3   4
ENDBRANCH   2   3
ENDBRANCH   1   2
BRANCH   1  27
ATOM     27  O   UNL A   1      31.889  29.992  27.262  1.00  0.00    -0.374 OA
BRANCH  27  28
ATOM     28  C   UNL A   1      32.229  31.166  26.496  1.00  0.00     0.202 C 
BRANCH  28  29
ATOM     29  C   UNL A   1      31.625  32.487  27.019  1.00  0.00     0.261 C 
BRANCH  29  30
ATOM     30  O   UNL A   1      32.539  33.605  26.870  1.00  0.00    -0.460 OA
BRANCH  30  31
ATOM     31  C   UNL A   1      33.047  34.098  28.039  1.00  0.00     0.338 C 
ATOM     32  O   UNL A   1      32.550  34.988  28.706  1.00  0.00    -0.246 OA
BRANCH  31  33
ATOM     33  C   UNL A   1      34.270  33.368  28.475  1.00  0.00     0.060 A 
ATOM     34  C   UNL A   1      34.117  32.316  29.381  1.00  0.00     0.016 A 
ATOM     35  C   UNL A   1      35.558  33.722  28.060  1.00  0.00     0.016 A 
ATOM     36  C   UNL A   1      35.204  31.530  29.770  1.00  0.00     0.010 A 
ATOM     37  C   UNL A   1      36.671  32.992  28.530  1.00  0.00     0.010 A 
ATOM     38  C   UNL A   1      36.500  31.877  29.372  1.00  0.00    -0.014 A 
BRANCH  38  39
ATOM     39  C   UNL A   1      37.648  31.179  30.019  1.00  0.00     0.031 A 
ATOM     40  C   UNL A   1      37.982  31.537  31.444  1.00  0.00     0.074 A 
ATOM     41  C   UNL A   1      38.312  30.174  29.413  1.00  0.00     0.049 A 
ATOM     42  N   UNL A   1      38.941  31.095  32.215  1.00  0.00    -0.248 NA
ATOM     43  C   UNL A   1      37.088  32.509  32.092  1.00  0.00     0.031 C 
ATOM     44  C   UNL A   1      37.992  29.625  28.097  1.00  0.00     0.029 A 
ATOM     45  N   UNL A   1      39.385  29.422  29.835  1.00  0.00    -0.354 N 
ATOM     46  C   UNL A   1      38.765  31.730  33.440  1.00  0.00     0.074 A 
ATOM     47  C   UNL A   1      37.606  32.587  33.306  1.00  0.00     0.031 C 
ATOM     48  C   UNL A   1      38.859  28.635  27.813  1.00  0.00     0.029 A 
ATOM     49  C   UNL A   1      39.833  28.514  28.899  1.00  0.00     0.049 A 
ATOM     50  H   UNL A   1      39.796  29.523  30.723  1.00  0.00     0.167 HD
ATOM     51  C   UNL A   1      39.508  31.624  34.569  1.00  0.00     0.034 A 
ATOM     52  C   UNL A   1      40.924  27.714  28.904  1.00  0.00     0.034 A 
ATOM     53  C   UNL A   1      40.694  30.813  34.671  1.00  0.00     0.049 A 
ATOM     54  C   UNL A   1      41.846  27.752  30.107  1.00  0.00     0.074 A 
ATOM     55  C   UNL A   1      41.568  30.689  35.738  1.00  0.00     0.029 A 
ATOM     56  N   UNL A   1      41.191  30.003  33.656  1.00  0.00    -0.354 N 
ATOM     57  N   UNL A   1      41.706  28.404  31.240  1.00  0.00    -0.248 NA
ATOM     58  C   UNL A   1      43.079  26.954  30.027  1.00  0.00     0.031 C 
ATOM     59  C   UNL A   1      42.632  29.874  35.338  1.00  0.00     0.029 A 
ATOM     60  C   UNL A   1      42.379  29.412  34.057  1.00  0.00     0.049 A 
ATOM     61  H   UNL A   1      40.762  29.870  32.780  1.00  0.00     0.167 HD
ATOM     62  C   UNL A   1      42.821  28.075  32.011  1.00  0.00     0.074 A 
ATOM     63  C   UNL A   1      43.609  27.150  31.226  1.00  0.00     0.031 C 
ATOM     64  C   UNL A   1      43.162  28.498  33.257  1.00  0.00     0.034 A 
BRANCH  51  65
ATOM     65  C   UNL A   1      39.109  32.499  35.733  1.00  0.00     0.023 A 
ATOM     66  C   UNL A   1      39.610  33.803  35.891  1.00  0.00     0.031 A 
ATOM     67  C   UNL A   1      38.271  31.987  36.739  1.00  0.00     0.131 A 
ATOM     68  C   UNL A   1      39.333  34.518  37.067  1.00  0.00     0.055 A 
ATOM     69  C   UNL A   1      37.932  32.736  37.867  1.00  0.00     0.041 A 
ATOM     70  F   UNL A   1      37.788  30.738  36.657  1.00  0.00    -0.206 F 
ATOM     71  C   UNL A   1      38.477  34.004  38.044  1.00  0.00     0.022 A 
BRANCH  68  72
ATOM     72  S   UNL A   1      40.235  36.063  37.377  1.00  0.00     0.124 S 
ATOM     73  O   UNL A   1      41.376  35.587  38.154  1.00  0.00    -0.237 OA
ATOM     74  O   UNL A   1      40.531  36.533  36.029  1.00  0.00    -0.237 OA
ATOM     75  O   UNL A   1      39.276  36.875  38.124  1.00  0.00    -0.744 OA
ENDBRANCH  68  72
ENDBRANCH  51  65
BRANCH  52  76
ATOM     76  C   UNL A   1      41.285  26.885  27.709  1.00  0.00     0.023 A 
ATOM     77  C   UNL A   1      41.034  25.501  27.662  1.00  0.00     0.031 A 
ATOM     78  C   UNL A   1      41.990  27.453  26.630  1.00  0.00     0.131 A 
ATOM     79  C   UNL A   1      41.520  24.733  26.589  1.00  0.00     0.055 A 
ATOM     80  C   UNL A   1      42.417  26.696  25.537  1.00  0.00     0.041 A 
ATOM     81  F   UNL A   1      42.284  28.762  26.625  1.00  0.00    -0.206 F 
ATOM     82  C   UNL A   1      42.196  25.323  25.519  1.00  0.00     0.022 A 
BRANCH  79  83
ATOM     83  S   UNL A   1      41.353  22.925  26.656  1.00  0.00     0.124 S 
ATOM     84  O   UNL A   1      42.203  22.507  25.548  1.00  0.00    -0.237 OA
ATOM     85  O   UNL A   1      41.848  22.625  27.995  1.00  0.00    -0.237 OA
ATOM     86  O   UNL A   1      39.921  22.707  26.461  1.00  0.00    -0.744 OA
ENDBRANCH  79  83
ENDBRANCH  52  76
BRANCH  64  87
ATOM     87  C   UNL A   1      44.426  27.932  33.861  1.00  0.00     0.023 A 
ATOM     88  C   UNL A   1      44.425  26.739  34.605  1.00  0.00     0.031 A 
ATOM     89  C   UNL A   1      45.655  28.594  33.681  1.00  0.00     0.131 A 
ATOM     90  C   UNL A   1      45.615  26.274  35.185  1.00  0.00     0.055 A 
ATOM     91  C   UNL A   1      46.847  28.090  34.204  1.00  0.00     0.041 A 
ATOM     92  F   UNL A   1      45.718  29.740  32.983  1.00  0.00    -0.206 F 
ATOM     93  C   UNL A   1      46.829  26.930  34.971  1.00  0.00     0.022 A 
BRANCH  90  94
ATOM     94  S   UNL A   1      45.541  24.850  36.306  1.00  0.00     0.124 S 
ATOM     95  O   UNL A   1      44.140  24.456  36.204  1.00  0.00    -0.237 OA
ATOM     96  O   UNL A   1      46.506  23.931  35.711  1.00  0.00    -0.237 OA
ATOM     97  O   UNL A   1      45.935  25.409  37.598  1.00  0.00    -0.744 OA
ENDBRANCH  90  94
ENDBRANCH  64  87
ENDBRANCH  38  39
ENDBRANCH  31  33
ENDBRANCH  30  31
ENDBRANCH  29  30
ENDBRANCH  28  29
ENDBRANCH  27  28
ENDBRANCH   1  27
TORSDOF 22
ENDMDL
MODEL 3
REMARK VINA RESULT:     -10.8      1.825      3.787
REMARK SMILES C[C@H](Sc1ccccn1)C(=O)N[C@H](C(=O)OCCOCCOC(=O)c1ccc(-c2c3nc(c(-c4cc(S(=O)(=O)[O-])ccc4F)c4ccc([nH]4)c(-c4cc(S(=O)(=O)[O-])ccc4F)c4nc(c(-c5cc(S(=O)(=O)[O-])ccc5F)c5ccc2[nH]5)C=C4)C=C3)cc1)c1ccc(F)cc1
REMARK SMILES IDX 18 1 17 2 16 3 14 4 15 5 13 6 12 7 10 8 11 9 2 11 1 12 3 13
REMARK SMILES IDX 4 14 5 15 9 16 6 17 8 18 7 19 88 20 89 21 94 22 90 23 93 24
REMARK SMILES IDX 91 25 92 26 19 27 20 28 21 29 22 30 23 31 24 32 25 33 26 34
REMARK SMILES IDX 87 35 27 36 86 37 28 38 29 39 30 40 80 41 31 42 85 43 79 44
REMARK SMILES IDX 81 45 32 46 84 47 78 48 77 49 33 51 65 52 45 53 64 54 46 55
REMARK SMILES IDX 49 56 63 57 82 58 47 59 48 60 62 62 83 63 50 64 34 65 35 66
REMARK SMILES IDX 43 67 36 68 42 69 44 70 41 71 37 72 38 73 39 74 40 75 66 76
REMARK SMILES IDX 67 77 75 78 68 79 74 80 76 81 73 82 69 83 70 84 71 85 72 86
REMARK SMILES IDX 51 87 52 88 60 89 53 90 59 91 61 92 58 93 54 94 55 95 56 96
REMARK SMILES IDX 57 97
REMARK H PARENT 12 10 81 50 49 61
REMARK Flexibility Score: inf
ROOT
ATOM      1  C   UNL A   1      33.104  28.989  27.073  1.00  0.00     0.202 C 
ENDROOT
BRANCH   1   2
ATOM      2  C   UNL A   1      33.598  28.300  25.802  1.00  0.00     0.261 C 
BRANCH   2   3
ATOM      3  O   UNL A   1      34.251  27.065  26.120  1.00  0.00    -0.461 OA
BRANCH   3   4
ATOM      4  C   UNL A   1      33.836  26.008  25.396  1.00  0.00     0.333 C 
ATOM      5  O   UNL A   1      34.041  25.867  24.192  1.00  0.00    -0.249 OA
BRANCH   4   6
ATOM      6  C   UNL A   1      32.944  25.050  26.205  1.00  0.00     0.223 C 
BRANCH   6   7
ATOM      7  N   UNL A   1      31.492  25.199  26.442  1.00  0.00    -0.338 N 
ATOM      8  C   UNL A   1      30.305  25.347  25.814  1.00  0.00     0.234 C 
ATOM      9  O   UNL A   1      29.339  25.243  26.591  1.00  0.00    -0.274 OA
ATOM     10  H   UNL A   1      31.331  25.181  27.413  1.00  0.00     0.164 HD
BRANCH   8  11
ATOM     11  C   UNL A   1      30.026  25.723  24.341  1.00  0.00     0.139 C 
ATOM     12  C   UNL A   1      30.327  24.605  23.372  1.00  0.00     0.030 C 
BRANCH  11  13
ATOM     13  S   UNL A   1      30.595  27.458  24.111  1.00  0.00    -0.093 SA
BRANCH  13  14
ATOM     14  C   UNL A   1      29.481  28.468  23.174  1.00  0.00     0.097 A 
ATOM     15  C   UNL A   1      28.105  28.518  23.187  1.00  0.00     0.035 A 
ATOM     16  N   UNL A   1      30.166  29.359  22.413  1.00  0.00    -0.250 NA
ATOM     17  C   UNL A   1      27.450  29.469  22.376  1.00  0.00     0.004 A 
ATOM     18  C   UNL A   1      29.535  30.270  21.645  1.00  0.00     0.112 A 
ATOM     19  C   UNL A   1      28.173  30.360  21.586  1.00  0.00     0.020 A 
ENDBRANCH  13  14
ENDBRANCH  11  13
ENDBRANCH   8  11
ENDBRANCH   6   7
BRANCH   6  20
ATOM     20  C   UNL A   1      33.445  23.598  26.103  1.00  0.00    -0.014 A 
ATOM     21  C   UNL A   1      34.700  23.241  26.635  1.00  0.00     0.009 A 
ATOM     22  C   UNL A   1      32.787  22.661  25.276  1.00  0.00     0.009 A 
ATOM     23  C   UNL A   1      35.308  22.033  26.275  1.00  0.00     0.039 A 
ATOM     24  C   UNL A   1      33.411  21.472  24.896  1.00  0.00     0.039 A 
ATOM     25  C   UNL A   1      34.672  21.176  25.387  1.00  0.00     0.123 A 
ATOM     26  F   UNL A   1      35.294  20.061  24.977  1.00  0.00    -0.207 F 
ENDBRANCH   6  20
ENDBRANCH   4   6
ENDBRANCH   3   4
ENDBRANCH   2   3
ENDBRANCH   1   2
BRANCH   1  27
ATOM     27  O   UNL A   1      32.095  29.976  26.867  1.00  0.00    -0.374 OA
BRANCH  27  28
ATOM     28  C   UNL A   1      32.624  31.282  26.558  1.00  0.00     0.202 C 
BRANCH  28  29
ATOM     29  C   UNL A   1      31.842  32.466  27.167  1.00  0.00     0.261 C 
BRANCH  29  30
ATOM     30  O   UNL A   1      32.556  33.723  27.029  1.00  0.00    -0.460 OA
BRANCH  30  31
ATOM     31  C   UNL A   1      33.097  34.212  28.184  1.00  0.00     0.338 C 
ATOM     32  O   UNL A   1      32.641  35.126  28.849  1.00  0.00    -0.246 OA
BRANCH  31  33
ATOM     33  C   UNL A   1      34.303  33.446  28.610  1.00  0.00     0.060 A 
ATOM     34  C   UNL A   1      34.146  32.481  29.609  1.00  0.00     0.016 A 
ATOM     35  C   UNL A   1      35.581  33.686  28.095  1.00  0.00     0.016 A 
ATOM     36  C   UNL A   1      35.210  31.664  30.000  1.00  0.00     0.010 A 
ATOM     37  C   UNL A   1      36.677  32.929  28.561  1.00  0.00     0.010 A 
ATOM     38  C   UNL A   1      36.496  31.898  29.502  1.00  0.00    -0.014 A 
BRANCH  38  39
ATOM     39  C   UNL A   1      37.640  31.186  30.139  1.00  0.00     0.031 A 
ATOM     40  C   UNL A   1      37.970  31.515  31.572  1.00  0.00     0.074 A 
ATOM     41  C   UNL A   1      38.304  30.191  29.516  1.00  0.00     0.049 A 
ATOM     42  N   UNL A   1      38.926  31.057  32.338  1.00  0.00    -0.248 NA
ATOM     43  C   UNL A   1      37.075  32.476  32.235  1.00  0.00     0.031 C 
ATOM     44  C   UNL A   1      37.988  29.669  28.188  1.00  0.00     0.029 A 
ATOM     45  N   UNL A   1      39.375  29.429  29.927  1.00  0.00    -0.354 N 
ATOM     46  C   UNL A   1      38.746  31.668  33.574  1.00  0.00     0.074 A 
ATOM     47  C   UNL A   1      37.589  32.530  33.453  1.00  0.00     0.031 C 
ATOM     48  C   UNL A   1      38.855  28.683  27.888  1.00  0.00     0.029 A 
ATOM     49  C   UNL A   1      39.825  28.539  28.976  1.00  0.00     0.049 A 
ATOM     50  H   UNL A   1      39.783  29.513  30.819  1.00  0.00     0.167 HD
ATOM     51  C   UNL A   1      39.485  31.539  34.703  1.00  0.00     0.034 A 
ATOM     52  C   UNL A   1      40.915  27.738  28.969  1.00  0.00     0.034 A 
ATOM     53  C   UNL A   1      40.669  30.724  34.794  1.00  0.00     0.049 A 
ATOM     54  C   UNL A   1      41.833  27.750  30.175  1.00  0.00     0.074 A 
ATOM     55  C   UNL A   1      41.538  30.577  35.861  1.00  0.00     0.029 A 
ATOM     56  N   UNL A   1      41.168  29.933  33.766  1.00  0.00    -0.354 N 
ATOM     57  N   UNL A   1      41.690  28.380  31.320  1.00  0.00    -0.248 NA
ATOM     58  C   UNL A   1      43.064  26.952  30.085  1.00  0.00     0.031 C 
ATOM     59  C   UNL A   1      42.603  29.769  35.450  1.00  0.00     0.029 A 
ATOM     60  C   UNL A   1      42.354  29.333  34.158  1.00  0.00     0.049 A 
ATOM     61  H   UNL A   1      40.742  29.817  32.885  1.00  0.00     0.167 HD
ATOM     62  C   UNL A   1      42.801  28.035  32.089  1.00  0.00     0.074 A 
ATOM     63  C   UNL A   1      43.591  27.124  31.288  1.00  0.00     0.031 C 
ATOM     64  C   UNL A   1      43.138  28.433  33.343  1.00  0.00     0.034 A 
BRANCH  51  65
ATOM     65  C   UNL A   1      39.083  32.392  35.883  1.00  0.00     0.023 A 
ATOM     66  C   UNL A   1      39.542  33.711  36.039  1.00  0.00     0.031 A 
ATOM     67  C   UNL A   1      38.287  31.844  36.904  1.00  0.00     0.131 A 
ATOM     68  C   UNL A   1      39.268  34.409  37.226  1.00  0.00     0.055 A 
ATOM     69  C   UNL A   1      37.949  32.574  38.045  1.00  0.00     0.041 A 
ATOM     70  F   UNL A   1      37.845  30.580  36.824  1.00  0.00    -0.206 F 
ATOM     71  C   UNL A   1      38.453  33.858  38.220  1.00  0.00     0.022 A 
BRANCH  68  72
ATOM     72  S   UNL A   1      40.124  35.981  37.528  1.00  0.00     0.124 S 
ATOM     73  O   UNL A   1      39.498  36.424  38.771  1.00  0.00    -0.237 OA
ATOM     74  O   UNL A   1      41.519  35.569  37.626  1.00  0.00    -0.237 OA
ATOM     75  O   UNL A   1      39.791  36.783  36.352  1.00  0.00    -0.744 OA
ENDBRANCH  68  72
ENDBRANCH  51  65
BRANCH  52  76
ATOM     76  C   UNL A   1      41.279  26.931  27.759  1.00  0.00     0.023 A 
ATOM     77  C   UNL A   1      41.021  25.550  27.683  1.00  0.00     0.031 A 
ATOM     78  C   UNL A   1      41.992  27.518  26.695  1.00  0.00     0.131 A 
ATOM     79  C   UNL A   1      41.510  24.801  26.597  1.00  0.00     0.055 A 
ATOM     80  C   UNL A   1      42.422  26.781  25.590  1.00  0.00     0.041 A 
ATOM     81  F   UNL A   1      42.292  28.826  26.719  1.00  0.00    -0.206 F 
ATOM     82  C   UNL A   1      42.195  25.410  25.543  1.00  0.00     0.022 A 
BRANCH  79  83
ATOM     83  S   UNL A   1      41.335  22.993  26.626  1.00  0.00     0.124 S 
ATOM     84  O   UNL A   1      39.906  22.830  26.388  1.00  0.00    -0.237 OA
ATOM     85  O   UNL A   1      42.218  22.587  25.538  1.00  0.00    -0.237 OA
ATOM     86  O   UNL A   1      41.791  22.627  27.965  1.00  0.00    -0.744 OA
ENDBRANCH  79  83
ENDBRANCH  52  76
BRANCH  64  87
ATOM     87  C   UNL A   1      44.399  27.853  33.941  1.00  0.00     0.023 A 
ATOM     88  C   UNL A   1      44.389  26.656  34.680  1.00  0.00     0.031 A 
ATOM     89  C   UNL A   1      45.633  28.504  33.760  1.00  0.00     0.131 A 
ATOM     90  C   UNL A   1      45.578  26.179  35.255  1.00  0.00     0.055 A 
ATOM     91  C   UNL A   1      46.822  27.988  34.276  1.00  0.00     0.041 A 
ATOM     92  F   UNL A   1      45.705  29.652  33.066  1.00  0.00    -0.206 F 
ATOM     93  C   UNL A   1      46.797  26.824  35.039  1.00  0.00     0.022 A 
BRANCH  90  94
ATOM     94  S   UNL A   1      45.494  24.750  36.370  1.00  0.00     0.124 S 
ATOM     95  O   UNL A   1      46.905  24.482  36.626  1.00  0.00    -0.237 OA
ATOM     96  O   UNL A   1      44.731  25.277  37.497  1.00  0.00    -0.237 OA
ATOM     97  O   UNL A   1      44.804  23.736  35.576  1.00  0.00    -0.744 OA
ENDBRANCH  90  94
ENDBRANCH  64  87
ENDBRANCH  38  39
ENDBRANCH  31  33
ENDBRANCH  30  31
ENDBRANCH  29  30
ENDBRANCH  28  29
ENDBRANCH  27  28
ENDBRANCH   1  27
TORSDOF 22
ENDMDL
