MODEL 1
REMARK VINA RESULT:      -9.6      0.000      0.000
REMARK SMILES C/C=C/c1cncc(-c2ccc([C@@H](C)C(=O)OCCOCCOC(=O)c3ccc(-c4c5nc(c(-c6cc(S(=O)(=O)[O-])ccc6F)c6ccc([nH]6)c(-c6cc(S(=O)(=O)[O-])ccc6F)c6nc(c(-c7cc(S(=O)(=O)[O-])ccc7F)c7ccc4[nH]7)C=C6)C=C5)cc3)cc2)c1
REMARK SMILES IDX 20 1 19 2 18 3 17 4 15 5 16 6 13 7 14 8 12 9 9 10 10 11
REMARK SMILES IDX 90 12 11 13 89 14 8 15 4 16 5 17 91 18 6 19 7 20 3 21 1 22
REMARK SMILES IDX 2 23 21 24 22 25 23 26 24 27 25 28 26 29 27 30 88 31 28 32
REMARK SMILES IDX 87 33 29 34 30 35 31 36 81 37 32 38 86 39 80 40 82 41 33 42
REMARK SMILES IDX 85 43 79 44 78 45 34 47 66 48 46 49 65 50 47 51 50 52 64 53
REMARK SMILES IDX 83 54 48 55 49 56 63 58 84 59 51 60 35 61 36 62 44 63 37 64
REMARK SMILES IDX 43 65 45 66 42 67 38 68 39 69 40 70 41 71 67 72 68 73 76 74
REMARK SMILES IDX 69 75 75 76 77 77 74 78 70 79 71 80 72 81 73 82 52 83 53 84
REMARK SMILES IDX 61 85 54 86 60 87 62 88 59 89 55 90 56 91 57 92 58 93
REMARK H PARENT 82 46 50 57
REMARK Flexibility Score: inf
ROOT
ATOM      1  O   UNL A   1      32.492  35.383  29.884  1.00  0.00    -0.374 OA
ENDROOT
BRANCH   1   2
ATOM      2  C   UNL A   1      32.745  36.316  30.936  1.00  0.00     0.202 C 
BRANCH   2   3
ATOM      3  C   UNL A   1      32.772  35.738  32.352  1.00  0.00     0.261 C 
BRANCH   3   4
ATOM      4  O   UNL A   1      33.559  34.533  32.408  1.00  0.00    -0.463 OA
BRANCH   4   5
ATOM      5  C   UNL A   1      34.905  34.698  32.426  1.00  0.00     0.313 C 
ATOM      6  O   UNL A   1      35.490  35.592  33.033  1.00  0.00    -0.252 OA
BRANCH   5   7
ATOM      7  C   UNL A   1      35.660  33.685  31.580  1.00  0.00     0.126 C 
ATOM      8  C   UNL A   1      35.429  32.287  32.151  1.00  0.00     0.025 C 
BRANCH   7   9
ATOM      9  C   UNL A   1      37.136  33.945  31.290  1.00  0.00    -0.034 A 
ATOM     10  C   UNL A   1      39.926  34.098  30.708  1.00  0.00    -0.017 A 
ATOM     11  C   UNL A   1      39.439  34.280  32.013  1.00  0.00     0.009 A 
ATOM     12  C   UNL A   1      38.983  33.913  29.687  1.00  0.00     0.009 A 
ATOM     13  C   UNL A   1      38.069  34.202  32.301  1.00  0.00     0.005 A 
ATOM     14  C   UNL A   1      37.613  33.835  29.972  1.00  0.00     0.005 A 
BRANCH  10  15
ATOM     15  C   UNL A   1      41.371  33.995  30.437  1.00  0.00     0.001 A 
ATOM     16  C   UNL A   1      43.390  32.752  29.864  1.00  0.00    -0.007 A 
ATOM     17  C   UNL A   1      44.108  33.922  30.106  1.00  0.00     0.119 A 
ATOM     18  C   UNL A   1      42.000  32.801  30.043  1.00  0.00     0.020 A 
ATOM     19  N   UNL A   1      43.554  35.093  30.487  1.00  0.00    -0.263 NA
ATOM     20  C   UNL A   1      42.209  35.097  30.636  1.00  0.00     0.119 A 
BRANCH  16  21
ATOM     21  C   UNL A   1      44.125  31.532  29.509  1.00  0.00     0.005 C 
ATOM     22  C   UNL A   1      44.597  29.081  29.590  1.00  0.00     0.035 C 
ATOM     23  C   UNL A   1      43.870  30.316  30.018  1.00  0.00    -0.030 C 
ENDBRANCH  16  21
ENDBRANCH  10  15
ENDBRANCH   7   9
ENDBRANCH   5   7
ENDBRANCH   4   5
ENDBRANCH   3   4
ENDBRANCH   2   3
ENDBRANCH   1   2
BRANCH   1  24
ATOM     24  C   UNL A   1      33.561  35.114  28.977  1.00  0.00     0.202 C 
BRANCH  24  25
ATOM     25  C   UNL A   1      33.431  33.861  28.103  1.00  0.00     0.261 C 
BRANCH  25  26
ATOM     26  O   UNL A   1      34.599  33.025  28.159  1.00  0.00    -0.460 OA
BRANCH  26  27
ATOM     27  C   UNL A   1      34.367  31.712  27.926  1.00  0.00     0.338 C 
ATOM     28  O   UNL A   1      33.352  31.223  27.444  1.00  0.00    -0.246 OA
BRANCH  27  29
ATOM     29  C   UNL A   1      35.590  30.923  28.160  1.00  0.00     0.060 A 
ATOM     30  C   UNL A   1      35.501  29.851  29.058  1.00  0.00     0.016 A 
ATOM     31  C   UNL A   1      36.816  31.262  27.582  1.00  0.00     0.016 A 
ATOM     32  C   UNL A   1      36.647  29.150  29.426  1.00  0.00     0.010 A 
ATOM     33  C   UNL A   1      37.968  30.560  27.960  1.00  0.00     0.010 A 
ATOM     34  C   UNL A   1      37.894  29.527  28.913  1.00  0.00    -0.014 A 
BRANCH  34  35
ATOM     35  C   UNL A   1      39.125  28.943  29.504  1.00  0.00     0.031 A 
ATOM     36  C   UNL A   1      39.636  29.491  30.811  1.00  0.00     0.074 A 
ATOM     37  C   UNL A   1      39.750  27.906  28.917  1.00  0.00     0.049 A 
ATOM     38  N   UNL A   1      40.687  29.143  31.506  1.00  0.00    -0.248 NA
ATOM     39  C   UNL A   1      38.849  30.579  31.411  1.00  0.00     0.031 C 
ATOM     40  C   UNL A   1      39.323  27.257  27.678  1.00  0.00     0.029 A 
ATOM     41  N   UNL A   1      40.877  27.215  29.286  1.00  0.00    -0.354 N 
ATOM     42  C   UNL A   1      40.691  29.968  32.626  1.00  0.00     0.074 A 
ATOM     43  C   UNL A   1      39.559  30.860  32.493  1.00  0.00     0.031 C 
ATOM     44  C   UNL A   1      40.183  26.266  27.387  1.00  0.00     0.029 A 
ATOM     45  C   UNL A   1      41.239  26.232  28.397  1.00  0.00     0.049 A 
ATOM     46  H   UNL A   1      41.379  27.406  30.112  1.00  0.00     0.167 HD
ATOM     47  C   UNL A   1      41.554  29.975  33.673  1.00  0.00     0.034 A 
ATOM     48  C   UNL A   1      42.312  25.414  28.387  1.00  0.00     0.034 A 
ATOM     49  C   UNL A   1      42.687  29.088  33.785  1.00  0.00     0.049 A 
ATOM     50  C   UNL A   1      43.310  25.500  29.517  1.00  0.00     0.074 A 
ATOM     51  C   UNL A   1      43.618  29.003  34.807  1.00  0.00     0.029 A 
ATOM     52  N   UNL A   1      43.054  28.142  32.837  1.00  0.00    -0.354 N 
ATOM     53  N   UNL A   1      43.298  26.279  30.575  1.00  0.00    -0.248 NA
ATOM     54  C   UNL A   1      44.460  24.587  29.457  1.00  0.00     0.031 C 
ATOM     55  C   UNL A   1      44.584  28.057  34.444  1.00  0.00     0.029 A 
ATOM     56  C   UNL A   1      44.214  27.494  33.234  1.00  0.00     0.049 A 
ATOM     57  H   UNL A   1      42.561  27.956  32.005  1.00  0.00     0.167 HD
ATOM     58  C   UNL A   1      44.423  25.928  31.319  1.00  0.00     0.074 A 
ATOM     59  C   UNL A   1      45.081  24.859  30.596  1.00  0.00     0.031 C 
ATOM     60  C   UNL A   1      44.868  26.436  32.497  1.00  0.00     0.034 A 
BRANCH  47  61
ATOM     61  C   UNL A   1      41.330  31.012  34.746  1.00  0.00     0.023 A 
ATOM     62  C   UNL A   1      40.204  30.979  35.589  1.00  0.00     0.031 A 
ATOM     63  C   UNL A   1      42.242  32.071  34.909  1.00  0.00     0.131 A 
ATOM     64  C   UNL A   1      39.984  32.019  36.504  1.00  0.00     0.055 A 
ATOM     65  C   UNL A   1      42.056  33.062  35.876  1.00  0.00     0.041 A 
ATOM     66  F   UNL A   1      43.323  32.169  34.119  1.00  0.00    -0.206 F 
ATOM     67  C   UNL A   1      40.914  33.047  36.670  1.00  0.00     0.022 A 
BRANCH  64  68
ATOM     68  S   UNL A   1      38.394  32.086  37.376  1.00  0.00     0.124 S 
ATOM     69  O   UNL A   1      37.717  33.174  36.674  1.00  0.00    -0.237 OA
ATOM     70  O   UNL A   1      37.856  30.750  37.154  1.00  0.00    -0.237 OA
ATOM     71  O   UNL A   1      38.772  32.385  38.756  1.00  0.00    -0.744 OA
ENDBRANCH  64  68
ENDBRANCH  47  61
BRANCH  48  72
ATOM     72  C   UNL A   1      42.533  24.472  27.252  1.00  0.00     0.023 A 
ATOM     73  C   UNL A   1      42.000  23.173  27.269  1.00  0.00     0.031 A 
ATOM     74  C   UNL A   1      43.335  24.842  26.158  1.00  0.00     0.131 A 
ATOM     75  C   UNL A   1      42.313  22.277  26.234  1.00  0.00     0.055 A 
ATOM     76  C   UNL A   1      43.600  23.964  25.106  1.00  0.00     0.041 A 
ATOM     77  F   UNL A   1      43.871  26.071  26.093  1.00  0.00    -0.206 F 
ATOM     78  C   UNL A   1      43.098  22.667  25.146  1.00  0.00     0.022 A 
BRANCH  75  79
ATOM     79  S   UNL A   1      41.744  20.559  26.370  1.00  0.00     0.124 S 
ATOM     80  O   UNL A   1      42.559  19.895  25.359  1.00  0.00    -0.237 OA
ATOM     81  O   UNL A   1      42.061  20.245  27.759  1.00  0.00    -0.237 OA
ATOM     82  O   UNL A   1      40.318  20.648  26.064  1.00  0.00    -0.744 OA
ENDBRANCH  75  79
ENDBRANCH  48  72
BRANCH  60  83
ATOM     83  C   UNL A   1      46.102  25.805  33.096  1.00  0.00     0.023 A 
ATOM     84  C   UNL A   1      46.024  24.707  33.971  1.00  0.00     0.031 A 
ATOM     85  C   UNL A   1      47.376  26.320  32.793  1.00  0.00     0.131 A 
ATOM     86  C   UNL A   1      47.193  24.195  34.556  1.00  0.00     0.055 A 
ATOM     87  C   UNL A   1      48.539  25.768  33.331  1.00  0.00     0.041 A 
ATOM     88  F   UNL A   1      47.509  27.369  31.965  1.00  0.00    -0.206 F 
ATOM     89  C   UNL A   1      48.451  24.708  34.228  1.00  0.00     0.022 A 
BRANCH  86  90
ATOM     90  S   UNL A   1      47.043  22.905  35.822  1.00  0.00     0.124 S 
ATOM     91  O   UNL A   1      47.537  21.727  35.116  1.00  0.00    -0.237 OA
ATOM     92  O   UNL A   1      47.900  23.413  36.888  1.00  0.00    -0.237 OA
ATOM     93  O   UNL A   1      45.615  22.889  36.130  1.00  0.00    -0.744 OA
ENDBRANCH  86  90
ENDBRANCH  60  83
ENDBRANCH  34  35
ENDBRANCH  27  29
ENDBRANCH  26  27
ENDBRANCH  25  26
ENDBRANCH  24  25
ENDBRANCH   1  24
TORSDOF 20
ENDMDL
MODEL 2
REMARK VINA RESULT:      -9.0      5.010     11.177
REMARK SMILES C/C=C/c1cncc(-c2ccc([C@@H](C)C(=O)OCCOCCOC(=O)c3ccc(-c4c5nc(c(-c6cc(S(=O)(=O)[O-])ccc6F)c6ccc([nH]6)c(-c6cc(S(=O)(=O)[O-])ccc6F)c6nc(c(-c7cc(S(=O)(=O)[O-])ccc7F)c7ccc4[nH]7)C=C6)C=C5)cc3)cc2)c1
REMARK SMILES IDX 20 1 19 2 18 3 17 4 15 5 16 6 13 7 14 8 12 9 9 10 10 11
REMARK SMILES IDX 90 12 11 13 89 14 8 15 4 16 5 17 91 18 6 19 7 20 3 21 1 22
REMARK SMILES IDX 2 23 21 24 22 25 23 26 24 27 25 28 26 29 27 30 88 31 28 32
REMARK SMILES IDX 87 33 29 34 30 35 31 36 81 37 32 38 86 39 80 40 82 41 33 42
REMARK SMILES IDX 85 43 79 44 78 45 34 47 66 48 46 49 65 50 47 51 50 52 64 53
REMARK SMILES IDX 83 54 48 55 49 56 63 58 84 59 51 60 35 61 36 62 44 63 37 64
REMARK SMILES IDX 43 65 45 66 42 67 38 68 39 69 40 70 41 71 67 72 68 73 76 74
REMARK SMILES IDX 69 75 75 76 77 77 74 78 70 79 71 80 72 81 73 82 52 83 53 84
REMARK SMILES IDX 61 85 54 86 60 87 62 88 59 89 55 90 56 91 57 92 58 93
REMARK H PARENT 82 46 50 57
REMARK Flexibility Score: inf
ROOT
ATOM      1  O   UNL A   1      35.017  21.646  24.504  1.00  0.00    -0.374 OA
ENDROOT
BRANCH   1   2
ATOM      2  C   UNL A   1      35.053  22.777  23.632  1.00  0.00     0.202 C 
BRANCH   2   3
ATOM      3  C   UNL A   1      34.143  23.946  24.013  1.00  0.00     0.261 C 
BRANCH   3   4
ATOM      4  O   UNL A   1      32.952  23.485  24.678  1.00  0.00    -0.463 OA
BRANCH   4   5
ATOM      5  C   UNL A   1      32.799  23.872  25.969  1.00  0.00     0.313 C 
ATOM      6  O   UNL A   1      33.406  23.385  26.919  1.00  0.00    -0.252 OA
BRANCH   5   7
ATOM      7  C   UNL A   1      31.760  24.964  26.164  1.00  0.00     0.126 C 
ATOM      8  C   UNL A   1      30.712  24.860  25.058  1.00  0.00     0.025 C 
BRANCH   7   9
ATOM      9  C   UNL A   1      32.248  26.399  26.352  1.00  0.00    -0.034 A 
ATOM     10  C   UNL A   1      33.365  28.959  26.942  1.00  0.00    -0.017 A 
ATOM     11  C   UNL A   1      32.067  28.613  27.354  1.00  0.00     0.009 A 
ATOM     12  C   UNL A   1      34.064  28.025  26.164  1.00  0.00     0.009 A 
ATOM     13  C   UNL A   1      31.518  27.355  27.068  1.00  0.00     0.005 A 
ATOM     14  C   UNL A   1      33.518  26.768  25.875  1.00  0.00     0.005 A 
BRANCH  10  15
ATOM     15  C   UNL A   1      34.008  30.202  27.401  1.00  0.00     0.001 A 
ATOM     16  C   UNL A   1      33.997  32.577  27.958  1.00  0.00    -0.007 A 
ATOM     17  C   UNL A   1      35.377  32.483  28.127  1.00  0.00     0.119 A 
ATOM     18  C   UNL A   1      33.314  31.411  27.581  1.00  0.00     0.020 A 
ATOM     19  N   UNL A   1      36.092  31.349  27.965  1.00  0.00    -0.263 NA
ATOM     20  C   UNL A   1      35.390  30.246  27.614  1.00  0.00     0.119 A 
BRANCH  16  21
ATOM     21  C   UNL A   1      33.352  33.887  28.111  1.00  0.00     0.005 C 
ATOM     22  C   UNL A   1      33.011  36.121  29.174  1.00  0.00     0.035 C 
ATOM     23  C   UNL A   1      33.643  34.768  29.081  1.00  0.00    -0.030 C 
ENDBRANCH  16  21
ENDBRANCH  10  15
ENDBRANCH   7   9
ENDBRANCH   5   7
ENDBRANCH   4   5
ENDBRANCH   3   4
ENDBRANCH   2   3
ENDBRANCH   1   2
BRANCH   1  24
ATOM     24  C   UNL A   1      36.268  21.069  24.880  1.00  0.00     0.202 C 
BRANCH  24  25
ATOM     25  C   UNL A   1      37.113  21.847  25.896  1.00  0.00     0.261 C 
BRANCH  25  26
ATOM     26  O   UNL A   1      38.478  22.004  25.473  1.00  0.00    -0.460 OA
BRANCH  26  27
ATOM     27  C   UNL A   1      39.399  21.743  26.430  1.00  0.00     0.338 C 
ATOM     28  O   UNL A   1      39.885  20.650  26.701  1.00  0.00    -0.246 OA
BRANCH  27  29
ATOM     29  C   UNL A   1      39.907  22.999  27.013  1.00  0.00     0.060 A 
ATOM     30  C   UNL A   1      39.395  24.198  26.502  1.00  0.00     0.016 A 
ATOM     31  C   UNL A   1      40.917  23.015  27.979  1.00  0.00     0.016 A 
ATOM     32  C   UNL A   1      39.928  25.418  26.912  1.00  0.00     0.010 A 
ATOM     33  C   UNL A   1      41.456  24.243  28.384  1.00  0.00     0.010 A 
ATOM     34  C   UNL A   1      40.991  25.447  27.824  1.00  0.00    -0.014 A 
BRANCH  34  35
ATOM     35  C   UNL A   1      41.711  26.725  28.054  1.00  0.00     0.031 A 
ATOM     36  C   UNL A   1      43.108  26.881  27.516  1.00  0.00     0.074 A 
ATOM     37  C   UNL A   1      41.111  27.753  28.684  1.00  0.00     0.049 A 
ATOM     38  N   UNL A   1      43.925  27.898  27.601  1.00  0.00    -0.248 NA
ATOM     39  C   UNL A   1      43.655  25.729  26.783  1.00  0.00     0.031 C 
ATOM     40  C   UNL A   1      39.745  27.740  29.205  1.00  0.00     0.029 A 
ATOM     41  N   UNL A   1      41.577  29.006  28.992  1.00  0.00    -0.354 N 
ATOM     42  C   UNL A   1      45.083  27.512  26.933  1.00  0.00     0.074 A 
ATOM     43  C   UNL A   1      44.874  26.152  26.486  1.00  0.00     0.031 C 
ATOM     44  C   UNL A   1      39.485  28.930  29.774  1.00  0.00     0.029 A 
ATOM     45  C   UNL A   1      40.676  29.774  29.690  1.00  0.00     0.049 A 
ATOM     46  H   UNL A   1      42.472  29.326  28.735  1.00  0.00     0.167 HD
ATOM     47  C   UNL A   1      46.212  28.228  26.706  1.00  0.00     0.034 A 
ATOM     48  C   UNL A   1      40.804  31.008  30.220  1.00  0.00     0.034 A 
ATOM     49  C   UNL A   1      46.412  29.581  27.170  1.00  0.00     0.049 A 
ATOM     50  C   UNL A   1      42.104  31.755  30.033  1.00  0.00     0.074 A 
ATOM     51  C   UNL A   1      47.511  30.402  26.987  1.00  0.00     0.029 A 
ATOM     52  N   UNL A   1      45.497  30.307  27.922  1.00  0.00    -0.354 N 
ATOM     53  N   UNL A   1      43.189  31.381  29.393  1.00  0.00    -0.248 NA
ATOM     54  C   UNL A   1      42.191  33.094  30.631  1.00  0.00     0.031 C 
ATOM     55  C   UNL A   1      47.291  31.595  27.686  1.00  0.00     0.029 A 
ATOM     56  C   UNL A   1      46.021  31.551  28.239  1.00  0.00     0.049 A 
ATOM     57  H   UNL A   1      44.606  29.986  28.190  1.00  0.00     0.167 HD
ATOM     58  C   UNL A   1      44.074  32.453  29.487  1.00  0.00     0.074 A 
ATOM     59  C   UNL A   1      43.392  33.491  30.233  1.00  0.00     0.031 C 
ATOM     60  C   UNL A   1      45.334  32.573  28.995  1.00  0.00     0.034 A 
BRANCH  47  61
ATOM     61  C   UNL A   1      47.334  27.537  25.970  1.00  0.00     0.023 A 
ATOM     62  C   UNL A   1      48.307  26.777  26.643  1.00  0.00     0.031 A 
ATOM     63  C   UNL A   1      47.451  27.668  24.574  1.00  0.00     0.131 A 
ATOM     64  C   UNL A   1      49.389  26.238  25.931  1.00  0.00     0.055 A 
ATOM     65  C   UNL A   1      48.488  27.063  23.861  1.00  0.00     0.041 A 
ATOM     66  F   UNL A   1      46.565  28.401  23.881  1.00  0.00    -0.206 F 
ATOM     67  C   UNL A   1      49.473  26.355  24.542  1.00  0.00     0.022 A 
BRANCH  64  68
ATOM     68  S   UNL A   1      50.761  25.500  26.863  1.00  0.00     0.124 S 
ATOM     69  O   UNL A   1      50.086  24.417  27.574  1.00  0.00    -0.237 OA
ATOM     70  O   UNL A   1      51.679  25.097  25.805  1.00  0.00    -0.237 OA
ATOM     71  O   UNL A   1      51.228  26.596  27.711  1.00  0.00    -0.744 OA
ENDBRANCH  64  68
ENDBRANCH  47  61
BRANCH  48  72
ATOM     72  C   UNL A   1      39.696  31.607  31.019  1.00  0.00     0.023 A 
ATOM     73  C   UNL A   1      39.620  31.430  32.409  1.00  0.00     0.031 A 
ATOM     74  C   UNL A   1      38.660  32.317  30.386  1.00  0.00     0.131 A 
ATOM     75  C   UNL A   1      38.509  31.917  33.116  1.00  0.00     0.055 A 
ATOM     76  C   UNL A   1      37.583  32.846  31.101  1.00  0.00     0.041 A 
ATOM     77  F   UNL A   1      38.682  32.514  29.058  1.00  0.00    -0.206 F 
ATOM     78  C   UNL A   1      37.497  32.636  32.474  1.00  0.00     0.022 A 
BRANCH  75  79
ATOM     79  S   UNL A   1      38.362  31.528  34.882  1.00  0.00     0.124 S 
ATOM     80  O   UNL A   1      37.170  32.280  35.254  1.00  0.00    -0.237 OA
ATOM     81  O   UNL A   1      38.225  30.076  34.861  1.00  0.00    -0.237 OA
ATOM     82  O   UNL A   1      39.616  32.025  35.445  1.00  0.00    -0.744 OA
ENDBRANCH  75  79
ENDBRANCH  48  72
BRANCH  60  83
ATOM     83  C   UNL A   1      46.034  33.894  29.212  1.00  0.00     0.023 A 
ATOM     84  C   UNL A   1      45.984  34.926  28.258  1.00  0.00     0.031 A 
ATOM     85  C   UNL A   1      46.771  34.116  30.389  1.00  0.00     0.131 A 
ATOM     86  C   UNL A   1      46.704  36.112  28.473  1.00  0.00     0.055 A 
ATOM     87  C   UNL A   1      47.437  35.321  30.624  1.00  0.00     0.041 A 
ATOM     88  F   UNL A   1      46.855  33.165  31.333  1.00  0.00    -0.206 F 
ATOM     89  C   UNL A   1      47.416  36.322  29.657  1.00  0.00     0.022 A 
BRANCH  86  90
ATOM     90  S   UNL A   1      46.774  37.344  27.144  1.00  0.00     0.124 S 
ATOM     91  O   UNL A   1      46.559  36.524  25.957  1.00  0.00    -0.237 OA
ATOM     92  O   UNL A   1      45.685  38.247  27.499  1.00  0.00    -0.237 OA
ATOM     93  O   UNL A   1      48.114  37.912  27.271  1.00  0.00    -0.744 OA
ENDBRANCH  86  90
ENDBRANCH  60  83
ENDBRANCH  34  35
ENDBRANCH  27  29
ENDBRANCH  26  27
ENDBRANCH  25  26
ENDBRANCH  24  25
ENDBRANCH   1  24
TORSDOF 20
ENDMDL
MODEL 3
REMARK VINA RESULT:      -8.9      4.727      7.969
REMARK SMILES C/C=C/c1cncc(-c2ccc([C@@H](C)C(=O)OCCOCCOC(=O)c3ccc(-c4c5nc(c(-c6cc(S(=O)(=O)[O-])ccc6F)c6ccc([nH]6)c(-c6cc(S(=O)(=O)[O-])ccc6F)c6nc(c(-c7cc(S(=O)(=O)[O-])ccc7F)c7ccc4[nH]7)C=C6)C=C5)cc3)cc2)c1
REMARK SMILES IDX 20 1 19 2 18 3 17 4 15 5 16 6 13 7 14 8 12 9 9 10 10 11
REMARK SMILES IDX 90 12 11 13 89 14 8 15 4 16 5 17 91 18 6 19 7 20 3 21 1 22
REMARK SMILES IDX 2 23 21 24 22 25 23 26 24 27 25 28 26 29 27 30 88 31 28 32
REMARK SMILES IDX 87 33 29 34 30 35 31 36 81 37 32 38 86 39 80 40 82 41 33 42
REMARK SMILES IDX 85 43 79 44 78 45 34 47 66 48 46 49 65 50 47 51 50 52 64 53
REMARK SMILES IDX 83 54 48 55 49 56 63 58 84 59 51 60 35 61 36 62 44 63 37 64
REMARK SMILES IDX 43 65 45 66 42 67 38 68 39 69 40 70 41 71 67 72 68 73 76 74
REMARK SMILES IDX 69 75 75 76 77 77 74 78 70 79 71 80 72 81 73 82 52 83 53 84
REMARK SMILES IDX 61 85 54 86 60 87 62 88 59 89 55 90 56 91 57 92 58 93
REMARK H PARENT 82 46 50 57
REMARK Flexibility Score: inf
ROOT
ATOM      1  O   UNL A   1      31.641  30.730  26.532  1.00  0.00    -0.374 OA
ENDROOT
BRANCH   1   2
ATOM      2  C   UNL A   1      32.122  29.864  25.502  1.00  0.00     0.202 C 
BRANCH   2   3
ATOM      3  C   UNL A   1      31.092  29.430  24.457  1.00  0.00     0.261 C 
BRANCH   3   4
ATOM      4  O   UNL A   1      31.664  28.503  23.515  1.00  0.00    -0.463 OA
BRANCH   4   5
ATOM      5  C   UNL A   1      31.933  27.260  23.985  1.00  0.00     0.313 C 
ATOM      6  O   UNL A   1      32.859  26.987  24.744  1.00  0.00    -0.252 OA
BRANCH   5   7
ATOM      7  C   UNL A   1      30.994  26.187  23.458  1.00  0.00     0.126 C 
ATOM      8  C   UNL A   1      29.614  26.378  24.084  1.00  0.00     0.025 C 
BRANCH   7   9
ATOM      9  C   UNL A   1      31.452  24.732  23.523  1.00  0.00    -0.034 A 
ATOM     10  C   UNL A   1      32.506  22.106  23.900  1.00  0.00    -0.017 A 
ATOM     11  C   UNL A   1      32.893  22.901  22.809  1.00  0.00     0.009 A 
ATOM     12  C   UNL A   1      31.525  22.623  24.758  1.00  0.00     0.009 A 
ATOM     13  C   UNL A   1      32.379  24.193  22.623  1.00  0.00     0.005 A 
ATOM     14  C   UNL A   1      31.008  23.912  24.575  1.00  0.00     0.005 A 
BRANCH  10  15
ATOM     15  C   UNL A   1      33.183  20.831  24.197  1.00  0.00     0.001 A 
ATOM     16  C   UNL A   1      33.195  18.451  24.729  1.00  0.00    -0.007 A 
ATOM     17  C   UNL A   1      34.575  18.554  24.890  1.00  0.00     0.119 A 
ATOM     18  C   UNL A   1      32.498  19.618  24.384  1.00  0.00     0.020 A 
ATOM     19  N   UNL A   1      35.281  19.694  24.725  1.00  0.00    -0.263 NA
ATOM     20  C   UNL A   1      34.569  20.792  24.380  1.00  0.00     0.119 A 
BRANCH  16  21
ATOM     21  C   UNL A   1      32.546  17.161  24.995  1.00  0.00     0.005 C 
ATOM     22  C   UNL A   1      32.514  14.712  25.482  1.00  0.00     0.035 C 
ATOM     23  C   UNL A   1      33.200  15.999  25.151  1.00  0.00    -0.030 C 
ENDBRANCH  16  21
ENDBRANCH  10  15
ENDBRANCH   7   9
ENDBRANCH   5   7
ENDBRANCH   4   5
ENDBRANCH   3   4
ENDBRANCH   2   3
ENDBRANCH   1   2
BRANCH   1  24
ATOM     24  C   UNL A   1      30.994  31.935  26.124  1.00  0.00     0.202 C 
BRANCH  24  25
ATOM     25  C   UNL A   1      31.606  33.252  26.616  1.00  0.00     0.261 C 
BRANCH  25  26
ATOM     26  O   UNL A   1      32.333  33.097  27.847  1.00  0.00    -0.460 OA
BRANCH  26  27
ATOM     27  C   UNL A   1      33.374  33.948  28.000  1.00  0.00     0.338 C 
ATOM     28  O   UNL A   1      33.320  35.171  28.051  1.00  0.00    -0.246 OA
BRANCH  27  29
ATOM     29  C   UNL A   1      34.612  33.200  28.289  1.00  0.00     0.060 A 
ATOM     30  C   UNL A   1      34.476  31.887  28.756  1.00  0.00     0.016 A 
ATOM     31  C   UNL A   1      35.876  33.787  28.184  1.00  0.00     0.016 A 
ATOM     32  C   UNL A   1      35.596  31.173  29.175  1.00  0.00     0.010 A 
ATOM     33  C   UNL A   1      37.001  33.069  28.613  1.00  0.00     0.010 A 
ATOM     34  C   UNL A   1      36.861  31.775  29.147  1.00  0.00    -0.014 A 
BRANCH  34  35
ATOM     35  C   UNL A   1      37.996  31.102  29.828  1.00  0.00     0.031 A 
ATOM     36  C   UNL A   1      38.300  31.458  31.259  1.00  0.00     0.074 A 
ATOM     37  C   UNL A   1      38.712  30.150  29.202  1.00  0.00     0.049 A 
ATOM     38  N   UNL A   1      39.240  31.006  32.048  1.00  0.00    -0.248 NA
ATOM     39  C   UNL A   1      37.421  32.460  31.881  1.00  0.00     0.031 C 
ATOM     40  C   UNL A   1      38.482  29.684  27.836  1.00  0.00     0.029 A 
ATOM     41  N   UNL A   1      39.780  29.404  29.636  1.00  0.00    -0.354 N 
ATOM     42  C   UNL A   1      39.068  31.667  33.260  1.00  0.00     0.074 A 
ATOM     43  C   UNL A   1      37.958  32.580  33.086  1.00  0.00     0.031 C 
ATOM     44  C   UNL A   1      39.387  28.734  27.541  1.00  0.00     0.029 A 
ATOM     45  C   UNL A   1      40.281  28.550  28.683  1.00  0.00     0.049 A 
ATOM     46  H   UNL A   1      40.150  29.473  30.546  1.00  0.00     0.167 HD
ATOM     47  C   UNL A   1      39.765  31.520  34.415  1.00  0.00     0.034 A 
ATOM     48  C   UNL A   1      41.353  27.731  28.720  1.00  0.00     0.034 A 
ATOM     49  C   UNL A   1      40.878  30.615  34.571  1.00  0.00     0.049 A 
ATOM     50  C   UNL A   1      42.170  27.648  29.987  1.00  0.00     0.074 A 
ATOM     51  C   UNL A   1      41.647  30.379  35.698  1.00  0.00     0.029 A 
ATOM     52  N   UNL A   1      41.392  29.805  33.566  1.00  0.00    -0.354 N 
ATOM     53  N   UNL A   1      41.992  28.273  31.129  1.00  0.00    -0.248 NA
ATOM     54  C   UNL A   1      43.325  26.741  29.973  1.00  0.00     0.031 C 
ATOM     55  C   UNL A   1      42.666  29.483  35.356  1.00  0.00     0.029 A 
ATOM     56  C   UNL A   1      42.487  29.097  34.037  1.00  0.00     0.049 A 
ATOM     57  H   UNL A   1      41.031  29.742  32.652  1.00  0.00     0.167 HD
ATOM     58  C   UNL A   1      42.996  27.811  31.976  1.00  0.00     0.074 A 
ATOM     59  C   UNL A   1      43.766  26.846  31.218  1.00  0.00     0.031 C 
ATOM     60  C   UNL A   1      43.255  28.146  33.266  1.00  0.00     0.034 A 
BRANCH  47  61
ATOM     61  C   UNL A   1      39.372  32.400  35.577  1.00  0.00     0.023 A 
ATOM     62  C   UNL A   1      39.772  33.746  35.658  1.00  0.00     0.031 A 
ATOM     63  C   UNL A   1      38.613  31.874  36.638  1.00  0.00     0.131 A 
ATOM     64  C   UNL A   1      39.471  34.497  36.804  1.00  0.00     0.055 A 
ATOM     65  C   UNL A   1      38.251  32.651  37.741  1.00  0.00     0.041 A 
ATOM     66  F   UNL A   1      38.222  30.590  36.627  1.00  0.00    -0.206 F 
ATOM     67  C   UNL A   1      38.692  33.966  37.835  1.00  0.00     0.022 A 
BRANCH  64  68
ATOM     68  S   UNL A   1      40.231  36.134  36.993  1.00  0.00     0.124 S 
ATOM     69  O   UNL A   1      39.902  36.763  35.716  1.00  0.00    -0.237 OA
ATOM     70  O   UNL A   1      39.543  36.667  38.164  1.00  0.00    -0.237 OA
ATOM     71  O   UNL A   1      41.648  35.835  37.185  1.00  0.00    -0.744 OA
ENDBRANCH  64  68
ENDBRANCH  47  61
BRANCH  48  72
ATOM     72  C   UNL A   1      41.750  26.953  27.511  1.00  0.00     0.023 A 
ATOM     73  C   UNL A   1      41.557  25.564  27.441  1.00  0.00     0.031 A 
ATOM     74  C   UNL A   1      42.387  27.586  26.428  1.00  0.00     0.131 A 
ATOM     75  C   UNL A   1      42.037  24.847  26.333  1.00  0.00     0.055 A 
ATOM     76  C   UNL A   1      42.815  26.875  25.305  1.00  0.00     0.041 A 
ATOM     77  F   UNL A   1      42.597  28.912  26.444  1.00  0.00    -0.206 F 
ATOM     78  C   UNL A   1      42.652  25.495  25.259  1.00  0.00     0.022 A 
BRANCH  75  79
ATOM     79  S   UNL A   1      41.918  23.036  26.351  1.00  0.00     0.124 S 
ATOM     80  O   UNL A   1      42.685  22.700  27.545  1.00  0.00    -0.237 OA
ATOM     81  O   UNL A   1      40.477  22.829  26.434  1.00  0.00    -0.237 OA
ATOM     82  O   UNL A   1      42.530  22.643  25.084  1.00  0.00    -0.744 OA
ENDBRANCH  75  79
ENDBRANCH  48  72
BRANCH  60  83
ATOM     83  C   UNL A   1      44.393  27.425  33.950  1.00  0.00     0.023 A 
ATOM     84  C   UNL A   1      44.186  26.253  34.699  1.00  0.00     0.031 A 
ATOM     85  C   UNL A   1      45.703  27.928  33.857  1.00  0.00     0.131 A 
ATOM     86  C   UNL A   1      45.263  25.653  35.371  1.00  0.00     0.055 A 
ATOM     87  C   UNL A   1      46.780  27.294  34.479  1.00  0.00     0.041 A 
ATOM     88  F   UNL A   1      45.959  29.045  33.157  1.00  0.00    -0.206 F 
ATOM     89  C   UNL A   1      46.561  26.157  35.252  1.00  0.00     0.022 A 
BRANCH  86  90
ATOM     90  S   UNL A   1      44.933  24.256  36.478  1.00  0.00     0.124 S 
ATOM     91  O   UNL A   1      43.491  24.085  36.331  1.00  0.00    -0.237 OA
ATOM     92  O   UNL A   1      45.761  23.201  35.905  1.00  0.00    -0.237 OA
ATOM     93  O   UNL A   1      45.368  24.743  37.786  1.00  0.00    -0.744 OA
ENDBRANCH  86  90
ENDBRANCH  60  83
ENDBRANCH  34  35
ENDBRANCH  27  29
ENDBRANCH  26  27
ENDBRANCH  25  26
ENDBRANCH  24  25
ENDBRANCH   1  24
TORSDOF 20
ENDMDL
