MODEL 1
REMARK VINA RESULT:     -14.0      0.000      0.000
REMARK SMILES Cc1ccc(-c2cc(Cl)cc3c2O[C@H](C(F)(F)F)C(C(=O)OCCOCCOC(=O)c2ccc(-c4c5nc(c(-c6cc(S(=O)(=O)[O-])ccc6F)c6ccc([nH]6)c(-c6cc(S(=O)(=O)[O-])ccc6F)c6nc(c(-c7cc(S(=O)(=O)[O-])ccc7F)c7ccc4[nH]7)C=C6)C=C5)cc2)=C3)cc1F
REMARK SMILES IDX 26 1 25 2 24 3 23 4 22 5 20 6 21 7 19 8 6 9 7 10 12 11 8 12
REMARK SMILES IDX 11 13 13 14 9 15 10 16 94 17 14 18 5 19 1 20 2 21 3 22 96 23
REMARK SMILES IDX 4 24 95 25 97 26 15 27 16 28 17 29 18 30 27 31 28 32 29 33
REMARK SMILES IDX 30 34 31 35 32 36 93 37 33 38 92 39 34 40 35 41 36 42 86 43
REMARK SMILES IDX 37 44 91 45 85 46 87 47 38 48 90 49 84 50 83 51 39 53 71 54
REMARK SMILES IDX 51 55 70 56 52 57 55 58 69 59 88 60 53 61 54 62 68 64 89 65
REMARK SMILES IDX 56 66 40 67 41 68 49 69 42 70 48 71 50 72 47 73 43 74 44 75
REMARK SMILES IDX 45 76 46 77 72 78 73 79 81 80 74 81 80 82 82 83 79 84 75 85
REMARK SMILES IDX 76 86 77 87 78 88 57 89 58 90 66 91 59 92 65 93 67 94 64 95
REMARK SMILES IDX 60 96 61 97 62 98 63 99
REMARK H PARENT 87 52 55 63
REMARK Flexibility Score: inf
ROOT
ATOM      1  C   UNL A   1      33.002  30.470  26.776  1.00  0.00     0.202 C 
ENDROOT
BRANCH   1   2
ATOM      2  O   UNL A   1      31.778  29.825  27.142  1.00  0.00    -0.374 OA
BRANCH   2   3
ATOM      3  C   UNL A   1      31.796  28.407  27.294  1.00  0.00     0.202 C 
BRANCH   3   4
ATOM      4  C   UNL A   1      31.214  27.491  26.093  1.00  0.00     0.261 C 
BRANCH   4   5
ATOM      5  O   UNL A   1      32.202  26.153  24.965  1.00  0.00    -0.460 OA
BRANCH   5   6
ATOM      6  C   UNL A   1      33.006  25.495  24.022  1.00  0.00     0.338 C 
ATOM      7  O   UNL A   1      33.310  25.876  22.898  1.00  0.00    -0.246 OA
BRANCH   6   8
ATOM      8  C   UNL A   1      33.711  24.332  24.609  1.00  0.00     0.087 C 
ATOM      9  C   UNL A   1      35.817  20.825  25.135  1.00  0.00     0.026 A 
ATOM     10  C   UNL A   1      37.204  20.865  25.293  1.00  0.00     0.033 A 
ATOM     11  C   UNL A   1      35.099  22.037  25.184  1.00  0.00     0.135 A 
ATOM     12  C   UNL A   1      37.842  22.092  25.497  1.00  0.00     0.042 A 
ATOM     13  C   UNL A   1      35.742  23.271  25.300  1.00  0.00     0.019 A 
ATOM     14  O   UNL A   1      33.736  21.932  25.121  1.00  0.00    -0.475 OA
ATOM     15  Cl  UNL A   1      39.558  22.134  25.666  1.00  0.00    -0.084 Cl
ATOM     16  C   UNL A   1      37.123  23.294  25.499  1.00  0.00     0.032 A 
ATOM     17  C   UNL A   1      34.975  24.486  25.043  1.00  0.00     0.027 C 
ATOM     18  C   UNL A   1      33.001  23.020  24.531  1.00  0.00     0.316 C 
BRANCH   9  19
ATOM     19  C   UNL A   1      35.082  19.596  24.801  1.00  0.00    -0.012 A 
ATOM     20  C   UNL A   1      32.898  15.884  24.977  1.00  0.00     0.047 C 
ATOM     21  C   UNL A   1      33.649  17.166  24.793  1.00  0.00    -0.015 A 
ATOM     22  C   UNL A   1      35.028  17.180  24.546  1.00  0.00     0.007 A 
ATOM     23  C   UNL A   1      32.991  18.379  24.982  1.00  0.00     0.126 A 
ATOM     24  C   UNL A   1      35.741  18.387  24.547  1.00  0.00     0.009 A 
ATOM     25  C   UNL A   1      33.685  19.580  24.964  1.00  0.00     0.048 A 
ATOM     26  F   UNL A   1      31.675  18.396  25.242  1.00  0.00    -0.207 F 
ENDBRANCH   9  19
BRANCH  18  27
ATOM     27  C   UNL A   1      32.563  22.646  23.116  1.00  0.00     0.430 C 
ATOM     28  F   UNL A   1      33.509  22.954  22.198  1.00  0.00    -0.167 F 
ATOM     29  F   UNL A   1      32.313  21.324  22.989  1.00  0.00    -0.167 F 
ATOM     30  F   UNL A   1      31.434  23.310  22.757  1.00  0.00    -0.167 F 
ENDBRANCH  18  27
ENDBRANCH   6   8
ENDBRANCH   5   6
ENDBRANCH   4   5
ENDBRANCH   3   4
ENDBRANCH   2   3
ENDBRANCH   1   2
BRANCH   1  31
ATOM     31  C   UNL A   1      33.961  31.161  27.780  1.00  0.00     0.261 C 
BRANCH  31  32
ATOM     32  O   UNL A   1      35.355  30.978  27.539  1.00  0.00    -0.460 OA
BRANCH  32  33
ATOM     33  C   UNL A   1      36.226  31.166  28.548  1.00  0.00     0.338 C 
ATOM     34  O   UNL A   1      36.129  31.972  29.458  1.00  0.00    -0.246 OA
BRANCH  33  35
ATOM     35  C   UNL A   1      37.101  29.961  28.544  1.00  0.00     0.060 A 
ATOM     36  C   UNL A   1      37.404  29.252  29.722  1.00  0.00     0.016 A 
ATOM     37  C   UNL A   1      37.900  29.809  27.406  1.00  0.00     0.016 A 
ATOM     38  C   UNL A   1      38.584  28.502  29.796  1.00  0.00     0.010 A 
ATOM     39  C   UNL A   1      39.076  29.071  27.490  1.00  0.00     0.010 A 
ATOM     40  C   UNL A   1      39.450  28.463  28.697  1.00  0.00    -0.014 A 
BRANCH  40  41
ATOM     41  C   UNL A   1      40.739  27.768  28.736  1.00  0.00     0.031 A 
ATOM     42  C   UNL A   1      40.763  26.295  28.606  1.00  0.00     0.074 A 
ATOM     43  C   UNL A   1      41.923  28.407  28.887  1.00  0.00     0.049 A 
ATOM     44  N   UNL A   1      41.661  25.528  29.132  1.00  0.00    -0.248 NA
ATOM     45  C   UNL A   1      39.742  25.578  27.856  1.00  0.00     0.031 C 
ATOM     46  C   UNL A   1      43.257  27.835  28.725  1.00  0.00     0.029 A 
ATOM     47  N   UNL A   1      42.171  29.674  29.431  1.00  0.00    -0.354 N 
ATOM     48  C   UNL A   1      41.551  24.309  28.501  1.00  0.00     0.074 A 
ATOM     49  C   UNL A   1      40.269  24.351  27.826  1.00  0.00     0.031 C 
ATOM     50  C   UNL A   1      44.131  28.567  29.434  1.00  0.00     0.029 A 
ATOM     51  C   UNL A   1      43.369  29.562  30.177  1.00  0.00     0.049 A 
ATOM     52  H   UNL A   1      41.621  30.483  29.318  1.00  0.00     0.167 HD
ATOM     53  C   UNL A   1      42.629  23.473  28.432  1.00  0.00     0.034 A 
ATOM     54  C   UNL A   1      43.432  29.764  31.526  1.00  0.00     0.034 A 
ATOM     55  C   UNL A   1      43.788  23.980  29.172  1.00  0.00     0.049 A 
ATOM     56  C   UNL A   1      43.951  28.550  32.309  1.00  0.00     0.074 A 
ATOM     57  C   UNL A   1      45.006  24.533  28.804  1.00  0.00     0.029 A 
ATOM     58  N   UNL A   1      43.683  24.197  30.540  1.00  0.00    -0.354 N 
ATOM     59  N   UNL A   1      44.266  27.402  31.770  1.00  0.00    -0.248 NA
ATOM     60  C   UNL A   1      44.073  28.501  33.768  1.00  0.00     0.031 C 
ATOM     61  C   UNL A   1      45.649  25.046  29.959  1.00  0.00     0.029 A 
ATOM     62  C   UNL A   1      44.803  24.847  31.030  1.00  0.00     0.049 A 
ATOM     63  H   UNL A   1      42.912  23.924  31.089  1.00  0.00     0.167 HD
ATOM     64  C   UNL A   1      44.574  26.481  32.746  1.00  0.00     0.074 A 
ATOM     65  C   UNL A   1      44.441  27.223  33.984  1.00  0.00     0.031 C 
ATOM     66  C   UNL A   1      44.884  25.181  32.444  1.00  0.00     0.034 A 
BRANCH  53  67
ATOM     67  C   UNL A   1      42.680  22.367  27.393  1.00  0.00     0.023 A 
ATOM     68  C   UNL A   1      43.503  22.435  26.250  1.00  0.00     0.031 A 
ATOM     69  C   UNL A   1      41.993  21.147  27.567  1.00  0.00     0.131 A 
ATOM     70  C   UNL A   1      43.781  21.291  25.480  1.00  0.00     0.055 A 
ATOM     71  C   UNL A   1      42.207  20.030  26.751  1.00  0.00     0.041 A 
ATOM     72  F   UNL A   1      41.114  20.958  28.557  1.00  0.00    -0.206 F 
ATOM     73  C   UNL A   1      43.140  20.081  25.730  1.00  0.00     0.022 A 
BRANCH  70  74
ATOM     74  S   UNL A   1      45.114  21.300  24.246  1.00  0.00     0.124 S 
ATOM     75  O   UNL A   1      44.867  20.060  23.509  1.00  0.00    -0.237 OA
ATOM     76  O   UNL A   1      44.847  22.528  23.506  1.00  0.00    -0.237 OA
ATOM     77  O   UNL A   1      46.332  21.294  25.054  1.00  0.00    -0.744 OA
ENDBRANCH  70  74
ENDBRANCH  53  67
BRANCH  54  78
ATOM     78  C   UNL A   1      42.462  30.775  32.067  1.00  0.00     0.023 A 
ATOM     79  C   UNL A   1      40.982  30.174  32.901  1.00  0.00     0.031 A 
ATOM     80  C   UNL A   1      42.525  32.502  31.491  1.00  0.00     0.131 A 
ATOM     81  C   UNL A   1      39.546  31.244  33.081  1.00  0.00     0.055 A 
ATOM     82  C   UNL A   1      41.085  33.597  31.693  1.00  0.00     0.041 A 
ATOM     83  F   UNL A   1      43.559  32.929  30.751  1.00  0.00    -0.206 F 
ATOM     84  C   UNL A   1      39.587  32.967  32.518  1.00  0.00     0.022 A 
BRANCH  81  85
ATOM     85  S   UNL A   1      37.981  30.472  33.535  1.00  0.00     0.124 S 
ATOM     86  O   UNL A   1      37.046  31.103  32.615  1.00  0.00    -0.237 OA
ATOM     87  O   UNL A   1      38.250  29.059  33.286  1.00  0.00    -0.237 OA
ATOM     88  O   UNL A   1      37.858  30.847  34.937  1.00  0.00    -0.744 OA
ENDBRANCH  81  85
ENDBRANCH  54  78
BRANCH  66  89
ATOM     89  C   UNL A   1      45.334  24.083  33.391  1.00  0.00     0.023 A 
ATOM     90  C   UNL A   1      46.637  24.149  33.954  1.00  0.00     0.031 A 
ATOM     91  C   UNL A   1      44.494  23.088  33.913  1.00  0.00     0.131 A 
ATOM     92  C   UNL A   1      47.054  23.271  34.967  1.00  0.00     0.055 A 
ATOM     93  C   UNL A   1      44.925  22.183  34.898  1.00  0.00     0.041 A 
ATOM     94  F   UNL A   1      43.207  22.999  33.547  1.00  0.00    -0.206 F 
ATOM     95  C   UNL A   1      46.205  22.275  35.435  1.00  0.00     0.022 A 
BRANCH  92  96
ATOM     96  S   UNL A   1      48.672  23.462  35.773  1.00  0.00     0.124 S 
ATOM     97  O   UNL A   1      49.374  22.257  35.333  1.00  0.00    -0.237 OA
ATOM     98  O   UNL A   1      49.153  24.711  35.187  1.00  0.00    -0.237 OA
ATOM     99  O   UNL A   1      48.355  23.515  37.194  1.00  0.00    -0.744 OA
ENDBRANCH  92  96
ENDBRANCH  66  89
ENDBRANCH  40  41
ENDBRANCH  33  35
ENDBRANCH  32  33
ENDBRANCH  31  32
ENDBRANCH   1  31
TORSDOF 19
ENDMDL
MODEL 2
REMARK VINA RESULT:     -14.0      4.168     10.581
REMARK SMILES Cc1ccc(-c2cc(Cl)cc3c2O[C@H](C(F)(F)F)C(C(=O)OCCOCCOC(=O)c2ccc(-c4c5nc(c(-c6cc(S(=O)(=O)[O-])ccc6F)c6ccc([nH]6)c(-c6cc(S(=O)(=O)[O-])ccc6F)c6nc(c(-c7cc(S(=O)(=O)[O-])ccc7F)c7ccc4[nH]7)C=C6)C=C5)cc2)=C3)cc1F
REMARK SMILES IDX 26 1 25 2 24 3 23 4 22 5 20 6 21 7 19 8 6 9 7 10 12 11 8 12
REMARK SMILES IDX 11 13 13 14 9 15 10 16 94 17 14 18 5 19 1 20 2 21 3 22 96 23
REMARK SMILES IDX 4 24 95 25 97 26 15 27 16 28 17 29 18 30 27 31 28 32 29 33
REMARK SMILES IDX 30 34 31 35 32 36 93 37 33 38 92 39 34 40 35 41 36 42 86 43
REMARK SMILES IDX 37 44 91 45 85 46 87 47 38 48 90 49 84 50 83 51 39 53 71 54
REMARK SMILES IDX 51 55 70 56 52 57 55 58 69 59 88 60 53 61 54 62 68 64 89 65
REMARK SMILES IDX 56 66 40 67 41 68 49 69 42 70 48 71 50 72 47 73 43 74 44 75
REMARK SMILES IDX 45 76 46 77 72 78 73 79 81 80 74 81 80 82 82 83 79 84 75 85
REMARK SMILES IDX 76 86 77 87 78 88 57 89 58 90 66 91 59 92 65 93 67 94 64 95
REMARK SMILES IDX 60 96 61 97 62 98 63 99
REMARK H PARENT 87 52 55 63
REMARK Flexibility Score: inf
ROOT
ATOM      1  C   UNL A   1      37.915  22.056  25.792  1.00  0.00     0.202 C 
ENDROOT
BRANCH   1   2
ATOM      2  O   UNL A   1      37.575  21.288  24.633  1.00  0.00    -0.374 OA
BRANCH   2   3
ATOM      3  C   UNL A   1      37.644  19.867  24.736  1.00  0.00     0.202 C 
BRANCH   3   4
ATOM      4  C   UNL A   1      36.262  19.028  24.804  1.00  0.00     0.261 C 
BRANCH   4   5
ATOM      5  O   UNL A   1      34.382  19.736  24.842  1.00  0.00    -0.460 OA
BRANCH   5   6
ATOM      6  C   UNL A   1      33.022  19.981  25.090  1.00  0.00     0.338 C 
ATOM      7  O   UNL A   1      32.233  19.276  25.706  1.00  0.00    -0.246 OA
BRANCH   6   8
ATOM      8  C   UNL A   1      32.634  21.365  24.734  1.00  0.00     0.087 C 
ATOM      9  C   UNL A   1      32.677  25.400  23.881  1.00  0.00     0.026 A 
ATOM     10  C   UNL A   1      32.780  25.829  22.556  1.00  0.00     0.033 A 
ATOM     11  C   UNL A   1      32.437  24.034  24.129  1.00  0.00     0.135 A 
ATOM     12  C   UNL A   1      32.643  24.903  21.517  1.00  0.00     0.042 A 
ATOM     13  C   UNL A   1      32.387  23.094  23.098  1.00  0.00     0.019 A 
ATOM     14  O   UNL A   1      32.248  23.684  25.439  1.00  0.00    -0.475 OA
ATOM     15  Cl  UNL A   1      32.797  25.438  19.884  1.00  0.00    -0.084 Cl
ATOM     16  C   UNL A   1      32.450  23.541  21.777  1.00  0.00     0.032 A 
ATOM     17  C   UNL A   1      32.437  21.676  23.440  1.00  0.00     0.027 C 
ATOM     18  C   UNL A   1      32.638  22.360  25.849  1.00  0.00     0.316 C 
BRANCH   9  19
ATOM     19  C   UNL A   1      32.924  26.282  25.032  1.00  0.00    -0.012 A 
ATOM     20  C   UNL A   1      33.120  29.643  27.724  1.00  0.00     0.047 C 
ATOM     21  C   UNL A   1      33.110  28.409  26.875  1.00  0.00    -0.015 A 
ATOM     22  C   UNL A   1      34.213  28.050  26.088  1.00  0.00     0.007 A 
ATOM     23  C   UNL A   1      31.942  27.657  26.773  1.00  0.00     0.126 A 
ATOM     24  C   UNL A   1      34.123  26.992  25.175  1.00  0.00     0.009 A 
ATOM     25  C   UNL A   1      31.851  26.594  25.885  1.00  0.00     0.048 A 
ATOM     26  F   UNL A   1      30.863  27.990  27.496  1.00  0.00    -0.207 F 
ENDBRANCH   9  19
BRANCH  18  27
ATOM     27  C   UNL A   1      33.962  22.419  26.609  1.00  0.00     0.430 C 
ATOM     28  F   UNL A   1      34.197  21.279  27.300  1.00  0.00    -0.167 F 
ATOM     29  F   UNL A   1      35.019  22.602  25.788  1.00  0.00    -0.167 F 
ATOM     30  F   UNL A   1      33.967  23.435  27.511  1.00  0.00    -0.167 F 
ENDBRANCH  18  27
ENDBRANCH   6   8
ENDBRANCH   5   6
ENDBRANCH   4   5
ENDBRANCH   3   4
ENDBRANCH   2   3
ENDBRANCH   1   2
BRANCH   1  31
ATOM     31  C   UNL A   1      39.342  22.151  26.392  1.00  0.00     0.261 C 
BRANCH  31  32
ATOM     32  O   UNL A   1      39.939  23.446  26.382  1.00  0.00    -0.460 OA
BRANCH  32  33
ATOM     33  C   UNL A   1      40.547  23.897  27.495  1.00  0.00     0.338 C 
ATOM     34  O   UNL A   1      41.535  23.425  28.031  1.00  0.00    -0.246 OA
BRANCH  33  35
ATOM     35  C   UNL A   1      40.020  25.275  27.703  1.00  0.00     0.060 A 
ATOM     36  C   UNL A   1      40.486  26.374  26.958  1.00  0.00     0.016 A 
ATOM     37  C   UNL A   1      39.345  25.477  28.910  1.00  0.00     0.016 A 
ATOM     38  C   UNL A   1      40.395  27.665  27.495  1.00  0.00     0.010 A 
ATOM     39  C   UNL A   1      39.268  26.760  29.443  1.00  0.00     0.010 A 
ATOM     40  C   UNL A   1      39.840  27.848  28.767  1.00  0.00    -0.014 A 
BRANCH  40  41
ATOM     41  C   UNL A   1      39.790  29.156  29.422  1.00  0.00     0.031 A 
ATOM     42  C   UNL A   1      38.799  30.152  28.961  1.00  0.00     0.074 A 
ATOM     43  C   UNL A   1      40.612  29.510  30.438  1.00  0.00     0.049 A 
ATOM     44  N   UNL A   1      38.962  31.433  29.026  1.00  0.00    -0.248 NA
ATOM     45  C   UNL A   1      37.527  29.749  28.377  1.00  0.00     0.031 C 
ATOM     46  C   UNL A   1      40.501  30.693  31.288  1.00  0.00     0.029 A 
ATOM     47  N   UNL A   1      41.859  28.972  30.784  1.00  0.00    -0.354 N 
ATOM     48  C   UNL A   1      37.717  31.994  28.848  1.00  0.00     0.074 A 
ATOM     49  C   UNL A   1      36.895  30.925  28.317  1.00  0.00     0.031 C 
ATOM     50  C   UNL A   1      41.711  30.978  31.793  1.00  0.00     0.029 A 
ATOM     51  C   UNL A   1      42.668  30.062  31.187  1.00  0.00     0.049 A 
ATOM     52  H   UNL A   1      42.122  28.024  30.752  1.00  0.00     0.167 HD
ATOM     53  C   UNL A   1      37.444  33.232  29.359  1.00  0.00     0.034 A 
ATOM     54  C   UNL A   1      43.812  30.425  30.535  1.00  0.00     0.034 A 
ATOM     55  C   UNL A   1      38.617  33.865  29.970  1.00  0.00     0.049 A 
ATOM     56  C   UNL A   1      43.791  31.867  30.009  1.00  0.00     0.074 A 
ATOM     57  C   UNL A   1      39.009  34.119  31.276  1.00  0.00     0.029 A 
ATOM     58  N   UNL A   1      39.739  34.119  29.192  1.00  0.00    -0.354 N 
ATOM     59  N   UNL A   1      42.772  32.679  30.116  1.00  0.00    -0.248 NA
ATOM     60  C   UNL A   1      44.879  32.481  29.244  1.00  0.00     0.031 C 
ATOM     61  C   UNL A   1      40.355  34.566  31.275  1.00  0.00     0.029 A 
ATOM     62  C   UNL A   1      40.803  34.540  29.971  1.00  0.00     0.049 A 
ATOM     63  H   UNL A   1      39.773  34.012  28.213  1.00  0.00     0.167 HD
ATOM     64  C   UNL A   1      43.016  33.850  29.435  1.00  0.00     0.074 A 
ATOM     65  C   UNL A   1      44.356  33.677  28.907  1.00  0.00     0.031 C 
ATOM     66  C   UNL A   1      42.080  34.847  29.345  1.00  0.00     0.034 A 
BRANCH  53  67
ATOM     67  C   UNL A   1      36.009  33.676  29.576  1.00  0.00     0.023 A 
ATOM     68  C   UNL A   1      35.435  33.795  30.859  1.00  0.00     0.031 A 
ATOM     69  C   UNL A   1      35.192  34.110  28.510  1.00  0.00     0.131 A 
ATOM     70  C   UNL A   1      34.236  34.502  31.061  1.00  0.00     0.055 A 
ATOM     71  C   UNL A   1      33.958  34.741  28.705  1.00  0.00     0.041 A 
ATOM     72  F   UNL A   1      35.563  33.986  27.231  1.00  0.00    -0.206 F 
ATOM     73  C   UNL A   1      33.494  34.984  29.986  1.00  0.00     0.022 A 
BRANCH  70  74
ATOM     74  S   UNL A   1      33.699  34.967  32.733  1.00  0.00     0.124 S 
ATOM     75  O   UNL A   1      34.893  35.617  33.275  1.00  0.00    -0.237 OA
ATOM     76  O   UNL A   1      32.573  35.854  32.465  1.00  0.00    -0.237 OA
ATOM     77  O   UNL A   1      33.368  33.687  33.356  1.00  0.00    -0.744 OA
ENDBRANCH  70  74
ENDBRANCH  53  67
BRANCH  54  78
ATOM     78  C   UNL A   1      44.572  29.297  29.899  1.00  0.00     0.023 A 
ATOM     79  C   UNL A   1      44.380  29.036  28.126  1.00  0.00     0.031 A 
ATOM     80  C   UNL A   1      45.266  27.966  30.929  1.00  0.00     0.131 A 
ATOM     81  C   UNL A   1      44.787  27.440  27.398  1.00  0.00     0.055 A 
ATOM     82  C   UNL A   1      45.703  26.360  30.195  1.00  0.00     0.041 A 
ATOM     83  F   UNL A   1      45.290  28.090  32.265  1.00  0.00    -0.206 F 
ATOM     84  C   UNL A   1      45.482  26.102  28.404  1.00  0.00     0.022 A 
BRANCH  81  85
ATOM     85  S   UNL A   1      44.188  27.108  25.729  1.00  0.00     0.124 S 
ATOM     86  O   UNL A   1      43.285  28.226  25.496  1.00  0.00    -0.237 OA
ATOM     87  O   UNL A   1      45.422  27.125  24.950  1.00  0.00    -0.237 OA
ATOM     88  O   UNL A   1      43.567  25.800  25.889  1.00  0.00    -0.744 OA
ENDBRANCH  81  85
ENDBRANCH  54  78
BRANCH  66  89
ATOM     89  C   UNL A   1      42.234  36.220  28.718  1.00  0.00     0.023 A 
ATOM     90  C   UNL A   1      42.799  37.272  29.489  1.00  0.00     0.031 A 
ATOM     91  C   UNL A   1      42.034  36.502  27.358  1.00  0.00     0.131 A 
ATOM     92  C   UNL A   1      43.132  38.512  28.923  1.00  0.00     0.055 A 
ATOM     93  C   UNL A   1      42.329  37.757  26.800  1.00  0.00     0.041 A 
ATOM     94  F   UNL A   1      41.616  35.556  26.504  1.00  0.00    -0.206 F 
ATOM     95  C   UNL A   1      42.886  38.766  27.579  1.00  0.00     0.022 A 
BRANCH  92  96
ATOM     96  S   UNL A   1      43.983  39.793  29.893  1.00  0.00     0.124 S 
ATOM     97  O   UNL A   1      43.172  40.976  29.611  1.00  0.00    -0.237 OA
ATOM     98  O   UNL A   1      43.866  39.267  31.251  1.00  0.00    -0.237 OA
ATOM     99  O   UNL A   1      45.331  39.815  29.341  1.00  0.00    -0.744 OA
ENDBRANCH  92  96
ENDBRANCH  66  89
ENDBRANCH  40  41
ENDBRANCH  33  35
ENDBRANCH  32  33
ENDBRANCH  31  32
ENDBRANCH   1  31
TORSDOF 19
ENDMDL
MODEL 3
REMARK VINA RESULT:     -13.7      4.548     10.852
REMARK SMILES Cc1ccc(-c2cc(Cl)cc3c2O[C@H](C(F)(F)F)C(C(=O)OCCOCCOC(=O)c2ccc(-c4c5nc(c(-c6cc(S(=O)(=O)[O-])ccc6F)c6ccc([nH]6)c(-c6cc(S(=O)(=O)[O-])ccc6F)c6nc(c(-c7cc(S(=O)(=O)[O-])ccc7F)c7ccc4[nH]7)C=C6)C=C5)cc2)=C3)cc1F
REMARK SMILES IDX 26 1 25 2 24 3 23 4 22 5 20 6 21 7 19 8 6 9 7 10 12 11 8 12
REMARK SMILES IDX 11 13 13 14 9 15 10 16 94 17 14 18 5 19 1 20 2 21 3 22 96 23
REMARK SMILES IDX 4 24 95 25 97 26 15 27 16 28 17 29 18 30 27 31 28 32 29 33
REMARK SMILES IDX 30 34 31 35 32 36 93 37 33 38 92 39 34 40 35 41 36 42 86 43
REMARK SMILES IDX 37 44 91 45 85 46 87 47 38 48 90 49 84 50 83 51 39 53 71 54
REMARK SMILES IDX 51 55 70 56 52 57 55 58 69 59 88 60 53 61 54 62 68 64 89 65
REMARK SMILES IDX 56 66 40 67 41 68 49 69 42 70 48 71 50 72 47 73 43 74 44 75
REMARK SMILES IDX 45 76 46 77 72 78 73 79 81 80 74 81 80 82 82 83 79 84 75 85
REMARK SMILES IDX 76 86 77 87 78 88 57 89 58 90 66 91 59 92 65 93 67 94 64 95
REMARK SMILES IDX 60 96 61 97 62 98 63 99
REMARK H PARENT 87 52 55 63
REMARK Flexibility Score: inf
ROOT
ATOM      1  C   UNL A   1      37.266  21.305  25.459  1.00  0.00     0.202 C 
ENDROOT
BRANCH   1   2
ATOM      2  O   UNL A   1      36.106  22.139  25.534  1.00  0.00    -0.374 OA
BRANCH   2   3
ATOM      3  C   UNL A   1      35.041  21.717  26.383  1.00  0.00     0.202 C 
BRANCH   3   4
ATOM      4  C   UNL A   1      33.528  21.756  25.807  1.00  0.00     0.261 C 
BRANCH   4   5
ATOM      5  O   UNL A   1      32.747  23.028  24.463  1.00  0.00    -0.460 OA
BRANCH   5   6
ATOM      6  C   UNL A   1      32.519  23.933  23.414  1.00  0.00     0.338 C 
ATOM      7  O   UNL A   1      32.622  23.728  22.211  1.00  0.00    -0.246 OA
BRANCH   6   8
ATOM      8  C   UNL A   1      31.866  25.176  23.885  1.00  0.00     0.087 C 
ATOM      9  C   UNL A   1      30.985  29.115  24.732  1.00  0.00     0.026 A 
ATOM     10  C   UNL A   1      30.187  29.852  23.854  1.00  0.00     0.033 A 
ATOM     11  C   UNL A   1      31.084  27.722  24.541  1.00  0.00     0.135 A 
ATOM     12  C   UNL A   1      29.510  29.199  22.819  1.00  0.00     0.042 A 
ATOM     13  C   UNL A   1      30.481  27.080  23.458  1.00  0.00     0.019 A 
ATOM     14  O   UNL A   1      31.799  27.035  25.485  1.00  0.00    -0.475 OA
ATOM     15  Cl  UNL A   1      28.548  30.122  21.725  1.00  0.00    -0.084 Cl
ATOM     16  C   UNL A   1      29.653  27.822  22.613  1.00  0.00     0.032 A 
ATOM     17  C   UNL A   1      30.869  25.706  23.155  1.00  0.00     0.027 C 
ATOM     18  C   UNL A   1      32.480  25.835  25.076  1.00  0.00     0.316 C 
BRANCH   9  19
ATOM     19  C   UNL A   1      31.819  29.735  25.771  1.00  0.00    -0.012 A 
ATOM     20  C   UNL A   1      34.613  32.211  27.928  1.00  0.00     0.047 C 
ATOM     21  C   UNL A   1      33.620  31.293  27.285  1.00  0.00    -0.015 A 
ATOM     22  C   UNL A   1      33.981  30.012  26.845  1.00  0.00     0.007 A 
ATOM     23  C   UNL A   1      32.334  31.755  27.012  1.00  0.00     0.126 A 
ATOM     24  C   UNL A   1      33.087  29.236  26.096  1.00  0.00     0.009 A 
ATOM     25  C   UNL A   1      31.435  30.985  26.288  1.00  0.00     0.048 A 
ATOM     26  F   UNL A   1      31.967  32.985  27.401  1.00  0.00    -0.207 F 
ENDBRANCH   9  19
BRANCH  18  27
ATOM     27  C   UNL A   1      33.974  26.114  24.917  1.00  0.00     0.430 C 
ATOM     28  F   UNL A   1      34.486  26.750  25.997  1.00  0.00    -0.167 F 
ATOM     29  F   UNL A   1      34.694  24.983  24.754  1.00  0.00    -0.167 F 
ATOM     30  F   UNL A   1      34.215  26.908  23.842  1.00  0.00    -0.167 F 
ENDBRANCH  18  27
ENDBRANCH   6   8
ENDBRANCH   5   6
ENDBRANCH   4   5
ENDBRANCH   3   4
ENDBRANCH   2   3
ENDBRANCH   1   2
BRANCH   1  31
ATOM     31  C   UNL A   1      38.713  21.789  25.741  1.00  0.00     0.261 C 
BRANCH  31  32
ATOM     32  O   UNL A   1      38.833  22.953  26.556  1.00  0.00    -0.460 OA
BRANCH  32  33
ATOM     33  C   UNL A   1      40.049  23.499  26.746  1.00  0.00     0.338 C 
ATOM     34  O   UNL A   1      41.121  23.035  26.396  1.00  0.00    -0.246 OA
BRANCH  33  35
ATOM     35  C   UNL A   1      39.793  24.921  27.105  1.00  0.00     0.060 A 
ATOM     36  C   UNL A   1      40.449  25.986  26.458  1.00  0.00     0.016 A 
ATOM     37  C   UNL A   1      39.183  25.121  28.347  1.00  0.00     0.016 A 
ATOM     38  C   UNL A   1      40.608  27.208  27.122  1.00  0.00     0.010 A 
ATOM     39  C   UNL A   1      39.354  26.334  29.006  1.00  0.00     0.010 A 
ATOM     40  C   UNL A   1      40.112  27.360  28.423  1.00  0.00    -0.014 A 
BRANCH  40  41
ATOM     41  C   UNL A   1      40.317  28.581  29.205  1.00  0.00     0.031 A 
ATOM     42  C   UNL A   1      39.284  29.638  29.168  1.00  0.00     0.074 A 
ATOM     43  C   UNL A   1      41.415  28.798  29.967  1.00  0.00     0.049 A 
ATOM     44  N   UNL A   1      39.520  30.899  29.325  1.00  0.00    -0.248 NA
ATOM     45  C   UNL A   1      37.880  29.325  28.942  1.00  0.00     0.031 C 
ATOM     46  C   UNL A   1      41.611  29.872  30.939  1.00  0.00     0.029 A 
ATOM     47  N   UNL A   1      42.681  28.206  29.870  1.00  0.00    -0.354 N 
ATOM     48  C   UNL A   1      38.306  31.495  29.583  1.00  0.00     0.074 A 
ATOM     49  C   UNL A   1      37.315  30.508  29.201  1.00  0.00     0.031 C 
ATOM     50  C   UNL A   1      42.928  30.077  31.096  1.00  0.00     0.029 A 
ATOM     51  C   UNL A   1      43.623  29.229  30.137  1.00  0.00     0.049 A 
ATOM     52  H   UNL A   1      42.877  27.265  29.657  1.00  0.00     0.167 HD
ATOM     53  C   UNL A   1      38.252  32.665  30.286  1.00  0.00     0.034 A 
ATOM     54  C   UNL A   1      44.545  29.652  29.223  1.00  0.00     0.034 A 
ATOM     55  C   UNL A   1      39.581  33.204  30.593  1.00  0.00     0.049 A 
ATOM     56  C   UNL A   1      44.442  31.147  28.890  1.00  0.00     0.074 A 
ATOM     57  C   UNL A   1      40.347  33.294  31.746  1.00  0.00     0.029 A 
ATOM     58  N   UNL A   1      40.441  33.535  29.553  1.00  0.00    -0.354 N 
ATOM     59  N   UNL A   1      43.538  31.954  29.381  1.00  0.00    -0.248 NA
ATOM     60  C   UNL A   1      45.290  31.835  27.913  1.00  0.00     0.031 C 
ATOM     61  C   UNL A   1      41.654  33.719  31.400  1.00  0.00     0.029 A 
ATOM     62  C   UNL A   1      41.703  33.845  30.028  1.00  0.00     0.049 A 
ATOM     63  H   UNL A   1      40.184  33.547  28.602  1.00  0.00     0.167 HD
ATOM     64  C   UNL A   1      43.631  33.195  28.793  1.00  0.00     0.074 A 
ATOM     65  C   UNL A   1      44.750  33.069  27.880  1.00  0.00     0.031 C 
ATOM     66  C   UNL A   1      42.758  34.208  29.093  1.00  0.00     0.034 A 
BRANCH  53  67
ATOM     67  C   UNL A   1      36.965  33.099  30.963  1.00  0.00     0.023 A 
ATOM     68  C   UNL A   1      36.147  34.128  30.454  1.00  0.00     0.031 A 
ATOM     69  C   UNL A   1      36.444  32.417  32.084  1.00  0.00     0.131 A 
ATOM     70  C   UNL A   1      34.823  34.298  30.898  1.00  0.00     0.055 A 
ATOM     71  C   UNL A   1      35.155  32.642  32.581  1.00  0.00     0.041 A 
ATOM     72  F   UNL A   1      37.137  31.472  32.729  1.00  0.00    -0.206 F 
ATOM     73  C   UNL A   1      34.318  33.553  31.959  1.00  0.00     0.022 A 
BRANCH  70  74
ATOM     74  S   UNL A   1      33.667  35.369  29.994  1.00  0.00     0.124 S 
ATOM     75  O   UNL A   1      33.527  36.511  30.898  1.00  0.00    -0.237 OA
ATOM     76  O   UNL A   1      34.392  35.638  28.758  1.00  0.00    -0.237 OA
ATOM     77  O   UNL A   1      32.466  34.547  29.863  1.00  0.00    -0.744 OA
ENDBRANCH  70  74
ENDBRANCH  53  67
BRANCH  54  78
ATOM     78  C   UNL A   1      45.033  28.599  28.271  1.00  0.00     0.023 A 
ATOM     79  C   UNL A   1      46.640  27.846  28.585  1.00  0.00     0.031 A 
ATOM     80  C   UNL A   1      44.276  28.435  26.623  1.00  0.00     0.131 A 
ATOM     81  C   UNL A   1      47.526  27.018  27.255  1.00  0.00     0.055 A 
ATOM     82  C   UNL A   1      45.156  27.578  25.281  1.00  0.00     0.041 A 
ATOM     83  F   UNL A   1      43.148  29.101  26.329  1.00  0.00    -0.206 F 
ATOM     84  C   UNL A   1      46.791  26.840  25.608  1.00  0.00     0.022 A 
BRANCH  81  85
ATOM     85  S   UNL A   1      49.276  26.661  27.514  1.00  0.00     0.124 S 
ATOM     86  O   UNL A   1      49.254  25.882  28.744  1.00  0.00    -0.237 OA
ATOM     87  O   UNL A   1      49.622  25.920  26.307  1.00  0.00    -0.237 OA
ATOM     88  O   UNL A   1      49.842  28.000  27.611  1.00  0.00    -0.744 OA
ENDBRANCH  81  85
ENDBRANCH  54  78
BRANCH  66  89
ATOM     89  C   UNL A   1      42.789  35.645  28.605  1.00  0.00     0.023 A 
ATOM     90  C   UNL A   1      43.285  36.656  29.471  1.00  0.00     0.031 A 
ATOM     91  C   UNL A   1      42.538  36.043  27.283  1.00  0.00     0.131 A 
ATOM     92  C   UNL A   1      43.507  37.970  29.028  1.00  0.00     0.055 A 
ATOM     93  C   UNL A   1      42.721  37.367  26.850  1.00  0.00     0.041 A 
ATOM     94  F   UNL A   1      42.178  35.155  26.344  1.00  0.00    -0.206 F 
ATOM     95  C   UNL A   1      43.213  38.336  27.720  1.00  0.00     0.022 A 
BRANCH  92  96
ATOM     96  S   UNL A   1      44.274  39.213  30.110  1.00  0.00     0.124 S 
ATOM     97  O   UNL A   1      45.693  39.059  29.791  1.00  0.00    -0.237 OA
ATOM     98  O   UNL A   1      43.659  40.448  29.630  1.00  0.00    -0.237 OA
ATOM     99  O   UNL A   1      43.888  38.799  31.452  1.00  0.00    -0.744 OA
ENDBRANCH  92  96
ENDBRANCH  66  89
ENDBRANCH  40  41
ENDBRANCH  33  35
ENDBRANCH  32  33
ENDBRANCH  31  32
ENDBRANCH   1  31
TORSDOF 19
ENDMDL
