MODEL 1
REMARK VINA RESULT:     -10.6      0.000      0.000
REMARK SMILES CC(C)(C)C(=O)N1CCCC[C@@H]1C(=O)OCCOCCOC(=O)c1ccc(-c2c3nc(c(-c4cc(S(=O)(=O)[O-])ccc4F)c4ccc([nH]4)c(-c4cc(S(=O)(=O)[O-])ccc4F)c4nc(c(-c5cc(S(=O)(=O)[O-])ccc5F)c5ccc2[nH]5)C=C4)C=C3)cc1
REMARK SMILES IDX 19 1 18 2 17 3 16 4 15 5 13 6 14 7 12 8 7 9 8 10 9 11 11 12
REMARK SMILES IDX 10 13 5 14 6 15 2 16 1 17 3 18 4 19 20 20 21 21 22 22 23 23
REMARK SMILES IDX 24 24 25 25 86 26 26 27 85 28 27 29 28 30 29 31 79 32 30 33
REMARK SMILES IDX 84 34 78 35 80 36 31 37 83 38 77 39 76 40 32 42 64 43 44 44
REMARK SMILES IDX 63 45 45 46 48 47 62 48 81 49 46 50 47 51 61 53 82 54 49 55
REMARK SMILES IDX 33 56 34 57 42 58 35 59 41 60 43 61 40 62 36 63 37 64 38 65
REMARK SMILES IDX 39 66 65 67 66 68 74 69 67 70 73 71 75 72 72 73 68 74 69 75
REMARK SMILES IDX 70 76 71 77 50 78 51 79 59 80 52 81 58 82 60 83 57 84 53 85
REMARK SMILES IDX 54 86 55 87 56 88
REMARK H PARENT 80 41 48 52
REMARK Flexibility Score: inf
ROOT
ATOM      1  C   UNL A   1      35.489  20.773  25.114  1.00  0.00     0.202 C 
ENDROOT
BRANCH   1   2
ATOM      2  O   UNL A   1      35.221  21.770  26.101  1.00  0.00    -0.374 OA
BRANCH   2   3
ATOM      3  C   UNL A   1      34.303  21.450  27.138  1.00  0.00     0.202 C 
BRANCH   3   4
ATOM      4  C   UNL A   1      33.405  22.578  27.650  1.00  0.00     0.261 C 
BRANCH   4   5
ATOM      5  O   UNL A   1      33.500  23.809  26.919  1.00  0.00    -0.462 OA
BRANCH   5   6
ATOM      6  C   UNL A   1      32.328  24.486  26.753  1.00  0.00     0.328 C 
ATOM      7  O   UNL A   1      31.243  24.138  27.210  1.00  0.00    -0.250 OA
BRANCH   6   8
ATOM      8  C   UNL A   1      32.491  25.715  25.853  1.00  0.00     0.195 C 
ATOM      9  N   UNL A   1      32.291  25.474  24.411  1.00  0.00    -0.328 N 
ATOM     10  C   UNL A   1      32.214  26.704  23.628  1.00  0.00     0.120 C 
ATOM     11  C   UNL A   1      33.399  27.645  23.875  1.00  0.00     0.022 C 
ATOM     12  C   UNL A   1      33.733  26.573  26.127  1.00  0.00     0.037 C 
ATOM     13  C   UNL A   1      33.620  27.897  25.367  1.00  0.00     0.005 C 
BRANCH   9  14
ATOM     14  C   UNL A   1      32.989  24.430  23.802  1.00  0.00     0.228 C 
ATOM     15  O   UNL A   1      34.217  24.438  23.738  1.00  0.00    -0.274 OA
BRANCH  14  16
ATOM     16  C   UNL A   1      32.133  23.292  23.187  1.00  0.00     0.041 C 
ATOM     17  C   UNL A   1      32.234  22.070  24.122  1.00  0.00     0.021 C 
ATOM     18  C   UNL A   1      32.621  22.864  21.794  1.00  0.00     0.021 C 
ATOM     19  C   UNL A   1      30.655  23.701  23.130  1.00  0.00     0.021 C 
ENDBRANCH  14  16
ENDBRANCH   9  14
ENDBRANCH   6   8
ENDBRANCH   5   6
ENDBRANCH   4   5
ENDBRANCH   3   4
ENDBRANCH   2   3
ENDBRANCH   1   2
BRANCH   1  20
ATOM     20  C   UNL A   1      36.934  20.287  24.972  1.00  0.00     0.261 C 
BRANCH  20  21
ATOM     21  O   UNL A   1      37.885  21.371  24.999  1.00  0.00    -0.460 OA
BRANCH  21  22
ATOM     22  C   UNL A   1      38.970  21.143  25.780  1.00  0.00     0.338 C 
ATOM     23  O   UNL A   1      39.628  20.111  25.830  1.00  0.00    -0.246 OA
BRANCH  22  24
ATOM     24  C   UNL A   1      39.390  22.361  26.490  1.00  0.00     0.060 A 
ATOM     25  C   UNL A   1      38.847  23.582  26.068  1.00  0.00     0.016 A 
ATOM     26  C   UNL A   1      40.438  22.331  27.413  1.00  0.00     0.016 A 
ATOM     27  C   UNL A   1      39.400  24.782  26.515  1.00  0.00     0.010 A 
ATOM     28  C   UNL A   1      40.995  23.538  27.854  1.00  0.00     0.010 A 
ATOM     29  C   UNL A   1      40.511  24.766  27.367  1.00  0.00    -0.014 A 
BRANCH  29  30
ATOM     30  C   UNL A   1      41.277  26.021  27.589  1.00  0.00     0.031 A 
ATOM     31  C   UNL A   1      40.645  27.123  28.400  1.00  0.00     0.074 A 
ATOM     32  C   UNL A   1      42.528  26.163  27.116  1.00  0.00     0.049 A 
ATOM     33  N   UNL A   1      41.115  28.305  28.708  1.00  0.00    -0.248 NA
ATOM     34  C   UNL A   1      39.301  26.852  28.933  1.00  0.00     0.031 C 
ATOM     35  C   UNL A   1      43.261  25.152  26.357  1.00  0.00     0.029 A 
ATOM     36  N   UNL A   1      43.400  27.219  27.203  1.00  0.00    -0.354 N 
ATOM     37  C   UNL A   1      40.127  28.920  29.472  1.00  0.00     0.074 A 
ATOM     38  C   UNL A   1      39.017  27.992  29.545  1.00  0.00     0.031 C 
ATOM     39  C   UNL A   1      44.472  25.642  26.038  1.00  0.00     0.029 A 
ATOM     40  C   UNL A   1      44.587  27.010  26.542  1.00  0.00     0.049 A 
ATOM     41  H   UNL A   1      43.195  28.047  27.694  1.00  0.00     0.167 HD
ATOM     42  C   UNL A   1      40.145  30.139  30.064  1.00  0.00     0.034 A 
ATOM     43  C   UNL A   1      45.633  27.837  26.344  1.00  0.00     0.034 A 
ATOM     44  C   UNL A   1      41.249  31.062  29.970  1.00  0.00     0.049 A 
ATOM     45  C   UNL A   1      45.597  29.223  26.939  1.00  0.00     0.074 A 
ATOM     46  C   UNL A   1      41.378  32.319  30.539  1.00  0.00     0.029 A 
ATOM     47  N   UNL A   1      42.414  30.836  29.248  1.00  0.00    -0.354 N 
ATOM     48  N   UNL A   1      44.660  29.789  27.664  1.00  0.00    -0.248 NA
ATOM     49  C   UNL A   1      46.764  30.080  26.692  1.00  0.00     0.031 C 
ATOM     50  C   UNL A   1      42.588  32.876  30.108  1.00  0.00     0.029 A 
ATOM     51  C   UNL A   1      43.249  31.941  29.328  1.00  0.00     0.049 A 
ATOM     52  H   UNL A   1      42.618  30.011  28.751  1.00  0.00     0.167 HD
ATOM     53  C   UNL A   1      45.138  31.059  27.980  1.00  0.00     0.074 A 
ATOM     54  C   UNL A   1      46.452  31.169  27.380  1.00  0.00     0.031 C 
ATOM     55  C   UNL A   1      44.549  32.044  28.708  1.00  0.00     0.034 A 
BRANCH  42  56
ATOM     56  C   UNL A   1      38.905  30.559  30.818  1.00  0.00     0.023 A 
ATOM     57  C   UNL A   1      37.916  31.363  30.225  1.00  0.00     0.031 A 
ATOM     58  C   UNL A   1      38.729  30.178  32.160  1.00  0.00     0.131 A 
ATOM     59  C   UNL A   1      36.832  31.818  30.992  1.00  0.00     0.055 A 
ATOM     60  C   UNL A   1      37.610  30.572  32.896  1.00  0.00     0.041 A 
ATOM     61  F   UNL A   1      39.650  29.429  32.784  1.00  0.00    -0.206 F 
ATOM     62  C   UNL A   1      36.661  31.409  32.317  1.00  0.00     0.022 A 
BRANCH  59  63
ATOM     63  S   UNL A   1      35.720  33.061  30.276  1.00  0.00     0.124 S 
ATOM     64  O   UNL A   1      35.916  34.189  31.182  1.00  0.00    -0.237 OA
ATOM     65  O   UNL A   1      36.254  33.222  28.928  1.00  0.00    -0.237 OA
ATOM     66  O   UNL A   1      34.404  32.429  30.355  1.00  0.00    -0.744 OA
ENDBRANCH  59  63
ENDBRANCH  42  56
BRANCH  43  67
ATOM     67  C   UNL A   1      46.790  27.401  25.511  1.00  0.00     0.023 A 
ATOM     68  C   UNL A   1      46.946  27.849  24.190  1.00  0.00     0.031 A 
ATOM     69  C   UNL A   1      47.728  26.483  26.015  1.00  0.00     0.131 A 
ATOM     70  C   UNL A   1      47.995  27.347  23.403  1.00  0.00     0.055 A 
ATOM     71  C   UNL A   1      48.796  26.022  25.244  1.00  0.00     0.041 A 
ATOM     72  F   UNL A   1      47.620  26.022  27.271  1.00  0.00    -0.206 F 
ATOM     73  C   UNL A   1      48.927  26.445  23.925  1.00  0.00     0.022 A 
BRANCH  70  74
ATOM     74  S   UNL A   1      48.082  27.830  21.657  1.00  0.00     0.124 S 
ATOM     75  O   UNL A   1      49.227  28.733  21.655  1.00  0.00    -0.237 OA
ATOM     76  O   UNL A   1      48.278  26.544  20.997  1.00  0.00    -0.237 OA
ATOM     77  O   UNL A   1      46.787  28.463  21.414  1.00  0.00    -0.744 OA
ENDBRANCH  70  74
ENDBRANCH  43  67
BRANCH  55  78
ATOM     78  C   UNL A   1      45.346  33.307  28.919  1.00  0.00     0.023 A 
ATOM     79  C   UNL A   1      45.169  34.439  28.103  1.00  0.00     0.031 A 
ATOM     80  C   UNL A   1      46.308  33.373  29.942  1.00  0.00     0.131 A 
ATOM     81  C   UNL A   1      45.980  35.568  28.289  1.00  0.00     0.055 A 
ATOM     82  C   UNL A   1      47.074  34.519  30.158  1.00  0.00     0.041 A 
ATOM     83  F   UNL A   1      46.519  32.322  30.750  1.00  0.00    -0.206 F 
ATOM     84  C   UNL A   1      46.922  35.621  29.321  1.00  0.00     0.022 A 
BRANCH  81  85
ATOM     85  S   UNL A   1      45.851  36.941  27.109  1.00  0.00     0.124 S 
ATOM     86  O   UNL A   1      44.411  37.011  26.883  1.00  0.00    -0.237 OA
ATOM     87  O   UNL A   1      46.434  38.050  27.857  1.00  0.00    -0.237 OA
ATOM     88  O   UNL A   1      46.636  36.485  25.965  1.00  0.00    -0.744 OA
ENDBRANCH  81  85
ENDBRANCH  55  78
ENDBRANCH  29  30
ENDBRANCH  22  24
ENDBRANCH  21  22
ENDBRANCH  20  21
ENDBRANCH   1  20
TORSDOF 19
ENDMDL
MODEL 2
REMARK VINA RESULT:     -10.4      0.848      1.988
REMARK SMILES CC(C)(C)C(=O)N1CCCC[C@@H]1C(=O)OCCOCCOC(=O)c1ccc(-c2c3nc(c(-c4cc(S(=O)(=O)[O-])ccc4F)c4ccc([nH]4)c(-c4cc(S(=O)(=O)[O-])ccc4F)c4nc(c(-c5cc(S(=O)(=O)[O-])ccc5F)c5ccc2[nH]5)C=C4)C=C3)cc1
REMARK SMILES IDX 19 1 18 2 17 3 16 4 15 5 13 6 14 7 12 8 7 9 8 10 9 11 11 12
REMARK SMILES IDX 10 13 5 14 6 15 2 16 1 17 3 18 4 19 20 20 21 21 22 22 23 23
REMARK SMILES IDX 24 24 25 25 86 26 26 27 85 28 27 29 28 30 29 31 79 32 30 33
REMARK SMILES IDX 84 34 78 35 80 36 31 37 83 38 77 39 76 40 32 42 64 43 44 44
REMARK SMILES IDX 63 45 45 46 48 47 62 48 81 49 46 50 47 51 61 53 82 54 49 55
REMARK SMILES IDX 33 56 34 57 42 58 35 59 41 60 43 61 40 62 36 63 37 64 38 65
REMARK SMILES IDX 39 66 65 67 66 68 74 69 67 70 73 71 75 72 72 73 68 74 69 75
REMARK SMILES IDX 70 76 71 77 50 78 51 79 59 80 52 81 58 82 60 83 57 84 53 85
REMARK SMILES IDX 54 86 55 87 56 88
REMARK H PARENT 80 41 48 52
REMARK Flexibility Score: inf
ROOT
ATOM      1  C   UNL A   1      35.781  21.716  25.951  1.00  0.00     0.202 C 
ENDROOT
BRANCH   1   2
ATOM      2  O   UNL A   1      34.530  21.113  26.282  1.00  0.00    -0.374 OA
BRANCH   2   3
ATOM      3  C   UNL A   1      33.834  21.605  27.420  1.00  0.00     0.202 C 
BRANCH   3   4
ATOM      4  C   UNL A   1      33.148  22.966  27.287  1.00  0.00     0.261 C 
BRANCH   4   5
ATOM      5  O   UNL A   1      32.490  23.193  26.033  1.00  0.00    -0.462 OA
BRANCH   5   6
ATOM      6  C   UNL A   1      31.929  24.427  25.879  1.00  0.00     0.328 C 
ATOM      7  O   UNL A   1      31.166  24.958  26.680  1.00  0.00    -0.250 OA
BRANCH   6   8
ATOM      8  C   UNL A   1      32.295  25.067  24.535  1.00  0.00     0.195 C 
ATOM      9  N   UNL A   1      32.644  26.499  24.592  1.00  0.00    -0.328 N 
ATOM     10  C   UNL A   1      33.218  27.000  23.346  1.00  0.00     0.120 C 
ATOM     11  C   UNL A   1      32.351  26.686  22.120  1.00  0.00     0.022 C 
ATOM     12  C   UNL A   1      31.345  24.750  23.373  1.00  0.00     0.037 C 
ATOM     13  C   UNL A   1      31.977  25.206  22.056  1.00  0.00     0.005 C 
BRANCH   9  14
ATOM     14  C   UNL A   1      31.772  27.378  25.234  1.00  0.00     0.228 C 
ATOM     15  O   UNL A   1      30.586  27.445  24.915  1.00  0.00    -0.274 OA
BRANCH  14  16
ATOM     16  C   UNL A   1      32.386  28.282  26.335  1.00  0.00     0.041 C 
ATOM     17  C   UNL A   1      32.321  29.740  25.838  1.00  0.00     0.021 C 
ATOM     18  C   UNL A   1      33.856  27.947  26.631  1.00  0.00     0.021 C 
ATOM     19  C   UNL A   1      31.554  28.202  27.622  1.00  0.00     0.021 C 
ENDBRANCH  14  16
ENDBRANCH   9  14
ENDBRANCH   6   8
ENDBRANCH   5   6
ENDBRANCH   4   5
ENDBRANCH   3   4
ENDBRANCH   2   3
ENDBRANCH   1   2
BRANCH   1  20
ATOM     20  C   UNL A   1      36.819  20.848  25.233  1.00  0.00     0.261 C 
BRANCH  20  21
ATOM     21  O   UNL A   1      38.048  21.559  24.975  1.00  0.00    -0.460 OA
BRANCH  21  22
ATOM     22  C   UNL A   1      39.045  21.286  25.852  1.00  0.00     0.338 C 
ATOM     23  O   UNL A   1      39.629  20.218  25.982  1.00  0.00    -0.246 OA
BRANCH  22  24
ATOM     24  C   UNL A   1      39.479  22.496  26.569  1.00  0.00     0.060 A 
ATOM     25  C   UNL A   1      38.929  23.722  26.171  1.00  0.00     0.016 A 
ATOM     26  C   UNL A   1      40.544  22.454  27.471  1.00  0.00     0.016 A 
ATOM     27  C   UNL A   1      39.491  24.916  26.622  1.00  0.00     0.010 A 
ATOM     28  C   UNL A   1      41.111  23.655  27.916  1.00  0.00     0.010 A 
ATOM     29  C   UNL A   1      40.618  24.890  27.453  1.00  0.00    -0.014 A 
BRANCH  29  30
ATOM     30  C   UNL A   1      41.388  26.141  27.675  1.00  0.00     0.031 A 
ATOM     31  C   UNL A   1      40.754  27.253  28.471  1.00  0.00     0.074 A 
ATOM     32  C   UNL A   1      42.646  26.273  27.216  1.00  0.00     0.049 A 
ATOM     33  N   UNL A   1      41.227  28.434  28.776  1.00  0.00    -0.248 NA
ATOM     34  C   UNL A   1      39.402  26.994  28.989  1.00  0.00     0.031 C 
ATOM     35  C   UNL A   1      43.382  25.252  26.473  1.00  0.00     0.029 A 
ATOM     36  N   UNL A   1      43.523  27.324  27.306  1.00  0.00    -0.354 N 
ATOM     37  C   UNL A   1      40.233  29.060  29.523  1.00  0.00     0.074 A 
ATOM     38  C   UNL A   1      39.118  28.139  29.590  1.00  0.00     0.031 C 
ATOM     39  C   UNL A   1      44.599  25.733  26.164  1.00  0.00     0.029 A 
ATOM     40  C   UNL A   1      44.716  27.103  26.660  1.00  0.00     0.049 A 
ATOM     41  H   UNL A   1      43.317  28.157  27.788  1.00  0.00     0.167 HD
ATOM     42  C   UNL A   1      40.252  30.284  30.107  1.00  0.00     0.034 A 
ATOM     43  C   UNL A   1      45.770  27.923  26.469  1.00  0.00     0.034 A 
ATOM     44  C   UNL A   1      41.363  31.200  30.020  1.00  0.00     0.049 A 
ATOM     45  C   UNL A   1      45.735  29.314  27.053  1.00  0.00     0.074 A 
ATOM     46  C   UNL A   1      41.492  32.460  30.582  1.00  0.00     0.029 A 
ATOM     47  N   UNL A   1      42.535  30.962  29.313  1.00  0.00    -0.354 N 
ATOM     48  N   UNL A   1      44.792  29.890  27.763  1.00  0.00    -0.248 NA
ATOM     49  C   UNL A   1      46.910  30.162  26.815  1.00  0.00     0.031 C 
ATOM     50  C   UNL A   1      42.711  33.006  30.161  1.00  0.00     0.029 A 
ATOM     51  C   UNL A   1      43.375  32.062  29.396  1.00  0.00     0.049 A 
ATOM     52  H   UNL A   1      42.740  30.131  28.825  1.00  0.00     0.167 HD
ATOM     53  C   UNL A   1      45.275  31.159  28.077  1.00  0.00     0.074 A 
ATOM     54  C   UNL A   1      46.596  31.257  27.491  1.00  0.00     0.031 C 
ATOM     55  C   UNL A   1      44.683  32.153  28.790  1.00  0.00     0.034 A 
BRANCH  42  56
ATOM     56  C   UNL A   1      39.005  30.716  30.843  1.00  0.00     0.023 A 
ATOM     57  C   UNL A   1      38.018  31.503  30.226  1.00  0.00     0.031 A 
ATOM     58  C   UNL A   1      38.822  30.365  32.192  1.00  0.00     0.131 A 
ATOM     59  C   UNL A   1      36.927  31.971  30.976  1.00  0.00     0.055 A 
ATOM     60  C   UNL A   1      37.697  30.772  32.912  1.00  0.00     0.041 A 
ATOM     61  F   UNL A   1      39.742  29.633  32.840  1.00  0.00    -0.206 F 
ATOM     62  C   UNL A   1      36.749  31.592  32.308  1.00  0.00     0.022 A 
BRANCH  59  63
ATOM     63  S   UNL A   1      35.816  33.193  30.224  1.00  0.00     0.124 S 
ATOM     64  O   UNL A   1      34.641  32.378  29.923  1.00  0.00    -0.237 OA
ATOM     65  O   UNL A   1      35.658  34.174  31.291  1.00  0.00    -0.237 OA
ATOM     66  O   UNL A   1      36.559  33.658  29.054  1.00  0.00    -0.744 OA
ENDBRANCH  59  63
ENDBRANCH  42  56
BRANCH  43  67
ATOM     67  C   UNL A   1      46.933  27.475  25.653  1.00  0.00     0.023 A 
ATOM     68  C   UNL A   1      47.083  27.873  24.315  1.00  0.00     0.031 A 
ATOM     69  C   UNL A   1      47.887  26.592  26.191  1.00  0.00     0.131 A 
ATOM     70  C   UNL A   1      48.140  27.359  23.548  1.00  0.00     0.055 A 
ATOM     71  C   UNL A   1      48.963  26.120  25.438  1.00  0.00     0.041 A 
ATOM     72  F   UNL A   1      47.787  26.179  27.464  1.00  0.00    -0.206 F 
ATOM     73  C   UNL A   1      49.087  26.494  24.104  1.00  0.00     0.022 A 
BRANCH  70  74
ATOM     74  S   UNL A   1      48.219  27.776  21.785  1.00  0.00     0.124 S 
ATOM     75  O   UNL A   1      46.928  28.422  21.574  1.00  0.00    -0.237 OA
ATOM     76  O   UNL A   1      49.388  28.647  21.732  1.00  0.00    -0.237 OA
ATOM     77  O   UNL A   1      48.381  26.477  21.134  1.00  0.00    -0.744 OA
ENDBRANCH  70  74
ENDBRANCH  43  67
BRANCH  55  78
ATOM     78  C   UNL A   1      45.485  33.413  29.002  1.00  0.00     0.023 A 
ATOM     79  C   UNL A   1      45.325  34.539  28.174  1.00  0.00     0.031 A 
ATOM     80  C   UNL A   1      46.434  33.482  30.036  1.00  0.00     0.131 A 
ATOM     81  C   UNL A   1      46.141  35.665  28.363  1.00  0.00     0.055 A 
ATOM     82  C   UNL A   1      47.204  34.625  30.254  1.00  0.00     0.041 A 
ATOM     83  F   UNL A   1      46.628  32.435  30.856  1.00  0.00    -0.206 F 
ATOM     84  C   UNL A   1      47.069  35.721  29.406  1.00  0.00     0.022 A 
BRANCH  81  85
ATOM     85  S   UNL A   1      46.036  37.029  27.171  1.00  0.00     0.124 S 
ATOM     86  O   UNL A   1      46.877  36.546  26.081  1.00  0.00    -0.237 OA
ATOM     87  O   UNL A   1      44.604  37.090  26.893  1.00  0.00    -0.237 OA
ATOM     88  O   UNL A   1      46.572  38.171  27.908  1.00  0.00    -0.744 OA
ENDBRANCH  81  85
ENDBRANCH  55  78
ENDBRANCH  29  30
ENDBRANCH  22  24
ENDBRANCH  21  22
ENDBRANCH  20  21
ENDBRANCH   1  20
TORSDOF 19
ENDMDL
MODEL 3
REMARK VINA RESULT:     -10.4      5.139     10.260
REMARK SMILES CC(C)(C)C(=O)N1CCCC[C@@H]1C(=O)OCCOCCOC(=O)c1ccc(-c2c3nc(c(-c4cc(S(=O)(=O)[O-])ccc4F)c4ccc([nH]4)c(-c4cc(S(=O)(=O)[O-])ccc4F)c4nc(c(-c5cc(S(=O)(=O)[O-])ccc5F)c5ccc2[nH]5)C=C4)C=C3)cc1
REMARK SMILES IDX 19 1 18 2 17 3 16 4 15 5 13 6 14 7 12 8 7 9 8 10 9 11 11 12
REMARK SMILES IDX 10 13 5 14 6 15 2 16 1 17 3 18 4 19 20 20 21 21 22 22 23 23
REMARK SMILES IDX 24 24 25 25 86 26 26 27 85 28 27 29 28 30 29 31 79 32 30 33
REMARK SMILES IDX 84 34 78 35 80 36 31 37 83 38 77 39 76 40 32 42 64 43 44 44
REMARK SMILES IDX 63 45 45 46 48 47 62 48 81 49 46 50 47 51 61 53 82 54 49 55
REMARK SMILES IDX 33 56 34 57 42 58 35 59 41 60 43 61 40 62 36 63 37 64 38 65
REMARK SMILES IDX 39 66 65 67 66 68 74 69 67 70 73 71 75 72 72 73 68 74 69 75
REMARK SMILES IDX 70 76 71 77 50 78 51 79 59 80 52 81 58 82 60 83 57 84 53 85
REMARK SMILES IDX 54 86 55 87 56 88
REMARK H PARENT 80 41 48 52
REMARK Flexibility Score: inf
ROOT
ATOM      1  C   UNL A   1      32.122  29.563  24.769  1.00  0.00     0.202 C 
ENDROOT
BRANCH   1   2
ATOM      2  O   UNL A   1      33.529  29.370  24.625  1.00  0.00    -0.374 OA
BRANCH   2   3
ATOM      3  C   UNL A   1      33.974  28.231  23.899  1.00  0.00     0.202 C 
BRANCH   3   4
ATOM      4  C   UNL A   1      33.228  26.917  24.134  1.00  0.00     0.261 C 
BRANCH   4   5
ATOM      5  O   UNL A   1      34.017  25.731  23.959  1.00  0.00    -0.462 OA
BRANCH   5   6
ATOM      6  C   UNL A   1      34.253  25.010  25.093  1.00  0.00     0.328 C 
ATOM      7  O   UNL A   1      33.649  25.146  26.152  1.00  0.00    -0.250 OA
BRANCH   6   8
ATOM      8  C   UNL A   1      35.429  24.041  24.929  1.00  0.00     0.195 C 
ATOM      9  N   UNL A   1      35.065  22.668  24.532  1.00  0.00    -0.328 N 
ATOM     10  C   UNL A   1      36.218  21.855  24.152  1.00  0.00     0.120 C 
ATOM     11  C   UNL A   1      37.324  21.853  25.215  1.00  0.00     0.022 C 
ATOM     12  C   UNL A   1      36.462  24.059  26.063  1.00  0.00     0.037 C 
ATOM     13  C   UNL A   1      37.704  23.272  25.638  1.00  0.00     0.005 C 
BRANCH   9  14
ATOM     14  C   UNL A   1      34.085  21.994  25.263  1.00  0.00     0.228 C 
ATOM     15  O   UNL A   1      34.294  21.625  26.418  1.00  0.00    -0.274 OA
BRANCH  14  16
ATOM     16  C   UNL A   1      32.748  21.711  24.530  1.00  0.00     0.041 C 
ATOM     17  C   UNL A   1      32.502  20.190  24.571  1.00  0.00     0.021 C 
ATOM     18  C   UNL A   1      32.770  22.148  23.056  1.00  0.00     0.021 C 
ATOM     19  C   UNL A   1      31.579  22.381  25.265  1.00  0.00     0.021 C 
ENDBRANCH  14  16
ENDBRANCH   9  14
ENDBRANCH   6   8
ENDBRANCH   5   6
ENDBRANCH   4   5
ENDBRANCH   3   4
ENDBRANCH   2   3
ENDBRANCH   1   2
BRANCH   1  20
ATOM     20  C   UNL A   1      31.639  30.394  25.961  1.00  0.00     0.261 C 
BRANCH  20  21
ATOM     21  O   UNL A   1      32.515  30.280  27.102  1.00  0.00    -0.460 OA
BRANCH  21  22
ATOM     22  C   UNL A   1      33.237  31.398  27.365  1.00  0.00     0.338 C 
ATOM     23  O   UNL A   1      32.805  32.540  27.452  1.00  0.00    -0.246 OA
BRANCH  22  24
ATOM     24  C   UNL A   1      34.633  31.073  27.697  1.00  0.00     0.060 A 
ATOM     25  C   UNL A   1      34.951  29.729  27.934  1.00  0.00     0.016 A 
ATOM     26  C   UNL A   1      35.562  32.080  27.964  1.00  0.00     0.016 A 
ATOM     27  C   UNL A   1      36.178  29.394  28.507  1.00  0.00     0.010 A 
ATOM     28  C   UNL A   1      36.790  31.741  28.546  1.00  0.00     0.010 A 
ATOM     29  C   UNL A   1      37.081  30.402  28.867  1.00  0.00    -0.014 A 
BRANCH  29  30
ATOM     30  C   UNL A   1      38.233  30.069  29.745  1.00  0.00     0.031 A 
ATOM     31  C   UNL A   1      39.259  29.080  29.253  1.00  0.00     0.074 A 
ATOM     32  C   UNL A   1      38.389  30.666  30.940  1.00  0.00     0.049 A 
ATOM     33  N   UNL A   1      40.331  28.626  29.850  1.00  0.00    -0.248 NA
ATOM     34  C   UNL A   1      39.040  28.528  27.907  1.00  0.00     0.031 C 
ATOM     35  C   UNL A   1      37.489  31.670  31.504  1.00  0.00     0.029 A 
ATOM     36  N   UNL A   1      39.361  30.508  31.895  1.00  0.00    -0.354 N 
ATOM     37  C   UNL A   1      40.918  27.738  28.953  1.00  0.00     0.074 A 
ATOM     38  C   UNL A   1      40.059  27.690  27.789  1.00  0.00     0.031 C 
ATOM     39  C   UNL A   1      37.947  32.032  32.715  1.00  0.00     0.029 A 
ATOM     40  C   UNL A   1      39.153  31.264  33.024  1.00  0.00     0.049 A 
ATOM     41  H   UNL A   1      40.136  29.912  31.782  1.00  0.00     0.167 HD
ATOM     42  C   UNL A   1      42.071  27.035  29.083  1.00  0.00     0.034 A 
ATOM     43  C   UNL A   1      39.841  31.311  34.182  1.00  0.00     0.034 A 
ATOM     44  C   UNL A   1      42.911  27.079  30.255  1.00  0.00     0.049 A 
ATOM     45  C   UNL A   1      41.073  30.455  34.341  1.00  0.00     0.074 A 
ATOM     46  C   UNL A   1      44.105  26.416  30.488  1.00  0.00     0.029 A 
ATOM     47  N   UNL A   1      42.640  27.817  31.400  1.00  0.00    -0.354 N 
ATOM     48  N   UNL A   1      41.621  29.625  33.483  1.00  0.00    -0.248 NA
ATOM     49  C   UNL A   1      41.783  30.547  35.623  1.00  0.00     0.031 C 
ATOM     50  C   UNL A   1      44.519  26.702  31.796  1.00  0.00     0.029 A 
ATOM     51  C   UNL A   1      43.624  27.599  32.354  1.00  0.00     0.049 A 
ATOM     52  H   UNL A   1      41.862  28.410  31.518  1.00  0.00     0.167 HD
ATOM     53  C   UNL A   1      42.754  29.117  34.115  1.00  0.00     0.074 A 
ATOM     54  C   UNL A   1      42.818  29.745  35.419  1.00  0.00     0.031 C 
ATOM     55  C   UNL A   1      43.664  28.218  33.658  1.00  0.00     0.034 A 
BRANCH  42  56
ATOM     56  C   UNL A   1      42.452  26.119  27.945  1.00  0.00     0.023 A 
ATOM     57  C   UNL A   1      41.920  24.823  27.830  1.00  0.00     0.031 A 
ATOM     58  C   UNL A   1      43.388  26.536  26.982  1.00  0.00     0.131 A 
ATOM     59  C   UNL A   1      42.380  23.965  26.818  1.00  0.00     0.055 A 
ATOM     60  C   UNL A   1      43.786  25.704  25.934  1.00  0.00     0.041 A 
ATOM     61  F   UNL A   1      43.945  27.754  27.054  1.00  0.00    -0.206 F 
ATOM     62  C   UNL A   1      43.293  24.405  25.856  1.00  0.00     0.022 A 
BRANCH  59  63
ATOM     63  S   UNL A   1      41.872  22.223  26.856  1.00  0.00     0.124 S 
ATOM     64  O   UNL A   1      40.568  22.311  27.509  1.00  0.00    -0.237 OA
ATOM     65  O   UNL A   1      41.857  21.868  25.442  1.00  0.00    -0.237 OA
ATOM     66  O   UNL A   1      42.916  21.580  27.651  1.00  0.00    -0.744 OA
ENDBRANCH  59  63
ENDBRANCH  42  56
BRANCH  43  67
ATOM     67  C   UNL A   1      39.363  32.165  35.308  1.00  0.00     0.023 A 
ATOM     68  C   UNL A   1      38.679  31.613  36.402  1.00  0.00     0.031 A 
ATOM     69  C   UNL A   1      39.541  33.559  35.272  1.00  0.00     0.131 A 
ATOM     70  C   UNL A   1      38.162  32.456  37.398  1.00  0.00     0.055 A 
ATOM     71  C   UNL A   1      39.066  34.389  36.289  1.00  0.00     0.041 A 
ATOM     72  F   UNL A   1      40.186  34.136  34.246  1.00  0.00    -0.206 F 
ATOM     73  C   UNL A   1      38.361  33.839  37.354  1.00  0.00     0.022 A 
BRANCH  70  74
ATOM     74  S   UNL A   1      37.155  31.727  38.719  1.00  0.00     0.124 S 
ATOM     75  O   UNL A   1      38.009  31.921  39.885  1.00  0.00    -0.237 OA
ATOM     76  O   UNL A   1      35.947  32.543  38.665  1.00  0.00    -0.237 OA
ATOM     77  O   UNL A   1      36.987  30.339  38.293  1.00  0.00    -0.744 OA
ENDBRANCH  70  74
ENDBRANCH  43  67
BRANCH  55  78
ATOM     78  C   UNL A   1      44.824  27.896  34.568  1.00  0.00     0.023 A 
ATOM     79  C   UNL A   1      44.793  26.798  35.446  1.00  0.00     0.031 A 
ATOM     80  C   UNL A   1      45.970  28.711  34.568  1.00  0.00     0.131 A 
ATOM     81  C   UNL A   1      45.863  26.576  36.325  1.00  0.00     0.055 A 
ATOM     82  C   UNL A   1      47.055  28.453  35.405  1.00  0.00     0.041 A 
ATOM     83  F   UNL A   1      46.052  29.773  33.750  1.00  0.00    -0.206 F 
ATOM     84  C   UNL A   1      47.001  27.388  36.300  1.00  0.00     0.022 A 
BRANCH  81  85
ATOM     85  S   UNL A   1      45.716  25.260  37.566  1.00  0.00     0.124 S 
ATOM     86  O   UNL A   1      46.901  25.485  38.387  1.00  0.00    -0.237 OA
ATOM     87  O   UNL A   1      44.436  25.568  38.195  1.00  0.00    -0.237 OA
ATOM     88  O   UNL A   1      45.737  24.035  36.770  1.00  0.00    -0.744 OA
ENDBRANCH  81  85
ENDBRANCH  55  78
ENDBRANCH  29  30
ENDBRANCH  22  24
ENDBRANCH  21  22
ENDBRANCH  20  21
ENDBRANCH   1  20
TORSDOF 19
ENDMDL
