MODEL 1
REMARK VINA RESULT:     -10.8      0.000      0.000
REMARK SMILES Cc1nc([C@@H]2C[N@@H+]3CCC[C@@H]3CO2)sc1CC(=O)OCCOCCOC(=O)c1ccc(-c2c3nc(c(-c4cc(S(=O)(=O)[O-])ccc4F)c4ccc([nH]4)c(-c4cc(S(=O)(=O)[O-])ccc4F)c4nc(c(-c5cc(S(=O)(=O)[O-])ccc5F)c5ccc2[nH]5)C=C4)C=C3)cc1
REMARK SMILES IDX 23 1 22 2 21 3 20 4 19 5 17 6 18 7 16 8 15 9 1 10 2 11 3 12
REMARK SMILES IDX 4 13 14 14 5 15 6 16 13 17 7 18 12 19 8 20 11 21 9 23 10 24
REMARK SMILES IDX 24 25 25 26 26 27 27 28 28 29 29 30 90 31 30 32 89 33 31 34
REMARK SMILES IDX 32 35 33 36 83 37 34 38 88 39 82 40 84 41 35 42 87 43 81 44
REMARK SMILES IDX 80 45 36 47 68 48 48 49 67 50 49 51 52 52 66 53 85 54 50 55
REMARK SMILES IDX 51 56 65 58 86 59 53 60 37 61 38 62 46 63 39 64 45 65 47 66
REMARK SMILES IDX 44 67 40 68 41 69 42 70 43 71 69 72 70 73 78 74 71 75 77 76
REMARK SMILES IDX 79 77 76 78 72 79 73 80 74 81 75 82 54 83 55 84 63 85 56 86
REMARK SMILES IDX 62 87 64 88 61 89 57 90 58 91 59 92 60 93
REMARK H PARENT 7 22 84 46 52 57
REMARK Flexibility Score: inf
ROOT
ATOM      1  C   UNL A   1      37.879  20.080  25.030  1.00  0.00     0.202 C 
ENDROOT
BRANCH   1   2
ATOM      2  O   UNL A   1      38.008  21.502  25.037  1.00  0.00    -0.374 OA
BRANCH   2   3
ATOM      3  C   UNL A   1      36.829  22.256  24.755  1.00  0.00     0.202 C 
BRANCH   3   4
ATOM      4  C   UNL A   1      35.576  21.888  25.559  1.00  0.00     0.261 C 
BRANCH   4   5
ATOM      5  O   UNL A   1      34.384  21.860  24.751  1.00  0.00    -0.463 OA
BRANCH   5   6
ATOM      6  C   UNL A   1      33.626  20.737  24.848  1.00  0.00     0.311 C 
ATOM      7  O   UNL A   1      34.070  19.593  24.789  1.00  0.00    -0.252 OA
BRANCH   6   8
ATOM      8  C   UNL A   1      32.155  20.976  25.109  1.00  0.00     0.171 C 
BRANCH   8   9
ATOM      9  C   UNL A   1      31.791  22.304  25.694  1.00  0.00     0.039 A 
ATOM     10  C   UNL A   1      32.850  22.197  28.048  1.00  0.00     0.068 C 
ATOM     11  C   UNL A   1      32.100  22.836  26.935  1.00  0.00     0.052 A 
ATOM     12  N   UNL A   1      31.666  24.133  27.129  1.00  0.00    -0.243 NA
ATOM     13  C   UNL A   1      30.957  24.557  26.104  1.00  0.00     0.128 A 
ATOM     14  S   UNL A   1      30.968  23.491  24.758  1.00  0.00    -0.120 S 
BRANCH  13  15
ATOM     15  C   UNL A   1      30.237  25.892  26.034  1.00  0.00     0.232 C 
ATOM     16  C   UNL A   1      30.047  26.347  24.559  1.00  0.00     0.302 C 
ATOM     17  O   UNL A   1      30.937  26.835  26.869  1.00  0.00    -0.359 OA
ATOM     18  N   UNL A   1      30.512  27.687  24.181  1.00  0.00    -0.328 N 
ATOM     19  C   UNL A   1      32.070  27.401  26.210  1.00  0.00     0.226 C 
ATOM     20  C   UNL A   1      30.833  27.805  22.752  1.00  0.00     0.262 C 
ATOM     21  C   UNL A   1      31.658  28.188  24.964  1.00  0.00     0.210 C 
ATOM     22  H   UNL A   1      29.706  28.274  24.400  1.00  0.00     0.348 HD
ATOM     23  C   UNL A   1      32.065  28.693  22.685  1.00  0.00     0.068 C 
ATOM     24  C   UNL A   1      32.798  28.342  23.963  1.00  0.00     0.073 C 
ENDBRANCH  13  15
ENDBRANCH   8   9
ENDBRANCH   6   8
ENDBRANCH   5   6
ENDBRANCH   4   5
ENDBRANCH   3   4
ENDBRANCH   2   3
ENDBRANCH   1   2
BRANCH   1  25
ATOM     25  C   UNL A   1      39.100  19.275  25.493  1.00  0.00     0.261 C 
BRANCH  25  26
ATOM     26  O   UNL A   1      39.633  19.762  26.739  1.00  0.00    -0.460 OA
BRANCH  26  27
ATOM     27  C   UNL A   1      40.930  20.146  26.687  1.00  0.00     0.338 C 
ATOM     28  O   UNL A   1      41.865  19.507  26.210  1.00  0.00    -0.246 OA
BRANCH  27  29
ATOM     29  C   UNL A   1      41.076  21.550  27.107  1.00  0.00     0.060 A 
ATOM     30  C   UNL A   1      40.652  22.540  26.210  1.00  0.00     0.016 A 
ATOM     31  C   UNL A   1      41.698  21.903  28.307  1.00  0.00     0.016 A 
ATOM     32  C   UNL A   1      40.883  23.887  26.489  1.00  0.00     0.010 A 
ATOM     33  C   UNL A   1      41.941  23.258  28.578  1.00  0.00     0.010 A 
ATOM     34  C   UNL A   1      41.562  24.254  27.659  1.00  0.00    -0.014 A 
BRANCH  34  35
ATOM     35  C   UNL A   1      41.972  25.669  27.855  1.00  0.00     0.031 A 
ATOM     36  C   UNL A   1      43.339  26.108  27.404  1.00  0.00     0.074 A 
ATOM     37  C   UNL A   1      41.125  26.560  28.403  1.00  0.00     0.049 A 
ATOM     38  N   UNL A   1      43.914  27.278  27.515  1.00  0.00    -0.248 NA
ATOM     39  C   UNL A   1      44.164  25.091  26.735  1.00  0.00     0.031 C 
ATOM     40  C   UNL A   1      39.757  26.266  28.830  1.00  0.00     0.029 A 
ATOM     41  N   UNL A   1      41.292  27.890  28.701  1.00  0.00    -0.354 N 
ATOM     42  C   UNL A   1      45.171  27.140  26.933  1.00  0.00     0.074 A 
ATOM     43  C   UNL A   1      45.281  25.764  26.497  1.00  0.00     0.031 C 
ATOM     44  C   UNL A   1      39.217  27.380  29.354  1.00  0.00     0.029 A 
ATOM     45  C   UNL A   1      40.211  28.453  29.336  1.00  0.00     0.049 A 
ATOM     46  H   UNL A   1      42.110  28.392  28.481  1.00  0.00     0.167 HD
ATOM     47  C   UNL A   1      46.140  28.076  26.777  1.00  0.00     0.034 A 
ATOM     48  C   UNL A   1      40.052  29.679  29.874  1.00  0.00     0.034 A 
ATOM     49  C   UNL A   1      46.022  29.442  27.229  1.00  0.00     0.049 A 
ATOM     50  C   UNL A   1      41.185  30.674  29.781  1.00  0.00     0.074 A 
ATOM     51  C   UNL A   1      46.931  30.477  27.093  1.00  0.00     0.029 A 
ATOM     52  N   UNL A   1      44.937  29.958  27.926  1.00  0.00    -0.354 N 
ATOM     53  N   UNL A   1      42.361  30.536  29.215  1.00  0.00    -0.248 NA
ATOM     54  C   UNL A   1      40.968  31.989  30.399  1.00  0.00     0.031 C 
ATOM     55  C   UNL A   1      46.429  31.594  27.769  1.00  0.00     0.029 A 
ATOM     56  C   UNL A   1      45.174  31.282  28.264  1.00  0.00     0.049 A 
ATOM     57  H   UNL A   1      44.118  29.457  28.145  1.00  0.00     0.167 HD
ATOM     58  C   UNL A   1      43.014  31.754  29.390  1.00  0.00     0.074 A 
ATOM     59  C   UNL A   1      42.095  32.619  30.102  1.00  0.00     0.031 C 
ATOM     60  C   UNL A   1      44.258  32.127  28.994  1.00  0.00     0.034 A 
BRANCH  47  61
ATOM     61  C   UNL A   1      47.436  27.635  26.140  1.00  0.00     0.023 A 
ATOM     62  C   UNL A   1      47.675  27.782  24.763  1.00  0.00     0.031 A 
ATOM     63  C   UNL A   1      48.442  27.044  26.926  1.00  0.00     0.131 A 
ATOM     64  C   UNL A   1      48.865  27.289  24.204  1.00  0.00     0.055 A 
ATOM     65  C   UNL A   1      49.652  26.620  26.375  1.00  0.00     0.041 A 
ATOM     66  F   UNL A   1      48.261  26.861  28.243  1.00  0.00    -0.206 F 
ATOM     67  C   UNL A   1      49.865  26.730  25.004  1.00  0.00     0.022 A 
BRANCH  64  68
ATOM     68  S   UNL A   1      49.039  27.277  22.399  1.00  0.00     0.124 S 
ATOM     69  O   UNL A   1      48.172  28.387  22.009  1.00  0.00    -0.237 OA
ATOM     70  O   UNL A   1      50.469  27.490  22.218  1.00  0.00    -0.237 OA
ATOM     71  O   UNL A   1      48.552  25.953  22.015  1.00  0.00    -0.744 OA
ENDBRANCH  64  68
ENDBRANCH  47  61
BRANCH  48  72
ATOM     72  C   UNL A   1      38.801  30.024  30.609  1.00  0.00     0.023 A 
ATOM     73  C   UNL A   1      37.860  30.918  30.075  1.00  0.00     0.031 A 
ATOM     74  C   UNL A   1      38.560  29.503  31.895  1.00  0.00     0.131 A 
ATOM     75  C   UNL A   1      36.742  31.294  30.837  1.00  0.00     0.055 A 
ATOM     76  C   UNL A   1      37.422  29.841  32.628  1.00  0.00     0.041 A 
ATOM     77  F   UNL A   1      39.431  28.649  32.455  1.00  0.00    -0.206 F 
ATOM     78  C   UNL A   1      36.511  30.750  32.103  1.00  0.00     0.022 A 
BRANCH  75  79
ATOM     79  S   UNL A   1      35.632  32.570  30.183  1.00  0.00     0.124 S 
ATOM     80  O   UNL A   1      34.690  31.774  29.405  1.00  0.00    -0.237 OA
ATOM     81  O   UNL A   1      35.108  33.170  31.405  1.00  0.00    -0.237 OA
ATOM     82  O   UNL A   1      36.521  33.427  29.402  1.00  0.00    -0.744 OA
ENDBRANCH  75  79
ENDBRANCH  48  72
BRANCH  60  83
ATOM     83  C   UNL A   1      44.680  33.544  29.295  1.00  0.00     0.023 A 
ATOM     84  C   UNL A   1      44.326  34.615  28.455  1.00  0.00     0.031 A 
ATOM     85  C   UNL A   1      45.445  33.827  30.440  1.00  0.00     0.131 A 
ATOM     86  C   UNL A   1      44.776  35.911  28.748  1.00  0.00     0.055 A 
ATOM     87  C   UNL A   1      45.845  35.126  30.756  1.00  0.00     0.041 A 
ATOM     88  F   UNL A   1      45.813  32.842  31.276  1.00  0.00    -0.206 F 
ATOM     89  C   UNL A   1      45.518  36.176  29.903  1.00  0.00     0.022 A 
BRANCH  86  90
ATOM     90  S   UNL A   1      44.436  37.243  27.564  1.00  0.00     0.124 S 
ATOM     91  O   UNL A   1      44.024  38.332  28.444  1.00  0.00    -0.237 OA
ATOM     92  O   UNL A   1      45.725  37.412  26.903  1.00  0.00    -0.237 OA
ATOM     93  O   UNL A   1      43.376  36.692  26.721  1.00  0.00    -0.744 OA
ENDBRANCH  86  90
ENDBRANCH  60  83
ENDBRANCH  34  35
ENDBRANCH  27  29
ENDBRANCH  26  27
ENDBRANCH  25  26
ENDBRANCH   1  25
TORSDOF 19
ENDMDL
MODEL 2
REMARK VINA RESULT:     -10.8      2.338      7.906
REMARK SMILES Cc1nc([C@@H]2C[N@@H+]3CCC[C@@H]3CO2)sc1CC(=O)OCCOCCOC(=O)c1ccc(-c2c3nc(c(-c4cc(S(=O)(=O)[O-])ccc4F)c4ccc([nH]4)c(-c4cc(S(=O)(=O)[O-])ccc4F)c4nc(c(-c5cc(S(=O)(=O)[O-])ccc5F)c5ccc2[nH]5)C=C4)C=C3)cc1
REMARK SMILES IDX 23 1 22 2 21 3 20 4 19 5 17 6 18 7 16 8 15 9 1 10 2 11 3 12
REMARK SMILES IDX 4 13 14 14 5 15 6 16 13 17 7 18 12 19 8 20 11 21 9 23 10 24
REMARK SMILES IDX 24 25 25 26 26 27 27 28 28 29 29 30 90 31 30 32 89 33 31 34
REMARK SMILES IDX 32 35 33 36 83 37 34 38 88 39 82 40 84 41 35 42 87 43 81 44
REMARK SMILES IDX 80 45 36 47 68 48 48 49 67 50 49 51 52 52 66 53 85 54 50 55
REMARK SMILES IDX 51 56 65 58 86 59 53 60 37 61 38 62 46 63 39 64 45 65 47 66
REMARK SMILES IDX 44 67 40 68 41 69 42 70 43 71 69 72 70 73 78 74 71 75 77 76
REMARK SMILES IDX 79 77 76 78 72 79 73 80 74 81 75 82 54 83 55 84 63 85 56 86
REMARK SMILES IDX 62 87 64 88 61 89 57 90 58 91 59 92 60 93
REMARK H PARENT 7 22 84 46 52 57
REMARK Flexibility Score: inf
ROOT
ATOM      1  C   UNL A   1      37.803  20.049  25.022  1.00  0.00     0.202 C 
ENDROOT
BRANCH   1   2
ATOM      2  O   UNL A   1      37.959  21.451  24.800  1.00  0.00    -0.374 OA
BRANCH   2   3
ATOM      3  C   UNL A   1      36.905  22.296  25.262  1.00  0.00     0.202 C 
BRANCH   3   4
ATOM      4  C   UNL A   1      35.674  21.592  25.848  1.00  0.00     0.261 C 
BRANCH   4   5
ATOM      5  O   UNL A   1      34.496  21.767  25.039  1.00  0.00    -0.463 OA
BRANCH   5   6
ATOM      6  C   UNL A   1      33.674  20.691  24.945  1.00  0.00     0.311 C 
ATOM      7  O   UNL A   1      34.056  19.539  24.750  1.00  0.00    -0.252 OA
BRANCH   6   8
ATOM      8  C   UNL A   1      32.205  20.983  25.169  1.00  0.00     0.171 C 
BRANCH   8   9
ATOM      9  C   UNL A   1      31.874  22.331  25.727  1.00  0.00     0.039 A 
ATOM     10  C   UNL A   1      32.812  22.197  28.130  1.00  0.00     0.068 C 
ATOM     11  C   UNL A   1      32.147  22.859  26.977  1.00  0.00     0.052 A 
ATOM     12  N   UNL A   1      31.762  24.175  27.142  1.00  0.00    -0.243 NA
ATOM     13  C   UNL A   1      31.123  24.622  26.081  1.00  0.00     0.128 A 
ATOM     14  S   UNL A   1      31.151  23.545  24.744  1.00  0.00    -0.120 S 
BRANCH  13  15
ATOM     15  C   UNL A   1      30.468  25.987  25.967  1.00  0.00     0.232 C 
ATOM     16  C   UNL A   1      30.468  26.485  24.494  1.00  0.00     0.302 C 
ATOM     17  O   UNL A   1      31.101  26.879  26.905  1.00  0.00    -0.359 OA
ATOM     18  N   UNL A   1      31.025  27.814  24.211  1.00  0.00    -0.328 N 
ATOM     19  C   UNL A   1      32.325  27.414  26.397  1.00  0.00     0.226 C 
ATOM     20  C   UNL A   1      31.515  27.953  22.834  1.00  0.00     0.262 C 
ATOM     21  C   UNL A   1      32.091  28.247  25.136  1.00  0.00     0.210 C 
ATOM     22  H   UNL A   1      30.223  28.428  24.353  1.00  0.00     0.348 HD
ATOM     23  C   UNL A   1      32.779  28.791  22.934  1.00  0.00     0.068 C 
ATOM     24  C   UNL A   1      33.344  28.379  24.277  1.00  0.00     0.073 C 
ENDBRANCH  13  15
ENDBRANCH   8   9
ENDBRANCH   6   8
ENDBRANCH   5   6
ENDBRANCH   4   5
ENDBRANCH   3   4
ENDBRANCH   2   3
ENDBRANCH   1   2
BRANCH   1  25
ATOM     25  C   UNL A   1      39.056  19.276  25.456  1.00  0.00     0.261 C 
BRANCH  25  26
ATOM     26  O   UNL A   1      39.908  20.058  26.314  1.00  0.00    -0.460 OA
BRANCH  26  27
ATOM     27  C   UNL A   1      41.228  19.770  26.215  1.00  0.00     0.338 C 
ATOM     28  O   UNL A   1      41.719  18.705  25.849  1.00  0.00    -0.246 OA
BRANCH  27  29
ATOM     29  C   UNL A   1      42.043  20.979  26.418  1.00  0.00     0.060 A 
ATOM     30  C   UNL A   1      42.309  21.365  27.739  1.00  0.00     0.016 A 
ATOM     31  C   UNL A   1      42.464  21.776  25.351  1.00  0.00     0.016 A 
ATOM     32  C   UNL A   1      42.961  22.570  28.001  1.00  0.00     0.010 A 
ATOM     33  C   UNL A   1      43.107  22.993  25.619  1.00  0.00     0.010 A 
ATOM     34  C   UNL A   1      43.332  23.410  26.943  1.00  0.00    -0.014 A 
BRANCH  34  35
ATOM     35  C   UNL A   1      43.850  24.772  27.237  1.00  0.00     0.031 A 
ATOM     36  C   UNL A   1      42.904  25.824  27.750  1.00  0.00     0.074 A 
ATOM     37  C   UNL A   1      45.155  25.060  27.076  1.00  0.00     0.049 A 
ATOM     38  N   UNL A   1      43.133  27.082  28.030  1.00  0.00    -0.248 NA
ATOM     39  C   UNL A   1      41.516  25.397  27.981  1.00  0.00     0.031 C 
ATOM     40  C   UNL A   1      46.177  24.111  26.637  1.00  0.00     0.029 A 
ATOM     41  N   UNL A   1      45.842  26.235  27.257  1.00  0.00    -0.354 N 
ATOM     42  C   UNL A   1      41.918  27.601  28.467  1.00  0.00     0.074 A 
ATOM     43  C   UNL A   1      40.951  26.526  28.387  1.00  0.00     0.031 C 
ATOM     44  C   UNL A   1      47.359  24.748  26.563  1.00  0.00     0.029 A 
ATOM     45  C   UNL A   1      47.170  26.156  26.910  1.00  0.00     0.049 A 
ATOM     46  H   UNL A   1      45.423  27.057  27.601  1.00  0.00     0.167 HD
ATOM     47  C   UNL A   1      41.638  28.857  28.897  1.00  0.00     0.034 A 
ATOM     48  C   UNL A   1      48.117  27.115  26.844  1.00  0.00     0.034 A 
ATOM     49  C   UNL A   1      42.609  29.923  28.958  1.00  0.00     0.049 A 
ATOM     50  C   UNL A   1      47.757  28.530  27.227  1.00  0.00     0.074 A 
ATOM     51  C   UNL A   1      42.436  31.221  29.406  1.00  0.00     0.029 A 
ATOM     52  N   UNL A   1      43.929  29.821  28.538  1.00  0.00    -0.354 N 
ATOM     53  N   UNL A   1      46.608  29.004  27.654  1.00  0.00    -0.248 NA
ATOM     54  C   UNL A   1      48.819  29.540  27.121  1.00  0.00     0.031 C 
ATOM     55  C   UNL A   1      43.628  31.922  29.188  1.00  0.00     0.029 A 
ATOM     56  C   UNL A   1      44.568  31.044  28.674  1.00  0.00     0.049 A 
ATOM     57  H   UNL A   1      44.349  29.000  28.195  1.00  0.00     0.167 HD
ATOM     58  C   UNL A   1      46.819  30.361  27.887  1.00  0.00     0.074 A 
ATOM     59  C   UNL A   1      48.207  30.627  27.567  1.00  0.00     0.031 C 
ATOM     60  C   UNL A   1      45.947  31.302  28.331  1.00  0.00     0.034 A 
BRANCH  47  61
ATOM     61  C   UNL A   1      40.208  29.158  29.278  1.00  0.00     0.023 A 
ATOM     62  C   UNL A   1      39.782  29.166  30.617  1.00  0.00     0.031 A 
ATOM     63  C   UNL A   1      39.255  29.428  28.280  1.00  0.00     0.131 A 
ATOM     64  C   UNL A   1      38.427  29.378  30.917  1.00  0.00     0.055 A 
ATOM     65  C   UNL A   1      37.923  29.708  28.590  1.00  0.00     0.041 A 
ATOM     66  F   UNL A   1      39.601  29.415  26.983  1.00  0.00    -0.206 F 
ATOM     67  C   UNL A   1      37.499  29.671  29.915  1.00  0.00     0.022 A 
BRANCH  64  68
ATOM     68  S   UNL A   1      37.868  29.146  32.627  1.00  0.00     0.124 S 
ATOM     69  O   UNL A   1      36.507  29.673  32.569  1.00  0.00    -0.237 OA
ATOM     70  O   UNL A   1      37.988  27.704  32.805  1.00  0.00    -0.237 OA
ATOM     71  O   UNL A   1      38.807  29.950  33.407  1.00  0.00    -0.744 OA
ENDBRANCH  64  68
ENDBRANCH  47  61
BRANCH  48  72
ATOM     72  C   UNL A   1      49.481  26.793  26.335  1.00  0.00     0.023 A 
ATOM     73  C   UNL A   1      50.577  26.669  27.204  1.00  0.00     0.031 A 
ATOM     74  C   UNL A   1      49.717  26.663  24.953  1.00  0.00     0.131 A 
ATOM     75  C   UNL A   1      51.863  26.463  26.681  1.00  0.00     0.055 A 
ATOM     76  C   UNL A   1      50.990  26.407  24.442  1.00  0.00     0.041 A 
ATOM     77  F   UNL A   1      48.706  26.779  24.078  1.00  0.00    -0.206 F 
ATOM     78  C   UNL A   1      52.074  26.317  25.307  1.00  0.00     0.022 A 
BRANCH  75  79
ATOM     79  S   UNL A   1      53.277  26.467  27.818  1.00  0.00     0.124 S 
ATOM     80  O   UNL A   1      53.822  27.803  27.607  1.00  0.00    -0.237 OA
ATOM     81  O   UNL A   1      52.631  26.233  29.104  1.00  0.00    -0.237 OA
ATOM     82  O   UNL A   1      54.109  25.369  27.331  1.00  0.00    -0.744 OA
ENDBRANCH  75  79
ENDBRANCH  48  72
BRANCH  60  83
ATOM     83  C   UNL A   1      46.482  32.699  28.526  1.00  0.00     0.023 A 
ATOM     84  C   UNL A   1      46.596  33.603  27.455  1.00  0.00     0.031 A 
ATOM     85  C   UNL A   1      46.882  33.132  29.803  1.00  0.00     0.131 A 
ATOM     86  C   UNL A   1      47.139  34.879  27.672  1.00  0.00     0.055 A 
ATOM     87  C   UNL A   1      47.372  34.420  30.023  1.00  0.00     0.041 A 
ATOM     88  F   UNL A   1      46.797  32.309  30.860  1.00  0.00    -0.206 F 
ATOM     89  C   UNL A   1      47.511  35.299  28.952  1.00  0.00     0.022 A 
BRANCH  86  90
ATOM     90  S   UNL A   1      47.419  35.964  26.246  1.00  0.00     0.124 S 
ATOM     91  O   UNL A   1      48.683  36.604  26.595  1.00  0.00    -0.237 OA
ATOM     92  O   UNL A   1      47.469  35.018  25.136  1.00  0.00    -0.237 OA
ATOM     93  O   UNL A   1      46.254  36.848  26.252  1.00  0.00    -0.744 OA
ENDBRANCH  86  90
ENDBRANCH  60  83
ENDBRANCH  34  35
ENDBRANCH  27  29
ENDBRANCH  26  27
ENDBRANCH  25  26
ENDBRANCH   1  25
TORSDOF 19
ENDMDL
MODEL 3
REMARK VINA RESULT:     -10.6      5.261      8.947
REMARK SMILES Cc1nc([C@@H]2C[N@@H+]3CCC[C@@H]3CO2)sc1CC(=O)OCCOCCOC(=O)c1ccc(-c2c3nc(c(-c4cc(S(=O)(=O)[O-])ccc4F)c4ccc([nH]4)c(-c4cc(S(=O)(=O)[O-])ccc4F)c4nc(c(-c5cc(S(=O)(=O)[O-])ccc5F)c5ccc2[nH]5)C=C4)C=C3)cc1
REMARK SMILES IDX 23 1 22 2 21 3 20 4 19 5 17 6 18 7 16 8 15 9 1 10 2 11 3 12
REMARK SMILES IDX 4 13 14 14 5 15 6 16 13 17 7 18 12 19 8 20 11 21 9 23 10 24
REMARK SMILES IDX 24 25 25 26 26 27 27 28 28 29 29 30 90 31 30 32 89 33 31 34
REMARK SMILES IDX 32 35 33 36 83 37 34 38 88 39 82 40 84 41 35 42 87 43 81 44
REMARK SMILES IDX 80 45 36 47 68 48 48 49 67 50 49 51 52 52 66 53 85 54 50 55
REMARK SMILES IDX 51 56 65 58 86 59 53 60 37 61 38 62 46 63 39 64 45 65 47 66
REMARK SMILES IDX 44 67 40 68 41 69 42 70 43 71 69 72 70 73 78 74 71 75 77 76
REMARK SMILES IDX 79 77 76 78 72 79 73 80 74 81 75 82 54 83 55 84 63 85 56 86
REMARK SMILES IDX 62 87 64 88 61 89 57 90 58 91 59 92 60 93
REMARK H PARENT 7 22 84 46 52 57
REMARK Flexibility Score: inf
ROOT
ATOM      1  C   UNL A   1      32.231  31.654  27.179  1.00  0.00     0.202 C 
ENDROOT
BRANCH   1   2
ATOM      2  O   UNL A   1      33.406  30.915  26.839  1.00  0.00    -0.374 OA
BRANCH   2   3
ATOM      3  C   UNL A   1      33.210  29.665  26.177  1.00  0.00     0.202 C 
BRANCH   3   4
ATOM      4  C   UNL A   1      31.783  29.363  25.700  1.00  0.00     0.261 C 
BRANCH   4   5
ATOM      5  O   UNL A   1      31.708  29.134  24.280  1.00  0.00    -0.463 OA
BRANCH   5   6
ATOM      6  C   UNL A   1      30.486  29.302  23.714  1.00  0.00     0.311 C 
ATOM      7  O   UNL A   1      29.767  30.283  23.893  1.00  0.00    -0.252 OA
BRANCH   6   8
ATOM      8  C   UNL A   1      30.063  28.205  22.761  1.00  0.00     0.171 C 
BRANCH   8   9
ATOM      9  C   UNL A   1      30.684  26.862  22.976  1.00  0.00     0.039 A 
ATOM     10  C   UNL A   1      29.377  25.951  25.011  1.00  0.00     0.068 C 
ATOM     11  C   UNL A   1      30.383  25.892  23.918  1.00  0.00     0.052 A 
ATOM     12  N   UNL A   1      31.108  24.723  23.790  1.00  0.00    -0.243 NA
ATOM     13  C   UNL A   1      32.010  24.823  22.837  1.00  0.00     0.128 A 
ATOM     14  S   UNL A   1      31.880  26.253  21.898  1.00  0.00    -0.120 S 
BRANCH  13  15
ATOM     15  C   UNL A   1      33.049  23.766  22.505  1.00  0.00     0.232 C 
ATOM     16  C   UNL A   1      32.812  22.471  23.334  1.00  0.00     0.302 C 
ATOM     17  O   UNL A   1      34.359  24.346  22.656  1.00  0.00    -0.359 OA
ATOM     18  N   UNL A   1      33.935  21.929  24.110  1.00  0.00    -0.328 N 
ATOM     19  C   UNL A   1      34.790  24.355  24.017  1.00  0.00     0.226 C 
ATOM     20  C   UNL A   1      33.506  21.123  25.260  1.00  0.00     0.262 C 
ATOM     21  C   UNL A   1      34.906  22.937  24.578  1.00  0.00     0.210 C 
ATOM     22  H   UNL A   1      34.409  21.333  23.431  1.00  0.00     0.348 HD
ATOM     23  C   UNL A   1      34.486  21.449  26.374  1.00  0.00     0.068 C 
ATOM     24  C   UNL A   1      34.829  22.898  26.100  1.00  0.00     0.073 C 
ENDBRANCH  13  15
ENDBRANCH   8   9
ENDBRANCH   6   8
ENDBRANCH   5   6
ENDBRANCH   4   5
ENDBRANCH   3   4
ENDBRANCH   2   3
ENDBRANCH   1   2
BRANCH   1  25
ATOM     25  C   UNL A   1      32.334  33.183  27.103  1.00  0.00     0.261 C 
BRANCH  25  26
ATOM     26  O   UNL A   1      32.317  33.795  28.407  1.00  0.00    -0.460 OA
BRANCH  26  27
ATOM     27  C   UNL A   1      33.373  34.603  28.665  1.00  0.00     0.338 C 
ATOM     28  O   UNL A   1      33.357  35.828  28.737  1.00  0.00    -0.246 OA
BRANCH  27  29
ATOM     29  C   UNL A   1      34.552  33.811  29.057  1.00  0.00     0.060 A 
ATOM     30  C   UNL A   1      34.346  32.739  29.936  1.00  0.00     0.016 A 
ATOM     31  C   UNL A   1      35.843  34.158  28.655  1.00  0.00     0.016 A 
ATOM     32  C   UNL A   1      35.434  32.033  30.450  1.00  0.00     0.010 A 
ATOM     33  C   UNL A   1      36.935  33.455  29.184  1.00  0.00     0.010 A 
ATOM     34  C   UNL A   1      36.739  32.410  30.106  1.00  0.00    -0.014 A 
BRANCH  34  35
ATOM     35  C   UNL A   1      37.891  31.780  30.803  1.00  0.00     0.031 A 
ATOM     36  C   UNL A   1      38.683  30.712  30.097  1.00  0.00     0.074 A 
ATOM     37  C   UNL A   1      38.246  32.176  32.039  1.00  0.00     0.049 A 
ATOM     38  N   UNL A   1      39.694  30.004  30.531  1.00  0.00    -0.248 NA
ATOM     39  C   UNL A   1      38.280  30.406  28.716  1.00  0.00     0.031 C 
ATOM     40  C   UNL A   1      37.590  33.236  32.803  1.00  0.00     0.029 A 
ATOM     41  N   UNL A   1      39.240  31.726  32.873  1.00  0.00    -0.354 N 
ATOM     42  C   UNL A   1      40.049  29.165  29.480  1.00  0.00     0.074 A 
ATOM     43  C   UNL A   1      39.126  29.435  28.398  1.00  0.00     0.031 C 
ATOM     44  C   UNL A   1      38.187  33.342  34.002  1.00  0.00     0.029 A 
ATOM     45  C   UNL A   1      39.240  32.332  34.107  1.00  0.00     0.049 A 
ATOM     46  H   UNL A   1      39.890  31.035  32.612  1.00  0.00     0.167 HD
ATOM     47  C   UNL A   1      41.055  28.256  29.424  1.00  0.00     0.034 A 
ATOM     48  C   UNL A   1      39.978  32.079  35.207  1.00  0.00     0.034 A 
ATOM     49  C   UNL A   1      41.960  27.987  30.515  1.00  0.00     0.049 A 
ATOM     50  C   UNL A   1      41.023  30.990  35.156  1.00  0.00     0.074 A 
ATOM     51  C   UNL A   1      43.031  27.109  30.551  1.00  0.00     0.029 A 
ATOM     52  N   UNL A   1      41.889  28.575  31.771  1.00  0.00    -0.354 N 
ATOM     53  N   UNL A   1      41.360  30.214  34.151  1.00  0.00    -0.248 NA
ATOM     54  C   UNL A   1      41.787  30.741  36.386  1.00  0.00     0.031 C 
ATOM     55  C   UNL A   1      43.557  27.113  31.847  1.00  0.00     0.029 A 
ATOM     56  C   UNL A   1      42.866  28.047  32.601  1.00  0.00     0.049 A 
ATOM     57  H   UNL A   1      41.239  29.267  32.033  1.00  0.00     0.167 HD
ATOM     58  C   UNL A   1      42.388  29.404  34.623  1.00  0.00     0.074 A 
ATOM     59  C   UNL A   1      42.626  29.793  35.998  1.00  0.00     0.031 C 
ATOM     60  C   UNL A   1      43.079  28.429  33.978  1.00  0.00     0.034 A 
BRANCH  47  61
ATOM     61  C   UNL A   1      41.188  27.445  28.157  1.00  0.00     0.023 A 
ATOM     62  C   UNL A   1      40.794  26.097  28.093  1.00  0.00     0.031 A 
ATOM     63  C   UNL A   1      41.731  28.030  26.999  1.00  0.00     0.131 A 
ATOM     64  C   UNL A   1      41.004  25.363  26.915  1.00  0.00     0.055 A 
ATOM     65  C   UNL A   1      41.873  27.313  25.810  1.00  0.00     0.041 A 
ATOM     66  F   UNL A   1      42.142  29.307  27.009  1.00  0.00    -0.206 F 
ATOM     67  C   UNL A   1      41.521  25.968  25.766  1.00  0.00     0.022 A 
BRANCH  64  68
ATOM     68  S   UNL A   1      40.708  23.574  26.940  1.00  0.00     0.124 S 
ATOM     69  O   UNL A   1      39.283  23.504  26.626  1.00  0.00    -0.237 OA
ATOM     70  O   UNL A   1      41.615  23.089  25.906  1.00  0.00    -0.237 OA
ATOM     71  O   UNL A   1      41.057  23.187  28.306  1.00  0.00    -0.744 OA
ENDBRANCH  64  68
ENDBRANCH  47  61
BRANCH  48  72
ATOM     72  C   UNL A   1      39.719  32.819  36.476  1.00  0.00     0.023 A 
ATOM     73  C   UNL A   1      38.810  32.338  37.431  1.00  0.00     0.031 A 
ATOM     74  C   UNL A   1      40.342  34.057  36.722  1.00  0.00     0.131 A 
ATOM     75  C   UNL A   1      38.519  33.109  38.568  1.00  0.00     0.055 A 
ATOM     76  C   UNL A   1      40.087  34.795  37.878  1.00  0.00     0.041 A 
ATOM     77  F   UNL A   1      41.215  34.565  35.838  1.00  0.00    -0.206 F 
ATOM     78  C   UNL A   1      39.162  34.327  38.804  1.00  0.00     0.022 A 
BRANCH  75  79
ATOM     79  S   UNL A   1      37.222  32.536  39.701  1.00  0.00     0.124 S 
ATOM     80  O   UNL A   1      37.707  31.207  40.058  1.00  0.00    -0.237 OA
ATOM     81  O   UNL A   1      37.275  33.543  40.755  1.00  0.00    -0.237 OA
ATOM     82  O   UNL A   1      36.016  32.561  38.877  1.00  0.00    -0.744 OA
ENDBRANCH  75  79
ENDBRANCH  48  72
BRANCH  60  83
ATOM     83  C   UNL A   1      44.180  27.740  34.747  1.00  0.00     0.023 A 
ATOM     84  C   UNL A   1      45.489  28.252  34.780  1.00  0.00     0.031 A 
ATOM     85  C   UNL A   1      43.914  26.557  35.459  1.00  0.00     0.131 A 
ATOM     86  C   UNL A   1      46.494  27.559  35.472  1.00  0.00     0.055 A 
ATOM     87  C   UNL A   1      44.904  25.900  36.190  1.00  0.00     0.041 A 
ATOM     88  F   UNL A   1      42.682  26.024  35.460  1.00  0.00    -0.206 F 
ATOM     89  C   UNL A   1      46.205  26.395  36.192  1.00  0.00     0.022 A 
BRANCH  86  90
ATOM     90  S   UNL A   1      48.202  28.158  35.366  1.00  0.00     0.124 S 
ATOM     91  O   UNL A   1      48.143  29.382  36.159  1.00  0.00    -0.237 OA
ATOM     92  O   UNL A   1      48.959  27.056  35.951  1.00  0.00    -0.237 OA
ATOM     93  O   UNL A   1      48.408  28.357  33.933  1.00  0.00    -0.744 OA
ENDBRANCH  86  90
ENDBRANCH  60  83
ENDBRANCH  34  35
ENDBRANCH  27  29
ENDBRANCH  26  27
ENDBRANCH  25  26
ENDBRANCH   1  25
TORSDOF 19
ENDMDL
