MODEL 1
REMARK VINA RESULT:     -11.5      0.000      0.000
REMARK SMILES Cc1ccc2c(c1)C=C(C(=O)OCCOCCOC(=O)c1ccc(-c3c4nc(c(-c5cc(S(=O)(=O)[O-])ccc5F)c5ccc([nH]5)c(-c5cc(S(=O)(=O)[O-])ccc5F)c5nc(c(-c6cc(S(=O)(=O)[O-])ccc6F)c6ccc3[nH]6)C=C5)C=C4)cc1)[C@@H](C(F)(F)F)O2
REMARK SMILES IDX 16 1 15 2 14 3 13 4 12 5 10 6 11 7 9 8 1 9 2 10 3 11 7 12
REMARK SMILES IDX 4 13 6 14 5 15 8 16 89 17 84 18 85 19 86 20 87 21 88 22
REMARK SMILES IDX 17 23 18 24 19 25 20 26 21 27 22 28 83 29 23 30 82 31 24 32
REMARK SMILES IDX 25 33 26 34 76 35 27 36 81 37 75 38 77 39 28 40 80 41 74 42
REMARK SMILES IDX 73 43 29 45 61 46 41 47 60 48 42 49 45 50 59 51 78 52 43 53
REMARK SMILES IDX 44 54 58 56 79 57 46 58 30 59 31 60 39 61 32 62 38 63 40 64
REMARK SMILES IDX 37 65 33 66 34 67 35 68 36 69 62 70 63 71 71 72 64 73 70 74
REMARK SMILES IDX 72 75 69 76 65 77 66 78 67 79 68 80 47 81 48 82 56 83 49 84
REMARK SMILES IDX 55 85 57 86 54 87 50 88 51 89 52 90 53 91
REMARK H PARENT 77 44 45 55
REMARK Flexibility Score: inf
ROOT
ATOM      1  C   UNL A   1      31.842  30.434  25.497  1.00  0.00     0.202 C 
ENDROOT
BRANCH   1   2
ATOM      2  O   UNL A   1      32.187  29.062  25.680  1.00  0.00    -0.374 OA
BRANCH   2   3
ATOM      3  C   UNL A   1      33.475  28.621  25.256  1.00  0.00     0.202 C 
BRANCH   3   4
ATOM      4  C   UNL A   1      33.653  27.136  24.924  1.00  0.00     0.261 C 
BRANCH   4   5
ATOM      5  O   UNL A   1      33.328  26.841  23.557  1.00  0.00    -0.460 OA
BRANCH   5   6
ATOM      6  C   UNL A   1      32.377  25.892  23.402  1.00  0.00     0.338 C 
ATOM      7  O   UNL A   1      32.533  24.681  23.439  1.00  0.00    -0.246 OA
BRANCH   6   8
ATOM      8  C   UNL A   1      31.049  26.527  23.312  1.00  0.00     0.087 C 
ATOM      9  C   UNL A   1      28.497  31.827  21.525  1.00  0.00     0.044 C 
ATOM     10  C   UNL A   1      28.539  30.460  22.140  1.00  0.00    -0.050 A 
ATOM     11  C   UNL A   1      27.422  29.923  22.788  1.00  0.00     0.007 A 
ATOM     12  C   UNL A   1      29.703  29.689  22.046  1.00  0.00     0.015 A 
ATOM     13  C   UNL A   1      27.471  28.639  23.337  1.00  0.00     0.047 A 
ATOM     14  C   UNL A   1      29.764  28.419  22.630  1.00  0.00     0.017 A 
ATOM     15  C   UNL A   1      28.641  27.887  23.261  1.00  0.00     0.128 A 
ATOM     16  C   UNL A   1      31.012  27.683  22.638  1.00  0.00     0.027 C 
ATOM     17  O   UNL A   1      28.606  26.644  23.823  1.00  0.00    -0.475 OA
ATOM     18  C   UNL A   1      29.851  25.899  23.974  1.00  0.00     0.316 C 
BRANCH  18  19
ATOM     19  C   UNL A   1      30.079  25.637  25.469  1.00  0.00     0.430 C 
ATOM     20  F   UNL A   1      30.708  26.681  26.061  1.00  0.00    -0.167 F 
ATOM     21  F   UNL A   1      28.913  25.458  26.132  1.00  0.00    -0.167 F 
ATOM     22  F   UNL A   1      30.836  24.536  25.677  1.00  0.00    -0.167 F 
ENDBRANCH  18  19
ENDBRANCH   6   8
ENDBRANCH   5   6
ENDBRANCH   4   5
ENDBRANCH   3   4
ENDBRANCH   2   3
ENDBRANCH   1   2
BRANCH   1  23
ATOM     23  C   UNL A   1      31.841  31.368  26.714  1.00  0.00     0.261 C 
BRANCH  23  24
ATOM     24  O   UNL A   1      32.942  31.140  27.607  1.00  0.00    -0.460 OA
BRANCH  24  25
ATOM     25  C   UNL A   1      33.824  32.169  27.690  1.00  0.00     0.338 C 
ATOM     26  O   UNL A   1      33.569  33.361  27.609  1.00  0.00    -0.246 OA
BRANCH  25  27
ATOM     27  C   UNL A   1      35.142  31.653  28.108  1.00  0.00     0.060 A 
ATOM     28  C   UNL A   1      36.232  32.506  28.278  1.00  0.00     0.016 A 
ATOM     29  C   UNL A   1      35.261  30.282  28.370  1.00  0.00     0.016 A 
ATOM     30  C   UNL A   1      37.441  31.981  28.745  1.00  0.00     0.010 A 
ATOM     31  C   UNL A   1      36.468  29.762  28.837  1.00  0.00     0.010 A 
ATOM     32  C   UNL A   1      37.562  30.611  29.050  1.00  0.00    -0.014 A 
BRANCH  32  33
ATOM     33  C   UNL A   1      38.780  30.104  29.731  1.00  0.00     0.031 A 
ATOM     34  C   UNL A   1      39.203  30.610  31.077  1.00  0.00     0.074 A 
ATOM     35  C   UNL A   1      39.528  29.184  29.091  1.00  0.00     0.049 A 
ATOM     36  N   UNL A   1      40.189  30.199  31.831  1.00  0.00    -0.248 NA
ATOM     37  C   UNL A   1      38.430  31.722  31.649  1.00  0.00     0.031 C 
ATOM     38  C   UNL A   1      39.243  28.670  27.751  1.00  0.00     0.029 A 
ATOM     39  N   UNL A   1      40.664  28.515  29.471  1.00  0.00    -0.354 N 
ATOM     40  C   UNL A   1      40.150  30.985  32.976  1.00  0.00     0.074 A 
ATOM     41  C   UNL A   1      39.074  31.936  32.791  1.00  0.00     0.031 C 
ATOM     42  C   UNL A   1      40.155  27.740  27.436  1.00  0.00     0.029 A 
ATOM     43  C   UNL A   1      41.114  27.616  28.532  1.00  0.00     0.049 A 
ATOM     44  H   UNL A   1      41.115  28.664  30.334  1.00  0.00     0.167 HD
ATOM     45  C   UNL A   1      40.926  30.898  34.082  1.00  0.00     0.034 A 
ATOM     46  C   UNL A   1      42.173  26.780  28.546  1.00  0.00     0.034 A 
ATOM     47  C   UNL A   1      42.001  29.947  34.238  1.00  0.00     0.049 A 
ATOM     48  C   UNL A   1      43.031  26.714  29.784  1.00  0.00     0.074 A 
ATOM     49  C   UNL A   1      42.805  29.744  35.347  1.00  0.00     0.029 A 
ATOM     50  N   UNL A   1      42.435  29.054  33.268  1.00  0.00    -0.354 N 
ATOM     51  N   UNL A   1      42.901  27.373  30.912  1.00  0.00    -0.248 NA
ATOM     52  C   UNL A   1      44.166  25.781  29.765  1.00  0.00     0.031 C 
ATOM     53  C   UNL A   1      43.774  28.797  35.019  1.00  0.00     0.029 A 
ATOM     54  C   UNL A   1      43.519  28.329  33.740  1.00  0.00     0.049 A 
ATOM     55  H   UNL A   1      42.032  28.951  32.375  1.00  0.00     0.167 HD
ATOM     56  C   UNL A   1      43.919  26.915  31.744  1.00  0.00     0.074 A 
ATOM     57  C   UNL A   1      44.636  25.901  31.000  1.00  0.00     0.031 C 
ATOM     58  C   UNL A   1      44.229  27.306  33.007  1.00  0.00     0.034 A 
BRANCH  45  59
ATOM     59  C   UNL A   1      40.645  31.821  35.246  1.00  0.00     0.023 A 
ATOM     60  C   UNL A   1      39.519  31.604  36.064  1.00  0.00     0.031 A 
ATOM     61  C   UNL A   1      41.386  33.000  35.438  1.00  0.00     0.131 A 
ATOM     62  C   UNL A   1      39.140  32.576  37.000  1.00  0.00     0.055 A 
ATOM     63  C   UNL A   1      41.033  33.942  36.406  1.00  0.00     0.041 A 
ATOM     64  F   UNL A   1      42.463  33.260  34.678  1.00  0.00    -0.206 F 
ATOM     65  C   UNL A   1      39.896  33.739  37.181  1.00  0.00     0.022 A 
BRANCH  62  66
ATOM     66  S   UNL A   1      37.605  32.413  37.953  1.00  0.00     0.124 S 
ATOM     67  O   UNL A   1      37.445  30.961  38.015  1.00  0.00    -0.237 OA
ATOM     68  O   UNL A   1      37.961  33.055  39.215  1.00  0.00    -0.237 OA
ATOM     69  O   UNL A   1      36.613  33.112  37.145  1.00  0.00    -0.744 OA
ENDBRANCH  62  66
ENDBRANCH  45  59
BRANCH  46  70
ATOM     70  C   UNL A   1      42.413  25.896  27.368  1.00  0.00     0.023 A 
ATOM     71  C   UNL A   1      41.928  24.574  27.348  1.00  0.00     0.031 A 
ATOM     72  C   UNL A   1      43.229  26.314  26.304  1.00  0.00     0.131 A 
ATOM     73  C   UNL A   1      42.326  23.700  26.328  1.00  0.00     0.055 A 
ATOM     74  C   UNL A   1      43.557  25.462  25.247  1.00  0.00     0.041 A 
ATOM     75  F   UNL A   1      43.731  27.558  26.285  1.00  0.00    -0.206 F 
ATOM     76  C   UNL A   1      43.121  24.141  25.267  1.00  0.00     0.022 A 
BRANCH  73  77
ATOM     77  S   UNL A   1      41.950  21.928  26.427  1.00  0.00     0.124 S 
ATOM     78  O   UNL A   1      42.744  21.386  25.329  1.00  0.00    -0.237 OA
ATOM     79  O   UNL A   1      42.421  21.599  27.770  1.00  0.00    -0.237 OA
ATOM     80  O   UNL A   1      40.503  21.872  26.247  1.00  0.00    -0.744 OA
ENDBRANCH  73  77
ENDBRANCH  46  70
BRANCH  58  81
ATOM     81  C   UNL A   1      45.397  26.648  33.709  1.00  0.00     0.023 A 
ATOM     82  C   UNL A   1      45.184  25.508  34.510  1.00  0.00     0.031 A 
ATOM     83  C   UNL A   1      46.675  27.234  33.721  1.00  0.00     0.131 A 
ATOM     84  C   UNL A   1      46.213  25.026  35.330  1.00  0.00     0.055 A 
ATOM     85  C   UNL A   1      47.714  26.713  34.494  1.00  0.00     0.041 A 
ATOM     86  F   UNL A   1      46.930  28.330  32.988  1.00  0.00    -0.206 F 
ATOM     87  C   UNL A   1      47.480  25.615  35.317  1.00  0.00     0.022 A 
BRANCH  84  88
ATOM     88  S   UNL A   1      45.914  23.689  36.520  1.00  0.00     0.124 S 
ATOM     89  O   UNL A   1      44.772  23.003  35.922  1.00  0.00    -0.237 OA
ATOM     90  O   UNL A   1      47.175  22.952  36.475  1.00  0.00    -0.237 OA
ATOM     91  O   UNL A   1      45.637  24.385  37.772  1.00  0.00    -0.744 OA
ENDBRANCH  84  88
ENDBRANCH  58  81
ENDBRANCH  32  33
ENDBRANCH  25  27
ENDBRANCH  24  25
ENDBRANCH  23  24
ENDBRANCH   1  23
TORSDOF 18
ENDMDL
MODEL 2
REMARK VINA RESULT:     -11.5      1.819      3.443
REMARK SMILES Cc1ccc2c(c1)C=C(C(=O)OCCOCCOC(=O)c1ccc(-c3c4nc(c(-c5cc(S(=O)(=O)[O-])ccc5F)c5ccc([nH]5)c(-c5cc(S(=O)(=O)[O-])ccc5F)c5nc(c(-c6cc(S(=O)(=O)[O-])ccc6F)c6ccc3[nH]6)C=C5)C=C4)cc1)[C@@H](C(F)(F)F)O2
REMARK SMILES IDX 16 1 15 2 14 3 13 4 12 5 10 6 11 7 9 8 1 9 2 10 3 11 7 12
REMARK SMILES IDX 4 13 6 14 5 15 8 16 89 17 84 18 85 19 86 20 87 21 88 22
REMARK SMILES IDX 17 23 18 24 19 25 20 26 21 27 22 28 83 29 23 30 82 31 24 32
REMARK SMILES IDX 25 33 26 34 76 35 27 36 81 37 75 38 77 39 28 40 80 41 74 42
REMARK SMILES IDX 73 43 29 45 61 46 41 47 60 48 42 49 45 50 59 51 78 52 43 53
REMARK SMILES IDX 44 54 58 56 79 57 46 58 30 59 31 60 39 61 32 62 38 63 40 64
REMARK SMILES IDX 37 65 33 66 34 67 35 68 36 69 62 70 63 71 71 72 64 73 70 74
REMARK SMILES IDX 72 75 69 76 65 77 66 78 67 79 68 80 47 81 48 82 56 83 49 84
REMARK SMILES IDX 55 85 57 86 54 87 50 88 51 89 52 90 53 91
REMARK H PARENT 77 44 45 55
REMARK Flexibility Score: inf
ROOT
ATOM      1  C   UNL A   1      31.433  29.880  25.355  1.00  0.00     0.202 C 
ENDROOT
BRANCH   1   2
ATOM      2  O   UNL A   1      31.176  28.695  24.603  1.00  0.00    -0.374 OA
BRANCH   2   3
ATOM      3  C   UNL A   1      31.348  28.737  23.188  1.00  0.00     0.202 C 
BRANCH   3   4
ATOM      4  C   UNL A   1      30.757  27.592  22.359  1.00  0.00     0.261 C 
BRANCH   4   5
ATOM      5  O   UNL A   1      31.558  26.402  22.426  1.00  0.00    -0.460 OA
BRANCH   5   6
ATOM      6  C   UNL A   1      31.102  25.470  23.294  1.00  0.00     0.338 C 
ATOM      7  O   UNL A   1      29.970  25.374  23.742  1.00  0.00    -0.246 OA
BRANCH   6   8
ATOM      8  C   UNL A   1      32.150  24.462  23.538  1.00  0.00     0.087 C 
ATOM      9  C   UNL A   1      32.691  18.445  24.679  1.00  0.00     0.044 C 
ATOM     10  C   UNL A   1      33.158  19.861  24.519  1.00  0.00    -0.050 A 
ATOM     11  C   UNL A   1      34.477  20.226  24.807  1.00  0.00     0.007 A 
ATOM     12  C   UNL A   1      32.273  20.837  24.046  1.00  0.00     0.015 A 
ATOM     13  C   UNL A   1      34.901  21.546  24.631  1.00  0.00     0.047 A 
ATOM     14  C   UNL A   1      32.688  22.166  23.908  1.00  0.00     0.017 A 
ATOM     15  C   UNL A   1      34.007  22.517  24.185  1.00  0.00     0.128 A 
ATOM     16  C   UNL A   1      31.731  23.191  23.542  1.00  0.00     0.027 C 
ATOM     17  O   UNL A   1      34.501  23.781  24.041  1.00  0.00    -0.475 OA
ATOM     18  C   UNL A   1      33.573  24.880  23.793  1.00  0.00     0.316 C 
BRANCH  18  19
ATOM     19  C   UNL A   1      33.691  25.881  24.951  1.00  0.00     0.430 C 
ATOM     20  F   UNL A   1      34.729  25.572  25.764  1.00  0.00    -0.167 F 
ATOM     21  F   UNL A   1      33.906  27.141  24.506  1.00  0.00    -0.167 F 
ATOM     22  F   UNL A   1      32.573  25.906  25.711  1.00  0.00    -0.167 F 
ENDBRANCH  18  19
ENDBRANCH   6   8
ENDBRANCH   5   6
ENDBRANCH   4   5
ENDBRANCH   3   4
ENDBRANCH   2   3
ENDBRANCH   1   2
BRANCH   1  23
ATOM     23  C   UNL A   1      32.856  30.141  25.868  1.00  0.00     0.261 C 
BRANCH  23  24
ATOM     24  O   UNL A   1      32.905  30.488  27.260  1.00  0.00    -0.460 OA
BRANCH  24  25
ATOM     25  C   UNL A   1      33.669  31.574  27.544  1.00  0.00     0.338 C 
ATOM     26  O   UNL A   1      33.294  32.735  27.619  1.00  0.00    -0.246 OA
BRANCH  25  27
ATOM     27  C   UNL A   1      35.013  31.132  27.964  1.00  0.00     0.060 A 
ATOM     28  C   UNL A   1      36.082  32.026  28.029  1.00  0.00     0.016 A 
ATOM     29  C   UNL A   1      35.180  29.792  28.337  1.00  0.00     0.016 A 
ATOM     30  C   UNL A   1      37.318  31.576  28.502  1.00  0.00     0.010 A 
ATOM     31  C   UNL A   1      36.414  29.347  28.810  1.00  0.00     0.010 A 
ATOM     32  C   UNL A   1      37.488  30.241  28.917  1.00  0.00    -0.014 A 
BRANCH  32  33
ATOM     33  C   UNL A   1      38.739  29.827  29.603  1.00  0.00     0.031 A 
ATOM     34  C   UNL A   1      39.134  30.388  30.936  1.00  0.00     0.074 A 
ATOM     35  C   UNL A   1      39.542  28.944  28.978  1.00  0.00     0.049 A 
ATOM     36  N   UNL A   1      40.148  30.058  31.692  1.00  0.00    -0.248 NA
ATOM     37  C   UNL A   1      38.294  31.460  31.489  1.00  0.00     0.031 C 
ATOM     38  C   UNL A   1      39.285  28.385  27.650  1.00  0.00     0.029 A 
ATOM     39  N   UNL A   1      40.721  28.358  29.365  1.00  0.00    -0.354 N 
ATOM     40  C   UNL A   1      40.063  30.863  32.821  1.00  0.00     0.074 A 
ATOM     41  C   UNL A   1      38.927  31.739  32.622  1.00  0.00     0.031 C 
ATOM     42  C   UNL A   1      40.253  27.509  27.349  1.00  0.00     0.029 A 
ATOM     43  C   UNL A   1      41.224  27.470  28.442  1.00  0.00     0.049 A 
ATOM     44  H   UNL A   1      41.164  28.553  30.222  1.00  0.00     0.167 HD
ATOM     45  C   UNL A   1      40.848  30.849  33.925  1.00  0.00     0.034 A 
ATOM     46  C   UNL A   1      42.334  26.704  28.467  1.00  0.00     0.034 A 
ATOM     47  C   UNL A   1      41.982  29.973  34.094  1.00  0.00     0.049 A 
ATOM     48  C   UNL A   1      43.200  26.720  29.702  1.00  0.00     0.074 A 
ATOM     49  C   UNL A   1      42.803  29.845  35.202  1.00  0.00     0.029 A 
ATOM     50  N   UNL A   1      42.468  29.090  33.140  1.00  0.00    -0.354 N 
ATOM     51  N   UNL A   1      43.033  27.392  30.817  1.00  0.00    -0.248 NA
ATOM     52  C   UNL A   1      44.392  25.861  29.697  1.00  0.00     0.031 C 
ATOM     53  C   UNL A   1      43.829  28.956  34.889  1.00  0.00     0.029 A 
ATOM     54  C   UNL A   1      43.599  28.446  33.621  1.00  0.00     0.049 A 
ATOM     55  H   UNL A   1      42.069  28.942  32.252  1.00  0.00     0.167 HD
ATOM     56  C   UNL A   1      44.081  27.018  31.653  1.00  0.00     0.074 A 
ATOM     57  C   UNL A   1      44.859  26.037  30.926  1.00  0.00     0.031 C 
ATOM     58  C   UNL A   1      44.370  27.454  32.905  1.00  0.00     0.034 A 
BRANCH  45  59
ATOM     59  C   UNL A   1      40.513  31.776  35.071  1.00  0.00     0.023 A 
ATOM     60  C   UNL A   1      39.530  31.412  36.011  1.00  0.00     0.031 A 
ATOM     61  C   UNL A   1      41.038  33.079  35.132  1.00  0.00     0.131 A 
ATOM     62  C   UNL A   1      39.068  32.356  36.938  1.00  0.00     0.055 A 
ATOM     63  C   UNL A   1      40.611  34.000  36.091  1.00  0.00     0.041 A 
ATOM     64  F   UNL A   1      41.971  33.482  34.253  1.00  0.00    -0.206 F 
ATOM     65  C   UNL A   1      39.609  33.645  36.989  1.00  0.00     0.022 A 
BRANCH  62  66
ATOM     66  S   UNL A   1      37.688  31.978  38.053  1.00  0.00     0.124 S 
ATOM     67  O   UNL A   1      36.708  32.994  37.672  1.00  0.00    -0.237 OA
ATOM     68  O   UNL A   1      37.350  30.611  37.666  1.00  0.00    -0.237 OA
ATOM     69  O   UNL A   1      38.259  32.136  39.385  1.00  0.00    -0.744 OA
ENDBRANCH  62  66
ENDBRANCH  45  59
BRANCH  46  70
ATOM     70  C   UNL A   1      42.625  25.812  27.307  1.00  0.00     0.023 A 
ATOM     71  C   UNL A   1      42.097  24.509  27.250  1.00  0.00     0.031 A 
ATOM     72  C   UNL A   1      43.527  26.203  26.305  1.00  0.00     0.131 A 
ATOM     73  C   UNL A   1      42.535  23.621  26.258  1.00  0.00     0.055 A 
ATOM     74  C   UNL A   1      43.900  25.340  25.271  1.00  0.00     0.041 A 
ATOM     75  F   UNL A   1      44.072  27.428  26.324  1.00  0.00    -0.206 F 
ATOM     76  C   UNL A   1      43.417  24.035  25.256  1.00  0.00     0.022 A 
BRANCH  73  77
ATOM     77  S   UNL A   1      42.092  21.864  26.325  1.00  0.00     0.124 S 
ATOM     78  O   UNL A   1      42.448  21.512  27.696  1.00  0.00    -0.237 OA
ATOM     79  O   UNL A   1      40.661  21.907  26.036  1.00  0.00    -0.237 OA
ATOM     80  O   UNL A   1      42.917  21.260  25.284  1.00  0.00    -0.744 OA
ENDBRANCH  73  77
ENDBRANCH  46  70
BRANCH  58  81
ATOM     81  C   UNL A   1      45.582  26.888  33.615  1.00  0.00     0.023 A 
ATOM     82  C   UNL A   1      45.441  25.768  34.459  1.00  0.00     0.031 A 
ATOM     83  C   UNL A   1      46.824  27.544  33.589  1.00  0.00     0.131 A 
ATOM     84  C   UNL A   1      46.505  25.374  35.281  1.00  0.00     0.055 A 
ATOM     85  C   UNL A   1      47.901  27.109  34.365  1.00  0.00     0.041 A 
ATOM     86  F   UNL A   1      47.010  28.624  32.813  1.00  0.00    -0.206 F 
ATOM     87  C   UNL A   1      47.737  26.031  35.230  1.00  0.00     0.022 A 
BRANCH  84  88
ATOM     88  S   UNL A   1      46.295  24.066  36.522  1.00  0.00     0.124 S 
ATOM     89  O   UNL A   1      47.215  23.040  36.038  1.00  0.00    -0.237 OA
ATOM     90  O   UNL A   1      46.705  24.741  37.751  1.00  0.00    -0.237 OA
ATOM     91  O   UNL A   1      44.879  23.722  36.436  1.00  0.00    -0.744 OA
ENDBRANCH  84  88
ENDBRANCH  58  81
ENDBRANCH  32  33
ENDBRANCH  25  27
ENDBRANCH  24  25
ENDBRANCH  23  24
ENDBRANCH   1  23
TORSDOF 18
ENDMDL
MODEL 3
REMARK VINA RESULT:     -11.5      5.604      8.769
REMARK SMILES Cc1ccc2c(c1)C=C(C(=O)OCCOCCOC(=O)c1ccc(-c3c4nc(c(-c5cc(S(=O)(=O)[O-])ccc5F)c5ccc([nH]5)c(-c5cc(S(=O)(=O)[O-])ccc5F)c5nc(c(-c6cc(S(=O)(=O)[O-])ccc6F)c6ccc3[nH]6)C=C5)C=C4)cc1)[C@@H](C(F)(F)F)O2
REMARK SMILES IDX 16 1 15 2 14 3 13 4 12 5 10 6 11 7 9 8 1 9 2 10 3 11 7 12
REMARK SMILES IDX 4 13 6 14 5 15 8 16 89 17 84 18 85 19 86 20 87 21 88 22
REMARK SMILES IDX 17 23 18 24 19 25 20 26 21 27 22 28 83 29 23 30 82 31 24 32
REMARK SMILES IDX 25 33 26 34 76 35 27 36 81 37 75 38 77 39 28 40 80 41 74 42
REMARK SMILES IDX 73 43 29 45 61 46 41 47 60 48 42 49 45 50 59 51 78 52 43 53
REMARK SMILES IDX 44 54 58 56 79 57 46 58 30 59 31 60 39 61 32 62 38 63 40 64
REMARK SMILES IDX 37 65 33 66 34 67 35 68 36 69 62 70 63 71 71 72 64 73 70 74
REMARK SMILES IDX 72 75 69 76 65 77 66 78 67 79 68 80 47 81 48 82 56 83 49 84
REMARK SMILES IDX 55 85 57 86 54 87 50 88 51 89 52 90 53 91
REMARK H PARENT 77 44 45 55
REMARK Flexibility Score: inf
ROOT
ATOM      1  C   UNL A   1      37.794  20.363  24.974  1.00  0.00     0.202 C 
ENDROOT
BRANCH   1   2
ATOM      2  O   UNL A   1      37.474  21.530  25.730  1.00  0.00    -0.374 OA
BRANCH   2   3
ATOM      3  C   UNL A   1      37.149  22.728  25.029  1.00  0.00     0.202 C 
BRANCH   3   4
ATOM      4  C   UNL A   1      36.121  23.673  25.659  1.00  0.00     0.261 C 
BRANCH   4   5
ATOM      5  O   UNL A   1      35.002  22.966  26.216  1.00  0.00    -0.460 OA
BRANCH   5   6
ATOM      6  C   UNL A   1      33.804  23.319  25.695  1.00  0.00     0.338 C 
ATOM      7  O   UNL A   1      33.257  24.407  25.781  1.00  0.00    -0.246 OA
BRANCH   6   8
ATOM      8  C   UNL A   1      33.280  22.221  24.862  1.00  0.00     0.087 C 
ATOM      9  C   UNL A   1      33.345  16.078  24.617  1.00  0.00     0.044 C 
ATOM     10  C   UNL A   1      33.057  17.470  24.139  1.00  0.00    -0.050 A 
ATOM     11  C   UNL A   1      32.522  17.702  22.868  1.00  0.00     0.007 A 
ATOM     12  C   UNL A   1      33.300  18.561  24.982  1.00  0.00     0.015 A 
ATOM     13  C   UNL A   1      32.239  19.005  22.446  1.00  0.00     0.047 A 
ATOM     14  C   UNL A   1      33.053  19.867  24.544  1.00  0.00     0.017 A 
ATOM     15  C   UNL A   1      32.507  20.087  23.281  1.00  0.00     0.128 A 
ATOM     16  C   UNL A   1      33.427  20.993  25.374  1.00  0.00     0.027 C 
ATOM     17  O   UNL A   1      32.203  21.325  22.793  1.00  0.00    -0.475 OA
ATOM     18  C   UNL A   1      32.660  22.504  23.520  1.00  0.00     0.316 C 
BRANCH  18  19
ATOM     19  C   UNL A   1      33.592  23.307  22.601  1.00  0.00     0.430 C 
ATOM     20  F   UNL A   1      33.276  23.121  21.297  1.00  0.00    -0.167 F 
ATOM     21  F   UNL A   1      33.508  24.636  22.838  1.00  0.00    -0.167 F 
ATOM     22  F   UNL A   1      34.886  22.948  22.761  1.00  0.00    -0.167 F 
ENDBRANCH  18  19
ENDBRANCH   6   8
ENDBRANCH   5   6
ENDBRANCH   4   5
ENDBRANCH   3   4
ENDBRANCH   2   3
ENDBRANCH   1   2
BRANCH   1  23
ATOM     23  C   UNL A   1      39.019  19.531  25.375  1.00  0.00     0.261 C 
BRANCH  23  24
ATOM     24  O   UNL A   1      39.527  19.858  26.678  1.00  0.00    -0.460 OA
BRANCH  24  25
ATOM     25  C   UNL A   1      40.855  20.139  26.712  1.00  0.00     0.338 C 
ATOM     26  O   UNL A   1      41.767  19.413  26.344  1.00  0.00    -0.246 OA
BRANCH  25  27
ATOM     27  C   UNL A   1      41.048  21.556  27.074  1.00  0.00     0.060 A 
ATOM     28  C   UNL A   1      41.724  21.921  28.238  1.00  0.00     0.016 A 
ATOM     29  C   UNL A   1      40.567  22.533  26.192  1.00  0.00     0.016 A 
ATOM     30  C   UNL A   1      41.946  23.276  28.501  1.00  0.00     0.010 A 
ATOM     31  C   UNL A   1      40.792  23.884  26.457  1.00  0.00     0.010 A 
ATOM     32  C   UNL A   1      41.502  24.266  27.602  1.00  0.00    -0.014 A 
BRANCH  32  33
ATOM     33  C   UNL A   1      41.917  25.680  27.788  1.00  0.00     0.031 A 
ATOM     34  C   UNL A   1      41.022  26.688  28.443  1.00  0.00     0.074 A 
ATOM     35  C   UNL A   1      43.124  26.053  27.320  1.00  0.00     0.049 A 
ATOM     36  N   UNL A   1      41.282  27.932  28.752  1.00  0.00    -0.248 NA
ATOM     37  C   UNL A   1      39.661  26.253  28.790  1.00  0.00     0.031 C 
ATOM     38  C   UNL A   1      44.048  25.169  26.608  1.00  0.00     0.029 A 
ATOM     39  N   UNL A   1      43.786  27.254  27.373  1.00  0.00    -0.354 N 
ATOM     40  C   UNL A   1      40.129  28.428  29.347  1.00  0.00     0.074 A 
ATOM     41  C   UNL A   1      39.147  27.364  29.303  1.00  0.00     0.031 C 
ATOM     42  C   UNL A   1      45.170  25.844  26.326  1.00  0.00     0.029 A 
ATOM     43  C   UNL A   1      45.035  27.221  26.798  1.00  0.00     0.049 A 
ATOM     44  H   UNL A   1      43.403  28.063  27.783  1.00  0.00     0.167 HD
ATOM     45  C   UNL A   1      39.924  29.649  29.897  1.00  0.00     0.034 A 
ATOM     46  C   UNL A   1      45.973  28.181  26.667  1.00  0.00     0.034 A 
ATOM     47  C   UNL A   1      40.917  30.697  29.918  1.00  0.00     0.049 A 
ATOM     48  C   UNL A   1      45.715  29.537  27.275  1.00  0.00     0.074 A 
ATOM     49  C   UNL A   1      40.822  31.948  30.504  1.00  0.00     0.029 A 
ATOM     50  N   UNL A   1      42.169  30.634  29.324  1.00  0.00    -0.354 N 
ATOM     51  N   UNL A   1      44.668  29.951  27.950  1.00  0.00    -0.248 NA
ATOM     52  C   UNL A   1      46.767  30.552  27.124  1.00  0.00     0.031 C 
ATOM     53  C   UNL A   1      41.975  32.667  30.193  1.00  0.00     0.029 A 
ATOM     54  C   UNL A   1      42.839  31.837  29.496  1.00  0.00     0.049 A 
ATOM     55  H   UNL A   1      42.530  29.850  28.849  1.00  0.00     0.167 HD
ATOM     56  C   UNL A   1      44.946  31.262  28.326  1.00  0.00     0.074 A 
ATOM     57  C   UNL A   1      46.273  31.561  27.830  1.00  0.00     0.031 C 
ATOM     58  C   UNL A   1      44.169  32.135  29.015  1.00  0.00     0.034 A 
BRANCH  45  59
ATOM     59  C   UNL A   1      38.598  29.939  30.561  1.00  0.00     0.023 A 
ATOM     60  C   UNL A   1      37.639  30.735  29.905  1.00  0.00     0.031 A 
ATOM     61  C   UNL A   1      38.356  29.575  31.897  1.00  0.00     0.131 A 
ATOM     62  C   UNL A   1      36.509  31.182  30.604  1.00  0.00     0.055 A 
ATOM     63  C   UNL A   1      37.203  29.981  32.573  1.00  0.00     0.041 A 
ATOM     64  F   UNL A   1      39.243  28.825  32.572  1.00  0.00    -0.206 F 
ATOM     65  C   UNL A   1      36.282  30.802  31.931  1.00  0.00     0.022 A 
BRANCH  62  66
ATOM     66  S   UNL A   1      35.337  32.343  29.849  1.00  0.00     0.124 S 
ATOM     67  O   UNL A   1      36.217  33.444  29.458  1.00  0.00    -0.237 OA
ATOM     68  O   UNL A   1      34.798  31.555  28.744  1.00  0.00    -0.237 OA
ATOM     69  O   UNL A   1      34.402  32.648  30.925  1.00  0.00    -0.744 OA
ENDBRANCH  62  66
ENDBRANCH  45  59
BRANCH  46  70
ATOM     70  C   UNL A   1      47.263  27.848  25.996  1.00  0.00     0.023 A 
ATOM     71  C   UNL A   1      47.415  28.009  24.605  1.00  0.00     0.031 A 
ATOM     72  C   UNL A   1      48.316  27.252  26.709  1.00  0.00     0.131 A 
ATOM     73  C   UNL A   1      48.558  27.511  23.966  1.00  0.00     0.055 A 
ATOM     74  C   UNL A   1      49.488  26.829  26.078  1.00  0.00     0.041 A 
ATOM     75  F   UNL A   1      48.213  27.060  28.032  1.00  0.00    -0.206 F 
ATOM     76  C   UNL A   1      49.604  26.941  24.695  1.00  0.00     0.022 A 
BRANCH  73  77
ATOM     77  S   UNL A   1      48.654  27.451  22.156  1.00  0.00     0.124 S 
ATOM     78  O   UNL A   1      48.653  26.014  21.898  1.00  0.00    -0.237 OA
ATOM     79  O   UNL A   1      47.439  28.163  21.770  1.00  0.00    -0.237 OA
ATOM     80  O   UNL A   1      49.901  28.145  21.853  1.00  0.00    -0.744 OA
ENDBRANCH  73  77
ENDBRANCH  46  70
BRANCH  58  81
ATOM     81  C   UNL A   1      44.704  33.522  29.303  1.00  0.00     0.023 A 
ATOM     82  C   UNL A   1      44.572  34.539  28.336  1.00  0.00     0.031 A 
ATOM     83  C   UNL A   1      45.478  33.791  30.444  1.00  0.00     0.131 A 
ATOM     84  C   UNL A   1      45.250  35.754  28.503  1.00  0.00     0.055 A 
ATOM     85  C   UNL A   1      46.101  35.026  30.634  1.00  0.00     0.041 A 
ATOM     86  F   UNL A   1      45.649  32.853  31.390  1.00  0.00    -0.206 F 
ATOM     87  C   UNL A   1      46.003  36.007  29.652  1.00  0.00     0.022 A 
BRANCH  84  88
ATOM     88  S   UNL A   1      45.266  37.006  27.189  1.00  0.00     0.124 S 
ATOM     89  O   UNL A   1      46.041  36.340  26.146  1.00  0.00    -0.237 OA
ATOM     90  O   UNL A   1      43.842  37.165  26.900  1.00  0.00    -0.237 OA
ATOM     91  O   UNL A   1      45.914  38.158  27.806  1.00  0.00    -0.744 OA
ENDBRANCH  84  88
ENDBRANCH  58  81
ENDBRANCH  32  33
ENDBRANCH  25  27
ENDBRANCH  24  25
ENDBRANCH  23  24
ENDBRANCH   1  23
TORSDOF 18
ENDMDL
