MODEL 1
REMARK VINA RESULT:     -12.7      0.000      0.000
REMARK SMILES Cc1ccc(-c2cc3cccnc3n2CCC(=O)OCCOCCOC(=O)c2ccc(-c3c4nc(c(-c5cc(S(=O)(=O)[O-])ccc5F)c5ccc([nH]5)c(-c5cc(S(=O)(=O)[O-])ccc5F)c5nc(c(-c6cc(S(=O)(=O)[O-])ccc6F)c6ccc3[nH]6)C=C5)C=C4)cc2)cn1
REMARK SMILES IDX 22 1 21 2 20 3 19 4 17 5 18 6 16 7 15 8 14 9 6 10 7 11 8 12
REMARK SMILES IDX 13 13 9 14 12 15 10 16 11 17 5 18 1 19 2 20 3 21 92 22 4 23
REMARK SMILES IDX 91 24 23 25 24 26 25 27 26 28 27 29 28 30 29 31 90 32 30 33
REMARK SMILES IDX 89 34 31 35 32 36 33 37 83 38 34 39 88 40 82 41 84 42 35 43
REMARK SMILES IDX 87 44 81 45 80 46 36 48 68 49 48 50 67 51 49 52 52 53 66 54
REMARK SMILES IDX 85 55 50 56 51 57 65 59 86 60 53 61 37 62 38 63 46 64 39 65
REMARK SMILES IDX 45 66 47 67 44 68 40 69 41 70 42 71 43 72 69 73 70 74 78 75
REMARK SMILES IDX 71 76 77 77 79 78 76 79 72 80 73 81 74 82 75 83 54 84 55 85
REMARK SMILES IDX 63 86 56 87 62 88 64 89 61 90 57 91 58 92 59 93 60 94
REMARK H PARENT 84 47 52 58
REMARK Flexibility Score: inf
ROOT
ATOM      1  O   UNL A   1      39.332  25.667  27.454  1.00  0.00    -0.374 OA
ENDROOT
BRANCH   1   2
ATOM      2  C   UNL A   1      38.365  24.383  27.174  1.00  0.00     0.202 C 
BRANCH   2   3
ATOM      3  C   UNL A   1      38.772  22.567  26.031  1.00  0.00     0.261 C 
BRANCH   3   4
ATOM      4  O   UNL A   1      37.561  21.634  25.218  1.00  0.00    -0.463 OA
BRANCH   4   5
ATOM      5  C   UNL A   1      36.258  21.990  25.025  1.00  0.00     0.307 C 
ATOM      6  O   UNL A   1      35.800  22.200  23.904  1.00  0.00    -0.252 OA
BRANCH   5   7
ATOM      7  C   UNL A   1      35.332  22.056  26.292  1.00  0.00     0.144 C 
BRANCH   7   8
ATOM      8  C   UNL A   1      33.981  21.326  26.484  1.00  0.00     0.136 C 
BRANCH   8   9
ATOM      9  N   UNL A   1      33.147  21.291  25.313  1.00  0.00    -0.325 N 
ATOM     10  C   UNL A   1      32.474  22.382  24.834  1.00  0.00     0.052 A 
ATOM     11  C   UNL A   1      32.006  22.023  23.575  1.00  0.00     0.039 A 
ATOM     12  C   UNL A   1      32.289  20.662  23.357  1.00  0.00     0.020 A 
ATOM     13  C   UNL A   1      32.948  20.206  24.492  1.00  0.00     0.140 A 
ATOM     14  C   UNL A   1      32.066  19.768  22.302  1.00  0.00     0.013 A 
ATOM     15  N   UNL A   1      33.365  18.943  24.720  1.00  0.00    -0.238 NA
ATOM     16  C   UNL A   1      32.456  18.449  22.497  1.00  0.00     0.021 A 
ATOM     17  C   UNL A   1      33.056  18.100  23.701  1.00  0.00     0.113 A 
BRANCH  10  18
ATOM     18  C   UNL A   1      32.497  23.723  25.421  1.00  0.00     0.017 A 
ATOM     19  C   UNL A   1      31.730  28.125  27.564  1.00  0.00     0.066 C 
ATOM     20  C   UNL A   1      31.821  27.068  26.490  1.00  0.00     0.037 A 
ATOM     21  C   UNL A   1      33.388  26.757  25.709  1.00  0.00     0.024 A 
ATOM     22  N   UNL A   1      30.637  25.811  26.682  1.00  0.00    -0.261 NA
ATOM     23  C   UNL A   1      33.747  25.052  25.195  1.00  0.00     0.014 A 
ATOM     24  C   UNL A   1      30.967  24.185  26.187  1.00  0.00     0.121 A 
ENDBRANCH  10  18
ENDBRANCH   8   9
ENDBRANCH   7   8
ENDBRANCH   5   7
ENDBRANCH   4   5
ENDBRANCH   3   4
ENDBRANCH   2   3
ENDBRANCH   1   2
BRANCH   1  25
ATOM     25  C   UNL A   1      39.943  25.858  28.751  1.00  0.00     0.202 C 
BRANCH  25  26
ATOM     26  C   UNL A   1      39.330  26.876  29.700  1.00  0.00     0.261 C 
BRANCH  26  27
ATOM     27  O   UNL A   1      39.786  28.166  29.379  1.00  0.00    -0.460 OA
BRANCH  27  28
ATOM     28  C   UNL A   1      39.203  28.729  28.293  1.00  0.00     0.338 C 
ATOM     29  O   UNL A   1      38.028  28.692  27.978  1.00  0.00    -0.246 OA
BRANCH  28  30
ATOM     30  C   UNL A   1      40.294  29.385  27.536  1.00  0.00     0.060 A 
ATOM     31  C   UNL A   1      40.388  28.974  26.219  1.00  0.00     0.016 A 
ATOM     32  C   UNL A   1      41.416  29.793  28.276  1.00  0.00     0.016 A 
ATOM     33  C   UNL A   1      41.585  28.406  25.879  1.00  0.00     0.010 A 
ATOM     34  C   UNL A   1      42.604  29.223  27.948  1.00  0.00     0.010 A 
ATOM     35  C   UNL A   1      42.601  28.389  26.846  1.00  0.00    -0.014 A 
BRANCH  35  36
ATOM     36  C   UNL A   1      43.738  27.533  26.655  1.00  0.00     0.031 A 
ATOM     37  C   UNL A   1      43.274  26.141  26.612  1.00  0.00     0.074 A 
ATOM     38  C   UNL A   1      44.995  28.003  26.530  1.00  0.00     0.049 A 
ATOM     39  N   UNL A   1      43.132  25.382  27.646  1.00  0.00    -0.248 NA
ATOM     40  C   UNL A   1      42.536  25.678  25.423  1.00  0.00     0.031 C 
ATOM     41  C   UNL A   1      45.477  29.376  26.338  1.00  0.00     0.029 A 
ATOM     42  N   UNL A   1      46.149  27.282  26.521  1.00  0.00    -0.354 N 
ATOM     43  C   UNL A   1      42.598  24.210  27.143  1.00  0.00     0.074 A 
ATOM     44  C   UNL A   1      41.972  24.566  25.899  1.00  0.00     0.031 C 
ATOM     45  C   UNL A   1      46.791  29.352  25.995  1.00  0.00     0.029 A 
ATOM     46  C   UNL A   1      47.280  27.989  26.105  1.00  0.00     0.049 A 
ATOM     47  H   UNL A   1      46.184  26.336  26.788  1.00  0.00     0.167 HD
ATOM     48  C   UNL A   1      43.058  23.013  27.596  1.00  0.00     0.034 A 
ATOM     49  C   UNL A   1      48.495  27.431  25.839  1.00  0.00     0.034 A 
ATOM     50  C   UNL A   1      43.814  23.189  28.814  1.00  0.00     0.049 A 
ATOM     51  C   UNL A   1      48.519  26.111  26.529  1.00  0.00     0.074 A 
ATOM     52  C   UNL A   1      43.514  23.669  30.073  1.00  0.00     0.029 A 
ATOM     53  N   UNL A   1      45.179  23.290  28.673  1.00  0.00    -0.354 N 
ATOM     54  N   UNL A   1      48.529  25.996  27.829  1.00  0.00    -0.248 NA
ATOM     55  C   UNL A   1      47.970  24.975  25.796  1.00  0.00     0.031 C 
ATOM     56  C   UNL A   1      44.651  24.432  30.463  1.00  0.00     0.029 A 
ATOM     57  C   UNL A   1      45.636  24.298  29.483  1.00  0.00     0.049 A 
ATOM     58  H   UNL A   1      45.736  22.729  28.088  1.00  0.00     0.167 HD
ATOM     59  C   UNL A   1      47.581  25.019  28.091  1.00  0.00     0.074 A 
ATOM     60  C   UNL A   1      47.300  24.395  26.796  1.00  0.00     0.031 C 
ATOM     61  C   UNL A   1      46.868  25.026  29.253  1.00  0.00     0.034 A 
BRANCH  48  62
ATOM     62  C   UNL A   1      43.211  21.813  26.701  1.00  0.00     0.023 A 
ATOM     63  C   UNL A   1      44.435  21.442  26.108  1.00  0.00     0.031 A 
ATOM     64  C   UNL A   1      42.169  20.876  26.602  1.00  0.00     0.131 A 
ATOM     65  C   UNL A   1      44.592  20.229  25.433  1.00  0.00     0.055 A 
ATOM     66  C   UNL A   1      42.342  19.633  25.983  1.00  0.00     0.041 A 
ATOM     67  F   UNL A   1      40.972  21.119  27.157  1.00  0.00    -0.206 F 
ATOM     68  C   UNL A   1      43.556  19.305  25.391  1.00  0.00     0.022 A 
BRANCH  65  69
ATOM     69  S   UNL A   1      46.170  19.828  24.633  1.00  0.00     0.124 S 
ATOM     70  O   UNL A   1      46.724  21.152  24.373  1.00  0.00    -0.237 OA
ATOM     71  O   UNL A   1      46.837  19.054  25.676  1.00  0.00    -0.237 OA
ATOM     72  O   UNL A   1      45.774  19.061  23.455  1.00  0.00    -0.744 OA
ENDBRANCH  65  69
ENDBRANCH  48  62
BRANCH  49  73
ATOM     73  C   UNL A   1      49.334  27.659  24.631  1.00  0.00     0.023 A 
ATOM     74  C   UNL A   1      48.763  27.508  23.357  1.00  0.00     0.031 A 
ATOM     75  C   UNL A   1      50.743  27.665  24.706  1.00  0.00     0.131 A 
ATOM     76  C   UNL A   1      49.572  27.291  22.232  1.00  0.00     0.055 A 
ATOM     77  C   UNL A   1      51.551  27.471  23.576  1.00  0.00     0.041 A 
ATOM     78  F   UNL A   1      51.361  27.778  25.892  1.00  0.00    -0.206 F 
ATOM     79  C   UNL A   1      50.964  27.260  22.332  1.00  0.00     0.022 A 
BRANCH  76  80
ATOM     80  S   UNL A   1      48.804  26.954  20.624  1.00  0.00     0.124 S 
ATOM     81  O   UNL A   1      49.769  27.530  19.691  1.00  0.00    -0.237 OA
ATOM     82  O   UNL A   1      48.725  25.498  20.631  1.00  0.00    -0.237 OA
ATOM     83  O   UNL A   1      47.529  27.662  20.705  1.00  0.00    -0.744 OA
ENDBRANCH  76  80
ENDBRANCH  49  73
BRANCH  61  84
ATOM     84  C   UNL A   1      47.279  25.979  30.350  1.00  0.00     0.023 A 
ATOM     85  C   UNL A   1      46.509  27.143  30.463  1.00  0.00     0.031 A 
ATOM     86  C   UNL A   1      48.484  25.915  31.077  1.00  0.00     0.131 A 
ATOM     87  C   UNL A   1      46.968  28.225  31.217  1.00  0.00     0.055 A 
ATOM     88  C   UNL A   1      48.914  26.979  31.883  1.00  0.00     0.041 A 
ATOM     89  F   UNL A   1      49.315  24.870  30.962  1.00  0.00    -0.206 F 
ATOM     90  C   UNL A   1      48.164  28.152  31.937  1.00  0.00     0.022 A 
BRANCH  87  91
ATOM     91  S   UNL A   1      46.076  29.795  31.153  1.00  0.00     0.124 S 
ATOM     92  O   UNL A   1      46.781  30.507  30.091  1.00  0.00    -0.237 OA
ATOM     93  O   UNL A   1      44.718  29.365  30.829  1.00  0.00    -0.237 OA
ATOM     94  O   UNL A   1      46.244  30.353  32.493  1.00  0.00    -0.744 OA
ENDBRANCH  87  91
ENDBRANCH  61  84
ENDBRANCH  35  36
ENDBRANCH  28  30
ENDBRANCH  27  28
ENDBRANCH  26  27
ENDBRANCH  25  26
ENDBRANCH   1  25
TORSDOF 20
ENDMDL
MODEL 2
REMARK VINA RESULT:     -12.7      4.340      9.340
REMARK SMILES Cc1ccc(-c2cc3cccnc3n2CCC(=O)OCCOCCOC(=O)c2ccc(-c3c4nc(c(-c5cc(S(=O)(=O)[O-])ccc5F)c5ccc([nH]5)c(-c5cc(S(=O)(=O)[O-])ccc5F)c5nc(c(-c6cc(S(=O)(=O)[O-])ccc6F)c6ccc3[nH]6)C=C5)C=C4)cc2)cn1
REMARK SMILES IDX 22 1 21 2 20 3 19 4 17 5 18 6 16 7 15 8 14 9 6 10 7 11 8 12
REMARK SMILES IDX 13 13 9 14 12 15 10 16 11 17 5 18 1 19 2 20 3 21 92 22 4 23
REMARK SMILES IDX 91 24 23 25 24 26 25 27 26 28 27 29 28 30 29 31 90 32 30 33
REMARK SMILES IDX 89 34 31 35 32 36 33 37 83 38 34 39 88 40 82 41 84 42 35 43
REMARK SMILES IDX 87 44 81 45 80 46 36 48 68 49 48 50 67 51 49 52 52 53 66 54
REMARK SMILES IDX 85 55 50 56 51 57 65 59 86 60 53 61 37 62 38 63 46 64 39 65
REMARK SMILES IDX 45 66 47 67 44 68 40 69 41 70 42 71 43 72 69 73 70 74 78 75
REMARK SMILES IDX 71 76 77 77 79 78 76 79 72 80 73 81 74 82 75 83 54 84 55 85
REMARK SMILES IDX 63 86 56 87 62 88 64 89 61 90 57 91 58 92 59 93 60 94
REMARK H PARENT 84 47 52 58
REMARK Flexibility Score: inf
ROOT
ATOM      1  O   UNL A   1      41.402  19.672  25.462  1.00  0.00    -0.374 OA
ENDROOT
BRANCH   1   2
ATOM      2  C   UNL A   1      39.841  19.771  25.928  1.00  0.00     0.202 C 
BRANCH   2   3
ATOM      3  C   UNL A   1      38.065  20.198  24.731  1.00  0.00     0.261 C 
BRANCH   3   4
ATOM      4  O   UNL A   1      36.465  20.347  25.378  1.00  0.00    -0.463 OA
BRANCH   4   5
ATOM      5  C   UNL A   1      35.816  21.510  25.673  1.00  0.00     0.307 C 
ATOM      6  O   UNL A   1      35.940  22.517  24.979  1.00  0.00    -0.252 OA
BRANCH   5   7
ATOM      7  C   UNL A   1      34.838  21.500  26.902  1.00  0.00     0.144 C 
BRANCH   7   8
ATOM      8  C   UNL A   1      33.291  21.474  26.848  1.00  0.00     0.136 C 
BRANCH   8   9
ATOM      9  N   UNL A   1      32.738  21.479  25.520  1.00  0.00    -0.325 N 
ATOM     10  C   UNL A   1      32.337  22.618  24.875  1.00  0.00     0.052 A 
ATOM     11  C   UNL A   1      32.113  22.252  23.553  1.00  0.00     0.039 A 
ATOM     12  C   UNL A   1      32.255  20.857  23.437  1.00  0.00     0.020 A 
ATOM     13  C   UNL A   1      32.582  20.385  24.702  1.00  0.00     0.140 A 
ATOM     14  C   UNL A   1      32.152  19.942  22.382  1.00  0.00     0.013 A 
ATOM     15  N   UNL A   1      32.767  19.094  25.049  1.00  0.00    -0.238 NA
ATOM     16  C   UNL A   1      32.311  18.598  22.692  1.00  0.00     0.021 A 
ATOM     17  C   UNL A   1      32.581  18.242  24.008  1.00  0.00     0.113 A 
BRANCH  10  18
ATOM     18  C   UNL A   1      32.408  23.975  25.419  1.00  0.00     0.017 A 
ATOM     19  C   UNL A   1      31.788  28.488  27.372  1.00  0.00     0.066 C 
ATOM     20  C   UNL A   1      31.876  27.390  26.339  1.00  0.00     0.037 A 
ATOM     21  C   UNL A   1      33.463  26.960  25.661  1.00  0.00     0.024 A 
ATOM     22  N   UNL A   1      30.610  26.211  26.503  1.00  0.00    -0.261 NA
ATOM     23  C   UNL A   1      33.746  25.220  25.224  1.00  0.00     0.014 A 
ATOM     24  C   UNL A   1      30.868  24.552  26.080  1.00  0.00     0.121 A 
ENDBRANCH  10  18
ENDBRANCH   8   9
ENDBRANCH   7   8
ENDBRANCH   5   7
ENDBRANCH   4   5
ENDBRANCH   3   4
ENDBRANCH   2   3
ENDBRANCH   1   2
BRANCH   1  25
ATOM     25  C   UNL A   1      42.441  20.319  26.234  1.00  0.00     0.202 C 
BRANCH  25  26
ATOM     26  C   UNL A   1      42.955  21.673  25.771  1.00  0.00     0.261 C 
BRANCH  26  27
ATOM     27  O   UNL A   1      41.878  22.561  25.598  1.00  0.00    -0.460 OA
BRANCH  27  28
ATOM     28  C   UNL A   1      42.124  23.842  25.965  1.00  0.00     0.338 C 
ATOM     29  O   UNL A   1      43.011  24.573  25.565  1.00  0.00    -0.246 OA
BRANCH  28  30
ATOM     30  C   UNL A   1      41.105  24.177  26.987  1.00  0.00     0.060 A 
ATOM     31  C   UNL A   1      40.045  24.920  26.498  1.00  0.00     0.016 A 
ATOM     32  C   UNL A   1      41.557  24.297  28.312  1.00  0.00     0.016 A 
ATOM     33  C   UNL A   1      39.876  26.140  27.096  1.00  0.00     0.010 A 
ATOM     34  C   UNL A   1      41.400  25.508  28.903  1.00  0.00     0.010 A 
ATOM     35  C   UNL A   1      40.708  26.461  28.179  1.00  0.00    -0.014 A 
BRANCH  35  36
ATOM     36  C   UNL A   1      40.791  27.824  28.620  1.00  0.00     0.031 A 
ATOM     37  C   UNL A   1      42.019  28.418  28.078  1.00  0.00     0.074 A 
ATOM     38  C   UNL A   1      39.850  28.401  29.394  1.00  0.00     0.049 A 
ATOM     39  N   UNL A   1      43.173  28.375  28.655  1.00  0.00    -0.248 NA
ATOM     40  C   UNL A   1      42.080  28.723  26.637  1.00  0.00     0.031 C 
ATOM     41  C   UNL A   1      38.511  27.929  29.767  1.00  0.00     0.029 A 
ATOM     42  N   UNL A   1      39.914  29.615  30.006  1.00  0.00    -0.354 N 
ATOM     43  C   UNL A   1      44.032  28.975  27.753  1.00  0.00     0.074 A 
ATOM     44  C   UNL A   1      43.397  28.858  26.468  1.00  0.00     0.031 C 
ATOM     45  C   UNL A   1      37.813  28.946  30.334  1.00  0.00     0.029 A 
ATOM     46  C   UNL A   1      38.700  30.081  30.515  1.00  0.00     0.049 A 
ATOM     47  H   UNL A   1      40.753  30.125  30.083  1.00  0.00     0.167 HD
ATOM     48  C   UNL A   1      44.977  29.844  28.202  1.00  0.00     0.034 A 
ATOM     49  C   UNL A   1      38.487  31.339  30.995  1.00  0.00     0.034 A 
ATOM     50  C   UNL A   1      45.141  29.720  29.631  1.00  0.00     0.049 A 
ATOM     51  C   UNL A   1      39.825  31.902  31.329  1.00  0.00     0.074 A 
ATOM     52  C   UNL A   1      45.532  28.697  30.471  1.00  0.00     0.029 A 
ATOM     53  N   UNL A   1      44.428  30.607  30.404  1.00  0.00    -0.354 N 
ATOM     54  N   UNL A   1      40.560  31.440  32.304  1.00  0.00    -0.248 NA
ATOM     55  C   UNL A   1      40.547  32.565  30.249  1.00  0.00     0.031 C 
ATOM     56  C   UNL A   1      44.677  28.796  31.605  1.00  0.00     0.029 A 
ATOM     57  C   UNL A   1      43.878  29.933  31.464  1.00  0.00     0.049 A 
ATOM     58  H   UNL A   1      44.329  31.570  30.226  1.00  0.00     0.167 HD
ATOM     59  C   UNL A   1      41.827  31.329  31.751  1.00  0.00     0.074 A 
ATOM     60  C   UNL A   1      41.768  32.078  30.494  1.00  0.00     0.031 C 
ATOM     61  C   UNL A   1      42.700  30.374  32.182  1.00  0.00     0.034 A 
BRANCH  48  62
ATOM     62  C   UNL A   1      45.376  31.074  27.433  1.00  0.00     0.023 A 
ATOM     63  C   UNL A   1      44.545  32.205  27.299  1.00  0.00     0.031 A 
ATOM     64  C   UNL A   1      46.703  31.230  27.002  1.00  0.00     0.131 A 
ATOM     65  C   UNL A   1      45.006  33.399  26.739  1.00  0.00     0.055 A 
ATOM     66  C   UNL A   1      47.186  32.445  26.501  1.00  0.00     0.041 A 
ATOM     67  F   UNL A   1      47.585  30.224  27.111  1.00  0.00    -0.206 F 
ATOM     68  C   UNL A   1      46.336  33.536  26.363  1.00  0.00     0.022 A 
BRANCH  65  69
ATOM     69  S   UNL A   1      43.878  34.805  26.531  1.00  0.00     0.124 S 
ATOM     70  O   UNL A   1      43.020  34.682  27.705  1.00  0.00    -0.237 OA
ATOM     71  O   UNL A   1      44.809  35.930  26.540  1.00  0.00    -0.237 OA
ATOM     72  O   UNL A   1      43.237  34.545  25.245  1.00  0.00    -0.744 OA
ENDBRANCH  65  69
ENDBRANCH  48  62
BRANCH  49  73
ATOM     73  C   UNL A   1      37.360  32.246  30.646  1.00  0.00     0.023 A 
ATOM     74  C   UNL A   1      36.710  32.962  31.665  1.00  0.00     0.031 A 
ATOM     75  C   UNL A   1      36.691  32.144  29.408  1.00  0.00     0.131 A 
ATOM     76  C   UNL A   1      35.419  33.473  31.467  1.00  0.00     0.055 A 
ATOM     77  C   UNL A   1      35.409  32.676  29.205  1.00  0.00     0.041 A 
ATOM     78  F   UNL A   1      37.237  31.452  28.395  1.00  0.00    -0.206 F 
ATOM     79  C   UNL A   1      34.757  33.327  30.247  1.00  0.00     0.022 A 
BRANCH  76  80
ATOM     80  S   UNL A   1      34.547  34.266  32.845  1.00  0.00     0.124 S 
ATOM     81  O   UNL A   1      33.354  34.801  32.194  1.00  0.00    -0.237 OA
ATOM     82  O   UNL A   1      34.323  33.139  33.743  1.00  0.00    -0.237 OA
ATOM     83  O   UNL A   1      35.497  35.273  33.311  1.00  0.00    -0.744 OA
ENDBRANCH  76  80
ENDBRANCH  49  73
BRANCH  61  84
ATOM     84  C   UNL A   1      42.356  29.584  33.422  1.00  0.00     0.023 A 
ATOM     85  C   UNL A   1      43.049  29.945  34.584  1.00  0.00     0.031 A 
ATOM     86  C   UNL A   1      41.607  28.391  33.449  1.00  0.00     0.131 A 
ATOM     87  C   UNL A   1      43.050  29.104  35.699  1.00  0.00     0.055 A 
ATOM     88  C   UNL A   1      41.559  27.578  34.590  1.00  0.00     0.041 A 
ATOM     89  F   UNL A   1      40.979  27.936  32.356  1.00  0.00    -0.206 F 
ATOM     90  C   UNL A   1      42.302  27.924  35.716  1.00  0.00     0.022 A 
BRANCH  87  91
ATOM     91  S   UNL A   1      44.141  29.474  37.091  1.00  0.00     0.124 S 
ATOM     92  O   UNL A   1      45.348  29.948  36.419  1.00  0.00    -0.237 OA
ATOM     93  O   UNL A   1      43.383  30.493  37.814  1.00  0.00    -0.237 OA
ATOM     94  O   UNL A   1      44.277  28.197  37.784  1.00  0.00    -0.744 OA
ENDBRANCH  87  91
ENDBRANCH  61  84
ENDBRANCH  35  36
ENDBRANCH  28  30
ENDBRANCH  27  28
ENDBRANCH  26  27
ENDBRANCH  25  26
ENDBRANCH   1  25
TORSDOF 20
ENDMDL
MODEL 3
REMARK VINA RESULT:     -12.6      1.934      2.207
REMARK SMILES Cc1ccc(-c2cc3cccnc3n2CCC(=O)OCCOCCOC(=O)c2ccc(-c3c4nc(c(-c5cc(S(=O)(=O)[O-])ccc5F)c5ccc([nH]5)c(-c5cc(S(=O)(=O)[O-])ccc5F)c5nc(c(-c6cc(S(=O)(=O)[O-])ccc6F)c6ccc3[nH]6)C=C5)C=C4)cc2)cn1
REMARK SMILES IDX 22 1 21 2 20 3 19 4 17 5 18 6 16 7 15 8 14 9 6 10 7 11 8 12
REMARK SMILES IDX 13 13 9 14 12 15 10 16 11 17 5 18 1 19 2 20 3 21 92 22 4 23
REMARK SMILES IDX 91 24 23 25 24 26 25 27 26 28 27 29 28 30 29 31 90 32 30 33
REMARK SMILES IDX 89 34 31 35 32 36 33 37 83 38 34 39 88 40 82 41 84 42 35 43
REMARK SMILES IDX 87 44 81 45 80 46 36 48 68 49 48 50 67 51 49 52 52 53 66 54
REMARK SMILES IDX 85 55 50 56 51 57 65 59 86 60 53 61 37 62 38 63 46 64 39 65
REMARK SMILES IDX 45 66 47 67 44 68 40 69 41 70 42 71 43 72 69 73 70 74 78 75
REMARK SMILES IDX 71 76 77 77 79 78 76 79 72 80 73 81 74 82 75 83 54 84 55 85
REMARK SMILES IDX 63 86 56 87 62 88 64 89 61 90 57 91 58 92 59 93 60 94
REMARK H PARENT 84 47 52 58
REMARK Flexibility Score: inf
ROOT
ATOM      1  O   UNL A   1      39.191  25.635  27.507  1.00  0.00    -0.374 OA
ENDROOT
BRANCH   1   2
ATOM      2  C   UNL A   1      38.222  24.353  27.227  1.00  0.00     0.202 C 
BRANCH   2   3
ATOM      3  C   UNL A   1      38.648  22.509  26.136  1.00  0.00     0.261 C 
BRANCH   3   4
ATOM      4  O   UNL A   1      37.436  21.474  25.458  1.00  0.00    -0.463 OA
BRANCH   4   5
ATOM      5  C   UNL A   1      36.143  21.812  25.186  1.00  0.00     0.307 C 
ATOM      6  O   UNL A   1      35.748  22.000  24.037  1.00  0.00    -0.252 OA
BRANCH   5   7
ATOM      7  C   UNL A   1      35.145  21.884  26.397  1.00  0.00     0.144 C 
BRANCH   7   8
ATOM      8  C   UNL A   1      33.771  21.179  26.501  1.00  0.00     0.136 C 
BRANCH   8   9
ATOM      9  N   UNL A   1      33.012  21.162  25.280  1.00  0.00    -0.325 N 
ATOM     10  C   UNL A   1      32.415  22.274  24.748  1.00  0.00     0.052 A 
ATOM     11  C   UNL A   1      32.013  21.918  23.466  1.00  0.00     0.039 A 
ATOM     12  C   UNL A   1      32.254  20.544  23.280  1.00  0.00     0.020 A 
ATOM     13  C   UNL A   1      32.822  20.076  24.459  1.00  0.00     0.140 A 
ATOM     14  C   UNL A   1      32.062  19.646  22.222  1.00  0.00     0.013 A 
ATOM     15  N   UNL A   1      33.171  18.801  24.725  1.00  0.00    -0.238 NA
ATOM     16  C   UNL A   1      32.385  18.315  22.454  1.00  0.00     0.021 A 
ATOM     17  C   UNL A   1      32.893  17.958  23.697  1.00  0.00     0.113 A 
BRANCH  10  18
ATOM     18  C   UNL A   1      32.456  23.619  25.322  1.00  0.00     0.017 A 
ATOM     19  C   UNL A   1      31.760  28.032  27.470  1.00  0.00     0.066 C 
ATOM     20  C   UNL A   1      31.802  26.966  26.401  1.00  0.00     0.037 A 
ATOM     21  C   UNL A   1      33.326  26.666  25.534  1.00  0.00     0.024 A 
ATOM     22  N   UNL A   1      30.647  25.697  26.670  1.00  0.00    -0.261 NA
ATOM     23  C   UNL A   1      33.675  24.961  25.015  1.00  0.00     0.014 A 
ATOM     24  C   UNL A   1      30.967  24.071  26.170  1.00  0.00     0.121 A 
ENDBRANCH  10  18
ENDBRANCH   8   9
ENDBRANCH   7   8
ENDBRANCH   5   7
ENDBRANCH   4   5
ENDBRANCH   3   4
ENDBRANCH   2   3
ENDBRANCH   1   2
BRANCH   1  25
ATOM     25  C   UNL A   1      39.786  25.835  28.811  1.00  0.00     0.202 C 
BRANCH  25  26
ATOM     26  C   UNL A   1      39.205  26.907  29.719  1.00  0.00     0.261 C 
BRANCH  26  27
ATOM     27  O   UNL A   1      39.786  28.153  29.423  1.00  0.00    -0.460 OA
BRANCH  27  28
ATOM     28  C   UNL A   1      39.242  28.806  28.367  1.00  0.00     0.338 C 
ATOM     29  O   UNL A   1      38.070  28.843  28.040  1.00  0.00    -0.246 OA
BRANCH  28  30
ATOM     30  C   UNL A   1      40.371  29.453  27.660  1.00  0.00     0.060 A 
ATOM     31  C   UNL A   1      40.402  29.196  26.301  1.00  0.00     0.016 A 
ATOM     32  C   UNL A   1      41.540  29.672  28.409  1.00  0.00     0.016 A 
ATOM     33  C   UNL A   1      41.538  28.573  25.860  1.00  0.00     0.010 A 
ATOM     34  C   UNL A   1      42.665  29.047  27.980  1.00  0.00     0.010 A 
ATOM     35  C   UNL A   1      42.567  28.354  26.787  1.00  0.00    -0.014 A 
BRANCH  35  36
ATOM     36  C   UNL A   1      43.620  27.434  26.462  1.00  0.00     0.031 A 
ATOM     37  C   UNL A   1      43.095  26.067  26.564  1.00  0.00     0.074 A 
ATOM     38  C   UNL A   1      44.860  27.833  26.116  1.00  0.00     0.049 A 
ATOM     39  N   UNL A   1      43.089  25.361  27.645  1.00  0.00    -0.248 NA
ATOM     40  C   UNL A   1      42.156  25.591  25.532  1.00  0.00     0.031 C 
ATOM     41  C   UNL A   1      45.365  29.169  25.780  1.00  0.00     0.029 A 
ATOM     42  N   UNL A   1      45.966  27.054  25.961  1.00  0.00    -0.354 N 
ATOM     43  C   UNL A   1      42.430  24.198  27.294  1.00  0.00     0.074 A 
ATOM     44  C   UNL A   1      41.628  24.531  26.147  1.00  0.00     0.031 C 
ATOM     45  C   UNL A   1      46.604  29.063  25.235  1.00  0.00     0.029 A 
ATOM     46  C   UNL A   1      47.044  27.684  25.335  1.00  0.00     0.049 A 
ATOM     47  H   UNL A   1      46.002  26.119  26.267  1.00  0.00     0.167 HD
ATOM     48  C   UNL A   1      42.904  22.999  27.728  1.00  0.00     0.034 A 
ATOM     49  C   UNL A   1      48.175  27.053  24.908  1.00  0.00     0.034 A 
ATOM     50  C   UNL A   1      43.853  23.189  28.800  1.00  0.00     0.049 A 
ATOM     51  C   UNL A   1      48.252  25.765  25.652  1.00  0.00     0.074 A 
ATOM     52  C   UNL A   1      43.780  23.737  30.065  1.00  0.00     0.029 A 
ATOM     53  N   UNL A   1      45.181  23.214  28.440  1.00  0.00    -0.354 N 
ATOM     54  N   UNL A   1      48.466  25.706  26.938  1.00  0.00    -0.248 NA
ATOM     55  C   UNL A   1      47.544  24.628  25.074  1.00  0.00     0.031 C 
ATOM     56  C   UNL A   1      44.997  24.458  30.230  1.00  0.00     0.029 A 
ATOM     57  C   UNL A   1      45.806  24.231  29.114  1.00  0.00     0.049 A 
ATOM     58  H   UNL A   1      45.612  22.600  27.803  1.00  0.00     0.167 HD
ATOM     59  C   UNL A   1      47.531  24.790  27.396  1.00  0.00     0.074 A 
ATOM     60  C   UNL A   1      47.019  24.126  26.196  1.00  0.00     0.031 C 
ATOM     61  C   UNL A   1      47.015  24.884  28.655  1.00  0.00     0.034 A 
BRANCH  48  62
ATOM     62  C   UNL A   1      42.859  21.756  26.882  1.00  0.00     0.023 A 
ATOM     63  C   UNL A   1      43.897  21.377  26.006  1.00  0.00     0.031 A 
ATOM     64  C   UNL A   1      41.860  20.793  27.105  1.00  0.00     0.131 A 
ATOM     65  C   UNL A   1      43.913  20.133  25.372  1.00  0.00     0.055 A 
ATOM     66  C   UNL A   1      41.908  19.522  26.523  1.00  0.00     0.041 A 
ATOM     67  F   UNL A   1      40.842  21.041  27.943  1.00  0.00    -0.206 F 
ATOM     68  C   UNL A   1      42.935  19.187  25.648  1.00  0.00     0.022 A 
BRANCH  65  69
ATOM     69  S   UNL A   1      45.240  19.721  24.205  1.00  0.00     0.124 S 
ATOM     70  O   UNL A   1      45.677  18.417  24.691  1.00  0.00    -0.237 OA
ATOM     71  O   UNL A   1      44.520  19.717  22.935  1.00  0.00    -0.237 OA
ATOM     72  O   UNL A   1      46.195  20.814  24.369  1.00  0.00    -0.744 OA
ENDBRANCH  65  69
ENDBRANCH  48  62
BRANCH  49  73
ATOM     73  C   UNL A   1      48.818  27.186  23.573  1.00  0.00     0.023 A 
ATOM     74  C   UNL A   1      50.203  26.985  23.452  1.00  0.00     0.031 A 
ATOM     75  C   UNL A   1      48.171  27.848  22.509  1.00  0.00     0.131 A 
ATOM     76  C   UNL A   1      50.907  27.501  22.354  1.00  0.00     0.055 A 
ATOM     77  C   UNL A   1      48.874  28.343  21.400  1.00  0.00     0.041 A 
ATOM     78  F   UNL A   1      46.854  28.101  22.564  1.00  0.00    -0.206 F 
ATOM     79  C   UNL A   1      50.255  28.189  21.330  1.00  0.00     0.022 A 
BRANCH  76  80
ATOM     80  S   UNL A   1      52.713  27.353  22.296  1.00  0.00     0.124 S 
ATOM     81  O   UNL A   1      53.032  26.890  23.644  1.00  0.00    -0.237 OA
ATOM     82  O   UNL A   1      52.897  26.371  21.233  1.00  0.00    -0.237 OA
ATOM     83  O   UNL A   1      53.154  28.711  21.992  1.00  0.00    -0.744 OA
ENDBRANCH  76  80
ENDBRANCH  49  73
BRANCH  61  84
ATOM     84  C   UNL A   1      47.638  25.861  29.623  1.00  0.00     0.023 A 
ATOM     85  C   UNL A   1      48.729  25.378  30.356  1.00  0.00     0.031 A 
ATOM     86  C   UNL A   1      47.075  27.090  30.019  1.00  0.00     0.131 A 
ATOM     87  C   UNL A   1      49.186  26.065  31.482  1.00  0.00     0.055 A 
ATOM     88  C   UNL A   1      47.573  27.810  31.114  1.00  0.00     0.041 A 
ATOM     89  F   UNL A   1      45.982  27.583  29.420  1.00  0.00    -0.206 F 
ATOM     90  C   UNL A   1      48.622  27.285  31.865  1.00  0.00     0.022 A 
BRANCH  87  91
ATOM     91  S   UNL A   1      50.433  25.302  32.544  1.00  0.00     0.124 S 
ATOM     92  O   UNL A   1      51.666  25.919  32.064  1.00  0.00    -0.237 OA
ATOM     93  O   UNL A   1      49.999  25.716  33.876  1.00  0.00    -0.237 OA
ATOM     94  O   UNL A   1      50.306  23.873  32.269  1.00  0.00    -0.744 OA
ENDBRANCH  87  91
ENDBRANCH  61  84
ENDBRANCH  35  36
ENDBRANCH  28  30
ENDBRANCH  27  28
ENDBRANCH  26  27
ENDBRANCH  25  26
ENDBRANCH   1  25
TORSDOF 20
ENDMDL
