MODEL 1
REMARK VINA RESULT:     -11.0      0.000      0.000
REMARK SMILES C[C@@H](C(=O)OCCOCCOC(=O)c1ccc(-c2c3nc(c(-c4cc(S(=O)(=O)[O-])ccc4F)c4ccc([nH]4)c(-c4cc(S(=O)(=O)[O-])ccc4F)c4nc(c(-c5cc(S(=O)(=O)[O-])ccc5F)c5ccc2[nH]5)C=C4)C=C3)cc1)N1C(=O)c2nccnc2C1=O
REMARK SMILES IDX 9 1 8 2 7 3 6 4 5 5 3 6 4 7 2 8 1 9 77 10 78 11 86 12 79 13
REMARK SMILES IDX 80 14 85 15 87 16 81 17 84 18 82 19 83 20 10 21 11 22 12 23
REMARK SMILES IDX 13 24 14 25 15 26 76 27 16 28 75 29 17 30 18 31 19 32 69 33
REMARK SMILES IDX 20 34 74 35 68 36 70 37 21 38 73 39 67 40 66 41 22 43 54 44
REMARK SMILES IDX 34 45 53 46 35 47 38 48 52 49 71 50 36 51 37 52 51 54 72 55
REMARK SMILES IDX 39 56 23 57 24 58 32 59 25 60 31 61 33 62 30 63 26 64 27 65
REMARK SMILES IDX 28 66 29 67 55 68 56 69 64 70 57 71 63 72 65 73 62 74 58 75
REMARK SMILES IDX 59 76 60 77 61 78 40 79 41 80 49 81 42 82 48 83 50 84 47 85
REMARK SMILES IDX 43 86 44 87 45 88 46 89
REMARK H PARENT 70 42 38 53
REMARK Flexibility Score: inf
ROOT
ATOM      1  C   UNL A   1      31.327  31.523  26.521  1.00  0.00     0.202 C 
ENDROOT
BRANCH   1   2
ATOM      2  O   UNL A   1      32.081  30.489  25.893  1.00  0.00    -0.374 OA
BRANCH   2   3
ATOM      3  C   UNL A   1      33.297  30.075  26.512  1.00  0.00     0.202 C 
BRANCH   3   4
ATOM      4  C   UNL A   1      33.439  28.603  26.913  1.00  0.00     0.261 C 
BRANCH   4   5
ATOM      5  O   UNL A   1      33.235  27.701  25.812  1.00  0.00    -0.462 OA
BRANCH   5   6
ATOM      6  C   UNL A   1      32.070  27.001  25.854  1.00  0.00     0.329 C 
ATOM      7  O   UNL A   1      31.311  26.974  26.819  1.00  0.00    -0.250 OA
BRANCH   6   8
ATOM      8  C   UNL A   1      31.804  26.222  24.556  1.00  0.00     0.201 C 
ATOM      9  C   UNL A   1      33.046  25.716  23.824  1.00  0.00     0.044 C 
BRANCH   8  10
ATOM     10  N   UNL A   1      30.958  27.101  23.738  1.00  0.00    -0.257 N 
ATOM     11  C   UNL A   1      31.380  28.170  22.985  1.00  0.00     0.282 C 
ATOM     12  C   UNL A   1      29.589  27.096  23.867  1.00  0.00     0.282 C 
ATOM     13  O   UNL A   1      32.515  28.517  22.725  1.00  0.00    -0.267 OA
ATOM     14  C   UNL A   1      30.172  28.870  22.548  1.00  0.00     0.160 A 
ATOM     15  C   UNL A   1      29.093  28.236  23.102  1.00  0.00     0.160 A 
ATOM     16  O   UNL A   1      28.902  26.307  24.493  1.00  0.00    -0.267 OA
ATOM     17  N   UNL A   1      30.086  29.946  21.738  1.00  0.00    -0.247 NA
ATOM     18  N   UNL A   1      27.812  28.615  22.919  1.00  0.00    -0.247 NA
ATOM     19  C   UNL A   1      28.803  30.350  21.540  1.00  0.00     0.132 A 
ATOM     20  C   UNL A   1      27.700  29.708  22.120  1.00  0.00     0.132 A 
ENDBRANCH   8  10
ENDBRANCH   6   8
ENDBRANCH   5   6
ENDBRANCH   4   5
ENDBRANCH   3   4
ENDBRANCH   2   3
ENDBRANCH   1   2
BRANCH   1  21
ATOM     21  C   UNL A   1      31.931  32.930  26.621  1.00  0.00     0.261 C 
BRANCH  21  22
ATOM     22  O   UNL A   1      32.226  33.328  27.972  1.00  0.00    -0.460 OA
BRANCH  22  23
ATOM     23  C   UNL A   1      33.315  34.130  28.085  1.00  0.00     0.338 C 
ATOM     24  O   UNL A   1      33.325  35.349  28.107  1.00  0.00    -0.246 OA
BRANCH  23  25
ATOM     25  C   UNL A   1      34.516  33.326  28.390  1.00  0.00     0.060 A 
ATOM     26  C   UNL A   1      34.314  32.085  29.008  1.00  0.00     0.016 A 
ATOM     27  C   UNL A   1      35.807  33.806  28.164  1.00  0.00     0.016 A 
ATOM     28  C   UNL A   1      35.403  31.344  29.459  1.00  0.00     0.010 A 
ATOM     29  C   UNL A   1      36.899  33.060  28.622  1.00  0.00     0.010 A 
ATOM     30  C   UNL A   1      36.702  31.846  29.307  1.00  0.00    -0.014 A 
BRANCH  30  31
ATOM     31  C   UNL A   1      37.829  31.169  29.996  1.00  0.00     0.031 A 
ATOM     32  C   UNL A   1      38.130  31.525  31.430  1.00  0.00     0.074 A 
ATOM     33  C   UNL A   1      38.546  30.217  29.372  1.00  0.00     0.049 A 
ATOM     34  N   UNL A   1      39.090  31.098  32.208  1.00  0.00    -0.248 NA
ATOM     35  C   UNL A   1      37.226  32.496  32.064  1.00  0.00     0.031 C 
ATOM     36  C   UNL A   1      38.314  29.748  28.008  1.00  0.00     0.029 A 
ATOM     37  N   UNL A   1      39.617  29.475  29.804  1.00  0.00    -0.354 N 
ATOM     38  C   UNL A   1      38.911  31.751  33.424  1.00  0.00     0.074 A 
ATOM     39  C   UNL A   1      37.776  32.635  33.260  1.00  0.00     0.031 C 
ATOM     40  C   UNL A   1      39.220  28.803  27.711  1.00  0.00     0.029 A 
ATOM     41  C   UNL A   1      40.129  28.633  28.844  1.00  0.00     0.049 A 
ATOM     42  H   UNL A   1      39.986  29.539  30.716  1.00  0.00     0.167 HD
ATOM     43  C   UNL A   1      39.620  31.616  34.571  1.00  0.00     0.034 A 
ATOM     44  C   UNL A   1      41.221  27.843  28.865  1.00  0.00     0.034 A 
ATOM     45  C   UNL A   1      40.755  30.736  34.713  1.00  0.00     0.049 A 
ATOM     46  C   UNL A   1      42.057  27.784  30.122  1.00  0.00     0.074 A 
ATOM     47  C   UNL A   1      41.541  30.517  35.831  1.00  0.00     0.029 A 
ATOM     48  N   UNL A   1      41.277  29.937  33.702  1.00  0.00    -0.354 N 
ATOM     49  N   UNL A   1      41.879  28.408  31.264  1.00  0.00    -0.248 NA
ATOM     50  C   UNL A   1      43.235  26.907  30.094  1.00  0.00     0.031 C 
ATOM     51  C   UNL A   1      42.584  29.654  35.475  1.00  0.00     0.029 A 
ATOM     52  C   UNL A   1      42.395  29.256  34.160  1.00  0.00     0.049 A 
ATOM     53  H   UNL A   1      40.907  29.865  32.793  1.00  0.00     0.167 HD
ATOM     54  C   UNL A   1      42.905  27.969  32.100  1.00  0.00     0.074 A 
ATOM     55  C   UNL A   1      43.685  27.019  31.336  1.00  0.00     0.031 C 
ATOM     56  C   UNL A   1      43.174  28.316  33.386  1.00  0.00     0.034 A 
BRANCH  43  57
ATOM     57  C   UNL A   1      39.219  32.479  35.745  1.00  0.00     0.023 A 
ATOM     58  C   UNL A   1      39.629  33.820  35.856  1.00  0.00     0.031 A 
ATOM     59  C   UNL A   1      38.429  31.947  36.781  1.00  0.00     0.131 A 
ATOM     60  C   UNL A   1      39.309  34.558  37.006  1.00  0.00     0.055 A 
ATOM     61  C   UNL A   1      38.043  32.714  37.882  1.00  0.00     0.041 A 
ATOM     62  F   UNL A   1      38.027  30.667  36.745  1.00  0.00    -0.206 F 
ATOM     63  C   UNL A   1      38.495  34.023  38.006  1.00  0.00     0.022 A 
BRANCH  60  64
ATOM     64  S   UNL A   1      40.097  36.174  37.246  1.00  0.00     0.124 S 
ATOM     65  O   UNL A   1      41.459  35.787  37.606  1.00  0.00    -0.237 OA
ATOM     66  O   UNL A   1      39.935  36.801  35.940  1.00  0.00    -0.237 OA
ATOM     67  O   UNL A   1      39.322  36.776  38.329  1.00  0.00    -0.744 OA
ENDBRANCH  60  64
ENDBRANCH  43  57
BRANCH  44  68
ATOM     68  C   UNL A   1      41.625  27.081  27.647  1.00  0.00     0.023 A 
ATOM     69  C   UNL A   1      41.445  25.691  27.562  1.00  0.00     0.031 A 
ATOM     70  C   UNL A   1      42.253  27.729  26.568  1.00  0.00     0.131 A 
ATOM     71  C   UNL A   1      41.936  24.989  26.449  1.00  0.00     0.055 A 
ATOM     72  C   UNL A   1      42.681  27.035  25.435  1.00  0.00     0.041 A 
ATOM     73  F   UNL A   1      42.456  29.056  26.597  1.00  0.00    -0.206 F 
ATOM     74  C   UNL A   1      42.536  25.654  25.378  1.00  0.00     0.022 A 
BRANCH  71  75
ATOM     75  S   UNL A   1      41.871  23.177  26.468  1.00  0.00     0.124 S 
ATOM     76  O   UNL A   1      40.433  22.933  26.485  1.00  0.00    -0.237 OA
ATOM     77  O   UNL A   1      42.566  22.836  25.232  1.00  0.00    -0.237 OA
ATOM     78  O   UNL A   1      42.579  22.824  27.697  1.00  0.00    -0.744 OA
ENDBRANCH  71  75
ENDBRANCH  44  68
BRANCH  56  79
ATOM     79  C   UNL A   1      44.331  27.620  34.064  1.00  0.00     0.023 A 
ATOM     80  C   UNL A   1      44.157  26.441  34.811  1.00  0.00     0.031 A 
ATOM     81  C   UNL A   1      45.630  28.151  33.965  1.00  0.00     0.131 A 
ATOM     82  C   UNL A   1      45.252  25.868  35.477  1.00  0.00     0.055 A 
ATOM     83  C   UNL A   1      46.727  27.536  34.571  1.00  0.00     0.041 A 
ATOM     84  F   UNL A   1      45.858  29.277  33.270  1.00  0.00    -0.206 F 
ATOM     85  C   UNL A   1      46.538  26.396  35.346  1.00  0.00     0.022 A 
BRANCH  82  86
ATOM     86  S   UNL A   1      44.953  24.481  36.609  1.00  0.00     0.124 S 
ATOM     87  O   UNL A   1      44.687  23.386  35.682  1.00  0.00    -0.237 OA
ATOM     88  O   UNL A   1      46.210  24.403  37.346  1.00  0.00    -0.237 OA
ATOM     89  O   UNL A   1      43.801  24.922  37.394  1.00  0.00    -0.744 OA
ENDBRANCH  82  86
ENDBRANCH  56  79
ENDBRANCH  30  31
ENDBRANCH  23  25
ENDBRANCH  22  23
ENDBRANCH  21  22
ENDBRANCH   1  21
TORSDOF 18
ENDMDL
MODEL 2
REMARK VINA RESULT:     -10.9      5.521     10.812
REMARK SMILES C[C@@H](C(=O)OCCOCCOC(=O)c1ccc(-c2c3nc(c(-c4cc(S(=O)(=O)[O-])ccc4F)c4ccc([nH]4)c(-c4cc(S(=O)(=O)[O-])ccc4F)c4nc(c(-c5cc(S(=O)(=O)[O-])ccc5F)c5ccc2[nH]5)C=C4)C=C3)cc1)N1C(=O)c2nccnc2C1=O
REMARK SMILES IDX 9 1 8 2 7 3 6 4 5 5 3 6 4 7 2 8 1 9 77 10 78 11 86 12 79 13
REMARK SMILES IDX 80 14 85 15 87 16 81 17 84 18 82 19 83 20 10 21 11 22 12 23
REMARK SMILES IDX 13 24 14 25 15 26 76 27 16 28 75 29 17 30 18 31 19 32 69 33
REMARK SMILES IDX 20 34 74 35 68 36 70 37 21 38 73 39 67 40 66 41 22 43 54 44
REMARK SMILES IDX 34 45 53 46 35 47 38 48 52 49 71 50 36 51 37 52 51 54 72 55
REMARK SMILES IDX 39 56 23 57 24 58 32 59 25 60 31 61 33 62 30 63 26 64 27 65
REMARK SMILES IDX 28 66 29 67 55 68 56 69 64 70 57 71 63 72 65 73 62 74 58 75
REMARK SMILES IDX 59 76 60 77 61 78 40 79 41 80 49 81 42 82 48 83 50 84 47 85
REMARK SMILES IDX 43 86 44 87 45 88 46 89
REMARK H PARENT 70 42 38 53
REMARK Flexibility Score: inf
ROOT
ATOM      1  C   UNL A   1      36.151  20.281  25.003  1.00  0.00     0.202 C 
ENDROOT
BRANCH   1   2
ATOM      2  O   UNL A   1      35.755  21.638  25.188  1.00  0.00    -0.374 OA
BRANCH   2   3
ATOM      3  C   UNL A   1      35.639  22.466  24.033  1.00  0.00     0.202 C 
BRANCH   3   4
ATOM      4  C   UNL A   1      35.270  23.939  24.233  1.00  0.00     0.261 C 
BRANCH   4   5
ATOM      5  O   UNL A   1      33.850  24.158  24.287  1.00  0.00    -0.462 OA
BRANCH   5   6
ATOM      6  C   UNL A   1      33.172  23.790  23.167  1.00  0.00     0.329 C 
ATOM      7  O   UNL A   1      33.559  24.000  22.020  1.00  0.00    -0.250 OA
BRANCH   6   8
ATOM      8  C   UNL A   1      31.841  23.090  23.487  1.00  0.00     0.201 C 
ATOM      9  C   UNL A   1      31.041  23.690  24.642  1.00  0.00     0.044 C 
BRANCH   8  10
ATOM     10  N   UNL A   1      32.181  21.674  23.680  1.00  0.00    -0.257 N 
ATOM     11  C   UNL A   1      32.131  20.686  22.727  1.00  0.00     0.282 C 
ATOM     12  C   UNL A   1      32.333  21.141  24.939  1.00  0.00     0.282 C 
ATOM     13  O   UNL A   1      31.940  20.791  21.531  1.00  0.00    -0.267 OA
ATOM     14  C   UNL A   1      32.326  19.419  23.433  1.00  0.00     0.160 A 
ATOM     15  C   UNL A   1      32.423  19.694  24.771  1.00  0.00     0.160 A 
ATOM     16  O   UNL A   1      32.384  21.738  26.000  1.00  0.00    -0.267 OA
ATOM     17  N   UNL A   1      32.411  18.181  22.904  1.00  0.00    -0.247 NA
ATOM     18  N   UNL A   1      32.601  18.760  25.727  1.00  0.00    -0.247 NA
ATOM     19  C   UNL A   1      32.588  17.221  23.849  1.00  0.00     0.132 A 
ATOM     20  C   UNL A   1      32.672  17.501  25.221  1.00  0.00     0.132 A 
ENDBRANCH   8  10
ENDBRANCH   6   8
ENDBRANCH   5   6
ENDBRANCH   4   5
ENDBRANCH   3   4
ENDBRANCH   2   3
ENDBRANCH   1   2
BRANCH   1  21
ATOM     21  C   UNL A   1      37.645  19.934  25.009  1.00  0.00     0.261 C 
BRANCH  21  22
ATOM     22  O   UNL A   1      38.495  21.079  25.191  1.00  0.00    -0.460 OA
BRANCH  22  23
ATOM     23  C   UNL A   1      39.475  20.898  26.113  1.00  0.00     0.338 C 
ATOM     24  O   UNL A   1      40.114  19.878  26.308  1.00  0.00    -0.246 OA
BRANCH  23  25
ATOM     25  C   UNL A   1      39.831  22.184  26.744  1.00  0.00     0.060 A 
ATOM     26  C   UNL A   1      39.178  23.331  26.272  1.00  0.00     0.016 A 
ATOM     27  C   UNL A   1      40.838  22.285  27.705  1.00  0.00     0.016 A 
ATOM     28  C   UNL A   1      39.572  24.591  26.715  1.00  0.00     0.010 A 
ATOM     29  C   UNL A   1      41.234  23.554  28.145  1.00  0.00     0.010 A 
ATOM     30  C   UNL A   1      40.631  24.714  27.623  1.00  0.00    -0.014 A 
BRANCH  30  31
ATOM     31  C   UNL A   1      41.196  26.058  27.904  1.00  0.00     0.031 A 
ATOM     32  C   UNL A   1      42.590  26.379  27.429  1.00  0.00     0.074 A 
ATOM     33  C   UNL A   1      40.463  26.996  28.531  1.00  0.00     0.049 A 
ATOM     34  N   UNL A   1      43.297  27.465  27.605  1.00  0.00    -0.248 NA
ATOM     35  C   UNL A   1      43.274  25.331  26.658  1.00  0.00     0.031 C 
ATOM     36  C   UNL A   1      39.086  26.821  28.986  1.00  0.00     0.029 A 
ATOM     37  N   UNL A   1      40.776  28.282  28.896  1.00  0.00    -0.354 N 
ATOM     38  C   UNL A   1      44.513  27.232  26.970  1.00  0.00     0.074 A 
ATOM     39  C   UNL A   1      44.460  25.883  26.446  1.00  0.00     0.031 C 
ATOM     40  C   UNL A   1      38.674  27.955  29.577  1.00  0.00     0.029 A 
ATOM     41  C   UNL A   1      39.772  28.919  29.587  1.00  0.00     0.049 A 
ATOM     42  H   UNL A   1      41.639  28.708  28.683  1.00  0.00     0.167 HD
ATOM     43  C   UNL A   1      45.571  28.068  26.828  1.00  0.00     0.034 A 
ATOM     44  C   UNL A   1      39.753  30.127  30.186  1.00  0.00     0.034 A 
ATOM     45  C   UNL A   1      45.611  29.407  27.366  1.00  0.00     0.049 A 
ATOM     46  C   UNL A   1      40.980  31.005  30.103  1.00  0.00     0.074 A 
ATOM     47  C   UNL A   1      46.628  30.342  27.275  1.00  0.00     0.029 A 
ATOM     48  N   UNL A   1      44.595  30.001  28.106  1.00  0.00    -0.354 N 
ATOM     49  N   UNL A   1      42.125  30.771  29.502  1.00  0.00    -0.248 NA
ATOM     50  C   UNL A   1      40.908  32.311  30.770  1.00  0.00     0.031 C 
ATOM     51  C   UNL A   1      46.264  31.463  28.029  1.00  0.00     0.029 A 
ATOM     52  C   UNL A   1      44.978  31.271  28.510  1.00  0.00     0.049 A 
ATOM     53  H   UNL A   1      43.730  29.580  28.314  1.00  0.00     0.167 HD
ATOM     54  C   UNL A   1      42.894  31.918  29.692  1.00  0.00     0.074 A 
ATOM     55  C   UNL A   1      42.077  32.844  30.447  1.00  0.00     0.031 C 
ATOM     56  C   UNL A   1      44.159  32.185  29.274  1.00  0.00     0.034 A 
BRANCH  43  57
ATOM     57  C   UNL A   1      46.789  27.538  26.108  1.00  0.00     0.023 A 
ATOM     58  C   UNL A   1      47.098  27.920  24.790  1.00  0.00     0.031 A 
ATOM     59  C   UNL A   1      47.645  26.620  26.743  1.00  0.00     0.131 A 
ATOM     60  C   UNL A   1      48.189  27.335  24.128  1.00  0.00     0.055 A 
ATOM     61  C   UNL A   1      48.777  26.106  26.107  1.00  0.00     0.041 A 
ATOM     62  F   UNL A   1      47.390  26.197  27.990  1.00  0.00    -0.206 F 
ATOM     63  C   UNL A   1      49.046  26.452  24.787  1.00  0.00     0.022 A 
BRANCH  60  64
ATOM     64  S   UNL A   1      48.381  27.627  22.349  1.00  0.00     0.124 S 
ATOM     65  O   UNL A   1      49.637  28.372  22.307  1.00  0.00    -0.237 OA
ATOM     66  O   UNL A   1      48.421  26.274  21.809  1.00  0.00    -0.237 OA
ATOM     67  O   UNL A   1      47.194  28.405  22.000  1.00  0.00    -0.744 OA
ENDBRANCH  60  64
ENDBRANCH  43  57
BRANCH  44  68
ATOM     68  C   UNL A   1      38.557  30.565  30.963  1.00  0.00     0.023 A 
ATOM     69  C   UNL A   1      37.486  31.228  30.344  1.00  0.00     0.031 A 
ATOM     70  C   UNL A   1      38.495  30.376  32.357  1.00  0.00     0.131 A 
ATOM     71  C   UNL A   1      36.427  31.724  31.121  1.00  0.00     0.055 A 
ATOM     72  C   UNL A   1      37.409  30.815  33.116  1.00  0.00     0.041 A 
ATOM     73  F   UNL A   1      39.494  29.753  33.002  1.00  0.00    -0.206 F 
ATOM     74  C   UNL A   1      36.373  31.506  32.500  1.00  0.00     0.022 A 
BRANCH  71  75
ATOM     75  S   UNL A   1      35.167  32.753  30.317  1.00  0.00     0.124 S 
ATOM     76  O   UNL A   1      34.236  32.992  31.414  1.00  0.00    -0.237 OA
ATOM     77  O   UNL A   1      35.951  33.902  29.877  1.00  0.00    -0.237 OA
ATOM     78  O   UNL A   1      34.663  31.897  29.245  1.00  0.00    -0.744 OA
ENDBRANCH  71  75
ENDBRANCH  44  68
BRANCH  56  79
ATOM     79  C   UNL A   1      44.715  33.556  29.579  1.00  0.00     0.023 A 
ATOM     80  C   UNL A   1      44.277  34.707  28.898  1.00  0.00     0.031 A 
ATOM     81  C   UNL A   1      45.706  33.712  30.565  1.00  0.00     0.131 A 
ATOM     82  C   UNL A   1      44.872  35.949  29.170  1.00  0.00     0.055 A 
ATOM     83  C   UNL A   1      46.242  34.961  30.882  1.00  0.00     0.041 A 
ATOM     84  F   UNL A   1      46.167  32.650  31.246  1.00  0.00    -0.206 F 
ATOM     85  C   UNL A   1      45.836  36.087  30.171  1.00  0.00     0.022 A 
BRANCH  82  86
ATOM     86  S   UNL A   1      44.445  37.366  28.122  1.00  0.00     0.124 S 
ATOM     87  O   UNL A   1      43.321  37.951  28.847  1.00  0.00    -0.237 OA
ATOM     88  O   UNL A   1      45.680  38.142  28.126  1.00  0.00    -0.237 OA
ATOM     89  O   UNL A   1      44.103  36.754  26.839  1.00  0.00    -0.744 OA
ENDBRANCH  82  86
ENDBRANCH  56  79
ENDBRANCH  30  31
ENDBRANCH  23  25
ENDBRANCH  22  23
ENDBRANCH  21  22
ENDBRANCH   1  21
TORSDOF 18
ENDMDL
MODEL 3
REMARK VINA RESULT:     -10.8      4.955      8.128
REMARK SMILES C[C@@H](C(=O)OCCOCCOC(=O)c1ccc(-c2c3nc(c(-c4cc(S(=O)(=O)[O-])ccc4F)c4ccc([nH]4)c(-c4cc(S(=O)(=O)[O-])ccc4F)c4nc(c(-c5cc(S(=O)(=O)[O-])ccc5F)c5ccc2[nH]5)C=C4)C=C3)cc1)N1C(=O)c2nccnc2C1=O
REMARK SMILES IDX 9 1 8 2 7 3 6 4 5 5 3 6 4 7 2 8 1 9 77 10 78 11 86 12 79 13
REMARK SMILES IDX 80 14 85 15 87 16 81 17 84 18 82 19 83 20 10 21 11 22 12 23
REMARK SMILES IDX 13 24 14 25 15 26 76 27 16 28 75 29 17 30 18 31 19 32 69 33
REMARK SMILES IDX 20 34 74 35 68 36 70 37 21 38 73 39 67 40 66 41 22 43 54 44
REMARK SMILES IDX 34 45 53 46 35 47 38 48 52 49 71 50 36 51 37 52 51 54 72 55
REMARK SMILES IDX 39 56 23 57 24 58 32 59 25 60 31 61 33 62 30 63 26 64 27 65
REMARK SMILES IDX 28 66 29 67 55 68 56 69 64 70 57 71 63 72 65 73 62 74 58 75
REMARK SMILES IDX 59 76 60 77 61 78 40 79 41 80 49 81 42 82 48 83 50 84 47 85
REMARK SMILES IDX 43 86 44 87 45 88 46 89
REMARK H PARENT 70 42 38 53
REMARK Flexibility Score: inf
ROOT
ATOM      1  C   UNL A   1      35.691  20.931  25.403  1.00  0.00     0.202 C 
ENDROOT
BRANCH   1   2
ATOM      2  O   UNL A   1      34.441  20.475  24.892  1.00  0.00    -0.374 OA
BRANCH   2   3
ATOM      3  C   UNL A   1      33.267  20.743  25.654  1.00  0.00     0.202 C 
BRANCH   3   4
ATOM      4  C   UNL A   1      32.131  21.522  24.983  1.00  0.00     0.261 C 
BRANCH   4   5
ATOM      5  O   UNL A   1      32.429  22.920  24.825  1.00  0.00    -0.462 OA
BRANCH   5   6
ATOM      6  C   UNL A   1      31.893  23.497  23.716  1.00  0.00     0.329 C 
ATOM      7  O   UNL A   1      30.740  23.325  23.333  1.00  0.00    -0.250 OA
BRANCH   6   8
ATOM      8  C   UNL A   1      32.901  24.388  22.972  1.00  0.00     0.201 C 
ATOM      9  C   UNL A   1      34.355  24.256  23.419  1.00  0.00     0.044 C 
BRANCH   8  10
ATOM     10  N   UNL A   1      32.373  25.754  23.085  1.00  0.00    -0.257 N 
ATOM     11  C   UNL A   1      32.256  26.491  24.239  1.00  0.00     0.282 C 
ATOM     12  C   UNL A   1      31.681  26.340  22.051  1.00  0.00     0.282 C 
ATOM     13  O   UNL A   1      32.680  26.238  25.349  1.00  0.00    -0.267 OA
ATOM     14  C   UNL A   1      31.471  27.677  23.895  1.00  0.00     0.160 A 
ATOM     15  C   UNL A   1      31.103  27.572  22.581  1.00  0.00     0.160 A 
ATOM     16  O   UNL A   1      31.557  25.931  20.910  1.00  0.00    -0.267 OA
ATOM     17  N   UNL A   1      31.150  28.717  24.693  1.00  0.00    -0.247 NA
ATOM     18  N   UNL A   1      30.363  28.488  21.924  1.00  0.00    -0.247 NA
ATOM     19  C   UNL A   1      30.400  29.653  24.054  1.00  0.00     0.132 A 
ATOM     20  C   UNL A   1      30.012  29.538  22.711  1.00  0.00     0.132 A 
ENDBRANCH   8  10
ENDBRANCH   6   8
ENDBRANCH   5   6
ENDBRANCH   4   5
ENDBRANCH   3   4
ENDBRANCH   2   3
ENDBRANCH   1   2
BRANCH   1  21
ATOM     21  C   UNL A   1      36.975  20.193  25.003  1.00  0.00     0.261 C 
BRANCH  21  22
ATOM     22  O   UNL A   1      38.133  21.045  24.962  1.00  0.00    -0.460 OA
BRANCH  22  23
ATOM     23  C   UNL A   1      39.086  20.723  25.873  1.00  0.00     0.338 C 
ATOM     24  O   UNL A   1      39.589  19.626  26.047  1.00  0.00    -0.246 OA
BRANCH  23  25
ATOM     25  C   UNL A   1      39.609  21.942  26.522  1.00  0.00     0.060 A 
ATOM     26  C   UNL A   1      39.040  23.164  26.140  1.00  0.00     0.016 A 
ATOM     27  C   UNL A   1      40.686  21.907  27.409  1.00  0.00     0.016 A 
ATOM     28  C   UNL A   1      39.583  24.362  26.597  1.00  0.00     0.010 A 
ATOM     29  C   UNL A   1      41.233  23.112  27.864  1.00  0.00     0.010 A 
ATOM     30  C   UNL A   1      40.710  24.345  27.429  1.00  0.00    -0.014 A 
BRANCH  30  31
ATOM     31  C   UNL A   1      41.422  25.617  27.716  1.00  0.00     0.031 A 
ATOM     32  C   UNL A   1      40.702  26.703  28.473  1.00  0.00     0.074 A 
ATOM     33  C   UNL A   1      42.705  25.786  27.350  1.00  0.00     0.049 A 
ATOM     34  N   UNL A   1      41.109  27.905  28.790  1.00  0.00    -0.248 NA
ATOM     35  C   UNL A   1      39.339  26.388  28.928  1.00  0.00     0.031 C 
ATOM     36  C   UNL A   1      43.522  24.787  26.664  1.00  0.00     0.029 A 
ATOM     37  N   UNL A   1      43.546  26.860  27.502  1.00  0.00    -0.354 N 
ATOM     38  C   UNL A   1      40.052  28.493  29.478  1.00  0.00     0.074 A 
ATOM     39  C   UNL A   1      38.971  27.529  29.489  1.00  0.00     0.031 C 
ATOM     40  C   UNL A   1      44.745  25.299  26.447  1.00  0.00     0.029 A 
ATOM     41  C   UNL A   1      44.785  26.677  26.933  1.00  0.00     0.049 A 
ATOM     42  H   UNL A   1      43.287  27.685  27.974  1.00  0.00     0.167 HD
ATOM     43  C   UNL A   1      39.993  29.719  30.055  1.00  0.00     0.034 A 
ATOM     44  C   UNL A   1      45.818  27.531  26.792  1.00  0.00     0.034 A 
ATOM     45  C   UNL A   1      41.077  30.672  30.024  1.00  0.00     0.049 A 
ATOM     46  C   UNL A   1      45.694  28.928  27.354  1.00  0.00     0.074 A 
ATOM     47  C   UNL A   1      41.127  31.938  30.582  1.00  0.00     0.029 A 
ATOM     48  N   UNL A   1      42.299  30.470  29.393  1.00  0.00    -0.354 N 
ATOM     49  N   UNL A   1      44.688  29.474  27.999  1.00  0.00    -0.248 NA
ATOM     50  C   UNL A   1      46.848  29.820  27.175  1.00  0.00     0.031 C 
ATOM     51  C   UNL A   1      42.340  32.532  30.217  1.00  0.00     0.029 A 
ATOM     52  C   UNL A   1      43.091  31.602  29.514  1.00  0.00     0.049 A 
ATOM     53  H   UNL A   1      42.563  29.644  28.927  1.00  0.00     0.167 HD
ATOM     54  C   UNL A   1      45.106  30.761  28.334  1.00  0.00     0.074 A 
ATOM     55  C   UNL A   1      46.456  30.902  27.832  1.00  0.00     0.031 C 
ATOM     56  C   UNL A   1      44.436  31.737  29.000  1.00  0.00     0.034 A 
BRANCH  43  57
ATOM     57  C   UNL A   1      38.695  30.116  30.719  1.00  0.00     0.023 A 
ATOM     58  C   UNL A   1      37.677  30.786  30.019  1.00  0.00     0.031 A 
ATOM     59  C   UNL A   1      38.481  29.837  32.082  1.00  0.00     0.131 A 
ATOM     60  C   UNL A   1      36.525  31.216  30.698  1.00  0.00     0.055 A 
ATOM     61  C   UNL A   1      37.297  30.192  32.730  1.00  0.00     0.041 A 
ATOM     62  F   UNL A   1      39.426  29.222  32.810  1.00  0.00    -0.206 F 
ATOM     63  C   UNL A   1      36.317  30.899  32.042  1.00  0.00     0.022 A 
BRANCH  60  64
ATOM     64  S   UNL A   1      35.376  32.325  29.839  1.00  0.00     0.124 S 
ATOM     65  O   UNL A   1      34.405  32.616  30.891  1.00  0.00    -0.237 OA
ATOM     66  O   UNL A   1      36.240  33.430  29.443  1.00  0.00    -0.237 OA
ATOM     67  O   UNL A   1      34.866  31.506  28.741  1.00  0.00    -0.744 OA
ENDBRANCH  60  64
ENDBRANCH  43  57
BRANCH  44  68
ATOM     68  C   UNL A   1      47.042  27.118  26.046  1.00  0.00     0.023 A 
ATOM     69  C   UNL A   1      48.104  26.463  26.690  1.00  0.00     0.031 A 
ATOM     70  C   UNL A   1      47.192  27.427  24.681  1.00  0.00     0.131 A 
ATOM     71  C   UNL A   1      49.287  26.187  25.984  1.00  0.00     0.055 A 
ATOM     72  C   UNL A   1      48.345  27.092  23.968  1.00  0.00     0.041 A 
ATOM     73  F   UNL A   1      46.211  28.057  24.016  1.00  0.00    -0.206 F 
ATOM     74  C   UNL A   1      49.407  26.481  24.624  1.00  0.00     0.022 A 
BRANCH  71  75
ATOM     75  S   UNL A   1      50.709  25.530  26.898  1.00  0.00     0.124 S 
ATOM     76  O   UNL A   1      51.629  25.201  25.815  1.00  0.00    -0.237 OA
ATOM     77  O   UNL A   1      51.082  26.665  27.735  1.00  0.00    -0.237 OA
ATOM     78  O   UNL A   1      50.153  24.385  27.615  1.00  0.00    -0.744 OA
ENDBRANCH  71  75
ENDBRANCH  44  68
BRANCH  56  79
ATOM     79  C   UNL A   1      45.177  33.025  29.273  1.00  0.00     0.023 A 
ATOM     80  C   UNL A   1      45.150  34.106  28.373  1.00  0.00     0.031 A 
ATOM     81  C   UNL A   1      45.930  33.170  30.453  1.00  0.00     0.131 A 
ATOM     82  C   UNL A   1      45.909  35.256  28.639  1.00  0.00     0.055 A 
ATOM     83  C   UNL A   1      46.624  34.344  30.746  1.00  0.00     0.041 A 
ATOM     84  F   UNL A   1      45.997  32.171  31.348  1.00  0.00    -0.206 F 
ATOM     85  C   UNL A   1      46.629  35.391  29.828  1.00  0.00     0.022 A 
BRANCH  82  86
ATOM     86  S   UNL A   1      46.030  36.535  27.358  1.00  0.00     0.124 S 
ATOM     87  O   UNL A   1      46.362  35.748  26.175  1.00  0.00    -0.237 OA
ATOM     88  O   UNL A   1      44.696  37.125  27.378  1.00  0.00    -0.237 OA
ATOM     89  O   UNL A   1      47.100  37.407  27.843  1.00  0.00    -0.744 OA
ENDBRANCH  82  86
ENDBRANCH  56  79
ENDBRANCH  30  31
ENDBRANCH  23  25
ENDBRANCH  22  23
ENDBRANCH  21  22
ENDBRANCH   1  21
TORSDOF 18
ENDMDL
