MODEL 1
REMARK VINA RESULT:     -11.3      0.000      0.000
REMARK SMILES CC(C)N1C[C@H](C(=O)N[C@@H]2C=C[C@@H](C(=O)OCCOCCOC(=O)c3ccc(-c4c5nc(c(-c6cc(S(=O)(=O)[O-])ccc6F)c6ccc([nH]6)c(-c6cc(S(=O)(=O)[O-])ccc6F)c6nc(c(-c7cc(S(=O)(=O)[O-])ccc7F)c7ccc4[nH]7)C=C6)C=C5)cc3)C2)CC1=O
REMARK SMILES IDX 19 1 18 2 17 3 16 4 14 5 15 6 13 7 10 8 11 9 88 10 12 11
REMARK SMILES IDX 9 12 7 13 8 14 6 16 4 17 5 18 90 19 89 20 91 21 2 22 1 23
REMARK SMILES IDX 3 24 20 25 21 26 22 27 23 28 24 29 25 30 26 31 87 32 27 33
REMARK SMILES IDX 86 34 28 35 29 36 30 37 80 38 31 39 85 40 79 41 81 42 32 43
REMARK SMILES IDX 84 44 78 45 77 46 33 48 65 49 45 50 64 51 46 52 49 53 63 54
REMARK SMILES IDX 82 55 47 56 48 57 62 59 83 60 50 61 34 62 35 63 43 64 36 65
REMARK SMILES IDX 42 66 44 67 41 68 37 69 38 70 39 71 40 72 66 73 67 74 75 75
REMARK SMILES IDX 68 76 74 77 76 78 73 79 69 80 70 81 71 82 72 83 51 84 52 85
REMARK SMILES IDX 60 86 53 87 59 88 61 89 58 90 54 91 55 92 56 93 57 94
REMARK H PARENT 9 15 81 47 49 58
REMARK Flexibility Score: inf
ROOT
ATOM      1  O   UNL A   1      35.573  20.331  25.605  1.00  0.00    -0.374 OA
ENDROOT
BRANCH   1   2
ATOM      2  C   UNL A   1      35.156  21.679  25.370  1.00  0.00     0.202 C 
BRANCH   2   3
ATOM      3  C   UNL A   1      34.232  21.875  24.166  1.00  0.00     0.261 C 
BRANCH   3   4
ATOM      4  O   UNL A   1      34.763  22.897  23.306  1.00  0.00    -0.463 OA
BRANCH   4   5
ATOM      5  C   UNL A   1      33.860  23.720  22.717  1.00  0.00     0.312 C 
ATOM      6  O   UNL A   1      33.315  23.507  21.640  1.00  0.00    -0.252 OA
BRANCH   5   7
ATOM      7  C   UNL A   1      33.535  24.939  23.576  1.00  0.00     0.124 C 
ATOM      8  C   UNL A   1      32.503  25.760  25.636  1.00  0.00     0.106 C 
ATOM      9  C   UNL A   1      33.981  25.544  25.797  1.00  0.00    -0.006 C 
ATOM     10  C   UNL A   1      32.237  24.903  24.395  1.00  0.00     0.048 C 
ATOM     11  C   UNL A   1      34.554  25.125  24.661  1.00  0.00    -0.014 C 
BRANCH   8  12
ATOM     12  N   UNL A   1      32.325  27.200  25.520  1.00  0.00    -0.350 N 
ATOM     13  C   UNL A   1      31.429  27.959  24.832  1.00  0.00     0.225 C 
ATOM     14  O   UNL A   1      31.250  29.117  25.212  1.00  0.00    -0.275 OA
ATOM     15  H   UNL A   1      32.979  27.726  26.037  1.00  0.00     0.164 HD
BRANCH  13  16
ATOM     16  C   UNL A   1      30.753  27.406  23.595  1.00  0.00     0.107 C 
ATOM     17  N   UNL A   1      28.906  28.716  22.897  1.00  0.00    -0.339 N 
ATOM     18  C   UNL A   1      29.235  27.521  23.646  1.00  0.00     0.133 C 
ATOM     19  C   UNL A   1      29.970  29.152  22.129  1.00  0.00     0.223 C 
ATOM     20  C   UNL A   1      31.148  28.250  22.384  1.00  0.00     0.115 C 
ATOM     21  O   UNL A   1      29.991  30.067  21.322  1.00  0.00    -0.275 OA
BRANCH  17  22
ATOM     22  C   UNL A   1      27.527  29.217  22.843  1.00  0.00     0.078 C 
ATOM     23  C   UNL A   1      26.496  28.312  23.521  1.00  0.00     0.031 C 
ATOM     24  C   UNL A   1      27.433  30.632  23.417  1.00  0.00     0.031 C 
ENDBRANCH  17  22
ENDBRANCH  13  16
ENDBRANCH   8  12
ENDBRANCH   5   7
ENDBRANCH   4   5
ENDBRANCH   3   4
ENDBRANCH   2   3
ENDBRANCH   1   2
BRANCH   1  25
ATOM     25  C   UNL A   1      36.427  19.726  24.634  1.00  0.00     0.202 C 
BRANCH  25  26
ATOM     26  C   UNL A   1      37.920  19.671  24.978  1.00  0.00     0.261 C 
BRANCH  26  27
ATOM     27  O   UNL A   1      38.395  20.894  25.571  1.00  0.00    -0.460 OA
BRANCH  27  28
ATOM     28  C   UNL A   1      39.570  20.770  26.236  1.00  0.00     0.338 C 
ATOM     29  O   UNL A   1      40.309  19.793  26.242  1.00  0.00    -0.246 OA
BRANCH  28  30
ATOM     30  C   UNL A   1      39.964  22.056  26.835  1.00  0.00     0.060 A 
ATOM     31  C   UNL A   1      39.326  23.208  26.357  1.00  0.00     0.016 A 
ATOM     32  C   UNL A   1      40.994  22.151  27.774  1.00  0.00     0.016 A 
ATOM     33  C   UNL A   1      39.749  24.466  26.779  1.00  0.00     0.010 A 
ATOM     34  C   UNL A   1      41.421  23.417  28.192  1.00  0.00     0.010 A 
ATOM     35  C   UNL A   1      40.825  24.580  27.670  1.00  0.00    -0.014 A 
BRANCH  35  36
ATOM     36  C   UNL A   1      41.415  25.917  27.927  1.00  0.00     0.031 A 
ATOM     37  C   UNL A   1      42.815  26.201  27.456  1.00  0.00     0.074 A 
ATOM     38  C   UNL A   1      40.698  26.876  28.539  1.00  0.00     0.049 A 
ATOM     39  N   UNL A   1      43.537  27.283  27.591  1.00  0.00    -0.248 NA
ATOM     40  C   UNL A   1      43.492  25.108  26.742  1.00  0.00     0.031 C 
ATOM     41  C   UNL A   1      39.321  26.728  29.008  1.00  0.00     0.029 A 
ATOM     42  N   UNL A   1      41.033  28.163  28.878  1.00  0.00    -0.354 N 
ATOM     43  C   UNL A   1      44.755  27.006  26.978  1.00  0.00     0.074 A 
ATOM     44  C   UNL A   1      44.686  25.634  26.518  1.00  0.00     0.031 C 
ATOM     45  C   UNL A   1      38.935  27.875  29.592  1.00  0.00     0.029 A 
ATOM     46  C   UNL A   1      40.045  28.825  29.567  1.00  0.00     0.049 A 
ATOM     47  H   UNL A   1      41.899  28.573  28.650  1.00  0.00     0.167 HD
ATOM     48  C   UNL A   1      45.824  27.823  26.803  1.00  0.00     0.034 A 
ATOM     49  C   UNL A   1      40.048  30.047  30.138  1.00  0.00     0.034 A 
ATOM     50  C   UNL A   1      45.879  29.182  27.288  1.00  0.00     0.049 A 
ATOM     51  C   UNL A   1      41.274  30.915  30.005  1.00  0.00     0.074 A 
ATOM     52  C   UNL A   1      46.901  30.105  27.158  1.00  0.00     0.029 A 
ATOM     53  N   UNL A   1      44.871  29.809  28.012  1.00  0.00    -0.354 N 
ATOM     54  N   UNL A   1      42.413  30.649  29.407  1.00  0.00    -0.248 NA
ATOM     55  C   UNL A   1      41.210  32.251  30.611  1.00  0.00     0.031 C 
ATOM     56  C   UNL A   1      46.544  31.260  27.865  1.00  0.00     0.029 A 
ATOM     57  C   UNL A   1      45.264  31.092  28.368  1.00  0.00     0.049 A 
ATOM     58  H   UNL A   1      44.004  29.403  28.240  1.00  0.00     0.167 HD
ATOM     59  C   UNL A   1      43.193  31.795  29.546  1.00  0.00     0.074 A 
ATOM     60  C   UNL A   1      42.386  32.757  30.270  1.00  0.00     0.031 C 
ATOM     61  C   UNL A   1      44.457  32.033  29.110  1.00  0.00     0.034 A 
BRANCH  48  62
ATOM     62  C   UNL A   1      47.031  27.237  26.108  1.00  0.00     0.023 A 
ATOM     63  C   UNL A   1      47.986  26.472  26.803  1.00  0.00     0.031 A 
ATOM     64  C   UNL A   1      47.263  27.495  24.745  1.00  0.00     0.131 A 
ATOM     65  C   UNL A   1      49.166  26.072  26.158  1.00  0.00     0.055 A 
ATOM     66  C   UNL A   1      48.398  27.017  24.087  1.00  0.00     0.041 A 
ATOM     67  F   UNL A   1      46.400  28.238  24.034  1.00  0.00    -0.206 F 
ATOM     68  C   UNL A   1      49.368  26.318  24.799  1.00  0.00     0.022 A 
BRANCH  65  69
ATOM     69  S   UNL A   1      50.510  25.382  27.166  1.00  0.00     0.124 S 
ATOM     70  O   UNL A   1      50.844  26.515  28.025  1.00  0.00    -0.237 OA
ATOM     71  O   UNL A   1      49.863  24.250  27.819  1.00  0.00    -0.237 OA
ATOM     72  O   UNL A   1      51.532  25.036  26.180  1.00  0.00    -0.744 OA
ENDBRANCH  65  69
ENDBRANCH  48  62
BRANCH  49  73
ATOM     73  C   UNL A   1      38.869  30.501  30.930  1.00  0.00     0.023 A 
ATOM     74  C   UNL A   1      37.765  31.116  30.319  1.00  0.00     0.031 A 
ATOM     75  C   UNL A   1      38.849  30.348  32.329  1.00  0.00     0.131 A 
ATOM     76  C   UNL A   1      36.704  31.586  31.108  1.00  0.00     0.055 A 
ATOM     77  C   UNL A   1      37.769  30.774  33.104  1.00  0.00     0.041 A 
ATOM     78  F   UNL A   1      39.878  29.764  32.963  1.00  0.00    -0.206 F 
ATOM     79  C   UNL A   1      36.692  31.407  32.494  1.00  0.00     0.022 A 
BRANCH  76  80
ATOM     80  S   UNL A   1      35.358  32.498  30.303  1.00  0.00     0.124 S 
ATOM     81  O   UNL A   1      34.371  32.578  31.374  1.00  0.00    -0.237 OA
ATOM     82  O   UNL A   1      36.016  33.749  29.942  1.00  0.00    -0.237 OA
ATOM     83  O   UNL A   1      34.991  31.642  29.178  1.00  0.00    -0.744 OA
ENDBRANCH  76  80
ENDBRANCH  49  73
BRANCH  61  84
ATOM     84  C   UNL A   1      45.028  33.407  29.376  1.00  0.00     0.023 A 
ATOM     85  C   UNL A   1      44.744  34.502  28.542  1.00  0.00     0.031 A 
ATOM     86  C   UNL A   1      45.875  33.618  30.479  1.00  0.00     0.131 A 
ATOM     87  C   UNL A   1      45.346  35.746  28.792  1.00  0.00     0.055 A 
ATOM     88  C   UNL A   1      46.423  34.871  30.757  1.00  0.00     0.041 A 
ATOM     89  F   UNL A   1      46.184  32.608  31.308  1.00  0.00    -0.206 F 
ATOM     90  C   UNL A   1      46.170  35.941  29.903  1.00  0.00     0.022 A 
BRANCH  87  91
ATOM     91  S   UNL A   1      45.110  37.085  27.591  1.00  0.00     0.124 S 
ATOM     92  O   UNL A   1      46.321  36.983  26.783  1.00  0.00    -0.237 OA
ATOM     93  O   UNL A   1      43.868  36.698  26.931  1.00  0.00    -0.237 OA
ATOM     94  O   UNL A   1      45.021  38.282  28.426  1.00  0.00    -0.744 OA
ENDBRANCH  87  91
ENDBRANCH  61  84
ENDBRANCH  35  36
ENDBRANCH  28  30
ENDBRANCH  27  28
ENDBRANCH  26  27
ENDBRANCH  25  26
ENDBRANCH   1  25
TORSDOF 20
ENDMDL
MODEL 2
REMARK VINA RESULT:     -10.9      1.908      7.679
REMARK SMILES CC(C)N1C[C@H](C(=O)N[C@@H]2C=C[C@@H](C(=O)OCCOCCOC(=O)c3ccc(-c4c5nc(c(-c6cc(S(=O)(=O)[O-])ccc6F)c6ccc([nH]6)c(-c6cc(S(=O)(=O)[O-])ccc6F)c6nc(c(-c7cc(S(=O)(=O)[O-])ccc7F)c7ccc4[nH]7)C=C6)C=C5)cc3)C2)CC1=O
REMARK SMILES IDX 19 1 18 2 17 3 16 4 14 5 15 6 13 7 10 8 11 9 88 10 12 11
REMARK SMILES IDX 9 12 7 13 8 14 6 16 4 17 5 18 90 19 89 20 91 21 2 22 1 23
REMARK SMILES IDX 3 24 20 25 21 26 22 27 23 28 24 29 25 30 26 31 87 32 27 33
REMARK SMILES IDX 86 34 28 35 29 36 30 37 80 38 31 39 85 40 79 41 81 42 32 43
REMARK SMILES IDX 84 44 78 45 77 46 33 48 65 49 45 50 64 51 46 52 49 53 63 54
REMARK SMILES IDX 82 55 47 56 48 57 62 59 83 60 50 61 34 62 35 63 43 64 36 65
REMARK SMILES IDX 42 66 44 67 41 68 37 69 38 70 39 71 40 72 66 73 67 74 75 75
REMARK SMILES IDX 68 76 74 77 76 78 73 79 69 80 70 81 71 82 72 83 51 84 52 85
REMARK SMILES IDX 60 86 53 87 59 88 61 89 58 90 54 91 55 92 56 93 57 94
REMARK H PARENT 9 15 81 47 49 58
REMARK Flexibility Score: inf
ROOT
ATOM      1  O   UNL A   1      35.838  20.986  25.717  1.00  0.00    -0.374 OA
ENDROOT
BRANCH   1   2
ATOM      2  C   UNL A   1      35.663  22.229  25.032  1.00  0.00     0.202 C 
BRANCH   2   3
ATOM      3  C   UNL A   1      34.891  22.144  23.714  1.00  0.00     0.261 C 
BRANCH   3   4
ATOM      4  O   UNL A   1      34.872  23.433  23.077  1.00  0.00    -0.463 OA
BRANCH   4   5
ATOM      5  C   UNL A   1      33.649  23.974  22.845  1.00  0.00     0.312 C 
ATOM      6  O   UNL A   1      32.803  23.499  22.096  1.00  0.00    -0.252 OA
BRANCH   5   7
ATOM      7  C   UNL A   1      33.401  25.230  23.676  1.00  0.00     0.124 C 
ATOM      8  C   UNL A   1      32.588  26.141  25.795  1.00  0.00     0.106 C 
ATOM      9  C   UNL A   1      34.077  25.949  25.802  1.00  0.00    -0.006 C 
ATOM     10  C   UNL A   1      32.201  25.221  24.633  1.00  0.00     0.048 C 
ATOM     11  C   UNL A   1      34.529  25.480  24.632  1.00  0.00    -0.014 C 
BRANCH   8  12
ATOM     12  N   UNL A   1      32.376  27.572  25.631  1.00  0.00    -0.350 N 
ATOM     13  C   UNL A   1      31.483  28.285  24.890  1.00  0.00     0.225 C 
ATOM     14  O   UNL A   1      31.261  29.448  25.229  1.00  0.00    -0.275 OA
ATOM     15  H   UNL A   1      32.996  28.130  26.153  1.00  0.00     0.164 HD
BRANCH  13  16
ATOM     16  C   UNL A   1      30.865  27.678  23.648  1.00  0.00     0.107 C 
ATOM     17  N   UNL A   1      28.953  28.863  22.903  1.00  0.00    -0.339 N 
ATOM     18  C   UNL A   1      29.343  27.699  23.672  1.00  0.00     0.133 C 
ATOM     19  C   UNL A   1      30.002  29.356  22.149  1.00  0.00     0.223 C 
ATOM     20  C   UNL A   1      31.228  28.532  22.435  1.00  0.00     0.115 C 
ATOM     21  O   UNL A   1      29.980  30.263  21.331  1.00  0.00    -0.275 OA
BRANCH  17  22
ATOM     22  C   UNL A   1      27.547  29.277  22.821  1.00  0.00     0.078 C 
ATOM     23  C   UNL A   1      26.562  28.317  23.492  1.00  0.00     0.031 C 
ATOM     24  C   UNL A   1      27.356  30.689  23.374  1.00  0.00     0.031 C 
ENDBRANCH  17  22
ENDBRANCH  13  16
ENDBRANCH   8  12
ENDBRANCH   5   7
ENDBRANCH   4   5
ENDBRANCH   3   4
ENDBRANCH   2   3
ENDBRANCH   1   2
BRANCH   1  25
ATOM     25  C   UNL A   1      36.429  19.910  24.988  1.00  0.00     0.202 C 
BRANCH  25  26
ATOM     26  C   UNL A   1      37.962  19.872  24.950  1.00  0.00     0.261 C 
BRANCH  26  27
ATOM     27  O   UNL A   1      38.556  21.085  25.448  1.00  0.00    -0.460 OA
BRANCH  27  28
ATOM     28  C   UNL A   1      39.646  20.890  26.231  1.00  0.00     0.338 C 
ATOM     29  O   UNL A   1      40.307  19.863  26.324  1.00  0.00    -0.246 OA
BRANCH  28  30
ATOM     30  C   UNL A   1      40.070  22.156  26.852  1.00  0.00     0.060 A 
ATOM     31  C   UNL A   1      39.481  23.334  26.373  1.00  0.00     0.016 A 
ATOM     32  C   UNL A   1      41.082  22.207  27.813  1.00  0.00     0.016 A 
ATOM     33  C   UNL A   1      39.936  24.573  26.818  1.00  0.00     0.010 A 
ATOM     34  C   UNL A   1      41.543  23.454  28.254  1.00  0.00     0.010 A 
ATOM     35  C   UNL A   1      40.997  24.641  27.732  1.00  0.00    -0.014 A 
BRANCH  35  36
ATOM     36  C   UNL A   1      41.626  25.955  28.016  1.00  0.00     0.031 A 
ATOM     37  C   UNL A   1      40.823  27.012  28.725  1.00  0.00     0.074 A 
ATOM     38  C   UNL A   1      42.906  26.189  27.679  1.00  0.00     0.049 A 
ATOM     39  N   UNL A   1      41.157  28.232  29.053  1.00  0.00    -0.248 NA
ATOM     40  C   UNL A   1      39.453  26.636  29.107  1.00  0.00     0.031 C 
ATOM     41  C   UNL A   1      43.792  25.231  27.020  1.00  0.00     0.029 A 
ATOM     42  N   UNL A   1      43.681  27.310  27.838  1.00  0.00    -0.354 N 
ATOM     43  C   UNL A   1      40.041  28.775  29.683  1.00  0.00     0.074 A 
ATOM     44  C   UNL A   1      39.007  27.763  29.641  1.00  0.00     0.031 C 
ATOM     45  C   UNL A   1      44.986  25.812  26.815  1.00  0.00     0.029 A 
ATOM     46  C   UNL A   1      44.939  27.190  27.295  1.00  0.00     0.049 A 
ATOM     47  H   UNL A   1      43.367  28.123  28.296  1.00  0.00     0.167 HD
ATOM     48  C   UNL A   1      39.898  29.997  30.253  1.00  0.00     0.034 A 
ATOM     49  C   UNL A   1      45.927  28.100  27.174  1.00  0.00     0.034 A 
ATOM     50  C   UNL A   1      40.937  31.001  30.266  1.00  0.00     0.049 A 
ATOM     51  C   UNL A   1      45.724  29.483  27.743  1.00  0.00     0.074 A 
ATOM     52  C   UNL A   1      40.910  32.265  30.825  1.00  0.00     0.029 A 
ATOM     53  N   UNL A   1      42.188  30.857  29.677  1.00  0.00    -0.354 N 
ATOM     54  N   UNL A   1      44.672  29.978  28.353  1.00  0.00    -0.248 NA
ATOM     55  C   UNL A   1      46.846  30.421  27.620  1.00  0.00     0.031 C 
ATOM     56  C   UNL A   1      42.111  32.912  30.510  1.00  0.00     0.029 A 
ATOM     57  C   UNL A   1      42.925  32.023  29.826  1.00  0.00     0.049 A 
ATOM     58  H   UNL A   1      42.506  30.045  29.220  1.00  0.00     0.167 HD
ATOM     59  C   UNL A   1      45.015  31.282  28.706  1.00  0.00     0.074 A 
ATOM     60  C   UNL A   1      46.377  31.486  28.254  1.00  0.00     0.031 C 
ATOM     61  C   UNL A   1      44.275  32.221  29.350  1.00  0.00     0.034 A 
BRANCH  48  62
ATOM     62  C   UNL A   1      38.550  30.323  30.854  1.00  0.00     0.023 A 
ATOM     63  C   UNL A   1      37.559  31.001  30.123  1.00  0.00     0.031 A 
ATOM     64  C   UNL A   1      38.272  30.002  32.195  1.00  0.00     0.131 A 
ATOM     65  C   UNL A   1      36.379  31.416  30.760  1.00  0.00     0.055 A 
ATOM     66  C   UNL A   1      37.058  30.341  32.798  1.00  0.00     0.041 A 
ATOM     67  F   UNL A   1      39.187  29.375  32.952  1.00  0.00    -0.206 F 
ATOM     68  C   UNL A   1      36.111  31.069  32.086  1.00  0.00     0.022 A 
BRANCH  65  69
ATOM     69  S   UNL A   1      35.282  32.567  29.883  1.00  0.00     0.124 S 
ATOM     70  O   UNL A   1      36.189  33.675  29.594  1.00  0.00    -0.237 OA
ATOM     71  O   UNL A   1      34.850  31.776  28.737  1.00  0.00    -0.237 OA
ATOM     72  O   UNL A   1      34.243  32.864  30.867  1.00  0.00    -0.744 OA
ENDBRANCH  65  69
ENDBRANCH  48  62
BRANCH  49  73
ATOM     73  C   UNL A   1      47.177  27.748  26.442  1.00  0.00     0.023 A 
ATOM     74  C   UNL A   1      47.275  27.877  25.049  1.00  0.00     0.031 A 
ATOM     75  C   UNL A   1      48.292  27.243  27.139  1.00  0.00     0.131 A 
ATOM     76  C   UNL A   1      48.448  27.475  24.391  1.00  0.00     0.055 A 
ATOM     77  C   UNL A   1      49.474  26.891  26.486  1.00  0.00     0.041 A 
ATOM     78  F   UNL A   1      48.252  27.104  28.473  1.00  0.00    -0.206 F 
ATOM     79  C   UNL A   1      49.552  26.995  25.101  1.00  0.00     0.022 A 
BRANCH  76  80
ATOM     80  S   UNL A   1      48.491  27.524  22.579  1.00  0.00     0.124 S 
ATOM     81  O   UNL A   1      47.285  28.286  22.273  1.00  0.00    -0.237 OA
ATOM     82  O   UNL A   1      49.759  28.202  22.326  1.00  0.00    -0.237 OA
ATOM     83  O   UNL A   1      48.454  26.115  22.198  1.00  0.00    -0.744 OA
ENDBRANCH  76  80
ENDBRANCH  49  73
BRANCH  61  84
ATOM     84  C   UNL A   1      44.945  33.545  29.635  1.00  0.00     0.023 A 
ATOM     85  C   UNL A   1      45.802  33.721  30.736  1.00  0.00     0.031 A 
ATOM     86  C   UNL A   1      44.713  34.649  28.795  1.00  0.00     0.131 A 
ATOM     87  C   UNL A   1      46.353  34.985  30.998  1.00  0.00     0.055 A 
ATOM     88  C   UNL A   1      45.311  35.888  29.027  1.00  0.00     0.041 A 
ATOM     89  F   UNL A   1      43.901  34.540  27.731  1.00  0.00    -0.206 F 
ATOM     90  C   UNL A   1      46.127  36.065  30.141  1.00  0.00     0.022 A 
BRANCH  87  91
ATOM     91  S   UNL A   1      47.298  35.224  32.528  1.00  0.00     0.124 S 
ATOM     92  O   UNL A   1      47.777  36.593  32.377  1.00  0.00    -0.237 OA
ATOM     93  O   UNL A   1      46.286  35.012  33.557  1.00  0.00    -0.237 OA
ATOM     94  O   UNL A   1      48.333  34.193  32.455  1.00  0.00    -0.744 OA
ENDBRANCH  87  91
ENDBRANCH  61  84
ENDBRANCH  35  36
ENDBRANCH  28  30
ENDBRANCH  27  28
ENDBRANCH  26  27
ENDBRANCH  25  26
ENDBRANCH   1  25
TORSDOF 20
ENDMDL
MODEL 3
REMARK VINA RESULT:     -10.9      2.886      4.386
REMARK SMILES CC(C)N1C[C@H](C(=O)N[C@@H]2C=C[C@@H](C(=O)OCCOCCOC(=O)c3ccc(-c4c5nc(c(-c6cc(S(=O)(=O)[O-])ccc6F)c6ccc([nH]6)c(-c6cc(S(=O)(=O)[O-])ccc6F)c6nc(c(-c7cc(S(=O)(=O)[O-])ccc7F)c7ccc4[nH]7)C=C6)C=C5)cc3)C2)CC1=O
REMARK SMILES IDX 19 1 18 2 17 3 16 4 14 5 15 6 13 7 10 8 11 9 88 10 12 11
REMARK SMILES IDX 9 12 7 13 8 14 6 16 4 17 5 18 90 19 89 20 91 21 2 22 1 23
REMARK SMILES IDX 3 24 20 25 21 26 22 27 23 28 24 29 25 30 26 31 87 32 27 33
REMARK SMILES IDX 86 34 28 35 29 36 30 37 80 38 31 39 85 40 79 41 81 42 32 43
REMARK SMILES IDX 84 44 78 45 77 46 33 48 65 49 45 50 64 51 46 52 49 53 63 54
REMARK SMILES IDX 82 55 47 56 48 57 62 59 83 60 50 61 34 62 35 63 43 64 36 65
REMARK SMILES IDX 42 66 44 67 41 68 37 69 38 70 39 71 40 72 66 73 67 74 75 75
REMARK SMILES IDX 68 76 74 77 76 78 73 79 69 80 70 81 71 82 72 83 51 84 52 85
REMARK SMILES IDX 60 86 53 87 59 88 61 89 58 90 54 91 55 92 56 93 57 94
REMARK H PARENT 9 15 81 47 49 58
REMARK Flexibility Score: inf
ROOT
ATOM      1  O   UNL A   1      41.745  21.346  27.065  1.00  0.00    -0.374 OA
ENDROOT
BRANCH   1   2
ATOM      2  C   UNL A   1      40.618  22.113  26.636  1.00  0.00     0.202 C 
BRANCH   2   3
ATOM      3  C   UNL A   1      39.499  21.311  25.967  1.00  0.00     0.261 C 
BRANCH   3   4
ATOM      4  O   UNL A   1      38.383  22.173  25.687  1.00  0.00    -0.463 OA
BRANCH   4   5
ATOM      5  C   UNL A   1      37.370  21.633  24.964  1.00  0.00     0.312 C 
ATOM      6  O   UNL A   1      37.140  20.433  24.867  1.00  0.00    -0.252 OA
BRANCH   5   7
ATOM      7  C   UNL A   1      36.486  22.695  24.316  1.00  0.00     0.124 C 
ATOM      8  C   UNL A   1      34.239  23.646  24.146  1.00  0.00     0.106 C 
ATOM      9  C   UNL A   1      35.088  24.388  25.138  1.00  0.00    -0.006 C 
ATOM     10  C   UNL A   1      35.019  22.331  24.051  1.00  0.00     0.048 C 
ATOM     11  C   UNL A   1      36.329  23.889  25.210  1.00  0.00    -0.014 C 
BRANCH   8  12
ATOM     12  N   UNL A   1      34.186  24.492  22.962  1.00  0.00    -0.350 N 
ATOM     13  C   UNL A   1      33.413  25.566  22.639  1.00  0.00     0.225 C 
ATOM     14  O   UNL A   1      33.831  26.328  21.766  1.00  0.00    -0.275 OA
ATOM     15  H   UNL A   1      34.829  24.239  22.261  1.00  0.00     0.164 HD
BRANCH  13  16
ATOM     16  C   UNL A   1      32.054  25.749  23.283  1.00  0.00     0.107 C 
ATOM     17  N   UNL A   1      31.918  27.720  24.591  1.00  0.00    -0.339 N 
ATOM     18  C   UNL A   1      32.137  26.292  24.702  1.00  0.00     0.133 C 
ATOM     19  C   UNL A   1      31.390  28.064  23.360  1.00  0.00     0.223 C 
ATOM     20  C   UNL A   1      31.276  26.821  22.521  1.00  0.00     0.115 C 
ATOM     21  O   UNL A   1      31.008  29.162  22.986  1.00  0.00    -0.275 OA
BRANCH  17  22
ATOM     22  C   UNL A   1      32.058  28.598  25.758  1.00  0.00     0.078 C 
ATOM     23  C   UNL A   1      31.558  27.992  27.072  1.00  0.00     0.031 C 
ATOM     24  C   UNL A   1      33.502  29.072  25.921  1.00  0.00     0.031 C 
ENDBRANCH  17  22
ENDBRANCH  13  16
ENDBRANCH   8  12
ENDBRANCH   5   7
ENDBRANCH   4   5
ENDBRANCH   3   4
ENDBRANCH   2   3
ENDBRANCH   1   2
BRANCH   1  25
ATOM     25  C   UNL A   1      41.579  19.931  27.167  1.00  0.00     0.202 C 
BRANCH  25  26
ATOM     26  C   UNL A   1      42.476  19.072  26.268  1.00  0.00     0.261 C 
BRANCH  26  27
ATOM     27  O   UNL A   1      42.841  19.745  25.049  1.00  0.00    -0.460 OA
BRANCH  27  28
ATOM     28  C   UNL A   1      44.178  19.829  24.839  1.00  0.00     0.338 C 
ATOM     29  O   UNL A   1      44.908  18.948  24.400  1.00  0.00    -0.246 OA
BRANCH  28  30
ATOM     30  C   UNL A   1      44.647  21.210  25.038  1.00  0.00     0.060 A 
ATOM     31  C   UNL A   1      45.298  21.499  26.245  1.00  0.00     0.016 A 
ATOM     32  C   UNL A   1      44.378  22.224  24.115  1.00  0.00     0.016 A 
ATOM     33  C   UNL A   1      45.641  22.812  26.556  1.00  0.00     0.010 A 
ATOM     34  C   UNL A   1      44.718  23.544  24.433  1.00  0.00     0.010 A 
ATOM     35  C   UNL A   1      45.318  23.849  25.669  1.00  0.00    -0.014 A 
BRANCH  35  36
ATOM     36  C   UNL A   1      45.473  25.256  26.112  1.00  0.00     0.031 A 
ATOM     37  C   UNL A   1      46.828  25.904  26.029  1.00  0.00     0.074 A 
ATOM     38  C   UNL A   1      44.411  25.959  26.546  1.00  0.00     0.049 A 
ATOM     39  N   UNL A   1      47.200  27.107  26.381  1.00  0.00    -0.248 NA
ATOM     40  C   UNL A   1      47.911  25.072  25.482  1.00  0.00     0.031 C 
ATOM     41  C   UNL A   1      43.044  25.449  26.637  1.00  0.00     0.029 A 
ATOM     42  N   UNL A   1      44.320  27.250  27.000  1.00  0.00    -0.354 N 
ATOM     43  C   UNL A   1      48.560  27.181  26.096  1.00  0.00     0.074 A 
ATOM     44  C   UNL A   1      48.952  25.882  25.592  1.00  0.00     0.031 C 
ATOM     45  C   UNL A   1      42.253  26.413  27.136  1.00  0.00     0.029 A 
ATOM     46  C   UNL A   1      43.060  27.595  27.429  1.00  0.00     0.049 A 
ATOM     47  H   UNL A   1      45.084  27.872  27.018  1.00  0.00     0.167 HD
ATOM     48  C   UNL A   1      49.400  28.239  26.231  1.00  0.00     0.034 A 
ATOM     49  C   UNL A   1      42.617  28.724  28.019  1.00  0.00     0.034 A 
ATOM     50  C   UNL A   1      48.992  29.522  26.755  1.00  0.00     0.049 A 
ATOM     51  C   UNL A   1      43.582  29.864  28.236  1.00  0.00     0.074 A 
ATOM     52  C   UNL A   1      49.750  30.666  26.924  1.00  0.00     0.029 A 
ATOM     53  N   UNL A   1      47.714  29.824  27.211  1.00  0.00    -0.354 N 
ATOM     54  N   UNL A   1      44.861  29.930  27.946  1.00  0.00    -0.248 NA
ATOM     55  C   UNL A   1      43.039  31.084  28.845  1.00  0.00     0.031 C 
ATOM     56  C   UNL A   1      48.955  31.633  27.549  1.00  0.00     0.029 A 
ATOM     57  C   UNL A   1      47.675  31.124  27.697  1.00  0.00     0.049 A 
ATOM     58  H   UNL A   1      46.949  29.206  27.194  1.00  0.00     0.167 HD
ATOM     59  C   UNL A   1      45.271  31.208  28.319  1.00  0.00     0.074 A 
ATOM     60  C   UNL A   1      44.097  31.882  28.838  1.00  0.00     0.031 C 
ATOM     61  C   UNL A   1      46.501  31.776  28.233  1.00  0.00     0.034 A 
BRANCH  48  62
ATOM     62  C   UNL A   1      50.847  28.021  25.855  1.00  0.00     0.023 A 
ATOM     63  C   UNL A   1      51.289  28.123  24.524  1.00  0.00     0.031 A 
ATOM     64  C   UNL A   1      51.788  27.650  26.833  1.00  0.00     0.131 A 
ATOM     65  C   UNL A   1      52.607  27.769  24.194  1.00  0.00     0.055 A 
ATOM     66  C   UNL A   1      53.121  27.385  26.509  1.00  0.00     0.041 A 
ATOM     67  F   UNL A   1      51.423  27.514  28.117  1.00  0.00    -0.206 F 
ATOM     68  C   UNL A   1      53.532  27.424  25.181  1.00  0.00     0.022 A 
BRANCH  65  69
ATOM     69  S   UNL A   1      53.041  27.594  22.441  1.00  0.00     0.124 S 
ATOM     70  O   UNL A   1      53.986  28.694  22.260  1.00  0.00    -0.237 OA
ATOM     71  O   UNL A   1      53.605  26.251  22.389  1.00  0.00    -0.237 OA
ATOM     72  O   UNL A   1      51.762  27.764  21.753  1.00  0.00    -0.744 OA
ENDBRANCH  65  69
ENDBRANCH  48  62
BRANCH  49  73
ATOM     73  C   UNL A   1      41.206  28.813  28.491  1.00  0.00     0.023 A 
ATOM     74  C   UNL A   1      40.874  28.674  29.847  1.00  0.00     0.031 A 
ATOM     75  C   UNL A   1      40.159  29.011  27.572  1.00  0.00     0.131 A 
ATOM     76  C   UNL A   1      39.527  28.700  30.242  1.00  0.00     0.055 A 
ATOM     77  C   UNL A   1      38.825  29.086  27.975  1.00  0.00     0.041 A 
ATOM     78  F   UNL A   1      40.422  29.154  26.263  1.00  0.00    -0.206 F 
ATOM     79  C   UNL A   1      38.502  28.919  29.318  1.00  0.00     0.022 A 
BRANCH  76  80
ATOM     80  S   UNL A   1      39.123  28.380  31.981  1.00  0.00     0.124 S 
ATOM     81  O   UNL A   1      38.317  29.548  32.320  1.00  0.00    -0.237 OA
ATOM     82  O   UNL A   1      38.408  27.110  31.895  1.00  0.00    -0.237 OA
ATOM     83  O   UNL A   1      40.431  28.314  32.629  1.00  0.00    -0.744 OA
ENDBRANCH  76  80
ENDBRANCH  49  73
BRANCH  61  84
ATOM     84  C   UNL A   1      46.627  33.214  28.681  1.00  0.00     0.023 A 
ATOM     85  C   UNL A   1      46.411  34.287  27.798  1.00  0.00     0.031 A 
ATOM     86  C   UNL A   1      46.976  33.512  30.010  1.00  0.00     0.131 A 
ATOM     87  C   UNL A   1      46.600  35.605  28.241  1.00  0.00     0.055 A 
ATOM     88  C   UNL A   1      47.104  34.826  30.461  1.00  0.00     0.041 A 
ATOM     89  F   UNL A   1      47.197  32.527  30.896  1.00  0.00    -0.206 F 
ATOM     90  C   UNL A   1      46.928  35.882  29.571  1.00  0.00     0.022 A 
BRANCH  87  91
ATOM     91  S   UNL A   1      46.499  36.954  27.033  1.00  0.00     0.124 S 
ATOM     92  O   UNL A   1      45.106  37.369  27.157  1.00  0.00    -0.237 OA
ATOM     93  O   UNL A   1      47.493  37.897  27.534  1.00  0.00    -0.237 OA
ATOM     94  O   UNL A   1      46.842  36.306  25.767  1.00  0.00    -0.744 OA
ENDBRANCH  87  91
ENDBRANCH  61  84
ENDBRANCH  35  36
ENDBRANCH  28  30
ENDBRANCH  27  28
ENDBRANCH  26  27
ENDBRANCH  25  26
ENDBRANCH   1  25
TORSDOF 20
ENDMDL
