MODEL 1
REMARK VINA RESULT:     -10.5      0.000      0.000
REMARK SMILES O=C(CCc1ccc(S(=O)(=O)Nc2cccc(I)c2)cc1)OCCOCCOC(=O)c1ccc(-c2c3nc(c(-c4cc(S(=O)(=O)[O-])ccc4F)c4ccc([nH]4)c(-c4cc(S(=O)(=O)[O-])ccc4F)c4nc(c(-c5cc(S(=O)(=O)[O-])ccc5F)c5ccc2[nH]5)C=C4)C=C3)cc1
REMARK SMILES IDX 24 1 23 2 22 3 2 4 1 5 3 6 4 7 5 8 6 9 21 10 7 11 20 12 8 13
REMARK SMILES IDX 9 14 10 15 11 16 12 17 13 19 14 20 19 21 15 22 17 23 16 24
REMARK SMILES IDX 18 25 25 26 26 27 27 28 28 29 29 30 30 31 31 32 32 33 93 34
REMARK SMILES IDX 33 35 92 36 34 37 35 38 36 39 86 40 37 41 91 42 85 43 87 44
REMARK SMILES IDX 38 45 90 46 84 47 83 48 39 50 71 51 51 52 70 53 52 54 55 55
REMARK SMILES IDX 69 56 88 57 53 58 54 59 68 61 89 62 56 63 40 64 41 65 49 66
REMARK SMILES IDX 42 67 48 68 50 69 47 70 43 71 44 72 45 73 46 74 72 75 73 76
REMARK SMILES IDX 81 77 74 78 80 79 82 80 79 81 75 82 76 83 77 84 78 85 57 86
REMARK SMILES IDX 58 87 66 88 59 89 65 90 67 91 64 92 60 93 61 94 62 95 63 96
REMARK H PARENT 12 18 87 49 55 60
REMARK Flexibility Score: inf
ROOT
ATOM      1  C   UNL A   1      42.506  21.803  25.784  1.00  0.00     0.202 C 
ENDROOT
BRANCH   1   2
ATOM      2  C   UNL A   1      41.525  20.794  26.373  1.00  0.00     0.261 C 
BRANCH   2   3
ATOM      3  O   UNL A   1      40.122  20.873  26.042  1.00  0.00    -0.463 OA
BRANCH   3   4
ATOM      4  C   UNL A   1      39.256  21.894  26.132  1.00  0.00     0.306 C 
ATOM      5  O   UNL A   1      39.582  22.920  26.728  1.00  0.00    -0.252 OA
BRANCH   4   6
ATOM      6  C   UNL A   1      37.880  21.773  25.544  1.00  0.00     0.127 C 
BRANCH   6   7
ATOM      7  C   UNL A   1      37.060  23.053  25.682  1.00  0.00     0.047 C 
BRANCH   7   8
ATOM      8  C   UNL A   1      35.578  22.779  25.727  1.00  0.00    -0.047 A 
ATOM      9  C   UNL A   1      34.929  22.211  24.623  1.00  0.00     0.005 A 
ATOM     10  C   UNL A   1      34.822  23.214  26.825  1.00  0.00     0.005 A 
ATOM     11  C   UNL A   1      33.537  22.225  24.555  1.00  0.00     0.022 A 
ATOM     12  C   UNL A   1      33.429  23.182  26.780  1.00  0.00     0.022 A 
ATOM     13  C   UNL A   1      32.795  22.772  25.610  1.00  0.00     0.087 A 
BRANCH  13  14
ATOM     14  S   UNL A   1      31.110  23.197  25.247  1.00  0.00     0.261 S 
ATOM     15  O   UNL A   1      30.982  23.116  23.807  1.00  0.00    -0.201 OA
ATOM     16  O   UNL A   1      30.289  22.378  26.113  1.00  0.00    -0.201 OA
BRANCH  14  17
ATOM     17  N   UNL A   1      30.861  24.782  25.708  1.00  0.00    -0.280 N 
ATOM     18  H   UNL A   1      30.636  24.935  26.654  1.00  0.00     0.180 HD
BRANCH  17  19
ATOM     19  C   UNL A   1      30.938  25.935  24.872  1.00  0.00     0.050 A 
ATOM     20  C   UNL A   1      29.701  26.373  24.382  1.00  0.00     0.027 A 
ATOM     21  C   UNL A   1      32.111  26.546  24.420  1.00  0.00     0.041 A 
ATOM     22  C   UNL A   1      29.619  27.426  23.475  1.00  0.00     0.003 A 
ATOM     23  C   UNL A   1      32.020  27.607  23.506  1.00  0.00     0.015 A 
ATOM     24  C   UNL A   1      30.781  28.048  23.039  1.00  0.00     0.015 A 
ATOM     25  I   UNL A   1      33.702  28.550  22.722  1.00  0.00    -0.044 I 
ENDBRANCH  17  19
ENDBRANCH  14  17
ENDBRANCH  13  14
ENDBRANCH   7   8
ENDBRANCH   6   7
ENDBRANCH   4   6
ENDBRANCH   3   4
ENDBRANCH   2   3
ENDBRANCH   1   2
BRANCH   1  26
ATOM     26  O   UNL A   1      43.661  21.308  25.123  1.00  0.00    -0.374 OA
BRANCH  26  27
ATOM     27  C   UNL A   1      44.334  22.142  24.187  1.00  0.00     0.202 C 
BRANCH  27  28
ATOM     28  C   UNL A   1      45.009  23.404  24.726  1.00  0.00     0.261 C 
BRANCH  28  29
ATOM     29  O   UNL A   1      44.148  24.555  24.721  1.00  0.00    -0.460 OA
BRANCH  29  30
ATOM     30  C   UNL A   1      44.711  25.714  25.141  1.00  0.00     0.338 C 
ATOM     31  O   UNL A   1      45.706  26.250  24.678  1.00  0.00    -0.246 OA
BRANCH  30  32
ATOM     32  C   UNL A   1      43.863  26.333  26.181  1.00  0.00     0.060 A 
ATOM     33  C   UNL A   1      43.921  27.718  26.360  1.00  0.00     0.016 A 
ATOM     34  C   UNL A   1      43.060  25.550  27.015  1.00  0.00     0.016 A 
ATOM     35  C   UNL A   1      43.194  28.322  27.392  1.00  0.00     0.010 A 
ATOM     36  C   UNL A   1      42.328  26.158  28.043  1.00  0.00     0.010 A 
ATOM     37  C   UNL A   1      42.414  27.545  28.258  1.00  0.00    -0.014 A 
BRANCH  37  38
ATOM     38  C   UNL A   1      41.852  28.145  29.500  1.00  0.00     0.031 A 
ATOM     39  C   UNL A   1      40.524  28.828  29.415  1.00  0.00     0.074 A 
ATOM     40  C   UNL A   1      42.492  28.089  30.681  1.00  0.00     0.049 A 
ATOM     41  N   UNL A   1      39.876  29.483  30.339  1.00  0.00    -0.248 NA
ATOM     42  C   UNL A   1      39.857  28.791  28.106  1.00  0.00     0.031 C 
ATOM     43  C   UNL A   1      43.785  27.462  30.869  1.00  0.00     0.029 A 
ATOM     44  N   UNL A   1      42.174  28.556  31.933  1.00  0.00    -0.354 N 
ATOM     45  C   UNL A   1      38.727  29.954  29.721  1.00  0.00     0.074 A 
ATOM     46  C   UNL A   1      38.791  29.540  28.335  1.00  0.00     0.031 C 
ATOM     47  C   UNL A   1      44.148  27.542  32.157  1.00  0.00     0.029 A 
ATOM     48  C   UNL A   1      43.139  28.299  32.884  1.00  0.00     0.049 A 
ATOM     49  H   UNL A   1      41.335  29.031  32.133  1.00  0.00     0.167 HD
ATOM     50  C   UNL A   1      37.712  30.665  30.268  1.00  0.00     0.034 A 
ATOM     51  C   UNL A   1      43.225  28.664  34.181  1.00  0.00     0.034 A 
ATOM     52  C   UNL A   1      37.685  31.088  31.647  1.00  0.00     0.049 A 
ATOM     53  C   UNL A   1      42.115  29.515  34.747  1.00  0.00     0.074 A 
ATOM     54  C   UNL A   1      36.707  31.812  32.303  1.00  0.00     0.029 A 
ATOM     55  N   UNL A   1      38.688  30.840  32.578  1.00  0.00    -0.354 N 
ATOM     56  N   UNL A   1      41.029  29.951  34.152  1.00  0.00    -0.248 NA
ATOM     57  C   UNL A   1      42.243  29.932  36.148  1.00  0.00     0.031 C 
ATOM     58  C   UNL A   1      37.152  32.070  33.604  1.00  0.00     0.029 A 
ATOM     59  C   UNL A   1      38.366  31.426  33.793  1.00  0.00     0.049 A 
ATOM     60  H   UNL A   1      39.507  30.324  32.401  1.00  0.00     0.167 HD
ATOM     61  C   UNL A   1      40.334  30.677  35.113  1.00  0.00     0.074 A 
ATOM     62  C   UNL A   1      41.112  30.597  36.333  1.00  0.00     0.031 C 
ATOM     63  C   UNL A   1      39.160  31.348  34.998  1.00  0.00     0.034 A 
BRANCH  50  64
ATOM     64  C   UNL A   1      36.597  31.075  29.342  1.00  0.00     0.023 A 
ATOM     65  C   UNL A   1      35.686  30.138  28.824  1.00  0.00     0.031 A 
ATOM     66  C   UNL A   1      36.487  32.410  28.915  1.00  0.00     0.131 A 
ATOM     67  C   UNL A   1      34.764  30.531  27.844  1.00  0.00     0.055 A 
ATOM     68  C   UNL A   1      35.505  32.811  28.009  1.00  0.00     0.041 A 
ATOM     69  F   UNL A   1      37.350  33.341  29.351  1.00  0.00    -0.206 F 
ATOM     70  C   UNL A   1      34.647  31.866  27.454  1.00  0.00     0.022 A 
BRANCH  67  71
ATOM     71  S   UNL A   1      33.838  29.243  26.966  1.00  0.00     0.124 S 
ATOM     72  O   UNL A   1      33.080  28.631  28.055  1.00  0.00    -0.237 OA
ATOM     73  O   UNL A   1      33.061  30.014  26.001  1.00  0.00    -0.237 OA
ATOM     74  O   UNL A   1      34.885  28.399  26.393  1.00  0.00    -0.744 OA
ENDBRANCH  67  71
ENDBRANCH  50  64
BRANCH  51  75
ATOM     75  C   UNL A   1      44.407  28.292  35.020  1.00  0.00     0.023 A 
ATOM     76  C   UNL A   1      44.418  27.110  35.780  1.00  0.00     0.031 A 
ATOM     77  C   UNL A   1      45.523  29.144  35.127  1.00  0.00     0.131 A 
ATOM     78  C   UNL A   1      45.493  26.840  36.646  1.00  0.00     0.055 A 
ATOM     79  C   UNL A   1      46.618  28.839  35.939  1.00  0.00     0.041 A 
ATOM     80  F   UNL A   1      45.572  30.292  34.432  1.00  0.00    -0.206 F 
ATOM     81  C   UNL A   1      46.600  27.688  36.717  1.00  0.00     0.022 A 
BRANCH  78  82
ATOM     82  S   UNL A   1      45.378  25.413  37.764  1.00  0.00     0.124 S 
ATOM     83  O   UNL A   1      45.580  26.040  39.065  1.00  0.00    -0.237 OA
ATOM     84  O   UNL A   1      44.031  24.924  37.487  1.00  0.00    -0.237 OA
ATOM     85  O   UNL A   1      46.460  24.541  37.313  1.00  0.00    -0.744 OA
ENDBRANCH  78  82
ENDBRANCH  51  75
BRANCH  63  86
ATOM     86  C   UNL A   1      38.625  32.007  36.246  1.00  0.00     0.023 A 
ATOM     87  C   UNL A   1      37.909  31.286  37.218  1.00  0.00     0.031 A 
ATOM     88  C   UNL A   1      38.826  33.382  36.456  1.00  0.00     0.131 A 
ATOM     89  C   UNL A   1      37.366  31.958  38.324  1.00  0.00     0.055 A 
ATOM     90  C   UNL A   1      38.346  34.030  37.594  1.00  0.00     0.041 A 
ATOM     91  F   UNL A   1      39.496  34.121  35.557  1.00  0.00    -0.206 F 
ATOM     92  C   UNL A   1      37.599  33.320  38.529  1.00  0.00     0.022 A 
BRANCH  89  93
ATOM     93  S   UNL A   1      36.259  31.048  39.436  1.00  0.00     0.124 S 
ATOM     94  O   UNL A   1      36.064  29.797  38.711  1.00  0.00    -0.237 OA
ATOM     95  O   UNL A   1      37.049  30.959  40.660  1.00  0.00    -0.237 OA
ATOM     96  O   UNL A   1      35.078  31.906  39.522  1.00  0.00    -0.744 OA
ENDBRANCH  89  93
ENDBRANCH  63  86
ENDBRANCH  37  38
ENDBRANCH  30  32
ENDBRANCH  29  30
ENDBRANCH  28  29
ENDBRANCH  27  28
ENDBRANCH  26  27
ENDBRANCH   1  26
TORSDOF 22
ENDMDL
MODEL 2
REMARK VINA RESULT:     -10.2      2.931      8.848
REMARK SMILES O=C(CCc1ccc(S(=O)(=O)Nc2cccc(I)c2)cc1)OCCOCCOC(=O)c1ccc(-c2c3nc(c(-c4cc(S(=O)(=O)[O-])ccc4F)c4ccc([nH]4)c(-c4cc(S(=O)(=O)[O-])ccc4F)c4nc(c(-c5cc(S(=O)(=O)[O-])ccc5F)c5ccc2[nH]5)C=C4)C=C3)cc1
REMARK SMILES IDX 24 1 23 2 22 3 2 4 1 5 3 6 4 7 5 8 6 9 21 10 7 11 20 12 8 13
REMARK SMILES IDX 9 14 10 15 11 16 12 17 13 19 14 20 19 21 15 22 17 23 16 24
REMARK SMILES IDX 18 25 25 26 26 27 27 28 28 29 29 30 30 31 31 32 32 33 93 34
REMARK SMILES IDX 33 35 92 36 34 37 35 38 36 39 86 40 37 41 91 42 85 43 87 44
REMARK SMILES IDX 38 45 90 46 84 47 83 48 39 50 71 51 51 52 70 53 52 54 55 55
REMARK SMILES IDX 69 56 88 57 53 58 54 59 68 61 89 62 56 63 40 64 41 65 49 66
REMARK SMILES IDX 42 67 48 68 50 69 47 70 43 71 44 72 45 73 46 74 72 75 73 76
REMARK SMILES IDX 81 77 74 78 80 79 82 80 79 81 75 82 76 83 77 84 78 85 57 86
REMARK SMILES IDX 58 87 66 88 59 89 65 90 67 91 64 92 60 93 61 94 62 95 63 96
REMARK H PARENT 12 18 87 49 55 60
REMARK Flexibility Score: inf
ROOT
ATOM      1  C   UNL A   1      32.011  29.385  26.077  1.00  0.00     0.202 C 
ENDROOT
BRANCH   1   2
ATOM      2  C   UNL A   1      31.435  30.068  24.840  1.00  0.00     0.261 C 
BRANCH   2   3
ATOM      3  O   UNL A   1      30.286  29.504  24.174  1.00  0.00    -0.463 OA
BRANCH   3   4
ATOM      4  C   UNL A   1      30.170  28.906  22.978  1.00  0.00     0.306 C 
ATOM      5  O   UNL A   1      29.896  29.579  21.984  1.00  0.00    -0.252 OA
BRANCH   4   6
ATOM      6  C   UNL A   1      30.333  27.419  22.855  1.00  0.00     0.127 C 
BRANCH   6   7
ATOM      7  C   UNL A   1      29.739  26.657  24.036  1.00  0.00     0.047 C 
BRANCH   7   8
ATOM      8  C   UNL A   1      30.797  25.975  24.866  1.00  0.00    -0.047 A 
ATOM      9  C   UNL A   1      32.147  26.326  24.720  1.00  0.00     0.005 A 
ATOM     10  C   UNL A   1      30.450  24.897  25.691  1.00  0.00     0.005 A 
ATOM     11  C   UNL A   1      33.137  25.512  25.266  1.00  0.00     0.022 A 
ATOM     12  C   UNL A   1      31.438  24.110  26.280  1.00  0.00     0.022 A 
ATOM     13  C   UNL A   1      32.775  24.368  25.989  1.00  0.00     0.087 A 
BRANCH  13  14
ATOM     14  S   UNL A   1      34.047  23.149  26.218  1.00  0.00     0.261 S 
ATOM     15  O   UNL A   1      35.303  23.857  26.085  1.00  0.00    -0.201 OA
ATOM     16  O   UNL A   1      33.718  22.443  27.437  1.00  0.00    -0.201 OA
BRANCH  14  17
ATOM     17  N   UNL A   1      33.936  22.041  24.975  1.00  0.00    -0.280 N 
ATOM     18  H   UNL A   1      33.403  22.309  24.192  1.00  0.00     0.180 HD
BRANCH  17  19
ATOM     19  C   UNL A   1      34.532  20.746  24.931  1.00  0.00     0.050 A 
ATOM     20  C   UNL A   1      35.932  20.755  24.997  1.00  0.00     0.027 A 
ATOM     21  C   UNL A   1      33.863  19.541  24.701  1.00  0.00     0.041 A 
ATOM     22  C   UNL A   1      36.665  19.579  24.866  1.00  0.00     0.003 A 
ATOM     23  C   UNL A   1      34.610  18.359  24.570  1.00  0.00     0.015 A 
ATOM     24  C   UNL A   1      36.003  18.377  24.657  1.00  0.00     0.015 A 
ATOM     25  I   UNL A   1      33.724  16.519  24.168  1.00  0.00    -0.044 I 
ENDBRANCH  17  19
ENDBRANCH  14  17
ENDBRANCH  13  14
ENDBRANCH   7   8
ENDBRANCH   6   7
ENDBRANCH   4   6
ENDBRANCH   3   4
ENDBRANCH   2   3
ENDBRANCH   1   2
BRANCH   1  26
ATOM     26  O   UNL A   1      32.160  30.156  27.260  1.00  0.00    -0.374 OA
BRANCH  26  27
ATOM     27  C   UNL A   1      33.102  31.222  27.277  1.00  0.00     0.202 C 
BRANCH  27  28
ATOM     28  C   UNL A   1      32.551  32.648  27.258  1.00  0.00     0.261 C 
BRANCH  28  29
ATOM     29  O   UNL A   1      33.562  33.650  27.460  1.00  0.00    -0.460 OA
BRANCH  29  30
ATOM     30  C   UNL A   1      33.446  34.385  28.592  1.00  0.00     0.338 C 
ATOM     31  O   UNL A   1      32.523  35.132  28.885  1.00  0.00    -0.246 OA
BRANCH  30  32
ATOM     32  C   UNL A   1      34.550  34.058  29.516  1.00  0.00     0.060 A 
ATOM     33  C   UNL A   1      35.845  34.475  29.194  1.00  0.00     0.016 A 
ATOM     34  C   UNL A   1      34.326  33.293  30.665  1.00  0.00     0.016 A 
ATOM     35  C   UNL A   1      36.923  34.108  30.007  1.00  0.00     0.010 A 
ATOM     36  C   UNL A   1      35.406  32.931  31.479  1.00  0.00     0.010 A 
ATOM     37  C   UNL A   1      36.716  33.310  31.140  1.00  0.00    -0.014 A 
BRANCH  37  38
ATOM     38  C   UNL A   1      37.877  32.709  31.852  1.00  0.00     0.031 A 
ATOM     39  C   UNL A   1      38.600  31.577  31.192  1.00  0.00     0.074 A 
ATOM     40  C   UNL A   1      38.294  33.149  33.052  1.00  0.00     0.049 A 
ATOM     41  N   UNL A   1      39.585  30.852  31.649  1.00  0.00    -0.248 NA
ATOM     42  C   UNL A   1      38.128  31.196  29.853  1.00  0.00     0.031 C 
ATOM     43  C   UNL A   1      37.659  34.229  33.780  1.00  0.00     0.029 A 
ATOM     44  N   UNL A   1      39.321  32.761  33.879  1.00  0.00    -0.354 N 
ATOM     45  C   UNL A   1      39.843  29.914  30.661  1.00  0.00     0.074 A 
ATOM     46  C   UNL A   1      38.884  30.141  29.600  1.00  0.00     0.031 C 
ATOM     47  C   UNL A   1      38.316  34.454  34.927  1.00  0.00     0.029 A 
ATOM     48  C   UNL A   1      39.387  33.477  35.056  1.00  0.00     0.049 A 
ATOM     49  H   UNL A   1      39.950  32.039  33.652  1.00  0.00     0.167 HD
ATOM     50  C   UNL A   1      40.799  28.954  30.645  1.00  0.00     0.034 A 
ATOM     51  C   UNL A   1      40.189  33.338  36.133  1.00  0.00     0.034 A 
ATOM     52  C   UNL A   1      41.725  28.731  31.728  1.00  0.00     0.049 A 
ATOM     53  C   UNL A   1      41.198  32.217  36.120  1.00  0.00     0.074 A 
ATOM     54  C   UNL A   1      42.730  27.786  31.816  1.00  0.00     0.029 A 
ATOM     55  N   UNL A   1      41.750  29.451  32.918  1.00  0.00    -0.354 N 
ATOM     56  N   UNL A   1      41.435  31.337  35.174  1.00  0.00    -0.248 NA
ATOM     57  C   UNL A   1      42.036  32.060  37.314  1.00  0.00     0.031 C 
ATOM     58  C   UNL A   1      43.310  27.881  33.086  1.00  0.00     0.029 A 
ATOM     59  C   UNL A   1      42.732  28.947  33.758  1.00  0.00     0.049 A 
ATOM     60  H   UNL A   1      41.158  30.206  33.134  1.00  0.00     0.167 HD
ATOM     61  C   UNL A   1      42.465  30.535  35.652  1.00  0.00     0.074 A 
ATOM     62  C   UNL A   1      42.820  31.052  36.959  1.00  0.00     0.031 C 
ATOM     63  C   UNL A   1      43.064  29.468  35.065  1.00  0.00     0.034 A 
BRANCH  50  64
ATOM     64  C   UNL A   1      40.824  28.045  29.445  1.00  0.00     0.023 A 
ATOM     65  C   UNL A   1      41.751  28.224  28.403  1.00  0.00     0.031 A 
ATOM     66  C   UNL A   1      39.863  27.029  29.306  1.00  0.00     0.131 A 
ATOM     67  C   UNL A   1      41.642  27.460  27.234  1.00  0.00     0.055 A 
ATOM     68  C   UNL A   1      39.820  26.209  28.177  1.00  0.00     0.041 A 
ATOM     69  F   UNL A   1      38.932  26.833  30.253  1.00  0.00    -0.206 F 
ATOM     70  C   UNL A   1      40.701  26.434  27.124  1.00  0.00     0.022 A 
BRANCH  67  71
ATOM     71  S   UNL A   1      42.635  27.940  25.794  1.00  0.00     0.124 S 
ATOM     72  O   UNL A   1      42.200  29.319  25.584  1.00  0.00    -0.237 OA
ATOM     73  O   UNL A   1      44.000  27.767  26.279  1.00  0.00    -0.237 OA
ATOM     74  O   UNL A   1      42.215  26.997  24.759  1.00  0.00    -0.744 OA
ENDBRANCH  67  71
ENDBRANCH  50  64
BRANCH  51  75
ATOM     75  C   UNL A   1      40.048  34.226  37.329  1.00  0.00     0.023 A 
ATOM     76  C   UNL A   1      39.376  33.793  38.484  1.00  0.00     0.031 A 
ATOM     77  C   UNL A   1      40.529  35.550  37.316  1.00  0.00     0.131 A 
ATOM     78  C   UNL A   1      39.159  34.683  39.551  1.00  0.00     0.055 A 
ATOM     79  C   UNL A   1      40.369  36.411  38.405  1.00  0.00     0.041 A 
ATOM     80  F   UNL A   1      41.175  36.029  36.241  1.00  0.00    -0.206 F 
ATOM     81  C   UNL A   1      39.668  35.984  39.525  1.00  0.00     0.022 A 
BRANCH  78  82
ATOM     82  S   UNL A   1      38.110  34.153  40.935  1.00  0.00     0.124 S 
ATOM     83  O   UNL A   1      39.031  33.321  41.701  1.00  0.00    -0.237 OA
ATOM     84  O   UNL A   1      37.743  35.430  41.538  1.00  0.00    -0.237 OA
ATOM     85  O   UNL A   1      37.018  33.439  40.278  1.00  0.00    -0.744 OA
ENDBRANCH  78  82
ENDBRANCH  51  75
BRANCH  63  86
ATOM     86  C   UNL A   1      44.202  28.823  35.820  1.00  0.00     0.023 A 
ATOM     87  C   UNL A   1      43.997  27.734  36.684  1.00  0.00     0.031 A 
ATOM     88  C   UNL A   1      45.509  29.319  35.678  1.00  0.00     0.131 A 
ATOM     89  C   UNL A   1      45.073  27.217  37.422  1.00  0.00     0.055 A 
ATOM     90  C   UNL A   1      46.587  28.754  36.359  1.00  0.00     0.041 A 
ATOM     91  F   UNL A   1      45.762  30.363  34.872  1.00  0.00    -0.206 F 
ATOM     92  C   UNL A   1      46.371  27.705  37.247  1.00  0.00     0.022 A 
BRANCH  89  93
ATOM     93  S   UNL A   1      44.737  25.968  38.693  1.00  0.00     0.124 S 
ATOM     94  O   UNL A   1      43.826  25.065  37.996  1.00  0.00    -0.237 OA
ATOM     95  O   UNL A   1      46.068  25.439  38.973  1.00  0.00    -0.237 OA
ATOM     96  O   UNL A   1      44.135  26.738  39.780  1.00  0.00    -0.744 OA
ENDBRANCH  89  93
ENDBRANCH  63  86
ENDBRANCH  37  38
ENDBRANCH  30  32
ENDBRANCH  29  30
ENDBRANCH  28  29
ENDBRANCH  27  28
ENDBRANCH  26  27
ENDBRANCH   1  26
TORSDOF 22
ENDMDL
MODEL 3
REMARK VINA RESULT:     -10.1      3.222      9.817
REMARK SMILES O=C(CCc1ccc(S(=O)(=O)Nc2cccc(I)c2)cc1)OCCOCCOC(=O)c1ccc(-c2c3nc(c(-c4cc(S(=O)(=O)[O-])ccc4F)c4ccc([nH]4)c(-c4cc(S(=O)(=O)[O-])ccc4F)c4nc(c(-c5cc(S(=O)(=O)[O-])ccc5F)c5ccc2[nH]5)C=C4)C=C3)cc1
REMARK SMILES IDX 24 1 23 2 22 3 2 4 1 5 3 6 4 7 5 8 6 9 21 10 7 11 20 12 8 13
REMARK SMILES IDX 9 14 10 15 11 16 12 17 13 19 14 20 19 21 15 22 17 23 16 24
REMARK SMILES IDX 18 25 25 26 26 27 27 28 28 29 29 30 30 31 31 32 32 33 93 34
REMARK SMILES IDX 33 35 92 36 34 37 35 38 36 39 86 40 37 41 91 42 85 43 87 44
REMARK SMILES IDX 38 45 90 46 84 47 83 48 39 50 71 51 51 52 70 53 52 54 55 55
REMARK SMILES IDX 69 56 88 57 53 58 54 59 68 61 89 62 56 63 40 64 41 65 49 66
REMARK SMILES IDX 42 67 48 68 50 69 47 70 43 71 44 72 45 73 46 74 72 75 73 76
REMARK SMILES IDX 81 77 74 78 80 79 82 80 79 81 75 82 76 83 77 84 78 85 57 86
REMARK SMILES IDX 58 87 66 88 59 89 65 90 67 91 64 92 60 93 61 94 62 95 63 96
REMARK H PARENT 12 18 87 49 55 60
REMARK Flexibility Score: inf
ROOT
ATOM      1  C   UNL A   1      31.955  29.546  26.109  1.00  0.00     0.202 C 
ENDROOT
BRANCH   1   2
ATOM      2  C   UNL A   1      31.421  30.164  24.820  1.00  0.00     0.261 C 
BRANCH   2   3
ATOM      3  O   UNL A   1      30.304  29.556  24.137  1.00  0.00    -0.463 OA
BRANCH   3   4
ATOM      4  C   UNL A   1      30.237  28.923  22.955  1.00  0.00     0.306 C 
ATOM      5  O   UNL A   1      30.254  29.576  21.912  1.00  0.00    -0.252 OA
BRANCH   4   6
ATOM      6  C   UNL A   1      30.100  27.430  22.903  1.00  0.00     0.127 C 
BRANCH   6   7
ATOM      7  C   UNL A   1      29.675  26.824  24.238  1.00  0.00     0.047 C 
BRANCH   7   8
ATOM      8  C   UNL A   1      30.829  26.187  24.969  1.00  0.00    -0.047 A 
ATOM      9  C   UNL A   1      32.149  26.470  24.592  1.00  0.00     0.005 A 
ATOM     10  C   UNL A   1      30.584  25.208  25.942  1.00  0.00     0.005 A 
ATOM     11  C   UNL A   1      33.190  25.675  25.067  1.00  0.00     0.022 A 
ATOM     12  C   UNL A   1      31.631  24.445  26.456  1.00  0.00     0.022 A 
ATOM     13  C   UNL A   1      32.915  24.622  25.948  1.00  0.00     0.087 A 
BRANCH  13  14
ATOM     14  S   UNL A   1      34.177  23.383  26.111  1.00  0.00     0.261 S 
ATOM     15  O   UNL A   1      35.396  23.992  25.620  1.00  0.00    -0.201 OA
ATOM     16  O   UNL A   1      34.088  22.889  27.468  1.00  0.00    -0.201 OA
BRANCH  14  17
ATOM     17  N   UNL A   1      33.788  22.107  25.108  1.00  0.00    -0.280 N 
ATOM     18  H   UNL A   1      33.011  22.233  24.516  1.00  0.00     0.180 HD
BRANCH  17  19
ATOM     19  C   UNL A   1      34.463  20.855  25.020  1.00  0.00     0.050 A 
ATOM     20  C   UNL A   1      35.856  20.942  25.141  1.00  0.00     0.027 A 
ATOM     21  C   UNL A   1      33.877  19.626  24.701  1.00  0.00     0.041 A 
ATOM     22  C   UNL A   1      36.664  19.821  24.979  1.00  0.00     0.003 A 
ATOM     23  C   UNL A   1      34.700  18.499  24.539  1.00  0.00     0.015 A 
ATOM     24  C   UNL A   1      36.085  18.595  24.681  1.00  0.00     0.015 A 
ATOM     25  I   UNL A   1      33.943  16.635  24.006  1.00  0.00    -0.044 I 
ENDBRANCH  17  19
ENDBRANCH  14  17
ENDBRANCH  13  14
ENDBRANCH   7   8
ENDBRANCH   6   7
ENDBRANCH   4   6
ENDBRANCH   3   4
ENDBRANCH   2   3
ENDBRANCH   1   2
BRANCH   1  26
ATOM     26  O   UNL A   1      32.021  30.365  27.267  1.00  0.00    -0.374 OA
BRANCH  26  27
ATOM     27  C   UNL A   1      32.947  31.444  27.300  1.00  0.00     0.202 C 
BRANCH  27  28
ATOM     28  C   UNL A   1      32.376  32.862  27.319  1.00  0.00     0.261 C 
BRANCH  28  29
ATOM     29  O   UNL A   1      33.378  33.876  27.495  1.00  0.00    -0.460 OA
BRANCH  29  30
ATOM     30  C   UNL A   1      33.391  34.491  28.702  1.00  0.00     0.338 C 
ATOM     31  O   UNL A   1      32.565  35.289  29.122  1.00  0.00    -0.246 OA
BRANCH  30  32
ATOM     32  C   UNL A   1      34.496  33.957  29.523  1.00  0.00     0.060 A 
ATOM     33  C   UNL A   1      35.811  34.266  29.166  1.00  0.00     0.016 A 
ATOM     34  C   UNL A   1      34.244  33.107  30.604  1.00  0.00     0.016 A 
ATOM     35  C   UNL A   1      36.880  33.707  29.875  1.00  0.00     0.010 A 
ATOM     36  C   UNL A   1      35.315  32.553  31.315  1.00  0.00     0.010 A 
ATOM     37  C   UNL A   1      36.642  32.824  30.937  1.00  0.00    -0.014 A 
BRANCH  37  38
ATOM     38  C   UNL A   1      37.762  32.035  31.518  1.00  0.00     0.031 A 
ATOM     39  C   UNL A   1      38.251  32.403  32.884  1.00  0.00     0.074 A 
ATOM     40  C   UNL A   1      38.339  31.011  30.864  1.00  0.00     0.049 A 
ATOM     41  N   UNL A   1      39.253  31.911  33.559  1.00  0.00    -0.248 NA
ATOM     42  C   UNL A   1      37.528  33.488  33.562  1.00  0.00     0.031 C 
ATOM     43  C   UNL A   1      37.950  30.581  29.536  1.00  0.00     0.029 A 
ATOM     44  N   UNL A   1      39.360  30.154  31.196  1.00  0.00    -0.354 N 
ATOM     45  C   UNL A   1      39.297  32.639  34.739  1.00  0.00     0.074 A 
ATOM     46  C   UNL A   1      38.243  33.628  34.665  1.00  0.00     0.031 C 
ATOM     47  C   UNL A   1      38.685  29.524  29.165  1.00  0.00     0.029 A 
ATOM     48  C   UNL A   1      39.661  29.240  30.208  1.00  0.00     0.049 A 
ATOM     49  H   UNL A   1      39.834  30.190  32.058  1.00  0.00     0.167 HD
ATOM     50  C   UNL A   1      40.142  32.487  35.787  1.00  0.00     0.034 A 
ATOM     51  C   UNL A   1      40.635  28.309  30.129  1.00  0.00     0.034 A 
ATOM     52  C   UNL A   1      41.202  31.509  35.823  1.00  0.00     0.049 A 
ATOM     53  C   UNL A   1      41.606  28.207  31.280  1.00  0.00     0.074 A 
ATOM     54  C   UNL A   1      42.116  31.272  36.833  1.00  0.00     0.029 A 
ATOM     55  N   UNL A   1      41.502  30.619  34.798  1.00  0.00    -0.354 N 
ATOM     56  N   UNL A   1      41.634  28.901  32.394  1.00  0.00    -0.248 NA
ATOM     57  C   UNL A   1      42.679  27.213  31.161  1.00  0.00     0.031 C 
ATOM     58  C   UNL A   1      43.014  30.296  36.390  1.00  0.00     0.029 A 
ATOM     59  C   UNL A   1      42.608  29.854  35.140  1.00  0.00     0.049 A 
ATOM     60  H   UNL A   1      41.004  30.542  33.953  1.00  0.00     0.167 HD
ATOM     61  C   UNL A   1      42.715  28.411  33.119  1.00  0.00     0.074 A 
ATOM     62  C   UNL A   1      43.296  27.347  32.325  1.00  0.00     0.031 C 
ATOM     63  C   UNL A   1      43.184  28.805  34.330  1.00  0.00     0.034 A 
BRANCH  50  64
ATOM     64  C   UNL A   1      39.979  33.451  36.932  1.00  0.00     0.023 A 
ATOM     65  C   UNL A   1      40.792  34.591  37.058  1.00  0.00     0.031 A 
ATOM     66  C   UNL A   1      39.045  33.191  37.950  1.00  0.00     0.131 A 
ATOM     67  C   UNL A   1      40.718  35.377  38.216  1.00  0.00     0.055 A 
ATOM     68  C   UNL A   1      38.912  34.031  39.056  1.00  0.00     0.041 A 
ATOM     69  F   UNL A   1      38.265  32.100  37.899  1.00  0.00    -0.206 F 
ATOM     70  C   UNL A   1      39.764  35.121  39.203  1.00  0.00     0.022 A 
BRANCH  67  71
ATOM     71  S   UNL A   1      41.998  36.631  38.491  1.00  0.00     0.124 S 
ATOM     72  O   UNL A   1      42.400  36.946  37.122  1.00  0.00    -0.237 OA
ATOM     73  O   UNL A   1      41.268  37.677  39.200  1.00  0.00    -0.237 OA
ATOM     74  O   UNL A   1      43.004  35.926  39.283  1.00  0.00    -0.744 OA
ENDBRANCH  67  71
ENDBRANCH  50  64
BRANCH  51  75
ATOM     75  C   UNL A   1      40.790  27.441  28.919  1.00  0.00     0.023 A 
ATOM     76  C   UNL A   1      41.747  27.730  27.933  1.00  0.00     0.031 A 
ATOM     77  C   UNL A   1      39.938  26.343  28.696  1.00  0.00     0.131 A 
ATOM     78  C   UNL A   1      41.797  26.966  26.753  1.00  0.00     0.055 A 
ATOM     79  C   UNL A   1      40.035  25.546  27.552  1.00  0.00     0.041 A 
ATOM     80  F   UNL A   1      38.997  26.016  29.597  1.00  0.00    -0.206 F 
ATOM     81  C   UNL A   1      40.958  25.866  26.565  1.00  0.00     0.022 A 
BRANCH  78  82
ATOM     82  S   UNL A   1      42.904  27.495  25.414  1.00  0.00     0.124 S 
ATOM     83  O   UNL A   1      42.139  28.578  24.809  1.00  0.00    -0.237 OA
ATOM     84  O   UNL A   1      44.101  27.886  26.152  1.00  0.00    -0.237 OA
ATOM     85  O   UNL A   1      43.044  26.293  24.596  1.00  0.00    -0.744 OA
ENDBRANCH  78  82
ENDBRANCH  51  75
BRANCH  63  86
ATOM     86  C   UNL A   1      44.360  28.039  34.889  1.00  0.00     0.023 A 
ATOM     87  C   UNL A   1      44.191  26.865  35.643  1.00  0.00     0.031 A 
ATOM     88  C   UNL A   1      45.668  28.505  34.672  1.00  0.00     0.131 A 
ATOM     89  C   UNL A   1      45.310  26.231  36.205  1.00  0.00     0.055 A 
ATOM     90  C   UNL A   1      46.781  27.830  35.172  1.00  0.00     0.041 A 
ATOM     91  F   UNL A   1      45.888  29.626  33.966  1.00  0.00    -0.206 F 
ATOM     92  C   UNL A   1      46.605  26.693  35.956  1.00  0.00     0.022 A 
BRANCH  89  93
ATOM     93  S   UNL A   1      45.042  24.856  37.356  1.00  0.00     0.124 S 
ATOM     94  O   UNL A   1      43.871  25.308  38.100  1.00  0.00    -0.237 OA
ATOM     95  O   UNL A   1      44.828  23.729  36.454  1.00  0.00    -0.237 OA
ATOM     96  O   UNL A   1      46.285  24.805  38.125  1.00  0.00    -0.744 OA
ENDBRANCH  89  93
ENDBRANCH  63  86
ENDBRANCH  37  38
ENDBRANCH  30  32
ENDBRANCH  29  30
ENDBRANCH  28  29
ENDBRANCH  27  28
ENDBRANCH  26  27
ENDBRANCH   1  26
TORSDOF 22
ENDMDL
