MODEL 1
REMARK VINA RESULT:     -10.9      0.000      0.000
REMARK SMILES C[NH2+][C@]1(C(=O)OCCOCCOC(=O)c2ccc(-c3c4nc(c(-c5cc(S(=O)(=O)[O-])ccc5F)c5ccc([nH]5)c(-c5cc(S(=O)(=O)[O-])ccc5F)c5nc(c(-c6cc(S(=O)(=O)[O-])ccc6F)c6ccc3[nH]6)C=C5)C=C4)cc2)CC[C@@H]([N@@H+](C)C[C@@H]2CCCCO2)C1
REMARK SMILES IDX 9 1 8 2 7 3 6 4 4 5 5 6 3 7 78 8 90 9 79 10 80 11 2 12 1 13
REMARK SMILES IDX 81 16 82 17 83 19 84 20 85 21 89 22 86 23 88 24 87 25 10 26
REMARK SMILES IDX 11 27 12 28 13 29 14 30 15 31 16 32 77 33 17 34 76 35 18 36
REMARK SMILES IDX 19 37 20 38 70 39 21 40 75 41 69 42 71 43 22 44 74 45 68 46
REMARK SMILES IDX 67 47 23 49 55 50 35 51 54 52 36 53 39 54 53 55 72 56 37 57
REMARK SMILES IDX 38 58 52 60 73 61 40 62 24 63 25 64 33 65 26 66 32 67 34 68
REMARK SMILES IDX 31 69 27 70 28 71 29 72 30 73 56 74 57 75 65 76 58 77 64 78
REMARK SMILES IDX 66 79 63 80 59 81 60 82 61 83 62 84 41 85 42 86 50 87 43 88
REMARK SMILES IDX 49 89 51 90 48 91 44 92 45 93 46 94 47 95
REMARK H PARENT 2 14 2 15 81 18 71 48 39 59
REMARK Flexibility Score: inf
ROOT
ATOM      1  O   UNL A   1      32.387  30.476  26.012  1.00  0.00    -0.374 OA
ENDROOT
BRANCH   1   2
ATOM      2  C   UNL A   1      32.144  29.139  26.457  1.00  0.00     0.202 C 
BRANCH   2   3
ATOM      3  C   UNL A   1      32.372  28.015  25.439  1.00  0.00     0.261 C 
BRANCH   3   4
ATOM      4  O   UNL A   1      33.021  26.877  26.043  1.00  0.00    -0.459 OA
BRANCH   4   5
ATOM      5  C   UNL A   1      32.302  25.721  26.053  1.00  0.00     0.368 C 
ATOM      6  O   UNL A   1      31.343  25.519  26.796  1.00  0.00    -0.245 OA
BRANCH   5   7
ATOM      7  C   UNL A   1      32.740  24.723  24.927  1.00  0.00     0.200 C 
ATOM      8  C   UNL A   1      34.222  24.883  24.602  1.00  0.00     0.087 C 
ATOM      9  C   UNL A   1      32.688  23.254  25.420  1.00  0.00     0.146 C 
ATOM     10  C   UNL A   1      34.642  23.564  24.020  1.00  0.00     0.072 C 
ATOM     11  C   UNL A   1      33.798  22.478  24.659  1.00  0.00     0.191 C 
BRANCH   7  12
ATOM     12  N   UNL A   1      31.868  25.023  23.755  1.00  0.00    -0.334 N 
ATOM     13  C   UNL A   1      30.713  24.203  23.472  1.00  0.00     0.331 C 
ATOM     14  H   UNL A   1      31.526  25.976  23.882  1.00  0.00     0.347 HD
ATOM     15  H   UNL A   1      32.480  24.841  22.961  1.00  0.00     0.347 HD
ENDBRANCH   7  12
BRANCH  11  16
ATOM     16  N   UNL A   1      34.533  21.525  25.497  1.00  0.00    -0.333 N 
ATOM     17  C   UNL A   1      34.287  21.653  26.929  1.00  0.00     0.333 C 
ATOM     18  H   UNL A   1      35.461  21.892  25.286  1.00  0.00     0.348 HD
BRANCH  16  19
ATOM     19  C   UNL A   1      34.751  20.126  25.067  1.00  0.00     0.294 C 
BRANCH  19  20
ATOM     20  C   UNL A   1      33.655  18.973  25.004  1.00  0.00     0.173 C 
ATOM     21  C   UNL A   1      34.082  17.593  24.448  1.00  0.00     0.038 C 
ATOM     22  O   UNL A   1      32.354  19.343  24.554  1.00  0.00    -0.372 OA
ATOM     23  C   UNL A   1      33.657  17.240  23.018  1.00  0.00     0.005 C 
ATOM     24  C   UNL A   1      32.180  19.347  23.150  1.00  0.00     0.161 C 
ATOM     25  C   UNL A   1      32.447  18.001  22.494  1.00  0.00     0.029 C 
ENDBRANCH  19  20
ENDBRANCH  16  19
ENDBRANCH  11  16
ENDBRANCH   5   7
ENDBRANCH   4   5
ENDBRANCH   3   4
ENDBRANCH   2   3
ENDBRANCH   1   2
BRANCH   1  26
ATOM     26  C   UNL A   1      31.291  31.380  26.120  1.00  0.00     0.202 C 
BRANCH  26  27
ATOM     27  C   UNL A   1      31.597  32.828  26.534  1.00  0.00     0.261 C 
BRANCH  27  28
ATOM     28  O   UNL A   1      32.209  32.917  27.833  1.00  0.00    -0.460 OA
BRANCH  28  29
ATOM     29  C   UNL A   1      33.241  33.801  27.894  1.00  0.00     0.338 C 
ATOM     30  O   UNL A   1      33.163  35.015  27.861  1.00  0.00    -0.246 OA
BRANCH  29  31
ATOM     31  C   UNL A   1      34.495  33.092  28.219  1.00  0.00     0.060 A 
ATOM     32  C   UNL A   1      34.387  31.751  28.606  1.00  0.00     0.016 A 
ATOM     33  C   UNL A   1      35.735  33.735  28.224  1.00  0.00     0.016 A 
ATOM     34  C   UNL A   1      35.511  31.058  29.048  1.00  0.00     0.010 A 
ATOM     35  C   UNL A   1      36.861  33.039  28.678  1.00  0.00     0.010 A 
ATOM     36  C   UNL A   1      36.748  31.709  29.127  1.00  0.00    -0.014 A 
BRANCH  36  37
ATOM     37  C   UNL A   1      37.877  31.040  29.822  1.00  0.00     0.031 A 
ATOM     38  C   UNL A   1      38.172  31.403  31.253  1.00  0.00     0.074 A 
ATOM     39  C   UNL A   1      38.597  30.085  29.204  1.00  0.00     0.049 A 
ATOM     40  N   UNL A   1      39.125  30.977  32.039  1.00  0.00    -0.248 NA
ATOM     41  C   UNL A   1      37.269  32.384  31.876  1.00  0.00     0.031 C 
ATOM     42  C   UNL A   1      38.366  29.607  27.841  1.00  0.00     0.029 A 
ATOM     43  N   UNL A   1      39.667  29.346  29.643  1.00  0.00    -0.354 N 
ATOM     44  C   UNL A   1      38.944  31.641  33.250  1.00  0.00     0.074 A 
ATOM     45  C   UNL A   1      37.813  32.529  33.074  1.00  0.00     0.031 C 
ATOM     46  C   UNL A   1      39.272  28.656  27.554  1.00  0.00     0.029 A 
ATOM     47  C   UNL A   1      40.175  28.492  28.692  1.00  0.00     0.049 A 
ATOM     48  H   UNL A   1      40.035  29.420  30.553  1.00  0.00     0.167 HD
ATOM     49  C   UNL A   1      39.650  31.514  34.400  1.00  0.00     0.034 A 
ATOM     50  C   UNL A   1      41.261  27.693  28.725  1.00  0.00     0.034 A 
ATOM     51  C   UNL A   1      40.779  30.628  34.553  1.00  0.00     0.049 A 
ATOM     52  C   UNL A   1      42.093  27.643  29.985  1.00  0.00     0.074 A 
ATOM     53  C   UNL A   1      41.558  30.410  35.677  1.00  0.00     0.029 A 
ATOM     54  N   UNL A   1      41.303  29.821  33.549  1.00  0.00    -0.354 N 
ATOM     55  N   UNL A   1      41.912  28.275  31.122  1.00  0.00    -0.248 NA
ATOM     56  C   UNL A   1      43.270  26.764  29.968  1.00  0.00     0.031 C 
ATOM     57  C   UNL A   1      42.599  29.544  35.329  1.00  0.00     0.029 A 
ATOM     58  C   UNL A   1      42.417  29.140  34.017  1.00  0.00     0.049 A 
ATOM     59  H   UNL A   1      40.935  29.745  32.639  1.00  0.00     0.167 HD
ATOM     60  C   UNL A   1      42.933  27.841  31.966  1.00  0.00     0.074 A 
ATOM     61  C   UNL A   1      43.715  26.884  31.210  1.00  0.00     0.031 C 
ATOM     62  C   UNL A   1      43.197  28.194  33.250  1.00  0.00     0.034 A 
BRANCH  49  63
ATOM     63  C   UNL A   1      39.256  32.395  35.562  1.00  0.00     0.023 A 
ATOM     64  C   UNL A   1      39.667  33.737  35.652  1.00  0.00     0.031 A 
ATOM     65  C   UNL A   1      38.475  31.877  36.610  1.00  0.00     0.131 A 
ATOM     66  C   UNL A   1      39.356  34.490  36.795  1.00  0.00     0.055 A 
ATOM     67  C   UNL A   1      38.094  32.657  37.704  1.00  0.00     0.041 A 
ATOM     68  F   UNL A   1      38.073  30.596  36.595  1.00  0.00    -0.206 F 
ATOM     69  C   UNL A   1      38.549  33.968  37.809  1.00  0.00     0.022 A 
BRANCH  66  70
ATOM     70  S   UNL A   1      40.146  36.108  37.010  1.00  0.00     0.124 S 
ATOM     71  O   UNL A   1      39.877  36.742  35.721  1.00  0.00    -0.237 OA
ATOM     72  O   UNL A   1      39.431  36.659  38.155  1.00  0.00    -0.237 OA
ATOM     73  O   UNL A   1      41.549  35.775  37.251  1.00  0.00    -0.744 OA
ENDBRANCH  66  70
ENDBRANCH  49  63
BRANCH  50  74
ATOM     74  C   UNL A   1      41.660  26.911  27.519  1.00  0.00     0.023 A 
ATOM     75  C   UNL A   1      41.434  25.528  27.440  1.00  0.00     0.031 A 
ATOM     76  C   UNL A   1      42.332  27.529  26.448  1.00  0.00     0.131 A 
ATOM     77  C   UNL A   1      41.917  24.802  26.340  1.00  0.00     0.055 A 
ATOM     78  C   UNL A   1      42.754  26.813  25.327  1.00  0.00     0.041 A 
ATOM     79  F   UNL A   1      42.581  28.848  26.473  1.00  0.00    -0.206 F 
ATOM     80  C   UNL A   1      42.561  25.436  25.276  1.00  0.00     0.022 A 
BRANCH  77  81
ATOM     81  S   UNL A   1      41.783  22.992  26.369  1.00  0.00     0.124 S 
ATOM     82  O   UNL A   1      40.339  22.801  26.301  1.00  0.00    -0.237 OA
ATOM     83  O   UNL A   1      42.539  22.614  25.179  1.00  0.00    -0.237 OA
ATOM     84  O   UNL A   1      42.404  22.625  27.640  1.00  0.00    -0.744 OA
ENDBRANCH  77  81
ENDBRANCH  50  74
BRANCH  62  85
ATOM     85  C   UNL A   1      44.351  27.501  33.937  1.00  0.00     0.023 A 
ATOM     86  C   UNL A   1      44.182  26.302  34.652  1.00  0.00     0.031 A 
ATOM     87  C   UNL A   1      45.642  28.057  33.881  1.00  0.00     0.131 A 
ATOM     88  C   UNL A   1      45.271  25.732  35.330  1.00  0.00     0.055 A 
ATOM     89  C   UNL A   1      46.736  27.448  34.499  1.00  0.00     0.041 A 
ATOM     90  F   UNL A   1      45.865  29.204  33.219  1.00  0.00    -0.206 F 
ATOM     91  C   UNL A   1      46.551  26.285  35.240  1.00  0.00     0.022 A 
BRANCH  88  92
ATOM     92  S   UNL A   1      44.972  24.313  36.420  1.00  0.00     0.124 S 
ATOM     93  O   UNL A   1      43.700  23.807  35.916  1.00  0.00    -0.237 OA
ATOM     94  O   UNL A   1      46.138  23.472  36.164  1.00  0.00    -0.237 OA
ATOM     95  O   UNL A   1      44.920  24.909  37.753  1.00  0.00    -0.744 OA
ENDBRANCH  88  92
ENDBRANCH  62  85
ENDBRANCH  36  37
ENDBRANCH  29  31
ENDBRANCH  28  29
ENDBRANCH  27  28
ENDBRANCH  26  27
ENDBRANCH   1  26
TORSDOF 21
ENDMDL
MODEL 2
REMARK VINA RESULT:     -10.3      1.668      7.926
REMARK SMILES C[NH2+][C@]1(C(=O)OCCOCCOC(=O)c2ccc(-c3c4nc(c(-c5cc(S(=O)(=O)[O-])ccc5F)c5ccc([nH]5)c(-c5cc(S(=O)(=O)[O-])ccc5F)c5nc(c(-c6cc(S(=O)(=O)[O-])ccc6F)c6ccc3[nH]6)C=C5)C=C4)cc2)CC[C@@H]([N@@H+](C)C[C@@H]2CCCCO2)C1
REMARK SMILES IDX 9 1 8 2 7 3 6 4 4 5 5 6 3 7 78 8 90 9 79 10 80 11 2 12 1 13
REMARK SMILES IDX 81 16 82 17 83 19 84 20 85 21 89 22 86 23 88 24 87 25 10 26
REMARK SMILES IDX 11 27 12 28 13 29 14 30 15 31 16 32 77 33 17 34 76 35 18 36
REMARK SMILES IDX 19 37 20 38 70 39 21 40 75 41 69 42 71 43 22 44 74 45 68 46
REMARK SMILES IDX 67 47 23 49 55 50 35 51 54 52 36 53 39 54 53 55 72 56 37 57
REMARK SMILES IDX 38 58 52 60 73 61 40 62 24 63 25 64 33 65 26 66 32 67 34 68
REMARK SMILES IDX 31 69 27 70 28 71 29 72 30 73 56 74 57 75 65 76 58 77 64 78
REMARK SMILES IDX 66 79 63 80 59 81 60 82 61 83 62 84 41 85 42 86 50 87 43 88
REMARK SMILES IDX 49 89 51 90 48 91 44 92 45 93 46 94 47 95
REMARK H PARENT 2 14 2 15 81 18 71 48 39 59
REMARK Flexibility Score: inf
ROOT
ATOM      1  O   UNL A   1      31.663  29.865  24.840  1.00  0.00    -0.374 OA
ENDROOT
BRANCH   1   2
ATOM      2  C   UNL A   1      31.459  28.556  25.379  1.00  0.00     0.202 C 
BRANCH   2   3
ATOM      3  C   UNL A   1      30.886  27.495  24.431  1.00  0.00     0.261 C 
BRANCH   3   4
ATOM      4  O   UNL A   1      31.423  26.187  24.716  1.00  0.00    -0.459 OA
BRANCH   4   5
ATOM      5  C   UNL A   1      31.059  25.197  23.854  1.00  0.00     0.368 C 
ATOM      6  O   UNL A   1      29.901  24.993  23.498  1.00  0.00    -0.245 OA
BRANCH   5   7
ATOM      7  C   UNL A   1      32.289  24.426  23.260  1.00  0.00     0.200 C 
ATOM      8  C   UNL A   1      33.591  24.904  23.894  1.00  0.00     0.087 C 
ATOM      9  C   UNL A   1      32.272  22.932  23.671  1.00  0.00     0.146 C 
ATOM     10  C   UNL A   1      34.550  23.760  23.733  1.00  0.00     0.072 C 
ATOM     11  C   UNL A   1      33.753  22.470  23.767  1.00  0.00     0.191 C 
BRANCH   7  12
ATOM     12  N   UNL A   1      32.251  24.673  21.790  1.00  0.00    -0.334 N 
ATOM     13  C   UNL A   1      32.598  25.969  21.255  1.00  0.00     0.331 C 
ATOM     14  H   UNL A   1      32.889  24.000  21.364  1.00  0.00     0.347 HD
ATOM     15  H   UNL A   1      31.259  24.591  21.569  1.00  0.00     0.347 HD
ENDBRANCH   7  12
BRANCH  11  16
ATOM     16  N   UNL A   1      34.026  21.594  24.912  1.00  0.00    -0.333 N 
ATOM     17  C   UNL A   1      33.359  21.981  26.150  1.00  0.00     0.333 C 
ATOM     18  H   UNL A   1      35.018  21.823  24.985  1.00  0.00     0.348 HD
BRANCH  16  19
ATOM     19  C   UNL A   1      34.152  20.129  24.751  1.00  0.00     0.294 C 
BRANCH  19  20
ATOM     20  C   UNL A   1      32.958  19.089  24.584  1.00  0.00     0.173 C 
ATOM     21  C   UNL A   1      32.681  18.107  25.748  1.00  0.00     0.038 C 
ATOM     22  O   UNL A   1      32.830  18.452  23.315  1.00  0.00    -0.372 OA
ATOM     23  C   UNL A   1      33.158  16.659  25.586  1.00  0.00     0.005 C 
ATOM     24  C   UNL A   1      33.630  17.298  23.135  1.00  0.00     0.161 C 
ATOM     25  C   UNL A   1      33.357  16.199  24.149  1.00  0.00     0.029 C 
ENDBRANCH  19  20
ENDBRANCH  16  19
ENDBRANCH  11  16
ENDBRANCH   5   7
ENDBRANCH   4   5
ENDBRANCH   3   4
ENDBRANCH   2   3
ENDBRANCH   1   2
BRANCH   1  26
ATOM     26  C   UNL A   1      30.693  30.846  25.197  1.00  0.00     0.202 C 
BRANCH  26  27
ATOM     27  C   UNL A   1      31.131  31.970  26.148  1.00  0.00     0.261 C 
BRANCH  27  28
ATOM     28  O   UNL A   1      32.250  31.597  26.972  1.00  0.00    -0.460 OA
BRANCH  28  29
ATOM     29  C   UNL A   1      32.957  32.655  27.451  1.00  0.00     0.338 C 
ATOM     30  O   UNL A   1      32.543  33.783  27.638  1.00  0.00    -0.246 OA
BRANCH  29  31
ATOM     31  C   UNL A   1      34.282  32.205  27.923  1.00  0.00     0.060 A 
ATOM     32  C   UNL A   1      34.414  30.852  28.259  1.00  0.00     0.016 A 
ATOM     33  C   UNL A   1      35.347  33.089  28.108  1.00  0.00     0.016 A 
ATOM     34  C   UNL A   1      35.594  30.384  28.829  1.00  0.00     0.010 A 
ATOM     35  C   UNL A   1      36.529  32.618  28.692  1.00  0.00     0.010 A 
ATOM     36  C   UNL A   1      36.645  31.272  29.089  1.00  0.00    -0.014 A 
BRANCH  36  37
ATOM     37  C   UNL A   1      37.794  30.816  29.912  1.00  0.00     0.031 A 
ATOM     38  C   UNL A   1      38.750  29.806  29.334  1.00  0.00     0.074 A 
ATOM     39  C   UNL A   1      38.012  31.331  31.136  1.00  0.00     0.049 A 
ATOM     40  N   UNL A   1      39.794  29.241  29.883  1.00  0.00    -0.248 NA
ATOM     41  C   UNL A   1      38.488  29.375  27.952  1.00  0.00     0.031 C 
ATOM     42  C   UNL A   1      37.189  32.357  31.775  1.00  0.00     0.029 A 
ATOM     43  N   UNL A   1      38.991  31.062  32.058  1.00  0.00    -0.354 N 
ATOM     44  C   UNL A   1      40.311  28.381  28.918  1.00  0.00     0.074 A 
ATOM     45  C   UNL A   1      39.438  28.473  27.766  1.00  0.00     0.031 C 
ATOM     46  C   UNL A   1      37.697  32.628  32.989  1.00  0.00     0.029 A 
ATOM     47  C   UNL A   1      38.849  31.763  33.234  1.00  0.00     0.049 A 
ATOM     48  H   UNL A   1      39.726  30.428  31.895  1.00  0.00     0.167 HD
ATOM     49  C   UNL A   1      41.415  27.598  28.984  1.00  0.00     0.034 A 
ATOM     50  C   UNL A   1      39.550  31.692  34.384  1.00  0.00     0.034 A 
ATOM     51  C   UNL A   1      42.270  27.516  30.145  1.00  0.00     0.049 A 
ATOM     52  C   UNL A   1      40.718  30.737  34.471  1.00  0.00     0.074 A 
ATOM     53  C   UNL A   1      43.421  26.765  30.316  1.00  0.00     0.029 A 
ATOM     54  N   UNL A   1      42.062  28.195  31.339  1.00  0.00    -0.354 N 
ATOM     55  N   UNL A   1      41.197  29.930  33.552  1.00  0.00    -0.248 NA
ATOM     56  C   UNL A   1      41.444  30.692  35.747  1.00  0.00     0.031 C 
ATOM     57  C   UNL A   1      43.856  26.923  31.636  1.00  0.00     0.029 A 
ATOM     58  C   UNL A   1      43.037  27.849  32.262  1.00  0.00     0.049 A 
ATOM     59  H   UNL A   1      41.328  28.831  31.505  1.00  0.00     0.167 HD
ATOM     60  C   UNL A   1      42.302  29.308  34.131  1.00  0.00     0.074 A 
ATOM     61  C   UNL A   1      42.424  29.846  35.470  1.00  0.00     0.031 C 
ATOM     62  C   UNL A   1      43.144  28.383  33.601  1.00  0.00     0.034 A 
BRANCH  49  63
ATOM     63  C   UNL A   1      41.727  26.726  27.790  1.00  0.00     0.023 A 
ATOM     64  C   UNL A   1      41.334  25.377  27.731  1.00  0.00     0.031 A 
ATOM     65  C   UNL A   1      42.450  27.247  26.703  1.00  0.00     0.131 A 
ATOM     66  C   UNL A   1      41.726  24.581  26.643  1.00  0.00     0.055 A 
ATOM     67  C   UNL A   1      42.762  26.473  25.583  1.00  0.00     0.041 A 
ATOM     68  F   UNL A   1      42.876  28.521  26.712  1.00  0.00    -0.206 F 
ATOM     69  C   UNL A   1      42.414  25.126  25.556  1.00  0.00     0.022 A 
BRANCH  66  70
ATOM     70  S   UNL A   1      41.460  22.789  26.739  1.00  0.00     0.124 S 
ATOM     71  O   UNL A   1      41.902  22.354  25.416  1.00  0.00    -0.237 OA
ATOM     72  O   UNL A   1      42.312  22.402  27.857  1.00  0.00    -0.237 OA
ATOM     73  O   UNL A   1      40.022  22.669  26.977  1.00  0.00    -0.744 OA
ENDBRANCH  66  70
ENDBRANCH  49  63
BRANCH  50  74
ATOM     74  C   UNL A   1      39.147  32.509  35.566  1.00  0.00     0.023 A 
ATOM     75  C   UNL A   1      39.610  33.823  35.736  1.00  0.00     0.031 A 
ATOM     76  C   UNL A   1      38.335  31.961  36.577  1.00  0.00     0.131 A 
ATOM     77  C   UNL A   1      39.301  34.527  36.910  1.00  0.00     0.055 A 
ATOM     78  C   UNL A   1      37.978  32.689  37.714  1.00  0.00     0.041 A 
ATOM     79  F   UNL A   1      37.870  30.707  36.470  1.00  0.00    -0.206 F 
ATOM     80  C   UNL A   1      38.475  33.977  37.892  1.00  0.00     0.022 A 
BRANCH  77  81
ATOM     81  S   UNL A   1      40.081  36.142  37.185  1.00  0.00     0.124 S 
ATOM     82  O   UNL A   1      41.439  35.757  37.548  1.00  0.00    -0.237 OA
ATOM     83  O   UNL A   1      39.920  36.781  35.882  1.00  0.00    -0.237 OA
ATOM     84  O   UNL A   1      39.286  36.725  38.264  1.00  0.00    -0.744 OA
ENDBRANCH  77  81
ENDBRANCH  50  74
BRANCH  62  85
ATOM     85  C   UNL A   1      44.306  27.933  34.457  1.00  0.00     0.023 A 
ATOM     86  C   UNL A   1      45.543  28.600  34.446  1.00  0.00     0.031 A 
ATOM     87  C   UNL A   1      44.172  26.809  35.293  1.00  0.00     0.131 A 
ATOM     88  C   UNL A   1      46.613  28.104  35.207  1.00  0.00     0.055 A 
ATOM     89  C   UNL A   1      45.218  26.361  36.102  1.00  0.00     0.041 A 
ATOM     90  F   UNL A   1      43.016  26.127  35.342  1.00  0.00    -0.206 F 
ATOM     91  C   UNL A   1      46.452  27.002  36.051  1.00  0.00     0.022 A 
BRANCH  88  92
ATOM     92  S   UNL A   1      48.252  28.854  35.000  1.00  0.00     0.124 S 
ATOM     93  O   UNL A   1      49.134  27.784  35.455  1.00  0.00    -0.237 OA
ATOM     94  O   UNL A   1      48.285  29.141  33.569  1.00  0.00    -0.237 OA
ATOM     95  O   UNL A   1      48.203  30.030  35.866  1.00  0.00    -0.744 OA
ENDBRANCH  88  92
ENDBRANCH  62  85
ENDBRANCH  36  37
ENDBRANCH  29  31
ENDBRANCH  28  29
ENDBRANCH  27  28
ENDBRANCH  26  27
ENDBRANCH   1  26
TORSDOF 21
ENDMDL
MODEL 3
REMARK VINA RESULT:     -10.1      1.999      2.284
REMARK SMILES C[NH2+][C@]1(C(=O)OCCOCCOC(=O)c2ccc(-c3c4nc(c(-c5cc(S(=O)(=O)[O-])ccc5F)c5ccc([nH]5)c(-c5cc(S(=O)(=O)[O-])ccc5F)c5nc(c(-c6cc(S(=O)(=O)[O-])ccc6F)c6ccc3[nH]6)C=C5)C=C4)cc2)CC[C@@H]([N@@H+](C)C[C@@H]2CCCCO2)C1
REMARK SMILES IDX 9 1 8 2 7 3 6 4 4 5 5 6 3 7 78 8 90 9 79 10 80 11 2 12 1 13
REMARK SMILES IDX 81 16 82 17 83 19 84 20 85 21 89 22 86 23 88 24 87 25 10 26
REMARK SMILES IDX 11 27 12 28 13 29 14 30 15 31 16 32 77 33 17 34 76 35 18 36
REMARK SMILES IDX 19 37 20 38 70 39 21 40 75 41 69 42 71 43 22 44 74 45 68 46
REMARK SMILES IDX 67 47 23 49 55 50 35 51 54 52 36 53 39 54 53 55 72 56 37 57
REMARK SMILES IDX 38 58 52 60 73 61 40 62 24 63 25 64 33 65 26 66 32 67 34 68
REMARK SMILES IDX 31 69 27 70 28 71 29 72 30 73 56 74 57 75 65 76 58 77 64 78
REMARK SMILES IDX 66 79 63 80 59 81 60 82 61 83 62 84 41 85 42 86 50 87 43 88
REMARK SMILES IDX 49 89 51 90 48 91 44 92 45 93 46 94 47 95
REMARK H PARENT 2 14 2 15 81 18 71 48 39 59
REMARK Flexibility Score: inf
ROOT
ATOM      1  O   UNL A   1      31.453  30.173  24.860  1.00  0.00    -0.374 OA
ENDROOT
BRANCH   1   2
ATOM      2  C   UNL A   1      31.332  28.781  24.554  1.00  0.00     0.202 C 
BRANCH   2   3
ATOM      3  C   UNL A   1      32.609  28.054  24.115  1.00  0.00     0.261 C 
BRANCH   3   4
ATOM      4  O   UNL A   1      32.858  26.887  24.925  1.00  0.00    -0.459 OA
BRANCH   4   5
ATOM      5  C   UNL A   1      31.970  25.866  24.782  1.00  0.00     0.368 C 
ATOM      6  O   UNL A   1      30.818  25.897  25.210  1.00  0.00    -0.245 OA
BRANCH   5   7
ATOM      7  C   UNL A   1      32.526  24.695  23.899  1.00  0.00     0.200 C 
ATOM      8  C   UNL A   1      34.030  24.836  23.691  1.00  0.00     0.087 C 
ATOM      9  C   UNL A   1      32.442  23.337  24.642  1.00  0.00     0.146 C 
ATOM     10  C   UNL A   1      34.519  23.447  23.398  1.00  0.00     0.072 C 
ATOM     11  C   UNL A   1      33.629  22.469  24.140  1.00  0.00     0.191 C 
BRANCH   7  12
ATOM     12  N   UNL A   1      31.768  24.757  22.617  1.00  0.00    -0.334 N 
ATOM     13  C   UNL A   1      32.185  25.651  21.561  1.00  0.00     0.331 C 
ATOM     14  H   UNL A   1      31.780  23.816  22.224  1.00  0.00     0.347 HD
ATOM     15  H   UNL A   1      30.868  25.142  22.901  1.00  0.00     0.347 HD
ENDBRANCH   7  12
BRANCH  11  16
ATOM     16  N   UNL A   1      34.289  21.701  25.201  1.00  0.00    -0.333 N 
ATOM     17  C   UNL A   1      33.834  22.008  26.552  1.00  0.00     0.333 C 
ATOM     18  H   UNL A   1      35.215  22.106  25.063  1.00  0.00     0.348 HD
BRANCH  16  19
ATOM     19  C   UNL A   1      34.645  20.276  25.016  1.00  0.00     0.294 C 
BRANCH  19  20
ATOM     20  C   UNL A   1      33.637  19.045  24.988  1.00  0.00     0.173 C 
ATOM     21  C   UNL A   1      34.167  17.683  24.477  1.00  0.00     0.038 C 
ATOM     22  O   UNL A   1      32.314  19.304  24.522  1.00  0.00    -0.372 OA
ATOM     23  C   UNL A   1      33.776  17.254  23.058  1.00  0.00     0.005 C 
ATOM     24  C   UNL A   1      32.148  19.250  23.118  1.00  0.00     0.161 C 
ATOM     25  C   UNL A   1      32.517  17.907  22.507  1.00  0.00     0.029 C 
ENDBRANCH  19  20
ENDBRANCH  16  19
ENDBRANCH  11  16
ENDBRANCH   5   7
ENDBRANCH   4   5
ENDBRANCH   3   4
ENDBRANCH   2   3
ENDBRANCH   1   2
BRANCH   1  26
ATOM     26  C   UNL A   1      31.722  30.492  26.222  1.00  0.00     0.202 C 
BRANCH  26  27
ATOM     27  C   UNL A   1      31.847  31.977  26.597  1.00  0.00     0.261 C 
BRANCH  27  28
ATOM     28  O   UNL A   1      32.540  32.180  27.842  1.00  0.00    -0.460 OA
BRANCH  28  29
ATOM     29  C   UNL A   1      33.552  33.084  27.767  1.00  0.00     0.338 C 
ATOM     30  O   UNL A   1      33.445  34.287  27.616  1.00  0.00    -0.246 OA
BRANCH  29  31
ATOM     31  C   UNL A   1      34.835  32.435  28.102  1.00  0.00     0.060 A 
ATOM     32  C   UNL A   1      34.800  31.067  28.398  1.00  0.00     0.016 A 
ATOM     33  C   UNL A   1      36.030  33.151  28.201  1.00  0.00     0.016 A 
ATOM     34  C   UNL A   1      35.947  30.417  28.845  1.00  0.00     0.010 A 
ATOM     35  C   UNL A   1      37.180  32.498  28.661  1.00  0.00     0.010 A 
ATOM     36  C   UNL A   1      37.135  31.137  29.019  1.00  0.00    -0.014 A 
BRANCH  36  37
ATOM     37  C   UNL A   1      38.276  30.495  29.720  1.00  0.00     0.031 A 
ATOM     38  C   UNL A   1      38.570  30.884  31.145  1.00  0.00     0.074 A 
ATOM     39  C   UNL A   1      39.008  29.542  29.114  1.00  0.00     0.049 A 
ATOM     40  N   UNL A   1      39.532  30.483  31.934  1.00  0.00    -0.248 NA
ATOM     41  C   UNL A   1      37.654  31.859  31.757  1.00  0.00     0.031 C 
ATOM     42  C   UNL A   1      38.781  29.042  27.759  1.00  0.00     0.029 A 
ATOM     43  N   UNL A   1      40.091  28.826  29.560  1.00  0.00    -0.354 N 
ATOM     44  C   UNL A   1      39.344  31.161  33.136  1.00  0.00     0.074 A 
ATOM     45  C   UNL A   1      38.200  32.030  32.951  1.00  0.00     0.031 C 
ATOM     46  C   UNL A   1      39.700  28.101  27.483  1.00  0.00     0.029 A 
ATOM     47  C   UNL A   1      40.609  27.967  28.620  1.00  0.00     0.049 A 
ATOM     48  H   UNL A   1      40.461  28.919  30.467  1.00  0.00     0.167 HD
ATOM     49  C   UNL A   1      40.056  31.062  34.286  1.00  0.00     0.034 A 
ATOM     50  C   UNL A   1      41.707  27.185  28.660  1.00  0.00     0.034 A 
ATOM     51  C   UNL A   1      41.198  30.195  34.447  1.00  0.00     0.049 A 
ATOM     52  C   UNL A   1      42.543  27.165  29.919  1.00  0.00     0.074 A 
ATOM     53  C   UNL A   1      41.984  30.006  35.572  1.00  0.00     0.029 A 
ATOM     54  N   UNL A   1      41.731  29.382  33.454  1.00  0.00    -0.354 N 
ATOM     55  N   UNL A   1      42.356  27.810  31.047  1.00  0.00    -0.248 NA
ATOM     56  C   UNL A   1      43.734  26.304  29.910  1.00  0.00     0.031 C 
ATOM     57  C   UNL A   1      43.037  29.150  35.233  1.00  0.00     0.029 A 
ATOM     58  C   UNL A   1      42.857  28.725  33.928  1.00  0.00     0.049 A 
ATOM     59  H   UNL A   1      41.362  29.287  32.546  1.00  0.00     0.167 HD
ATOM     60  C   UNL A   1      43.387  27.404  31.894  1.00  0.00     0.074 A 
ATOM     61  C   UNL A   1      44.180  26.448  31.149  1.00  0.00     0.031 C 
ATOM     62  C   UNL A   1      43.649  27.780  33.172  1.00  0.00     0.034 A 
BRANCH  49  63
ATOM     63  C   UNL A   1      39.652  31.954  35.436  1.00  0.00     0.023 A 
ATOM     64  C   UNL A   1      38.895  31.474  36.520  1.00  0.00     0.031 A 
ATOM     65  C   UNL A   1      40.010  33.314  35.437  1.00  0.00     0.131 A 
ATOM     66  C   UNL A   1      38.463  32.360  37.519  1.00  0.00     0.055 A 
ATOM     67  C   UNL A   1      39.651  34.172  36.479  1.00  0.00     0.041 A 
ATOM     68  F   UNL A   1      40.709  33.837  34.417  1.00  0.00    -0.206 F 
ATOM     69  C   UNL A   1      38.859  33.700  37.521  1.00  0.00     0.022 A 
BRANCH  66  70
ATOM     70  S   UNL A   1      37.251  31.774  38.735  1.00  0.00     0.124 S 
ATOM     71  O   UNL A   1      36.140  32.695  38.512  1.00  0.00    -0.237 OA
ATOM     72  O   UNL A   1      37.030  30.394  38.319  1.00  0.00    -0.237 OA
ATOM     73  O   UNL A   1      37.940  31.938  40.013  1.00  0.00    -0.744 OA
ENDBRANCH  66  70
ENDBRANCH  49  63
BRANCH  50  74
ATOM     74  C   UNL A   1      42.115  26.391  27.465  1.00  0.00     0.023 A 
ATOM     75  C   UNL A   1      41.845  25.017  27.375  1.00  0.00     0.031 A 
ATOM     76  C   UNL A   1      42.837  26.989  26.415  1.00  0.00     0.131 A 
ATOM     77  C   UNL A   1      42.335  24.276  26.288  1.00  0.00     0.055 A 
ATOM     78  C   UNL A   1      43.267  26.260  25.305  1.00  0.00     0.041 A 
ATOM     79  F   UNL A   1      43.129  28.298  26.450  1.00  0.00    -0.206 F 
ATOM     80  C   UNL A   1      43.029  24.890  25.244  1.00  0.00     0.022 A 
BRANCH  77  81
ATOM     81  S   UNL A   1      42.140  22.472  26.309  1.00  0.00     0.124 S 
ATOM     82  O   UNL A   1      42.884  22.081  25.117  1.00  0.00    -0.237 OA
ATOM     83  O   UNL A   1      42.743  22.117  27.589  1.00  0.00    -0.237 OA
ATOM     84  O   UNL A   1      40.692  22.286  26.232  1.00  0.00    -0.744 OA
ENDBRANCH  77  81
ENDBRANCH  50  74
BRANCH  62  85
ATOM     85  C   UNL A   1      44.815  27.114  33.865  1.00  0.00     0.023 A 
ATOM     86  C   UNL A   1      46.106  27.672  33.853  1.00  0.00     0.031 A 
ATOM     87  C   UNL A   1      44.631  25.895  34.543  1.00  0.00     0.131 A 
ATOM     88  C   UNL A   1      47.172  26.982  34.453  1.00  0.00     0.055 A 
ATOM     89  C   UNL A   1      45.681  25.249  35.198  1.00  0.00     0.041 A 
ATOM     90  F   UNL A   1      43.423  25.311  34.583  1.00  0.00    -0.206 F 
ATOM     91  C   UNL A   1      46.963  25.785  35.144  1.00  0.00     0.022 A 
BRANCH  88  92
ATOM     92  S   UNL A   1      48.856  27.616  34.229  1.00  0.00     0.124 S 
ATOM     93  O   UNL A   1      48.775  28.234  32.910  1.00  0.00    -0.237 OA
ATOM     94  O   UNL A   1      48.996  28.536  35.355  1.00  0.00    -0.237 OA
ATOM     95  O   UNL A   1      49.688  26.416  34.303  1.00  0.00    -0.744 OA
ENDBRANCH  88  92
ENDBRANCH  62  85
ENDBRANCH  36  37
ENDBRANCH  29  31
ENDBRANCH  28  29
ENDBRANCH  27  28
ENDBRANCH  26  27
ENDBRANCH   1  26
TORSDOF 21
ENDMDL
