MODEL 1
REMARK VINA RESULT:      -8.6      0.000      0.000
REMARK SMILES O=C(CCN1C(=O)S/C(=C\c2ccccc2F)C1=O)Nc1ccc(C(=O)OCCOCCOC(=O)c2ccc(-c3c4nc(c(-c5cc(S(=O)(=O)[O-])ccc5F)c5ccc([nH]5)c(-c5cc(S(=O)(=O)[O-])ccc5F)c5nc(c(-c6cc(S(=O)(=O)[O-])ccc6F)c6ccc3[nH]6)C=C5)C=C4)cc2)c(O)c1
REMARK SMILES IDX 29 1 28 2 27 3 25 4 26 5 24 6 21 7 22 8 101 9 23 10 99 11
REMARK SMILES IDX 20 12 1 13 2 14 3 16 4 17 5 18 6 19 18 20 7 21 8 22 9 23
REMARK SMILES IDX 19 24 10 25 11 26 12 27 16 28 13 29 15 30 17 31 14 32 100 33
REMARK SMILES IDX 30 35 31 36 32 37 33 38 34 39 35 40 36 41 37 42 98 43 38 44
REMARK SMILES IDX 97 45 39 46 40 47 41 48 91 49 42 50 96 51 90 52 92 53 43 54
REMARK SMILES IDX 95 55 89 56 88 57 44 59 76 60 56 61 75 62 57 63 60 64 74 65
REMARK SMILES IDX 93 66 58 67 59 68 73 70 94 71 61 72 45 73 46 74 54 75 47 76
REMARK SMILES IDX 53 77 55 78 52 79 48 80 49 81 50 82 51 83 77 84 78 85 86 86
REMARK SMILES IDX 79 87 85 88 87 89 84 90 80 91 81 92 82 93 83 94 62 95 63 96
REMARK SMILES IDX 71 97 64 98 70 99 72 100 69 101 65 102 66 103 67 104 68 105
REMARK H PARENT 20 15 100 34 92 58 60 69
REMARK Flexibility Score: inf
ROOT
ATOM      1  C   UNL A   1      34.119  33.944  33.038  1.00  0.00     0.202 C 
ENDROOT
BRANCH   1   2
ATOM      2  C   UNL A   1      33.802  34.838  31.833  1.00  0.00     0.261 C 
BRANCH   2   3
ATOM      3  O   UNL A   1      33.503  34.070  30.655  1.00  0.00    -0.460 OA
BRANCH   3   4
ATOM      4  C   UNL A   1      34.137  34.499  29.533  1.00  0.00     0.341 C 
ATOM      5  O   UNL A   1      34.015  35.584  28.988  1.00  0.00    -0.246 OA
BRANCH   4   6
ATOM      6  C   UNL A   1      35.169  33.518  29.136  1.00  0.00     0.101 A 
ATOM      7  C   UNL A   1      36.958  31.508  28.353  1.00  0.00     0.044 A 
ATOM      8  C   UNL A   1      35.626  31.446  27.950  1.00  0.00     0.027 A 
ATOM      9  C   UNL A   1      37.399  32.595  29.122  1.00  0.00     0.073 A 
ATOM     10  C   UNL A   1      34.730  32.433  28.364  1.00  0.00     0.022 A 
ATOM     11  C   UNL A   1      36.518  33.619  29.472  1.00  0.00     0.132 A 
BRANCH   7  12
ATOM     12  N   UNL A   1      37.881  30.484  28.077  1.00  0.00    -0.326 N 
ATOM     13  O   UNL A   1      38.092  29.454  30.141  1.00  0.00    -0.275 OA
ATOM     14  C   UNL A   1      38.438  29.597  28.972  1.00  0.00     0.226 C 
ATOM     15  H   UNL A   1      38.161  30.391  27.138  1.00  0.00     0.169 HD
BRANCH  14  16
ATOM     16  C   UNL A   1      39.624  28.816  28.426  1.00  0.00     0.122 C 
BRANCH  16  17
ATOM     17  C   UNL A   1      39.765  28.779  26.901  1.00  0.00     0.140 C 
BRANCH  17  18
ATOM     18  N   UNL A   1      40.776  27.838  26.428  1.00  0.00    -0.268 N 
ATOM     19  C   UNL A   1      41.838  28.244  25.659  1.00  0.00     0.293 C 
ATOM     20  C   UNL A   1      40.684  26.489  26.696  1.00  0.00     0.268 C 
ATOM     21  O   UNL A   1      42.079  29.381  25.296  1.00  0.00    -0.261 OA
ATOM     22  S   UNL A   1      42.917  26.897  25.371  1.00  0.00    -0.022 SA
ATOM     23  C   UNL A   1      41.944  25.816  26.290  1.00  0.00     0.083 C 
ATOM     24  O   UNL A   1      39.744  25.925  27.235  1.00  0.00    -0.268 OA
ATOM     25  C   UNL A   1      42.255  24.589  26.725  1.00  0.00     0.032 C 
BRANCH  25  26
ATOM     26  C   UNL A   1      43.574  23.971  26.571  1.00  0.00     0.012 A 
ATOM     27  C   UNL A   1      44.586  24.198  27.506  1.00  0.00     0.011 A 
ATOM     28  C   UNL A   1      43.834  23.133  25.477  1.00  0.00     0.130 A 
ATOM     29  C   UNL A   1      45.832  23.582  27.348  1.00  0.00     0.001 A 
ATOM     30  C   UNL A   1      45.070  22.517  25.317  1.00  0.00     0.040 A 
ATOM     31  F   UNL A   1      42.878  22.913  24.559  1.00  0.00    -0.206 F 
ATOM     32  C   UNL A   1      46.072  22.741  26.259  1.00  0.00     0.003 A 
ENDBRANCH  25  26
ENDBRANCH  17  18
ENDBRANCH  16  17
ENDBRANCH  14  16
ENDBRANCH   7  12
BRANCH  11  33
ATOM     33  O   UNL A   1      37.059  34.679  30.143  1.00  0.00    -0.507 OA
ATOM     34  H   UNL A   1      36.823  35.554  29.905  1.00  0.00     0.293 HD
ENDBRANCH  11  33
ENDBRANCH   4   6
ENDBRANCH   3   4
ENDBRANCH   2   3
ENDBRANCH   1   2
BRANCH   1  35
ATOM     35  O   UNL A   1      35.488  33.604  33.254  1.00  0.00    -0.374 OA
BRANCH  35  36
ATOM     36  C   UNL A   1      36.239  34.414  34.158  1.00  0.00     0.202 C 
BRANCH  36  37
ATOM     37  C   UNL A   1      37.770  34.318  34.109  1.00  0.00     0.261 C 
BRANCH  37  38
ATOM     38  O   UNL A   1      38.342  34.007  35.390  1.00  0.00    -0.460 OA
BRANCH  38  39
ATOM     39  C   UNL A   1      38.236  32.703  35.751  1.00  0.00     0.338 C 
ATOM     40  O   UNL A   1      37.376  32.202  36.454  1.00  0.00    -0.246 OA
BRANCH  39  41
ATOM     41  C   UNL A   1      39.222  31.901  35.001  1.00  0.00     0.060 A 
ATOM     42  C   UNL A   1      40.580  32.121  35.267  1.00  0.00     0.016 A 
ATOM     43  C   UNL A   1      38.826  31.009  34.003  1.00  0.00     0.016 A 
ATOM     44  C   UNL A   1      41.553  31.487  34.497  1.00  0.00     0.010 A 
ATOM     45  C   UNL A   1      39.804  30.382  33.226  1.00  0.00     0.010 A 
ATOM     46  C   UNL A   1      41.168  30.648  33.444  1.00  0.00    -0.014 A 
BRANCH  46  47
ATOM     47  C   UNL A   1      42.173  30.179  32.461  1.00  0.00     0.031 A 
ATOM     48  C   UNL A   1      42.801  28.827  32.663  1.00  0.00     0.074 A 
ATOM     49  C   UNL A   1      42.511  30.936  31.403  1.00  0.00     0.049 A 
ATOM     50  N   UNL A   1      43.793  28.270  32.020  1.00  0.00    -0.248 NA
ATOM     51  C   UNL A   1      42.237  27.998  33.741  1.00  0.00     0.031 C 
ATOM     52  C   UNL A   1      41.919  32.228  31.062  1.00  0.00     0.029 A 
ATOM     53  N   UNL A   1      43.448  30.726  30.423  1.00  0.00    -0.354 N 
ATOM     54  C   UNL A   1      43.983  27.031  32.622  1.00  0.00     0.074 A 
ATOM     55  C   UNL A   1      43.020  26.930  33.697  1.00  0.00     0.031 C 
ATOM     56  C   UNL A   1      42.515  32.701  29.954  1.00  0.00     0.029 A 
ATOM     57  C   UNL A   1      43.562  31.771  29.537  1.00  0.00     0.049 A 
ATOM     58  H   UNL A   1      43.988  29.905  30.360  1.00  0.00     0.167 HD
ATOM     59  C   UNL A   1      44.878  26.066  32.302  1.00  0.00     0.034 A 
ATOM     60  C   UNL A   1      44.434  31.969  28.529  1.00  0.00     0.034 A 
ATOM     61  C   UNL A   1      45.829  26.181  31.226  1.00  0.00     0.049 A 
ATOM     62  C   UNL A   1      45.486  30.924  28.252  1.00  0.00     0.074 A 
ATOM     63  C   UNL A   1      46.778  25.259  30.815  1.00  0.00     0.029 A 
ATOM     64  N   UNL A   1      45.957  27.281  30.391  1.00  0.00    -0.354 N 
ATOM     65  N   UNL A   1      45.691  29.778  28.858  1.00  0.00    -0.248 NA
ATOM     66  C   UNL A   1      46.429  31.205  27.161  1.00  0.00     0.031 C 
ATOM     67  C   UNL A   1      47.519  25.829  29.777  1.00  0.00     0.029 A 
ATOM     68  C   UNL A   1      46.989  27.077  29.488  1.00  0.00     0.049 A 
ATOM     69  H   UNL A   1      45.397  28.089  30.434  1.00  0.00     0.167 HD
ATOM     70  C   UNL A   1      46.777  29.195  28.211  1.00  0.00     0.074 A 
ATOM     71  C   UNL A   1      47.173  30.109  27.159  1.00  0.00     0.031 C 
ATOM     72  C   UNL A   1      47.389  28.009  28.461  1.00  0.00     0.034 A 
BRANCH  59  73
ATOM     73  C   UNL A   1      44.901  24.824  33.153  1.00  0.00     0.023 A 
ATOM     74  C   UNL A   1      45.517  24.803  34.416  1.00  0.00     0.031 A 
ATOM     75  C   UNL A   1      44.279  23.648  32.699  1.00  0.00     0.131 A 
ATOM     76  C   UNL A   1      45.529  23.617  35.166  1.00  0.00     0.055 A 
ATOM     77  C   UNL A   1      44.240  22.489  33.477  1.00  0.00     0.041 A 
ATOM     78  F   UNL A   1      43.695  23.607  31.491  1.00  0.00    -0.206 F 
ATOM     79  C   UNL A   1      44.874  22.468  34.716  1.00  0.00     0.022 A 
BRANCH  76  80
ATOM     80  S   UNL A   1      46.476  23.574  36.711  1.00  0.00     0.124 S 
ATOM     81  O   UNL A   1      46.349  24.954  37.174  1.00  0.00    -0.237 OA
ATOM     82  O   UNL A   1      45.762  22.570  37.493  1.00  0.00    -0.237 OA
ATOM     83  O   UNL A   1      47.818  23.187  36.280  1.00  0.00    -0.744 OA
ENDBRANCH  76  80
ENDBRANCH  59  73
BRANCH  60  84
ATOM     84  C   UNL A   1      44.384  33.227  27.736  1.00  0.00     0.023 A 
ATOM     85  C   UNL A   1      44.804  34.447  28.286  1.00  0.00     0.031 A 
ATOM     86  C   UNL A   1      43.904  33.227  26.413  1.00  0.00     0.131 A 
ATOM     87  C   UNL A   1      44.717  35.623  27.525  1.00  0.00     0.055 A 
ATOM     88  C   UNL A   1      43.857  34.392  25.646  1.00  0.00     0.041 A 
ATOM     89  F   UNL A   1      43.493  32.084  25.840  1.00  0.00    -0.206 F 
ATOM     90  C   UNL A   1      44.261  35.601  26.205  1.00  0.00     0.022 A 
BRANCH  87  91
ATOM     91  S   UNL A   1      45.191  37.196  28.295  1.00  0.00     0.124 S 
ATOM     92  O   UNL A   1      43.943  37.603  28.929  1.00  0.00    -0.237 OA
ATOM     93  O   UNL A   1      46.264  36.784  29.193  1.00  0.00    -0.237 OA
ATOM     94  O   UNL A   1      45.614  38.015  27.160  1.00  0.00    -0.744 OA
ENDBRANCH  87  91
ENDBRANCH  60  84
BRANCH  72  95
ATOM     95  C   UNL A   1      48.543  27.626  27.571  1.00  0.00     0.023 A 
ATOM     96  C   UNL A   1      49.863  27.992  27.884  1.00  0.00     0.031 A 
ATOM     97  C   UNL A   1      48.322  26.870  26.405  1.00  0.00     0.131 A 
ATOM     98  C   UNL A   1      50.909  27.640  27.017  1.00  0.00     0.055 A 
ATOM     99  C   UNL A   1      49.373  26.475  25.576  1.00  0.00     0.041 A 
ATOM    100  F   UNL A   1      47.081  26.494  26.061  1.00  0.00    -0.206 F 
ATOM    101  C   UNL A   1      50.674  26.869  25.875  1.00  0.00     0.022 A 
BRANCH  98 102
ATOM    102  S   UNL A   1      52.576  28.263  27.365  1.00  0.00     0.124 S 
ATOM    103  O   UNL A   1      53.294  27.900  26.148  1.00  0.00    -0.237 OA
ATOM    104  O   UNL A   1      52.343  29.690  27.566  1.00  0.00    -0.237 OA
ATOM    105  O   UNL A   1      52.974  27.526  28.563  1.00  0.00    -0.744 OA
ENDBRANCH  98 102
ENDBRANCH  72  95
ENDBRANCH  46  47
ENDBRANCH  39  41
ENDBRANCH  38  39
ENDBRANCH  37  38
ENDBRANCH  36  37
ENDBRANCH  35  36
ENDBRANCH   1  35
TORSDOF 23
ENDMDL
MODEL 2
REMARK VINA RESULT:      -8.5      4.067     10.999
REMARK SMILES O=C(CCN1C(=O)S/C(=C\c2ccccc2F)C1=O)Nc1ccc(C(=O)OCCOCCOC(=O)c2ccc(-c3c4nc(c(-c5cc(S(=O)(=O)[O-])ccc5F)c5ccc([nH]5)c(-c5cc(S(=O)(=O)[O-])ccc5F)c5nc(c(-c6cc(S(=O)(=O)[O-])ccc6F)c6ccc3[nH]6)C=C5)C=C4)cc2)c(O)c1
REMARK SMILES IDX 29 1 28 2 27 3 25 4 26 5 24 6 21 7 22 8 101 9 23 10 99 11
REMARK SMILES IDX 20 12 1 13 2 14 3 16 4 17 5 18 6 19 18 20 7 21 8 22 9 23
REMARK SMILES IDX 19 24 10 25 11 26 12 27 16 28 13 29 15 30 17 31 14 32 100 33
REMARK SMILES IDX 30 35 31 36 32 37 33 38 34 39 35 40 36 41 37 42 98 43 38 44
REMARK SMILES IDX 97 45 39 46 40 47 41 48 91 49 42 50 96 51 90 52 92 53 43 54
REMARK SMILES IDX 95 55 89 56 88 57 44 59 76 60 56 61 75 62 57 63 60 64 74 65
REMARK SMILES IDX 93 66 58 67 59 68 73 70 94 71 61 72 45 73 46 74 54 75 47 76
REMARK SMILES IDX 53 77 55 78 52 79 48 80 49 81 50 82 51 83 77 84 78 85 86 86
REMARK SMILES IDX 79 87 85 88 87 89 84 90 80 91 81 92 82 93 83 94 62 95 63 96
REMARK SMILES IDX 71 97 64 98 70 99 72 100 69 101 65 102 66 103 67 104 68 105
REMARK H PARENT 20 15 100 34 92 58 60 69
REMARK Flexibility Score: inf
ROOT
ATOM      1  C   UNL A   1      39.999  20.536  26.347  1.00  0.00     0.202 C 
ENDROOT
BRANCH   1   2
ATOM      2  C   UNL A   1      39.121  21.752  26.028  1.00  0.00     0.261 C 
BRANCH   2   3
ATOM      3  O   UNL A   1      39.701  22.977  26.510  1.00  0.00    -0.460 OA
BRANCH   3   4
ATOM      4  C   UNL A   1      38.843  24.030  26.530  1.00  0.00     0.341 C 
ATOM      5  O   UNL A   1      37.662  24.023  26.226  1.00  0.00    -0.246 OA
BRANCH   4   6
ATOM      6  C   UNL A   1      39.498  25.195  27.160  1.00  0.00     0.101 A 
ATOM      7  C   UNL A   1      40.553  27.430  28.483  1.00  0.00     0.044 A 
ATOM      8  C   UNL A   1      39.558  26.670  29.092  1.00  0.00     0.027 A 
ATOM      9  C   UNL A   1      41.042  27.050  27.224  1.00  0.00     0.073 A 
ATOM     10  C   UNL A   1      39.013  25.573  28.421  1.00  0.00     0.022 A 
ATOM     11  C   UNL A   1      40.548  25.911  26.587  1.00  0.00     0.132 A 
BRANCH   7  12
ATOM     12  N   UNL A   1      41.054  28.615  29.049  1.00  0.00    -0.326 N 
ATOM     13  O   UNL A   1      42.455  27.806  30.708  1.00  0.00    -0.275 OA
ATOM     14  C   UNL A   1      41.885  28.735  30.142  1.00  0.00     0.226 C 
ATOM     15  H   UNL A   1      40.781  29.455  28.614  1.00  0.00     0.169 HD
BRANCH  14  16
ATOM     16  C   UNL A   1      42.000  30.149  30.691  1.00  0.00     0.122 C 
BRANCH  16  17
ATOM     17  C   UNL A   1      41.240  31.235  29.925  1.00  0.00     0.140 C 
BRANCH  17  18
ATOM     18  N   UNL A   1      40.110  31.791  30.662  1.00  0.00    -0.268 N 
ATOM     19  C   UNL A   1      40.262  32.834  31.542  1.00  0.00     0.293 C 
ATOM     20  C   UNL A   1      38.842  31.263  30.541  1.00  0.00     0.268 C 
ATOM     21  O   UNL A   1      41.298  33.416  31.806  1.00  0.00    -0.261 OA
ATOM     22  S   UNL A   1      38.701  33.331  32.156  1.00  0.00    -0.022 SA
ATOM     23  C   UNL A   1      37.867  32.152  31.222  1.00  0.00     0.083 C 
ATOM     24  O   UNL A   1      38.540  30.252  29.924  1.00  0.00    -0.268 OA
ATOM     25  C   UNL A   1      36.552  32.059  30.988  1.00  0.00     0.032 C 
BRANCH  25  26
ATOM     26  C   UNL A   1      35.567  33.051  31.425  1.00  0.00     0.012 A 
ATOM     27  C   UNL A   1      35.023  33.968  30.523  1.00  0.00     0.011 A 
ATOM     28  C   UNL A   1      35.152  33.086  32.764  1.00  0.00     0.130 A 
ATOM     29  C   UNL A   1      34.069  34.894  30.960  1.00  0.00     0.001 A 
ATOM     30  C   UNL A   1      34.203  34.004  33.202  1.00  0.00     0.040 A 
ATOM     31  F   UNL A   1      35.674  32.222  33.650  1.00  0.00    -0.206 F 
ATOM     32  C   UNL A   1      33.658  34.909  32.295  1.00  0.00     0.003 A 
ENDBRANCH  25  26
ENDBRANCH  17  18
ENDBRANCH  16  17
ENDBRANCH  14  16
ENDBRANCH   7  12
BRANCH  11  33
ATOM     33  O   UNL A   1      41.148  25.570  25.407  1.00  0.00    -0.507 OA
ATOM     34  H   UNL A   1      40.948  24.750  25.000  1.00  0.00     0.293 HD
ENDBRANCH  11  33
ENDBRANCH   4   6
ENDBRANCH   3   4
ENDBRANCH   2   3
ENDBRANCH   1   2
BRANCH   1  35
ATOM     35  O   UNL A   1      40.833  20.621  27.501  1.00  0.00    -0.374 OA
BRANCH  35  36
ATOM     36  C   UNL A   1      42.247  20.575  27.305  1.00  0.00     0.202 C 
BRANCH  36  37
ATOM     37  C   UNL A   1      42.877  21.608  26.362  1.00  0.00     0.261 C 
BRANCH  37  38
ATOM     38  O   UNL A   1      42.632  22.960  26.787  1.00  0.00    -0.460 OA
BRANCH  38  39
ATOM     39  C   UNL A   1      43.172  23.277  27.990  1.00  0.00     0.338 C 
ATOM     40  O   UNL A   1      43.253  22.559  28.971  1.00  0.00    -0.246 OA
BRANCH  39  41
ATOM     41  C   UNL A   1      43.846  24.587  27.899  1.00  0.00     0.060 A 
ATOM     42  C   UNL A   1      44.249  25.027  26.632  1.00  0.00     0.016 A 
ATOM     43  C   UNL A   1      44.143  25.332  29.041  1.00  0.00     0.016 A 
ATOM     44  C   UNL A   1      45.003  26.191  26.506  1.00  0.00     0.010 A 
ATOM     45  C   UNL A   1      44.908  26.494  28.913  1.00  0.00     0.010 A 
ATOM     46  C   UNL A   1      45.373  26.908  27.650  1.00  0.00    -0.014 A 
BRANCH  46  47
ATOM     47  C   UNL A   1      46.383  27.988  27.559  1.00  0.00     0.031 A 
ATOM     48  C   UNL A   1      45.910  29.397  27.325  1.00  0.00     0.074 A 
ATOM     49  C   UNL A   1      47.694  27.724  27.693  1.00  0.00     0.049 A 
ATOM     50  N   UNL A   1      46.606  30.474  27.073  1.00  0.00    -0.248 NA
ATOM     51  C   UNL A   1      44.455  29.616  27.375  1.00  0.00     0.031 C 
ATOM     52  C   UNL A   1      48.267  26.412  27.994  1.00  0.00     0.029 A 
ATOM     53  N   UNL A   1      48.784  28.549  27.581  1.00  0.00    -0.354 N 
ATOM     54  C   UNL A   1      45.676  31.496  26.921  1.00  0.00     0.074 A 
ATOM     55  C   UNL A   1      44.366  30.905  27.084  1.00  0.00     0.031 C 
ATOM     56  C   UNL A   1      49.605  26.521  28.033  1.00  0.00     0.029 A 
ATOM     57  C   UNL A   1      49.986  27.895  27.712  1.00  0.00     0.049 A 
ATOM     58  H   UNL A   1      48.712  29.518  27.421  1.00  0.00     0.167 HD
ATOM     59  C   UNL A   1      45.900  32.809  26.672  1.00  0.00     0.034 A 
ATOM     60  C   UNL A   1      51.246  28.346  27.555  1.00  0.00     0.034 A 
ATOM     61  C   UNL A   1      47.212  33.383  26.516  1.00  0.00     0.049 A 
ATOM     62  C   UNL A   1      51.468  29.791  27.181  1.00  0.00     0.074 A 
ATOM     63  C   UNL A   1      47.548  34.703  26.265  1.00  0.00     0.029 A 
ATOM     64  N   UNL A   1      48.404  32.677  26.592  1.00  0.00    -0.354 N 
ATOM     65  N   UNL A   1      50.581  30.740  26.990  1.00  0.00    -0.248 NA
ATOM     66  C   UNL A   1      52.860  30.221  26.995  1.00  0.00     0.031 C 
ATOM     67  C   UNL A   1      48.937  34.780  26.125  1.00  0.00     0.029 A 
ATOM     68  C   UNL A   1      49.475  33.525  26.361  1.00  0.00     0.049 A 
ATOM     69  H   UNL A   1      48.477  31.714  26.782  1.00  0.00     0.167 HD
ATOM     70  C   UNL A   1      51.310  31.883  26.675  1.00  0.00     0.074 A 
ATOM     71  C   UNL A   1      52.709  31.508  26.717  1.00  0.00     0.031 C 
ATOM     72  C   UNL A   1      50.864  33.131  26.381  1.00  0.00     0.034 A 
BRANCH  59  73
ATOM     73  C   UNL A   1      44.699  33.703  26.508  1.00  0.00     0.023 A 
ATOM     74  C   UNL A   1      44.181  34.450  27.579  1.00  0.00     0.031 A 
ATOM     75  C   UNL A   1      44.077  33.823  25.253  1.00  0.00     0.131 A 
ATOM     76  C   UNL A   1      43.050  35.257  27.383  1.00  0.00     0.055 A 
ATOM     77  C   UNL A   1      42.990  34.675  25.050  1.00  0.00     0.041 A 
ATOM     78  F   UNL A   1      44.518  33.116  24.202  1.00  0.00    -0.206 F 
ATOM     79  C   UNL A   1      42.466  35.393  26.122  1.00  0.00     0.022 A 
BRANCH  76  80
ATOM     80  S   UNL A   1      42.304  36.074  28.820  1.00  0.00     0.124 S 
ATOM     81  O   UNL A   1      41.110  35.260  29.035  1.00  0.00    -0.237 OA
ATOM     82  O   UNL A   1      43.348  35.957  29.831  1.00  0.00    -0.237 OA
ATOM     83  O   UNL A   1      42.047  37.433  28.346  1.00  0.00    -0.744 OA
ENDBRANCH  76  80
ENDBRANCH  59  73
BRANCH  60  84
ATOM     84  C   UNL A   1      52.396  27.413  27.702  1.00  0.00     0.023 A 
ATOM     85  C   UNL A   1      52.892  26.697  26.603  1.00  0.00     0.031 A 
ATOM     86  C   UNL A   1      53.011  27.219  28.953  1.00  0.00     0.131 A 
ATOM     87  C   UNL A   1      53.958  25.801  26.778  1.00  0.00     0.055 A 
ATOM     88  C   UNL A   1      54.097  26.357  29.113  1.00  0.00     0.041 A 
ATOM     89  F   UNL A   1      52.575  27.884  30.035  1.00  0.00    -0.206 F 
ATOM     90  C   UNL A   1      54.573  25.638  28.021  1.00  0.00     0.022 A 
BRANCH  87  91
ATOM     91  S   UNL A   1      54.521  24.829  25.354  1.00  0.00     0.124 S 
ATOM     92  O   UNL A   1      55.232  25.832  24.572  1.00  0.00    -0.237 OA
ATOM     93  O   UNL A   1      55.345  23.806  25.990  1.00  0.00    -0.237 OA
ATOM     94  O   UNL A   1      53.277  24.340  24.763  1.00  0.00    -0.744 OA
ENDBRANCH  87  91
ENDBRANCH  60  84
BRANCH  72  95
ATOM     95  C   UNL A   1      51.901  34.187  26.097  1.00  0.00     0.023 A 
ATOM     96  C   UNL A   1      52.410  35.008  27.117  1.00  0.00     0.031 A 
ATOM     97  C   UNL A   1      52.401  34.361  24.793  1.00  0.00     0.131 A 
ATOM     98  C   UNL A   1      53.355  35.998  26.810  1.00  0.00     0.055 A 
ATOM     99  C   UNL A   1      53.383  35.309  24.504  1.00  0.00     0.041 A 
ATOM    100  F   UNL A   1      51.951  33.602  23.782  1.00  0.00    -0.206 F 
ATOM    101  C   UNL A   1      53.858  36.141  25.513  1.00  0.00     0.022 A 
BRANCH  98 102
ATOM    102  S   UNL A   1      53.871  37.145  28.116  1.00  0.00     0.124 S 
ATOM    103  O   UNL A   1      54.152  38.360  27.358  1.00  0.00    -0.237 OA
ATOM    104  O   UNL A   1      52.694  37.190  28.978  1.00  0.00    -0.237 OA
ATOM    105  O   UNL A   1      55.042  36.495  28.701  1.00  0.00    -0.744 OA
ENDBRANCH  98 102
ENDBRANCH  72  95
ENDBRANCH  46  47
ENDBRANCH  39  41
ENDBRANCH  38  39
ENDBRANCH  37  38
ENDBRANCH  36  37
ENDBRANCH  35  36
ENDBRANCH   1  35
TORSDOF 23
ENDMDL
MODEL 3
REMARK VINA RESULT:      -8.5      5.438     10.730
REMARK SMILES O=C(CCN1C(=O)S/C(=C\c2ccccc2F)C1=O)Nc1ccc(C(=O)OCCOCCOC(=O)c2ccc(-c3c4nc(c(-c5cc(S(=O)(=O)[O-])ccc5F)c5ccc([nH]5)c(-c5cc(S(=O)(=O)[O-])ccc5F)c5nc(c(-c6cc(S(=O)(=O)[O-])ccc6F)c6ccc3[nH]6)C=C5)C=C4)cc2)c(O)c1
REMARK SMILES IDX 29 1 28 2 27 3 25 4 26 5 24 6 21 7 22 8 101 9 23 10 99 11
REMARK SMILES IDX 20 12 1 13 2 14 3 16 4 17 5 18 6 19 18 20 7 21 8 22 9 23
REMARK SMILES IDX 19 24 10 25 11 26 12 27 16 28 13 29 15 30 17 31 14 32 100 33
REMARK SMILES IDX 30 35 31 36 32 37 33 38 34 39 35 40 36 41 37 42 98 43 38 44
REMARK SMILES IDX 97 45 39 46 40 47 41 48 91 49 42 50 96 51 90 52 92 53 43 54
REMARK SMILES IDX 95 55 89 56 88 57 44 59 76 60 56 61 75 62 57 63 60 64 74 65
REMARK SMILES IDX 93 66 58 67 59 68 73 70 94 71 61 72 45 73 46 74 54 75 47 76
REMARK SMILES IDX 53 77 55 78 52 79 48 80 49 81 50 82 51 83 77 84 78 85 86 86
REMARK SMILES IDX 79 87 85 88 87 89 84 90 80 91 81 92 82 93 83 94 62 95 63 96
REMARK SMILES IDX 71 97 64 98 70 99 72 100 69 101 65 102 66 103 67 104 68 105
REMARK H PARENT 20 15 100 34 92 58 60 69
REMARK Flexibility Score: inf
ROOT
ATOM      1  C   UNL A   1      41.023  19.144  26.294  1.00  0.00     0.202 C 
ENDROOT
BRANCH   1   2
ATOM      2  C   UNL A   1      39.802  19.478  25.428  1.00  0.00     0.261 C 
BRANCH   2   3
ATOM      3  O   UNL A   1      38.944  20.446  26.055  1.00  0.00    -0.460 OA
BRANCH   3   4
ATOM      4  C   UNL A   1      39.349  21.733  25.904  1.00  0.00     0.341 C 
ATOM      5  O   UNL A   1      40.481  22.125  25.672  1.00  0.00    -0.246 OA
BRANCH   4   6
ATOM      6  C   UNL A   1      38.173  22.627  25.877  1.00  0.00     0.101 A 
ATOM      7  C   UNL A   1      35.902  24.249  25.615  1.00  0.00     0.044 A 
ATOM      8  C   UNL A   1      36.029  23.103  24.835  1.00  0.00     0.027 A 
ATOM      9  C   UNL A   1      36.899  24.565  26.550  1.00  0.00     0.073 A 
ATOM     10  C   UNL A   1      37.173  22.311  24.946  1.00  0.00     0.022 A 
ATOM     11  C   UNL A   1      38.008  23.732  26.711  1.00  0.00     0.132 A 
BRANCH   7  12
ATOM     12  N   UNL A   1      34.838  25.155  25.464  1.00  0.00    -0.326 N 
ATOM     13  O   UNL A   1      33.161  24.144  26.702  1.00  0.00    -0.275 OA
ATOM     14  C   UNL A   1      33.549  25.018  25.932  1.00  0.00     0.226 C 
ATOM     15  H   UNL A   1      35.037  25.982  24.966  1.00  0.00     0.169 HD
BRANCH  14  16
ATOM     16  C   UNL A   1      32.560  26.014  25.347  1.00  0.00     0.122 C 
BRANCH  16  17
ATOM     17  C   UNL A   1      31.907  25.619  24.019  1.00  0.00     0.140 C 
BRANCH  17  18
ATOM     18  N   UNL A   1      32.211  24.255  23.599  1.00  0.00    -0.268 N 
ATOM     19  C   UNL A   1      33.121  23.990  22.606  1.00  0.00     0.293 C 
ATOM     20  C   UNL A   1      31.563  23.171  24.150  1.00  0.00     0.268 C 
ATOM     21  O   UNL A   1      33.774  24.807  21.983  1.00  0.00    -0.261 OA
ATOM     22  S   UNL A   1      33.337  22.262  22.437  1.00  0.00    -0.022 SA
ATOM     23  C   UNL A   1      32.221  21.918  23.701  1.00  0.00     0.083 C 
ATOM     24  O   UNL A   1      30.627  23.214  24.935  1.00  0.00    -0.268 OA
ATOM     25  C   UNL A   1      32.012  20.753  24.326  1.00  0.00     0.032 C 
BRANCH  25  26
ATOM     26  C   UNL A   1      32.806  19.543  24.099  1.00  0.00     0.012 A 
ATOM     27  C   UNL A   1      32.354  18.537  23.243  1.00  0.00     0.011 A 
ATOM     28  C   UNL A   1      34.043  19.384  24.742  1.00  0.00     0.130 A 
ATOM     29  C   UNL A   1      33.139  17.399  23.028  1.00  0.00     0.001 A 
ATOM     30  C   UNL A   1      34.827  18.256  24.529  1.00  0.00     0.040 A 
ATOM     31  F   UNL A   1      34.489  20.333  25.580  1.00  0.00    -0.206 F 
ATOM     32  C   UNL A   1      34.373  17.261  23.666  1.00  0.00     0.003 A 
ENDBRANCH  25  26
ENDBRANCH  17  18
ENDBRANCH  16  17
ENDBRANCH  14  16
ENDBRANCH   7  12
BRANCH  11  33
ATOM     33  O   UNL A   1      38.879  24.071  27.708  1.00  0.00    -0.507 OA
ATOM     34  H   UNL A   1      38.694  23.831  28.594  1.00  0.00     0.293 HD
ENDBRANCH  11  33
ENDBRANCH   4   6
ENDBRANCH   3   4
ENDBRANCH   2   3
ENDBRANCH   1   2
BRANCH   1  35
ATOM     35  O   UNL A   1      42.184  18.659  25.622  1.00  0.00    -0.374 OA
BRANCH  35  36
ATOM     36  C   UNL A   1      43.362  19.465  25.661  1.00  0.00     0.202 C 
BRANCH  36  37
ATOM     37  C   UNL A   1      43.250  20.873  26.261  1.00  0.00     0.261 C 
BRANCH  37  38
ATOM     38  O   UNL A   1      44.356  21.715  25.894  1.00  0.00    -0.460 OA
BRANCH  38  39
ATOM     39  C   UNL A   1      44.048  22.687  24.999  1.00  0.00     0.338 C 
ATOM     40  O   UNL A   1      43.432  22.556  23.955  1.00  0.00    -0.246 OA
BRANCH  39  41
ATOM     41  C   UNL A   1      44.400  24.005  25.560  1.00  0.00     0.060 A 
ATOM     42  C   UNL A   1      44.916  24.044  26.862  1.00  0.00     0.016 A 
ATOM     43  C   UNL A   1      44.158  25.185  24.853  1.00  0.00     0.016 A 
ATOM     44  C   UNL A   1      45.142  25.269  27.486  1.00  0.00     0.010 A 
ATOM     45  C   UNL A   1      44.375  26.412  25.486  1.00  0.00     0.010 A 
ATOM     46  C   UNL A   1      44.831  26.458  26.816  1.00  0.00    -0.014 A 
BRANCH  46  47
ATOM     47  C   UNL A   1      44.816  27.745  27.551  1.00  0.00     0.031 A 
ATOM     48  C   UNL A   1      43.530  28.196  28.187  1.00  0.00     0.074 A 
ATOM     49  C   UNL A   1      45.928  28.493  27.659  1.00  0.00     0.049 A 
ATOM     50  N   UNL A   1      43.241  29.337  28.755  1.00  0.00    -0.248 NA
ATOM     51  C   UNL A   1      42.419  27.229  28.173  1.00  0.00     0.031 C 
ATOM     52  C   UNL A   1      47.248  28.127  27.148  1.00  0.00     0.029 A 
ATOM     53  N   UNL A   1      46.118  29.726  28.230  1.00  0.00    -0.354 N 
ATOM     54  C   UNL A   1      41.913  29.233  29.155  1.00  0.00     0.074 A 
ATOM     55  C   UNL A   1      41.447  27.927  28.741  1.00  0.00     0.031 C 
ATOM     56  C   UNL A   1      48.110  29.121  27.421  1.00  0.00     0.029 A 
ATOM     57  C   UNL A   1      47.395  30.212  28.079  1.00  0.00     0.049 A 
ATOM     58  H   UNL A   1      45.407  30.218  28.702  1.00  0.00     0.167 HD
ATOM     59  C   UNL A   1      41.156  30.145  29.810  1.00  0.00     0.034 A 
ATOM     60  C   UNL A   1      47.916  31.411  28.403  1.00  0.00     0.034 A 
ATOM     61  C   UNL A   1      41.637  31.441  30.218  1.00  0.00     0.049 A 
ATOM     62  C   UNL A   1      47.028  32.448  29.045  1.00  0.00     0.074 A 
ATOM     63  C   UNL A   1      40.952  32.438  30.891  1.00  0.00     0.029 A 
ATOM     64  N   UNL A   1      42.918  31.922  29.992  1.00  0.00    -0.354 N 
ATOM     65  N   UNL A   1      45.760  32.361  29.374  1.00  0.00    -0.248 NA
ATOM     66  C   UNL A   1      47.641  33.748  29.350  1.00  0.00     0.031 C 
ATOM     67  C   UNL A   1      41.799  33.544  31.013  1.00  0.00     0.029 A 
ATOM     68  C   UNL A   1      43.035  33.212  30.482  1.00  0.00     0.049 A 
ATOM     69  H   UNL A   1      43.638  31.419  29.547  1.00  0.00     0.167 HD
ATOM     70  C   UNL A   1      45.428  33.589  29.939  1.00  0.00     0.074 A 
ATOM     71  C   UNL A   1      46.633  34.394  29.919  1.00  0.00     0.031 C 
ATOM     72  C   UNL A   1      44.236  34.012  30.432  1.00  0.00     0.034 A 
BRANCH  59  73
ATOM     73  C   UNL A   1      39.718  29.792  30.085  1.00  0.00     0.023 A 
ATOM     74  C   UNL A   1      38.695  30.087  29.169  1.00  0.00     0.031 A 
ATOM     75  C   UNL A   1      39.371  29.131  31.277  1.00  0.00     0.131 A 
ATOM     76  C   UNL A   1      37.367  29.754  29.476  1.00  0.00     0.055 A 
ATOM     77  C   UNL A   1      38.057  28.747  31.549  1.00  0.00     0.041 A 
ATOM     78  F   UNL A   1      40.307  28.844  32.196  1.00  0.00    -0.206 F 
ATOM     79  C   UNL A   1      37.045  29.065  30.648  1.00  0.00     0.022 A 
BRANCH  76  80
ATOM     80  S   UNL A   1      36.051  30.299  28.355  1.00  0.00     0.124 S 
ATOM     81  O   UNL A   1      35.092  29.203  28.470  1.00  0.00    -0.237 OA
ATOM     82  O   UNL A   1      35.641  31.571  28.939  1.00  0.00    -0.237 OA
ATOM     83  O   UNL A   1      36.722  30.398  27.060  1.00  0.00    -0.744 OA
ENDBRANCH  76  80
ENDBRANCH  59  73
BRANCH  60  84
ATOM     84  C   UNL A   1      49.337  31.718  28.085  1.00  0.00     0.023 A 
ATOM     85  C   UNL A   1      49.684  32.400  26.909  1.00  0.00     0.031 A 
ATOM     86  C   UNL A   1      50.372  31.324  28.953  1.00  0.00     0.131 A 
ATOM     87  C   UNL A   1      51.034  32.649  26.620  1.00  0.00     0.055 A 
ATOM     88  C   UNL A   1      51.711  31.609  28.680  1.00  0.00     0.041 A 
ATOM     89  F   UNL A   1      50.091  30.671  30.092  1.00  0.00    -0.206 F 
ATOM     90  C   UNL A   1      52.048  32.271  27.504  1.00  0.00     0.022 A 
BRANCH  87  91
ATOM     91  S   UNL A   1      51.454  33.459  25.052  1.00  0.00     0.124 S 
ATOM     92  O   UNL A   1      51.580  32.318  24.153  1.00  0.00    -0.237 OA
ATOM     93  O   UNL A   1      50.298  34.323  24.836  1.00  0.00    -0.237 OA
ATOM     94  O   UNL A   1      52.701  34.159  25.355  1.00  0.00    -0.744 OA
ENDBRANCH  87  91
ENDBRANCH  60  84
BRANCH  72  95
ATOM     95  C   UNL A   1      44.182  35.405  31.006  1.00  0.00     0.023 A 
ATOM     96  C   UNL A   1      43.892  36.519  30.201  1.00  0.00     0.031 A 
ATOM     97  C   UNL A   1      44.403  35.618  32.379  1.00  0.00     0.131 A 
ATOM     98  C   UNL A   1      43.876  37.804  30.766  1.00  0.00     0.055 A 
ATOM     99  C   UNL A   1      44.331  36.891  32.946  1.00  0.00     0.041 A 
ATOM    100  F   UNL A   1      44.683  34.588  33.193  1.00  0.00    -0.206 F 
ATOM    101  C   UNL A   1      44.075  37.994  32.136  1.00  0.00     0.022 A 
BRANCH  98 102
ATOM    102  S   UNL A   1      43.658  39.233  29.672  1.00  0.00     0.124 S 
ATOM    103  O   UNL A   1      43.107  40.230  30.585  1.00  0.00    -0.237 OA
ATOM    104  O   UNL A   1      45.018  39.481  29.203  1.00  0.00    -0.237 OA
ATOM    105  O   UNL A   1      42.731  38.747  28.653  1.00  0.00    -0.744 OA
ENDBRANCH  98 102
ENDBRANCH  72  95
ENDBRANCH  46  47
ENDBRANCH  39  41
ENDBRANCH  38  39
ENDBRANCH  37  38
ENDBRANCH  36  37
ENDBRANCH  35  36
ENDBRANCH   1  35
TORSDOF 23
ENDMDL
