MODEL 1
REMARK VINA RESULT:     -11.9      0.000      0.000
REMARK SMILES Cc1cc(C(=O)OCCOCCOC(=O)c2ccc(-c3c4nc(c(-c5cc(S(=O)(=O)[O-])ccc5F)c5ccc([nH]5)c(-c5cc(S(=O)(=O)[O-])ccc5F)c5nc(c(-c6cc(S(=O)(=O)[O-])ccc6F)c6ccc3[nH]6)C=C5)C=C4)cc2)nc(N2CCN(c3ccccc3Cl)CC2)n1
REMARK SMILES IDX 11 1 10 2 9 3 8 4 7 5 5 6 6 7 4 8 1 9 2 10 3 11 94 12 80 13
REMARK SMILES IDX 79 14 81 15 82 16 93 17 83 18 92 19 84 20 85 21 86 22 90 23
REMARK SMILES IDX 87 24 89 25 91 26 88 27 12 28 13 29 14 30 15 31 16 32 17 33
REMARK SMILES IDX 78 34 18 35 77 36 19 37 20 38 21 39 71 40 22 41 76 42 70 43
REMARK SMILES IDX 72 44 23 45 75 46 69 47 68 48 24 50 56 51 36 52 55 53 37 54
REMARK SMILES IDX 40 55 54 56 73 57 38 58 39 59 53 61 74 62 41 63 25 64 26 65
REMARK SMILES IDX 34 66 27 67 33 68 35 69 32 70 28 71 29 72 30 73 31 74 57 75
REMARK SMILES IDX 58 76 66 77 59 78 65 79 67 80 64 81 60 82 61 83 62 84 63 85
REMARK SMILES IDX 42 86 43 87 51 88 44 89 50 90 52 91 49 92 45 93 46 94 47 95
REMARK SMILES IDX 48 96
REMARK H PARENT 72 49 40 60
REMARK Flexibility Score: inf
ROOT
ATOM      1  C   UNL A   1      36.187  19.682  24.950  1.00  0.00     0.202 C 
ENDROOT
BRANCH   1   2
ATOM      2  O   UNL A   1      35.441  18.568  24.458  1.00  0.00    -0.374 OA
BRANCH   2   3
ATOM      3  C   UNL A   1      34.136  18.370  25.007  1.00  0.00     0.202 C 
BRANCH   3   4
ATOM      4  C   UNL A   1      32.980  18.411  24.002  1.00  0.00     0.261 C 
BRANCH   4   5
ATOM      5  O   UNL A   1      32.841  19.727  23.438  1.00  0.00    -0.459 OA
BRANCH   5   6
ATOM      6  C   UNL A   1      32.404  20.670  24.308  1.00  0.00     0.357 C 
ATOM      7  O   UNL A   1      31.604  20.507  25.220  1.00  0.00    -0.244 OA
BRANCH   6   8
ATOM      8  C   UNL A   1      33.158  21.931  24.096  1.00  0.00     0.154 A 
ATOM      9  C   UNL A   1      36.542  23.404  23.608  1.00  0.00     0.067 C 
ATOM     10  C   UNL A   1      35.062  23.213  23.750  1.00  0.00     0.044 A 
ATOM     11  C   UNL A   1      34.529  21.970  24.013  1.00  0.00     0.059 A 
ATOM     12  N   UNL A   1      34.287  24.307  23.557  1.00  0.00    -0.218 NA
ATOM     13  C   UNL A   1      32.963  24.172  23.713  1.00  0.00     0.226 A 
ATOM     14  N   UNL A   1      32.372  23.018  23.994  1.00  0.00    -0.206 NA
BRANCH  13  15
ATOM     15  N   UNL A   1      32.126  25.237  23.564  1.00  0.00    -0.337 N 
ATOM     16  C   UNL A   1      32.595  26.449  22.907  1.00  0.00     0.141 C 
ATOM     17  C   UNL A   1      31.076  25.391  24.571  1.00  0.00     0.141 C 
ATOM     18  C   UNL A   1      31.382  27.173  22.269  1.00  0.00     0.138 C 
ATOM     19  C   UNL A   1      29.876  26.165  23.981  1.00  0.00     0.138 C 
ATOM     20  N   UNL A   1      30.342  27.379  23.287  1.00  0.00    -0.367 N 
BRANCH  20  21
ATOM     21  C   UNL A   1      29.596  28.538  23.332  1.00  0.00     0.056 A 
ATOM     22  C   UNL A   1      28.313  28.580  22.766  1.00  0.00     0.027 A 
ATOM     23  C   UNL A   1      30.089  29.727  23.913  1.00  0.00     0.064 A 
ATOM     24  C   UNL A   1      27.550  29.753  22.771  1.00  0.00     0.002 A 
ATOM     25  C   UNL A   1      29.331  30.903  23.911  1.00  0.00     0.023 A 
ATOM     26  Cl  UNL A   1      31.686  29.819  24.582  1.00  0.00    -0.082 Cl
ATOM     27  C   UNL A   1      28.062  30.916  23.340  1.00  0.00     0.002 A 
ENDBRANCH  20  21
ENDBRANCH  13  15
ENDBRANCH   6   8
ENDBRANCH   5   6
ENDBRANCH   4   5
ENDBRANCH   3   4
ENDBRANCH   2   3
ENDBRANCH   1   2
BRANCH   1  28
ATOM     28  C   UNL A   1      37.715  19.536  24.927  1.00  0.00     0.261 C 
BRANCH  28  29
ATOM     29  O   UNL A   1      38.380  20.760  25.289  1.00  0.00    -0.460 OA
BRANCH  29  30
ATOM     30  C   UNL A   1      39.494  20.600  26.043  1.00  0.00     0.338 C 
ATOM     31  O   UNL A   1      40.187  19.594  26.123  1.00  0.00    -0.246 OA
BRANCH  30  32
ATOM     32  C   UNL A   1      39.896  21.891  26.635  1.00  0.00     0.060 A 
ATOM     33  C   UNL A   1      39.262  23.046  26.159  1.00  0.00     0.016 A 
ATOM     34  C   UNL A   1      40.908  21.985  27.593  1.00  0.00     0.016 A 
ATOM     35  C   UNL A   1      39.667  24.302  26.606  1.00  0.00     0.010 A 
ATOM     36  C   UNL A   1      41.320  23.249  28.034  1.00  0.00     0.010 A 
ATOM     37  C   UNL A   1      40.723  24.415  27.519  1.00  0.00    -0.014 A 
BRANCH  37  38
ATOM     38  C   UNL A   1      41.293  25.753  27.821  1.00  0.00     0.031 A 
ATOM     39  C   UNL A   1      42.703  26.058  27.391  1.00  0.00     0.074 A 
ATOM     40  C   UNL A   1      40.556  26.693  28.439  1.00  0.00     0.049 A 
ATOM     41  N   UNL A   1      43.417  27.137  27.586  1.00  0.00    -0.248 NA
ATOM     42  C   UNL A   1      43.401  25.000  26.644  1.00  0.00     0.031 C 
ATOM     43  C   UNL A   1      39.164  26.533  28.858  1.00  0.00     0.029 A 
ATOM     44  N   UNL A   1      40.877  27.971  28.826  1.00  0.00    -0.354 N 
ATOM     45  C   UNL A   1      44.648  26.891  26.987  1.00  0.00     0.074 A 
ATOM     46  C   UNL A   1      44.595  25.543  26.458  1.00  0.00     0.031 C 
ATOM     47  C   UNL A   1      38.755  27.666  29.454  1.00  0.00     0.029 A 
ATOM     48  C   UNL A   1      39.864  28.618  29.494  1.00  0.00     0.049 A 
ATOM     49  H   UNL A   1      41.751  28.386  28.641  1.00  0.00     0.167 HD
ATOM     50  C   UNL A   1      45.720  27.715  26.879  1.00  0.00     0.034 A 
ATOM     51  C   UNL A   1      39.843  29.828  30.091  1.00  0.00     0.034 A 
ATOM     52  C   UNL A   1      45.763  29.052  27.421  1.00  0.00     0.049 A 
ATOM     53  C   UNL A   1      41.081  30.692  30.038  1.00  0.00     0.074 A 
ATOM     54  C   UNL A   1      46.795  29.972  27.361  1.00  0.00     0.029 A 
ATOM     55  N   UNL A   1      44.734  29.656  28.131  1.00  0.00    -0.354 N 
ATOM     56  N   UNL A   1      42.237  30.448  29.465  1.00  0.00    -0.248 NA
ATOM     57  C   UNL A   1      41.007  31.999  30.706  1.00  0.00     0.031 C 
ATOM     58  C   UNL A   1      46.417  31.104  28.093  1.00  0.00     0.029 A 
ATOM     59  C   UNL A   1      45.119  30.923  28.544  1.00  0.00     0.049 A 
ATOM     60  H   UNL A   1      43.859  29.244  28.315  1.00  0.00     0.167 HD
ATOM     61  C   UNL A   1      43.014  31.586  29.675  1.00  0.00     0.074 A 
ATOM     62  C   UNL A   1      42.191  32.519  30.415  1.00  0.00     0.031 C 
ATOM     63  C   UNL A   1      44.290  31.840  29.288  1.00  0.00     0.034 A 
BRANCH  50  64
ATOM     64  C   UNL A   1      46.948  27.170  26.192  1.00  0.00     0.023 A 
ATOM     65  C   UNL A   1      47.931  26.449  26.892  1.00  0.00     0.031 A 
ATOM     66  C   UNL A   1      47.147  27.391  24.817  1.00  0.00     0.131 A 
ATOM     67  C   UNL A   1      49.094  26.029  26.230  1.00  0.00     0.055 A 
ATOM     68  C   UNL A   1      48.271  26.905  24.148  1.00  0.00     0.041 A 
ATOM     69  F   UNL A   1      46.253  28.093  24.102  1.00  0.00    -0.206 F 
ATOM     70  C   UNL A   1      49.260  26.229  24.858  1.00  0.00     0.022 A 
BRANCH  67  71
ATOM     71  S   UNL A   1      50.447  25.326  27.213  1.00  0.00     0.124 S 
ATOM     72  O   UNL A   1      49.785  24.197  27.861  1.00  0.00    -0.237 OA
ATOM     73  O   UNL A   1      51.436  24.990  26.195  1.00  0.00    -0.237 OA
ATOM     74  O   UNL A   1      50.822  26.418  28.109  1.00  0.00    -0.744 OA
ENDBRANCH  67  71
ENDBRANCH  50  64
BRANCH  51  75
ATOM     75  C   UNL A   1      38.635  30.286  30.837  1.00  0.00     0.023 A 
ATOM     76  C   UNL A   1      37.594  30.969  30.187  1.00  0.00     0.031 A 
ATOM     77  C   UNL A   1      38.539  30.111  32.229  1.00  0.00     0.131 A 
ATOM     78  C   UNL A   1      36.530  31.498  30.936  1.00  0.00     0.055 A 
ATOM     79  C   UNL A   1      37.451  30.590  32.962  1.00  0.00     0.041 A 
ATOM     80  F   UNL A   1      39.507  29.468  32.902  1.00  0.00    -0.206 F 
ATOM     81  C   UNL A   1      36.445  31.303  32.316  1.00  0.00     0.022 A 
BRANCH  78  82
ATOM     82  S   UNL A   1      35.307  32.538  30.091  1.00  0.00     0.124 S 
ATOM     83  O   UNL A   1      36.131  33.653  29.635  1.00  0.00    -0.237 OA
ATOM     84  O   UNL A   1      34.813  31.639  29.054  1.00  0.00    -0.237 OA
ATOM     85  O   UNL A   1      34.349  32.860  31.146  1.00  0.00    -0.744 OA
ENDBRANCH  78  82
ENDBRANCH  51  75
BRANCH  63  86
ATOM     86  C   UNL A   1      44.852  33.203  29.619  1.00  0.00     0.023 A 
ATOM     87  C   UNL A   1      44.562  34.335  28.837  1.00  0.00     0.031 A 
ATOM     88  C   UNL A   1      45.697  33.366  30.732  1.00  0.00     0.131 A 
ATOM     89  C   UNL A   1      45.158  35.567  29.145  1.00  0.00     0.055 A 
ATOM     90  C   UNL A   1      46.238  34.607  31.068  1.00  0.00     0.041 A 
ATOM     91  F   UNL A   1      46.007  32.319  31.513  1.00  0.00    -0.206 F 
ATOM     92  C   UNL A   1      45.981  35.715  30.265  1.00  0.00     0.022 A 
BRANCH  89  93
ATOM     93  S   UNL A   1      44.916  36.961  28.009  1.00  0.00     0.124 S 
ATOM     94  O   UNL A   1      46.287  37.281  27.624  1.00  0.00    -0.237 OA
ATOM     95  O   UNL A   1      44.082  36.372  26.966  1.00  0.00    -0.237 OA
ATOM     96  O   UNL A   1      44.253  37.968  28.836  1.00  0.00    -0.744 OA
ENDBRANCH  89  93
ENDBRANCH  63  86
ENDBRANCH  37  38
ENDBRANCH  30  32
ENDBRANCH  29  30
ENDBRANCH  28  29
ENDBRANCH   1  28
TORSDOF 19
ENDMDL
MODEL 2
REMARK VINA RESULT:     -11.7      1.918      2.238
REMARK SMILES Cc1cc(C(=O)OCCOCCOC(=O)c2ccc(-c3c4nc(c(-c5cc(S(=O)(=O)[O-])ccc5F)c5ccc([nH]5)c(-c5cc(S(=O)(=O)[O-])ccc5F)c5nc(c(-c6cc(S(=O)(=O)[O-])ccc6F)c6ccc3[nH]6)C=C5)C=C4)cc2)nc(N2CCN(c3ccccc3Cl)CC2)n1
REMARK SMILES IDX 11 1 10 2 9 3 8 4 7 5 5 6 6 7 4 8 1 9 2 10 3 11 94 12 80 13
REMARK SMILES IDX 79 14 81 15 82 16 93 17 83 18 92 19 84 20 85 21 86 22 90 23
REMARK SMILES IDX 87 24 89 25 91 26 88 27 12 28 13 29 14 30 15 31 16 32 17 33
REMARK SMILES IDX 78 34 18 35 77 36 19 37 20 38 21 39 71 40 22 41 76 42 70 43
REMARK SMILES IDX 72 44 23 45 75 46 69 47 68 48 24 50 56 51 36 52 55 53 37 54
REMARK SMILES IDX 40 55 54 56 73 57 38 58 39 59 53 61 74 62 41 63 25 64 26 65
REMARK SMILES IDX 34 66 27 67 33 68 35 69 32 70 28 71 29 72 30 73 31 74 57 75
REMARK SMILES IDX 58 76 66 77 59 78 65 79 67 80 64 81 60 82 61 83 62 84 63 85
REMARK SMILES IDX 42 86 43 87 51 88 44 89 50 90 52 91 49 92 45 93 46 94 47 95
REMARK SMILES IDX 48 96
REMARK H PARENT 72 49 40 60
REMARK Flexibility Score: inf
ROOT
ATOM      1  C   UNL A   1      35.875  19.861  24.979  1.00  0.00     0.202 C 
ENDROOT
BRANCH   1   2
ATOM      2  O   UNL A   1      35.131  18.716  24.559  1.00  0.00    -0.374 OA
BRANCH   2   3
ATOM      3  C   UNL A   1      33.836  18.538  25.137  1.00  0.00     0.202 C 
BRANCH   3   4
ATOM      4  C   UNL A   1      32.653  18.705  24.178  1.00  0.00     0.261 C 
BRANCH   4   5
ATOM      5  O   UNL A   1      32.676  20.005  23.563  1.00  0.00    -0.459 OA
BRANCH   5   6
ATOM      6  C   UNL A   1      32.273  21.019  24.368  1.00  0.00     0.357 C 
ATOM      7  O   UNL A   1      31.442  20.953  25.264  1.00  0.00    -0.244 OA
BRANCH   6   8
ATOM      8  C   UNL A   1      33.107  22.219  24.113  1.00  0.00     0.154 A 
ATOM      9  C   UNL A   1      36.539  23.425  23.318  1.00  0.00     0.067 C 
ATOM     10  C   UNL A   1      35.069  23.352  23.606  1.00  0.00     0.044 A 
ATOM     11  C   UNL A   1      34.462  22.148  23.891  1.00  0.00     0.059 A 
ATOM     12  N   UNL A   1      34.375  24.512  23.521  1.00  0.00    -0.218 NA
ATOM     13  C   UNL A   1      33.066  24.481  23.807  1.00  0.00     0.226 A 
ATOM     14  N   UNL A   1      32.411  23.370  24.118  1.00  0.00    -0.206 NA
BRANCH  13  15
ATOM     15  N   UNL A   1      32.312  25.615  23.771  1.00  0.00    -0.337 N 
ATOM     16  C   UNL A   1      30.963  25.613  24.318  1.00  0.00     0.141 C 
ATOM     17  C   UNL A   1      32.585  26.548  22.678  1.00  0.00     0.141 C 
ATOM     18  C   UNL A   1      30.609  27.051  24.778  1.00  0.00     0.138 C 
ATOM     19  C   UNL A   1      32.183  27.984  23.086  1.00  0.00     0.138 C 
ATOM     20  N   UNL A   1      30.830  27.990  23.669  1.00  0.00    -0.367 N 
BRANCH  20  21
ATOM     21  C   UNL A   1      29.974  29.046  23.437  1.00  0.00     0.056 A 
ATOM     22  C   UNL A   1      28.997  28.961  22.434  1.00  0.00     0.027 A 
ATOM     23  C   UNL A   1      30.057  30.254  24.162  1.00  0.00     0.064 A 
ATOM     24  C   UNL A   1      28.139  30.031  22.157  1.00  0.00     0.002 A 
ATOM     25  C   UNL A   1      29.206  31.329  23.881  1.00  0.00     0.023 A 
ATOM     26  Cl  UNL A   1      31.269  30.505  25.377  1.00  0.00    -0.082 Cl
ATOM     27  C   UNL A   1      28.247  31.217  22.878  1.00  0.00     0.002 A 
ENDBRANCH  20  21
ENDBRANCH  13  15
ENDBRANCH   6   8
ENDBRANCH   5   6
ENDBRANCH   4   5
ENDBRANCH   3   4
ENDBRANCH   2   3
ENDBRANCH   1   2
BRANCH   1  28
ATOM     28  C   UNL A   1      37.403  19.714  24.971  1.00  0.00     0.261 C 
BRANCH  28  29
ATOM     29  O   UNL A   1      38.064  20.940  25.335  1.00  0.00    -0.460 OA
BRANCH  29  30
ATOM     30  C   UNL A   1      39.233  20.779  26.001  1.00  0.00     0.338 C 
ATOM     31  O   UNL A   1      39.936  19.776  26.016  1.00  0.00    -0.246 OA
BRANCH  30  32
ATOM     32  C   UNL A   1      39.670  22.065  26.579  1.00  0.00     0.060 A 
ATOM     33  C   UNL A   1      39.008  23.223  26.152  1.00  0.00     0.016 A 
ATOM     34  C   UNL A   1      40.738  22.151  27.475  1.00  0.00     0.016 A 
ATOM     35  C   UNL A   1      39.439  24.476  26.585  1.00  0.00     0.010 A 
ATOM     36  C   UNL A   1      41.175  23.412  27.901  1.00  0.00     0.010 A 
ATOM     37  C   UNL A   1      40.548  24.582  27.433  1.00  0.00    -0.014 A 
BRANCH  37  38
ATOM     38  C   UNL A   1      41.135  25.917  27.712  1.00  0.00     0.031 A 
ATOM     39  C   UNL A   1      42.508  26.234  27.183  1.00  0.00     0.074 A 
ATOM     40  C   UNL A   1      40.443  26.845  28.397  1.00  0.00     0.049 A 
ATOM     41  N   UNL A   1      43.231  27.313  27.340  1.00  0.00    -0.248 NA
ATOM     42  C   UNL A   1      43.152  25.190  26.371  1.00  0.00     0.031 C 
ATOM     43  C   UNL A   1      39.087  26.673  28.916  1.00  0.00     0.029 A 
ATOM     44  N   UNL A   1      40.788  28.119  28.778  1.00  0.00    -0.354 N 
ATOM     45  C   UNL A   1      44.415  27.080  26.648  1.00  0.00     0.074 A 
ATOM     46  C   UNL A   1      44.327  25.741  26.104  1.00  0.00     0.031 C 
ATOM     47  C   UNL A   1      38.719  27.796  29.557  1.00  0.00     0.029 A 
ATOM     48  C   UNL A   1      39.825  28.752  29.528  1.00  0.00     0.049 A 
ATOM     49  H   UNL A   1      41.644  28.539  28.535  1.00  0.00     0.167 HD
ATOM     50  C   UNL A   1      45.474  27.910  26.474  1.00  0.00     0.034 A 
ATOM     51  C   UNL A   1      39.846  29.953  30.144  1.00  0.00     0.034 A 
ATOM     52  C   UNL A   1      45.553  29.239  27.030  1.00  0.00     0.049 A 
ATOM     53  C   UNL A   1      41.074  30.823  30.011  1.00  0.00     0.074 A 
ATOM     54  C   UNL A   1      46.575  30.165  26.907  1.00  0.00     0.029 A 
ATOM     55  N   UNL A   1      44.578  29.829  27.823  1.00  0.00    -0.354 N 
ATOM     56  N   UNL A   1      42.185  30.592  29.350  1.00  0.00    -0.248 NA
ATOM     57  C   UNL A   1      41.045  32.119  30.702  1.00  0.00     0.031 C 
ATOM     58  C   UNL A   1      46.249  31.284  27.682  1.00  0.00     0.029 A 
ATOM     59  C   UNL A   1      44.989  31.091  28.225  1.00  0.00     0.049 A 
ATOM     60  H   UNL A   1      43.720  29.411  28.066  1.00  0.00     0.167 HD
ATOM     61  C   UNL A   1      42.972  31.730  29.519  1.00  0.00     0.074 A 
ATOM     62  C   UNL A   1      42.203  32.648  30.332  1.00  0.00     0.031 C 
ATOM     63  C   UNL A   1      44.215  31.994  29.043  1.00  0.00     0.034 A 
BRANCH  50  64
ATOM     64  C   UNL A   1      46.649  27.381  25.689  1.00  0.00     0.023 A 
ATOM     65  C   UNL A   1      46.949  27.848  24.397  1.00  0.00     0.031 A 
ATOM     66  C   UNL A   1      47.473  26.381  26.235  1.00  0.00     0.131 A 
ATOM     67  C   UNL A   1      48.004  27.273  23.672  1.00  0.00     0.055 A 
ATOM     68  C   UNL A   1      48.567  25.865  25.538  1.00  0.00     0.041 A 
ATOM     69  F   UNL A   1      47.221  25.879  27.455  1.00  0.00    -0.206 F 
ATOM     70  C   UNL A   1      48.830  26.303  24.243  1.00  0.00     0.022 A 
BRANCH  67  71
ATOM     71  S   UNL A   1      48.203  27.721  21.926  1.00  0.00     0.124 S 
ATOM     72  O   UNL A   1      48.545  26.433  21.329  1.00  0.00    -0.237 OA
ATOM     73  O   UNL A   1      46.890  28.256  21.585  1.00  0.00    -0.237 OA
ATOM     74  O   UNL A   1      49.289  28.700  21.945  1.00  0.00    -0.744 OA
ENDBRANCH  67  71
ENDBRANCH  50  64
BRANCH  51  75
ATOM     75  C   UNL A   1      38.695  30.395  30.983  1.00  0.00     0.023 A 
ATOM     76  C   UNL A   1      37.595  31.062  30.419  1.00  0.00     0.031 A 
ATOM     77  C   UNL A   1      38.713  30.222  32.379  1.00  0.00     0.131 A 
ATOM     78  C   UNL A   1      36.588  31.578  31.250  1.00  0.00     0.055 A 
ATOM     79  C   UNL A   1      37.681  30.687  33.196  1.00  0.00     0.041 A 
ATOM     80  F   UNL A   1      39.741  29.593  32.972  1.00  0.00    -0.206 F 
ATOM     81  C   UNL A   1      36.617  31.384  32.633  1.00  0.00     0.022 A 
BRANCH  78  82
ATOM     82  S   UNL A   1      35.286  32.598  30.506  1.00  0.00     0.124 S 
ATOM     83  O   UNL A   1      34.262  32.577  31.545  1.00  0.00    -0.237 OA
ATOM     84  O   UNL A   1      35.975  33.869  30.310  1.00  0.00    -0.237 OA
ATOM     85  O   UNL A   1      34.948  31.878  29.280  1.00  0.00    -0.744 OA
ENDBRANCH  78  82
ENDBRANCH  51  75
BRANCH  63  86
ATOM     86  C   UNL A   1      44.795  33.354  29.351  1.00  0.00     0.023 A 
ATOM     87  C   UNL A   1      45.589  33.582  30.489  1.00  0.00     0.031 A 
ATOM     88  C   UNL A   1      44.541  34.440  28.494  1.00  0.00     0.131 A 
ATOM     89  C   UNL A   1      46.052  34.876  30.769  1.00  0.00     0.055 A 
ATOM     90  C   UNL A   1      45.055  35.713  28.747  1.00  0.00     0.041 A 
ATOM     91  F   UNL A   1      43.789  34.281  27.393  1.00  0.00    -0.206 F 
ATOM     92  C   UNL A   1      45.805  35.939  29.898  1.00  0.00     0.022 A 
BRANCH  89  93
ATOM     93  S   UNL A   1      46.911  35.174  32.340  1.00  0.00     0.124 S 
ATOM     94  O   UNL A   1      47.352  33.831  32.705  1.00  0.00    -0.237 OA
ATOM     95  O   UNL A   1      47.965  36.105  31.947  1.00  0.00    -0.237 OA
ATOM     96  O   UNL A   1      45.873  35.741  33.198  1.00  0.00    -0.744 OA
ENDBRANCH  89  93
ENDBRANCH  63  86
ENDBRANCH  37  38
ENDBRANCH  30  32
ENDBRANCH  29  30
ENDBRANCH  28  29
ENDBRANCH   1  28
TORSDOF 19
ENDMDL
MODEL 3
REMARK VINA RESULT:     -11.7      0.607      7.592
REMARK SMILES Cc1cc(C(=O)OCCOCCOC(=O)c2ccc(-c3c4nc(c(-c5cc(S(=O)(=O)[O-])ccc5F)c5ccc([nH]5)c(-c5cc(S(=O)(=O)[O-])ccc5F)c5nc(c(-c6cc(S(=O)(=O)[O-])ccc6F)c6ccc3[nH]6)C=C5)C=C4)cc2)nc(N2CCN(c3ccccc3Cl)CC2)n1
REMARK SMILES IDX 11 1 10 2 9 3 8 4 7 5 5 6 6 7 4 8 1 9 2 10 3 11 94 12 80 13
REMARK SMILES IDX 79 14 81 15 82 16 93 17 83 18 92 19 84 20 85 21 86 22 90 23
REMARK SMILES IDX 87 24 89 25 91 26 88 27 12 28 13 29 14 30 15 31 16 32 17 33
REMARK SMILES IDX 78 34 18 35 77 36 19 37 20 38 21 39 71 40 22 41 76 42 70 43
REMARK SMILES IDX 72 44 23 45 75 46 69 47 68 48 24 50 56 51 36 52 55 53 37 54
REMARK SMILES IDX 40 55 54 56 73 57 38 58 39 59 53 61 74 62 41 63 25 64 26 65
REMARK SMILES IDX 34 66 27 67 33 68 35 69 32 70 28 71 29 72 30 73 31 74 57 75
REMARK SMILES IDX 58 76 66 77 59 78 65 79 67 80 64 81 60 82 61 83 62 84 63 85
REMARK SMILES IDX 42 86 43 87 51 88 44 89 50 90 52 91 49 92 45 93 46 94 47 95
REMARK SMILES IDX 48 96
REMARK H PARENT 72 49 40 60
REMARK Flexibility Score: inf
ROOT
ATOM      1  C   UNL A   1      35.737  19.603  24.905  1.00  0.00     0.202 C 
ENDROOT
BRANCH   1   2
ATOM      2  O   UNL A   1      35.014  18.491  24.375  1.00  0.00    -0.374 OA
BRANCH   2   3
ATOM      3  C   UNL A   1      33.722  18.235  24.929  1.00  0.00     0.202 C 
BRANCH   3   4
ATOM      4  C   UNL A   1      32.532  18.619  24.044  1.00  0.00     0.261 C 
BRANCH   4   5
ATOM      5  O   UNL A   1      32.676  19.963  23.552  1.00  0.00    -0.459 OA
BRANCH   5   6
ATOM      6  C   UNL A   1      32.334  20.929  24.438  1.00  0.00     0.357 C 
ATOM      7  O   UNL A   1      31.580  20.808  25.395  1.00  0.00    -0.244 OA
BRANCH   6   8
ATOM      8  C   UNL A   1      33.134  22.151  24.177  1.00  0.00     0.154 A 
ATOM      9  C   UNL A   1      36.530  23.446  23.370  1.00  0.00     0.067 C 
ATOM     10  C   UNL A   1      35.064  23.335  23.662  1.00  0.00     0.044 A 
ATOM     11  C   UNL A   1      34.490  22.116  23.952  1.00  0.00     0.059 A 
ATOM     12  N   UNL A   1      34.338  24.475  23.574  1.00  0.00    -0.218 NA
ATOM     13  C   UNL A   1      33.032  24.410  23.864  1.00  0.00     0.226 A 
ATOM     14  N   UNL A   1      32.407  23.283  24.180  1.00  0.00    -0.206 NA
BRANCH  13  15
ATOM     15  N   UNL A   1      32.247  25.523  23.826  1.00  0.00    -0.337 N 
ATOM     16  C   UNL A   1      30.801  25.394  23.722  1.00  0.00     0.141 C 
ATOM     17  C   UNL A   1      32.850  26.730  23.260  1.00  0.00     0.141 C 
ATOM     18  C   UNL A   1      30.141  26.642  24.366  1.00  0.00     0.138 C 
ATOM     19  C   UNL A   1      32.169  27.991  23.837  1.00  0.00     0.138 C 
ATOM     20  N   UNL A   1      30.703  27.860  23.765  1.00  0.00    -0.367 N 
BRANCH  20  21
ATOM     21  C   UNL A   1      29.916  28.959  23.493  1.00  0.00     0.056 A 
ATOM     22  C   UNL A   1      28.925  28.895  22.503  1.00  0.00     0.027 A 
ATOM     23  C   UNL A   1      30.086  30.190  24.164  1.00  0.00     0.064 A 
ATOM     24  C   UNL A   1      28.136  30.007  22.186  1.00  0.00     0.002 A 
ATOM     25  C   UNL A   1      29.305  31.305  23.843  1.00  0.00     0.023 A 
ATOM     26  Cl  UNL A   1      31.325  30.412  25.357  1.00  0.00    -0.082 Cl
ATOM     27  C   UNL A   1      28.330  31.213  22.854  1.00  0.00     0.002 A 
ENDBRANCH  20  21
ENDBRANCH  13  15
ENDBRANCH   6   8
ENDBRANCH   5   6
ENDBRANCH   4   5
ENDBRANCH   3   4
ENDBRANCH   2   3
ENDBRANCH   1   2
BRANCH   1  28
ATOM     28  C   UNL A   1      37.267  19.497  24.863  1.00  0.00     0.261 C 
BRANCH  28  29
ATOM     29  O   UNL A   1      37.905  20.664  25.414  1.00  0.00    -0.460 OA
BRANCH  29  30
ATOM     30  C   UNL A   1      39.149  20.453  25.907  1.00  0.00     0.338 C 
ATOM     31  O   UNL A   1      39.828  19.443  25.774  1.00  0.00    -0.246 OA
BRANCH  30  32
ATOM     32  C   UNL A   1      39.683  21.700  26.488  1.00  0.00     0.060 A 
ATOM     33  C   UNL A   1      39.161  22.910  26.013  1.00  0.00     0.016 A 
ATOM     34  C   UNL A   1      40.710  21.697  27.435  1.00  0.00     0.016 A 
ATOM     35  C   UNL A   1      39.693  24.122  26.449  1.00  0.00     0.010 A 
ATOM     36  C   UNL A   1      41.250  22.916  27.865  1.00  0.00     0.010 A 
ATOM     37  C   UNL A   1      40.766  24.133  27.350  1.00  0.00    -0.014 A 
BRANCH  37  38
ATOM     38  C   UNL A   1      41.469  25.409  27.640  1.00  0.00     0.031 A 
ATOM     39  C   UNL A   1      40.736  26.490  28.388  1.00  0.00     0.074 A 
ATOM     40  C   UNL A   1      42.751  25.589  27.273  1.00  0.00     0.049 A 
ATOM     41  N   UNL A   1      41.135  27.694  28.711  1.00  0.00    -0.248 NA
ATOM     42  C   UNL A   1      39.370  26.170  28.826  1.00  0.00     0.031 C 
ATOM     43  C   UNL A   1      43.579  24.597  26.588  1.00  0.00     0.029 A 
ATOM     44  N   UNL A   1      43.580  26.673  27.420  1.00  0.00    -0.354 N 
ATOM     45  C   UNL A   1      40.070  28.276  29.390  1.00  0.00     0.074 A 
ATOM     46  C   UNL A   1      38.995  27.306  29.396  1.00  0.00     0.031 C 
ATOM     47  C   UNL A   1      44.796  25.123  26.366  1.00  0.00     0.029 A 
ATOM     48  C   UNL A   1      44.822  26.501  26.856  1.00  0.00     0.049 A 
ATOM     49  H   UNL A   1      43.311  27.497  27.887  1.00  0.00     0.167 HD
ATOM     50  C   UNL A   1      39.999  29.503  29.964  1.00  0.00     0.034 A 
ATOM     51  C   UNL A   1      45.851  27.364  26.726  1.00  0.00     0.034 A 
ATOM     52  C   UNL A   1      41.074  30.465  29.942  1.00  0.00     0.049 A 
ATOM     53  C   UNL A   1      45.714  28.757  27.293  1.00  0.00     0.074 A 
ATOM     54  C   UNL A   1      41.109  31.731  30.499  1.00  0.00     0.029 A 
ATOM     55  N   UNL A   1      42.301  30.272  29.321  1.00  0.00    -0.354 N 
ATOM     56  N   UNL A   1      44.703  29.294  27.937  1.00  0.00    -0.248 NA
ATOM     57  C   UNL A   1      46.863  29.658  27.124  1.00  0.00     0.031 C 
ATOM     58  C   UNL A   1      42.327  32.329  30.156  1.00  0.00     0.029 A 
ATOM     59  C   UNL A   1      43.086  31.407  29.452  1.00  0.00     0.049 A 
ATOM     60  H   UNL A   1      42.574  29.448  28.855  1.00  0.00     0.167 HD
ATOM     61  C   UNL A   1      45.108  30.583  28.277  1.00  0.00     0.074 A 
ATOM     62  C   UNL A   1      46.459  30.737  27.780  1.00  0.00     0.031 C 
ATOM     63  C   UNL A   1      44.429  31.550  28.944  1.00  0.00     0.034 A 
BRANCH  50  64
ATOM     64  C   UNL A   1      38.695  29.888  30.620  1.00  0.00     0.023 A 
ATOM     65  C   UNL A   1      37.708  30.618  29.935  1.00  0.00     0.031 A 
ATOM     66  C   UNL A   1      38.442  29.533  31.957  1.00  0.00     0.131 A 
ATOM     67  C   UNL A   1      36.544  31.022  30.607  1.00  0.00     0.055 A 
ATOM     68  C   UNL A   1      37.249  29.873  32.597  1.00  0.00     0.041 A 
ATOM     69  F   UNL A   1      39.358  28.855  32.668  1.00  0.00    -0.206 F 
ATOM     70  C   UNL A   1      36.297  30.633  31.925  1.00  0.00     0.022 A 
BRANCH  67  71
ATOM     71  S   UNL A   1      35.414  32.170  29.773  1.00  0.00     0.124 S 
ATOM     72  O   UNL A   1      36.312  33.268  29.428  1.00  0.00    -0.237 OA
ATOM     73  O   UNL A   1      34.920  31.372  28.657  1.00  0.00    -0.237 OA
ATOM     74  O   UNL A   1      34.424  32.483  30.802  1.00  0.00    -0.744 OA
ENDBRANCH  67  71
ENDBRANCH  50  64
BRANCH  51  75
ATOM     75  C   UNL A   1      47.087  26.967  25.990  1.00  0.00     0.023 A 
ATOM     76  C   UNL A   1      48.159  26.345  26.650  1.00  0.00     0.031 A 
ATOM     77  C   UNL A   1      47.242  27.273  24.626  1.00  0.00     0.131 A 
ATOM     78  C   UNL A   1      49.357  26.098  25.960  1.00  0.00     0.055 A 
ATOM     79  C   UNL A   1      48.415  26.975  23.930  1.00  0.00     0.041 A 
ATOM     80  F   UNL A   1      46.250  27.871  23.947  1.00  0.00    -0.206 F 
ATOM     81  C   UNL A   1      49.488  26.397  24.602  1.00  0.00     0.022 A 
BRANCH  78  82
ATOM     82  S   UNL A   1      50.782  25.472  26.891  1.00  0.00     0.124 S 
ATOM     83  O   UNL A   1      50.182  24.383  27.655  1.00  0.00    -0.237 OA
ATOM     84  O   UNL A   1      51.692  25.079  25.820  1.00  0.00    -0.237 OA
ATOM     85  O   UNL A   1      51.208  26.627  27.678  1.00  0.00    -0.744 OA
ENDBRANCH  78  82
ENDBRANCH  51  75
BRANCH  63  86
ATOM     86  C   UNL A   1      45.162  32.844  29.215  1.00  0.00     0.023 A 
ATOM     87  C   UNL A   1      45.118  33.924  28.315  1.00  0.00     0.031 A 
ATOM     88  C   UNL A   1      45.922  32.991  30.389  1.00  0.00     0.131 A 
ATOM     89  C   UNL A   1      45.866  35.081  28.578  1.00  0.00     0.055 A 
ATOM     90  C   UNL A   1      46.616  34.168  30.673  1.00  0.00     0.041 A 
ATOM     91  F   UNL A   1      46.000  31.992  31.282  1.00  0.00    -0.206 F 
ATOM     92  C   UNL A   1      46.602  35.217  29.758  1.00  0.00     0.022 A 
BRANCH  89  93
ATOM     93  S   UNL A   1      45.939  36.378  27.311  1.00  0.00     0.124 S 
ATOM     94  O   UNL A   1      44.637  37.022  27.459  1.00  0.00    -0.237 OA
ATOM     95  O   UNL A   1      47.092  37.166  27.738  1.00  0.00    -0.237 OA
ATOM     96  O   UNL A   1      46.125  35.634  26.067  1.00  0.00    -0.744 OA
ENDBRANCH  89  93
ENDBRANCH  63  86
ENDBRANCH  37  38
ENDBRANCH  30  32
ENDBRANCH  29  30
ENDBRANCH  28  29
ENDBRANCH   1  28
TORSDOF 19
ENDMDL
