MODEL 1
REMARK VINA RESULT:     -11.9      0.000      0.000
REMARK SMILES Cc1c(CC(=O)N[C@H](CO)C(=O)OCCOCCOC(=O)c2ccc(-c3c4nc(c(-c5cc(S(=O)(=O)[O-])ccc5F)c5ccc([nH]5)c(-c5cc(S(=O)(=O)[O-])ccc5F)c5nc(c(-c6cc(S(=O)(=O)[O-])ccc6F)c6ccc3[nH]6)C=C5)C=C4)cc2)cc(-c2ccc(S(C)(=O)=O)cc2)n1-c1cccc(F)c1
REMARK SMILES IDX 15 1 14 2 13 3 11 4 12 5 8 6 7 7 5 8 6 9 4 11 3 12 1 13 2 14
REMARK SMILES IDX 97 15 85 16 86 17 98 18 99 19 104 20 100 21 102 22 101 23
REMARK SMILES IDX 103 24 87 25 88 26 96 27 89 28 95 29 90 30 91 31 92 32 93 33
REMARK SMILES IDX 94 34 9 35 10 36 16 38 17 39 18 40 19 41 20 42 21 43 22 44
REMARK SMILES IDX 23 45 84 46 24 47 83 48 25 49 26 50 27 51 77 52 28 53 82 54
REMARK SMILES IDX 76 55 78 56 29 57 81 58 75 59 74 60 30 62 62 63 42 64 61 65
REMARK SMILES IDX 43 66 46 67 60 68 79 69 44 70 45 71 59 73 80 74 47 75 31 76
REMARK SMILES IDX 32 77 40 78 33 79 39 80 41 81 38 82 34 83 35 84 36 85 37 86
REMARK SMILES IDX 63 87 64 88 72 89 65 90 71 91 73 92 70 93 66 94 67 95 68 96
REMARK SMILES IDX 69 97 48 98 49 99 57 100 50 101 56 102 58 103 55 104 51 105
REMARK SMILES IDX 52 106 53 107 54 108
REMARK H PARENT 7 10 10 37 78 61 46 72
REMARK Flexibility Score: inf
ROOT
ATOM      1  C   UNL A   1      35.745  34.234  34.062  1.00  0.00     0.202 C 
ENDROOT
BRANCH   1   2
ATOM      2  C   UNL A   1      34.082  33.455  33.416  1.00  0.00     0.261 C 
BRANCH   2   3
ATOM      3  O   UNL A   1      33.001  34.757  32.092  1.00  0.00    -0.462 OA
BRANCH   3   4
ATOM      4  C   UNL A   1      33.245  35.339  30.640  1.00  0.00     0.331 C 
ATOM      5  O   UNL A   1      32.777  36.380  30.133  1.00  0.00    -0.250 OA
BRANCH   4   6
ATOM      6  C   UNL A   1      33.765  34.411  29.606  1.00  0.00     0.218 C 
BRANCH   6   7
ATOM      7  N   UNL A   1      33.992  33.044  30.021  1.00  0.00    -0.341 N 
ATOM      8  C   UNL A   1      34.638  32.097  29.242  1.00  0.00     0.225 C 
ATOM      9  O   UNL A   1      35.376  31.302  29.836  1.00  0.00    -0.275 OA
ATOM     10  H   UNL A   1      33.671  32.770  30.910  1.00  0.00     0.164 HD
BRANCH   8  11
ATOM     11  C   UNL A   1      34.462  31.984  27.696  1.00  0.00     0.137 C 
BRANCH  11  12
ATOM     12  C   UNL A   1      34.002  30.625  27.264  1.00  0.00    -0.017 A 
ATOM     13  C   UNL A   1      31.424  31.416  26.111  1.00  0.00     0.065 C 
ATOM     14  C   UNL A   1      32.470  30.397  26.423  1.00  0.00     0.024 A 
ATOM     15  N   UNL A   1      32.516  28.932  25.415  1.00  0.00    -0.313 N 
ATOM     16  C   UNL A   1      35.131  29.049  26.789  1.00  0.00     0.033 A 
ATOM     17  C   UNL A   1      34.044  27.986  25.627  1.00  0.00     0.053 A 
BRANCH  15  18
ATOM     18  C   UNL A   1      31.426  28.488  24.645  1.00  0.00     0.049 A 
ATOM     19  C   UNL A   1      31.208  29.032  23.377  1.00  0.00     0.027 A 
ATOM     20  C   UNL A   1      30.600  27.497  25.165  1.00  0.00     0.065 A 
ATOM     21  C   UNL A   1      30.141  28.569  22.610  1.00  0.00     0.005 A 
ATOM     22  C   UNL A   1      29.541  27.051  24.385  1.00  0.00     0.125 A 
ATOM     23  C   UNL A   1      29.302  27.578  23.118  1.00  0.00     0.039 A 
ATOM     24  F   UNL A   1      28.718  26.114  24.871  1.00  0.00    -0.207 F 
ENDBRANCH  15  18
BRANCH  17  25
ATOM     25  C   UNL A   1      33.773  26.365  25.341  1.00  0.00    -0.001 A 
ATOM     26  C   UNL A   1      34.041  25.781  24.113  1.00  0.00     0.011 A 
ATOM     27  C   UNL A   1      33.272  25.412  26.252  1.00  0.00     0.011 A 
ATOM     28  C   UNL A   1      34.422  24.427  23.994  1.00  0.00     0.021 A 
ATOM     29  C   UNL A   1      33.648  24.056  26.202  1.00  0.00     0.021 A 
ATOM     30  C   UNL A   1      34.336  23.594  25.099  1.00  0.00     0.067 A 
BRANCH  30  31
ATOM     31  S   UNL A   1      35.077  21.980  25.098  1.00  0.00     0.175 S 
ATOM     32  C   UNL A   1      33.763  20.877  24.663  1.00  0.00     0.163 C 
ATOM     33  O   UNL A   1      36.075  21.974  24.043  1.00  0.00    -0.224 OA
ATOM     34  O   UNL A   1      35.474  21.684  26.466  1.00  0.00    -0.224 OA
ENDBRANCH  30  31
ENDBRANCH  17  25
ENDBRANCH  11  12
ENDBRANCH   8  11
ENDBRANCH   6   7
BRANCH   6  35
ATOM     35  C   UNL A   1      34.818  35.252  28.885  1.00  0.00     0.193 C 
BRANCH  35  36
ATOM     36  O   UNL A   1      34.419  35.529  27.526  1.00  0.00    -0.394 OA
ATOM     37  H   UNL A   1      33.833  36.302  27.512  1.00  0.00     0.210 HD
ENDBRANCH  35  36
ENDBRANCH   6  35
ENDBRANCH   4   6
ENDBRANCH   3   4
ENDBRANCH   2   3
ENDBRANCH   1   2
BRANCH   1  38
ATOM     38  O   UNL A   1      36.834  33.359  34.934  1.00  0.00    -0.374 OA
BRANCH  38  39
ATOM     39  C   UNL A   1      38.204  33.790  35.584  1.00  0.00     0.202 C 
BRANCH  39  40
ATOM     40  C   UNL A   1      39.950  33.543  35.190  1.00  0.00     0.261 C 
BRANCH  40  41
ATOM     41  O   UNL A   1      41.346  34.169  35.698  1.00  0.00    -0.460 OA
BRANCH  41  42
ATOM     42  C   UNL A   1      41.491  35.622  35.754  1.00  0.00     0.338 C 
ATOM     43  O   UNL A   1      40.791  36.231  36.566  1.00  0.00    -0.246 OA
BRANCH  42  44
ATOM     44  C   UNL A   1      42.516  36.604  34.855  1.00  0.00     0.060 A 
ATOM     45  C   UNL A   1      42.504  37.991  34.714  1.00  0.00     0.016 A 
ATOM     46  C   UNL A   1      43.337  36.081  33.798  1.00  0.00     0.016 A 
ATOM     47  C   UNL A   1      43.362  38.755  33.693  1.00  0.00     0.010 A 
ATOM     48  C   UNL A   1      44.186  36.858  32.739  1.00  0.00     0.010 A 
ATOM     49  C   UNL A   1      44.285  38.256  32.648  1.00  0.00    -0.014 A 
BRANCH  49  50
ATOM     50  C   UNL A   1      45.066  39.333  31.449  1.00  0.00     0.031 A 
ATOM     51  C   UNL A   1      44.036  39.250  30.362  1.00  0.00     0.074 A 
ATOM     52  C   UNL A   1      46.271  40.076  31.026  1.00  0.00     0.049 A 
ATOM     53  N   UNL A   1      43.816  38.074  29.845  1.00  0.00    -0.248 NA
ATOM     54  C   UNL A   1      42.955  40.208  30.107  1.00  0.00     0.031 C 
ATOM     55  C   UNL A   1      47.626  40.072  31.650  1.00  0.00     0.029 A 
ATOM     56  N   UNL A   1      46.654  41.007  29.882  1.00  0.00    -0.354 N 
ATOM     57  C   UNL A   1      42.770  38.182  28.962  1.00  0.00     0.074 A 
ATOM     58  C   UNL A   1      42.173  39.475  29.296  1.00  0.00     0.031 C 
ATOM     59  C   UNL A   1      48.532  40.960  31.100  1.00  0.00     0.029 A 
ATOM     60  C   UNL A   1      48.010  41.715  29.944  1.00  0.00     0.049 A 
ATOM     61  H   UNL A   1      46.045  41.149  29.122  1.00  0.00     0.167 HD
ATOM     62  C   UNL A   1      43.042  37.663  27.728  1.00  0.00     0.034 A 
ATOM     63  C   UNL A   1      48.716  42.679  29.101  1.00  0.00     0.034 A 
ATOM     64  C   UNL A   1      43.676  38.655  26.899  1.00  0.00     0.049 A 
ATOM     65  C   UNL A   1      48.310  42.396  27.730  1.00  0.00     0.074 A 
ATOM     66  C   UNL A   1      43.381  39.987  26.682  1.00  0.00     0.029 A 
ATOM     67  N   UNL A   1      45.017  38.489  26.615  1.00  0.00    -0.354 N 
ATOM     68  N   UNL A   1      48.710  41.352  27.081  1.00  0.00    -0.248 NA
ATOM     69  C   UNL A   1      47.332  43.234  27.065  1.00  0.00     0.031 C 
ATOM     70  C   UNL A   1      44.619  40.634  26.847  1.00  0.00     0.029 A 
ATOM     71  C   UNL A   1      45.634  39.720  26.594  1.00  0.00     0.049 A 
ATOM     72  H   UNL A   1      45.462  37.627  26.453  1.00  0.00     0.167 HD
ATOM     73  C   UNL A   1      47.585  41.058  26.374  1.00  0.00     0.074 A 
ATOM     74  C   UNL A   1      46.888  42.327  26.195  1.00  0.00     0.031 C 
ATOM     75  C   UNL A   1      47.072  39.808  26.518  1.00  0.00     0.034 A 
BRANCH  62  76
ATOM     76  C   UNL A   1      43.471  36.217  27.797  1.00  0.00     0.023 A 
ATOM     77  C   UNL A   1      44.243  35.699  26.752  1.00  0.00     0.031 A 
ATOM     78  C   UNL A   1      43.001  35.309  28.776  1.00  0.00     0.131 A 
ATOM     79  C   UNL A   1      44.447  34.312  26.658  1.00  0.00     0.055 A 
ATOM     80  C   UNL A   1      43.164  33.931  28.652  1.00  0.00     0.041 A 
ATOM     81  F   UNL A   1      42.367  35.744  29.876  1.00  0.00    -0.206 F 
ATOM     82  C   UNL A   1      43.886  33.422  27.581  1.00  0.00     0.022 A 
BRANCH  79  83
ATOM     83  S   UNL A   1      45.434  33.677  25.279  1.00  0.00     0.124 S 
ATOM     84  O   UNL A   1      46.713  34.355  25.484  1.00  0.00    -0.237 OA
ATOM     85  O   UNL A   1      45.431  32.239  25.527  1.00  0.00    -0.237 OA
ATOM     86  O   UNL A   1      44.696  34.108  24.093  1.00  0.00    -0.744 OA
ENDBRANCH  79  83
ENDBRANCH  62  76
BRANCH  63  87
ATOM     87  C   UNL A   1      49.891  43.867  28.947  1.00  0.00     0.023 A 
ATOM     88  C   UNL A   1      49.777  45.170  28.213  1.00  0.00     0.031 A 
ATOM     89  C   UNL A   1      50.909  43.903  29.910  1.00  0.00     0.131 A 
ATOM     90  C   UNL A   1      50.619  46.334  28.489  1.00  0.00     0.055 A 
ATOM     91  C   UNL A   1      51.707  45.055  30.185  1.00  0.00     0.041 A 
ATOM     92  F   UNL A   1      51.100  42.847  30.710  1.00  0.00    -0.206 F 
ATOM     93  C   UNL A   1      51.563  46.262  29.503  1.00  0.00     0.022 A 
BRANCH  90  94
ATOM     94  S   UNL A   1      50.484  48.047  27.684  1.00  0.00     0.124 S 
ATOM     95  O   UNL A   1      49.058  48.182  27.416  1.00  0.00    -0.237 OA
ATOM     96  O   UNL A   1      51.050  48.939  28.689  1.00  0.00    -0.237 OA
ATOM     97  O   UNL A   1      51.306  47.931  26.472  1.00  0.00    -0.744 OA
ENDBRANCH  90  94
ENDBRANCH  63  87
BRANCH  75  98
ATOM     98  C   UNL A   1      48.057  38.656  26.699  1.00  0.00     0.023 A 
ATOM     99  C   UNL A   1      48.642  38.232  27.923  1.00  0.00     0.031 A 
ATOM    100  C   UNL A   1      48.512  38.010  25.539  1.00  0.00     0.131 A 
ATOM    101  C   UNL A   1      49.654  37.248  27.945  1.00  0.00     0.055 A 
ATOM    102  C   UNL A   1      49.483  37.006  25.563  1.00  0.00     0.041 A 
ATOM    103  F   UNL A   1      48.021  38.358  24.338  1.00  0.00    -0.206 F 
ATOM    104  C   UNL A   1      50.071  36.631  26.765  1.00  0.00     0.022 A 
BRANCH 101 105
ATOM    105  S   UNL A   1      50.502  36.814  29.505  1.00  0.00     0.124 S 
ATOM    106  O   UNL A   1      49.986  37.796  30.451  1.00  0.00    -0.237 OA
ATOM    107  O   UNL A   1      50.077  35.435  29.726  1.00  0.00    -0.237 OA
ATOM    108  O   UNL A   1      51.920  36.972  29.178  1.00  0.00    -0.744 OA
ENDBRANCH 101 105
ENDBRANCH  75  98
ENDBRANCH  49  50
ENDBRANCH  42  44
ENDBRANCH  41  42
ENDBRANCH  40  41
ENDBRANCH  39  40
ENDBRANCH  38  39
ENDBRANCH   1  38
TORSDOF 25
ENDMDL
MODEL 2
REMARK VINA RESULT:     -11.4      7.436     13.787
REMARK SMILES Cc1c(CC(=O)N[C@H](CO)C(=O)OCCOCCOC(=O)c2ccc(-c3c4nc(c(-c5cc(S(=O)(=O)[O-])ccc5F)c5ccc([nH]5)c(-c5cc(S(=O)(=O)[O-])ccc5F)c5nc(c(-c6cc(S(=O)(=O)[O-])ccc6F)c6ccc3[nH]6)C=C5)C=C4)cc2)cc(-c2ccc(S(C)(=O)=O)cc2)n1-c1cccc(F)c1
REMARK SMILES IDX 15 1 14 2 13 3 11 4 12 5 8 6 7 7 5 8 6 9 4 11 3 12 1 13 2 14
REMARK SMILES IDX 97 15 85 16 86 17 98 18 99 19 104 20 100 21 102 22 101 23
REMARK SMILES IDX 103 24 87 25 88 26 96 27 89 28 95 29 90 30 91 31 92 32 93 33
REMARK SMILES IDX 94 34 9 35 10 36 16 38 17 39 18 40 19 41 20 42 21 43 22 44
REMARK SMILES IDX 23 45 84 46 24 47 83 48 25 49 26 50 27 51 77 52 28 53 82 54
REMARK SMILES IDX 76 55 78 56 29 57 81 58 75 59 74 60 30 62 62 63 42 64 61 65
REMARK SMILES IDX 43 66 46 67 60 68 79 69 44 70 45 71 59 73 80 74 47 75 31 76
REMARK SMILES IDX 32 77 40 78 33 79 39 80 41 81 38 82 34 83 35 84 36 85 37 86
REMARK SMILES IDX 63 87 64 88 72 89 65 90 71 91 73 92 70 93 66 94 67 95 68 96
REMARK SMILES IDX 69 97 48 98 49 99 57 100 50 101 56 102 58 103 55 104 51 105
REMARK SMILES IDX 52 106 53 107 54 108
REMARK H PARENT 7 10 10 37 78 61 46 72
REMARK Flexibility Score: inf
ROOT
ATOM      1  C   UNL A   1      36.971  22.599  25.357  1.00  0.00     0.202 C 
ENDROOT
BRANCH   1   2
ATOM      2  C   UNL A   1      37.950  20.962  24.968  1.00  0.00     0.261 C 
BRANCH   2   3
ATOM      3  O   UNL A   1      39.567  20.605  26.337  1.00  0.00    -0.462 OA
BRANCH   3   4
ATOM      4  C   UNL A   1      41.089  20.193  26.195  1.00  0.00     0.331 C 
ATOM      5  O   UNL A   1      41.566  19.068  25.934  1.00  0.00    -0.250 OA
BRANCH   4   6
ATOM      6  C   UNL A   1      42.105  21.095  26.790  1.00  0.00     0.218 C 
BRANCH   6   7
ATOM      7  N   UNL A   1      41.720  21.793  27.998  1.00  0.00    -0.341 N 
ATOM      8  C   UNL A   1      42.495  22.766  28.608  1.00  0.00     0.225 C 
ATOM      9  O   UNL A   1      41.890  23.723  29.107  1.00  0.00    -0.275 OA
ATOM     10  H   UNL A   1      40.856  21.563  28.410  1.00  0.00     0.164 HD
BRANCH   8  11
ATOM     11  C   UNL A   1      44.050  22.697  28.706  1.00  0.00     0.137 C 
BRANCH  11  12
ATOM     12  C   UNL A   1      44.725  23.845  28.017  1.00  0.00    -0.017 A 
ATOM     13  C   UNL A   1      44.617  25.767  30.229  1.00  0.00     0.065 C 
ATOM     14  C   UNL A   1      45.029  25.368  28.851  1.00  0.00     0.024 A 
ATOM     15  N   UNL A   1      46.415  26.215  28.129  1.00  0.00    -0.313 N 
ATOM     16  C   UNL A   1      46.041  23.764  26.519  1.00  0.00     0.033 A 
ATOM     17  C   UNL A   1      47.052  25.383  26.653  1.00  0.00     0.053 A 
BRANCH  15  18
ATOM     18  C   UNL A   1      46.876  27.467  28.576  1.00  0.00     0.049 A 
ATOM     19  C   UNL A   1      46.172  28.625  28.235  1.00  0.00     0.027 A 
ATOM     20  C   UNL A   1      48.018  27.515  29.368  1.00  0.00     0.065 A 
ATOM     21  C   UNL A   1      46.621  29.858  28.702  1.00  0.00     0.005 A 
ATOM     22  C   UNL A   1      48.449  28.754  29.823  1.00  0.00     0.125 A 
ATOM     23  C   UNL A   1      47.766  29.923  29.495  1.00  0.00     0.039 A 
ATOM     24  F   UNL A   1      49.558  28.830  30.568  1.00  0.00    -0.207 F 
ENDBRANCH  15  18
BRANCH  17  25
ATOM     25  C   UNL A   1      47.747  26.486  25.612  1.00  0.00    -0.001 A 
ATOM     26  C   UNL A   1      49.097  26.796  25.665  1.00  0.00     0.011 A 
ATOM     27  C   UNL A   1      47.105  27.213  24.588  1.00  0.00     0.011 A 
ATOM     28  C   UNL A   1      49.823  27.184  24.517  1.00  0.00     0.021 A 
ATOM     29  C   UNL A   1      47.770  27.593  23.407  1.00  0.00     0.021 A 
ATOM     30  C   UNL A   1      49.142  27.463  23.343  1.00  0.00     0.067 A 
BRANCH  30  31
ATOM     31  S   UNL A   1      50.004  27.657  21.801  1.00  0.00     0.175 S 
ATOM     32  C   UNL A   1      48.933  26.939  20.589  1.00  0.00     0.163 C 
ATOM     33  O   UNL A   1      50.114  29.084  21.556  1.00  0.00    -0.224 OA
ATOM     34  O   UNL A   1      51.208  26.844  21.871  1.00  0.00    -0.224 OA
ENDBRANCH  30  31
ENDBRANCH  17  25
ENDBRANCH  11  12
ENDBRANCH   8  11
ENDBRANCH   6   7
BRANCH   6  35
ATOM     35  C   UNL A   1      42.697  21.801  25.570  1.00  0.00     0.193 C 
BRANCH  35  36
ATOM     36  O   UNL A   1      43.872  21.113  25.092  1.00  0.00    -0.394 OA
ATOM     37  H   UNL A   1      44.274  20.616  25.821  1.00  0.00     0.210 HD
ENDBRANCH  35  36
ENDBRANCH   6  35
ENDBRANCH   4   6
ENDBRANCH   3   4
ENDBRANCH   2   3
ENDBRANCH   1   2
BRANCH   1  38
ATOM     38  O   UNL A   1      37.742  24.007  25.725  1.00  0.00    -0.374 OA
BRANCH  38  39
ATOM     39  C   UNL A   1      39.057  24.265  26.555  1.00  0.00     0.202 C 
BRANCH  39  40
ATOM     40  C   UNL A   1      40.651  25.050  26.231  1.00  0.00     0.261 C 
BRANCH  40  41
ATOM     41  O   UNL A   1      41.241  26.039  25.103  1.00  0.00    -0.460 OA
BRANCH  41  42
ATOM     42  C   UNL A   1      41.849  27.301  25.518  1.00  0.00     0.338 C 
ATOM     43  O   UNL A   1      42.421  27.968  24.652  1.00  0.00    -0.246 OA
BRANCH  42  44
ATOM     44  C   UNL A   1      41.864  27.999  27.046  1.00  0.00     0.060 A 
ATOM     45  C   UNL A   1      42.507  29.160  27.475  1.00  0.00     0.016 A 
ATOM     46  C   UNL A   1      41.499  27.261  28.224  1.00  0.00     0.016 A 
ATOM     47  C   UNL A   1      42.621  29.579  28.950  1.00  0.00     0.010 A 
ATOM     48  C   UNL A   1      41.644  27.673  29.725  1.00  0.00     0.010 A 
ATOM     49  C   UNL A   1      42.180  28.888  30.183  1.00  0.00    -0.014 A 
BRANCH  49  50
ATOM     50  C   UNL A   1      42.566  29.492  31.824  1.00  0.00     0.031 A 
ATOM     51  C   UNL A   1      41.176  29.534  32.385  1.00  0.00     0.074 A 
ATOM     52  C   UNL A   1      43.561  30.085  32.742  1.00  0.00     0.049 A 
ATOM     53  N   UNL A   1      40.324  30.325  31.795  1.00  0.00    -0.248 NA
ATOM     54  C   UNL A   1      40.536  28.508  33.215  1.00  0.00     0.031 C 
ATOM     55  C   UNL A   1      44.940  30.560  32.429  1.00  0.00     0.029 A 
ATOM     56  N   UNL A   1      43.611  30.491  34.210  1.00  0.00    -0.354 N 
ATOM     57  C   UNL A   1      39.093  30.137  32.372  1.00  0.00     0.074 A 
ATOM     58  C   UNL A   1      39.251  28.887  33.116  1.00  0.00     0.031 C 
ATOM     59  C   UNL A   1      45.687  30.964  33.520  1.00  0.00     0.029 A 
ATOM     60  C   UNL A   1      44.957  30.914  34.803  1.00  0.00     0.049 A 
ATOM     61  H   UNL A   1      42.796  30.482  34.763  1.00  0.00     0.167 HD
ATOM     62  C   UNL A   1      38.496  31.297  32.775  1.00  0.00     0.034 A 
ATOM     63  C   UNL A   1      45.425  31.325  36.126  1.00  0.00     0.034 A 
ATOM     64  C   UNL A   1      38.924  31.642  34.106  1.00  0.00     0.049 A 
ATOM     65  C   UNL A   1      44.310  32.023  36.753  1.00  0.00     0.074 A 
ATOM     66  C   UNL A   1      39.053  30.878  35.250  1.00  0.00     0.029 A 
ATOM     67  N   UNL A   1      39.774  32.721  34.246  1.00  0.00    -0.354 N 
ATOM     68  N   UNL A   1      43.925  33.202  36.389  1.00  0.00    -0.248 NA
ATOM     69  C   UNL A   1      43.500  31.361  37.757  1.00  0.00     0.031 C 
ATOM     70  C   UNL A   1      40.339  31.200  35.722  1.00  0.00     0.029 A 
ATOM     71  C   UNL A   1      40.684  32.459  35.245  1.00  0.00     0.049 A 
ATOM     72  H   UNL A   1      39.736  33.548  33.714  1.00  0.00     0.167 HD
ATOM     73  C   UNL A   1      42.578  33.076  36.539  1.00  0.00     0.074 A 
ATOM     74  C   UNL A   1      42.389  32.076  37.585  1.00  0.00     0.031 C 
ATOM     75  C   UNL A   1      41.806  33.342  35.454  1.00  0.00     0.034 A 
BRANCH  62  76
ATOM     76  C   UNL A   1      38.355  32.291  31.647  1.00  0.00     0.023 A 
ATOM     77  C   UNL A   1      37.113  32.411  31.013  1.00  0.00     0.031 A 
ATOM     78  C   UNL A   1      39.449  32.991  31.083  1.00  0.00     0.131 A 
ATOM     79  C   UNL A   1      37.012  33.132  29.812  1.00  0.00     0.055 A 
ATOM     80  C   UNL A   1      39.353  33.663  29.866  1.00  0.00     0.041 A 
ATOM     81  F   UNL A   1      40.638  33.033  31.703  1.00  0.00    -0.206 F 
ATOM     82  C   UNL A   1      38.127  33.731  29.217  1.00  0.00     0.022 A 
BRANCH  79  83
ATOM     83  S   UNL A   1      35.392  33.247  29.010  1.00  0.00     0.124 S 
ATOM     84  O   UNL A   1      34.776  31.976  29.387  1.00  0.00    -0.237 OA
ATOM     85  O   UNL A   1      34.820  34.438  29.630  1.00  0.00    -0.237 OA
ATOM     86  O   UNL A   1      35.713  33.374  27.590  1.00  0.00    -0.744 OA
ENDBRANCH  79  83
ENDBRANCH  62  76
BRANCH  63  87
ATOM     87  C   UNL A   1      46.690  31.506  37.212  1.00  0.00     0.023 A 
ATOM     88  C   UNL A   1      47.031  30.614  38.368  1.00  0.00     0.031 A 
ATOM     89  C   UNL A   1      47.793  32.268  36.804  1.00  0.00     0.131 A 
ATOM     90  C   UNL A   1      48.360  30.544  38.977  1.00  0.00     0.055 A 
ATOM     91  C   UNL A   1      49.091  32.171  37.393  1.00  0.00     0.041 A 
ATOM     92  F   UNL A   1      47.688  33.067  35.735  1.00  0.00    -0.206 F 
ATOM     93  C   UNL A   1      49.386  31.315  38.452  1.00  0.00     0.022 A 
BRANCH  90  94
ATOM     94  S   UNL A   1      48.907  29.381  40.372  1.00  0.00     0.124 S 
ATOM     95  O   UNL A   1      47.828  28.403  40.440  1.00  0.00    -0.237 OA
ATOM     96  O   UNL A   1      50.205  28.894  39.917  1.00  0.00    -0.237 OA
ATOM     97  O   UNL A   1      48.988  30.257  41.549  1.00  0.00    -0.744 OA
ENDBRANCH  90  94
ENDBRANCH  63  87
BRANCH  75  98
ATOM     98  C   UNL A   1      42.263  34.456  34.516  1.00  0.00     0.023 A 
ATOM     99  C   UNL A   1      42.891  34.288  33.251  1.00  0.00     0.031 A 
ATOM    100  C   UNL A   1      42.147  35.775  34.979  1.00  0.00     0.131 A 
ATOM    101  C   UNL A   1      43.403  35.395  32.540  1.00  0.00     0.055 A 
ATOM    102  C   UNL A   1      42.616  36.875  34.257  1.00  0.00     0.041 A 
ATOM    103  F   UNL A   1      41.579  36.023  36.171  1.00  0.00    -0.206 F 
ATOM    104  C   UNL A   1      43.261  36.689  33.041  1.00  0.00     0.022 A 
BRANCH 101 105
ATOM    105  S   UNL A   1      44.337  35.155  30.987  1.00  0.00     0.124 S 
ATOM    106  O   UNL A   1      44.557  33.714  30.946  1.00  0.00    -0.237 OA
ATOM    107  O   UNL A   1      43.423  35.688  29.980  1.00  0.00    -0.237 OA
ATOM    108  O   UNL A   1      45.550  35.949  31.191  1.00  0.00    -0.744 OA
ENDBRANCH 101 105
ENDBRANCH  75  98
ENDBRANCH  49  50
ENDBRANCH  42  44
ENDBRANCH  41  42
ENDBRANCH  40  41
ENDBRANCH  39  40
ENDBRANCH  38  39
ENDBRANCH   1  38
TORSDOF 25
ENDMDL
MODEL 3
REMARK VINA RESULT:     -10.9      6.101     10.531
REMARK SMILES Cc1c(CC(=O)N[C@H](CO)C(=O)OCCOCCOC(=O)c2ccc(-c3c4nc(c(-c5cc(S(=O)(=O)[O-])ccc5F)c5ccc([nH]5)c(-c5cc(S(=O)(=O)[O-])ccc5F)c5nc(c(-c6cc(S(=O)(=O)[O-])ccc6F)c6ccc3[nH]6)C=C5)C=C4)cc2)cc(-c2ccc(S(C)(=O)=O)cc2)n1-c1cccc(F)c1
REMARK SMILES IDX 15 1 14 2 13 3 11 4 12 5 8 6 7 7 5 8 6 9 4 11 3 12 1 13 2 14
REMARK SMILES IDX 97 15 85 16 86 17 98 18 99 19 104 20 100 21 102 22 101 23
REMARK SMILES IDX 103 24 87 25 88 26 96 27 89 28 95 29 90 30 91 31 92 32 93 33
REMARK SMILES IDX 94 34 9 35 10 36 16 38 17 39 18 40 19 41 20 42 21 43 22 44
REMARK SMILES IDX 23 45 84 46 24 47 83 48 25 49 26 50 27 51 77 52 28 53 82 54
REMARK SMILES IDX 76 55 78 56 29 57 81 58 75 59 74 60 30 62 62 63 42 64 61 65
REMARK SMILES IDX 43 66 46 67 60 68 79 69 44 70 45 71 59 73 80 74 47 75 31 76
REMARK SMILES IDX 32 77 40 78 33 79 39 80 41 81 38 82 34 83 35 84 36 85 37 86
REMARK SMILES IDX 63 87 64 88 72 89 65 90 71 91 73 92 70 93 66 94 67 95 68 96
REMARK SMILES IDX 69 97 48 98 49 99 57 100 50 101 56 102 58 103 55 104 51 105
REMARK SMILES IDX 52 106 53 107 54 108
REMARK H PARENT 7 10 10 37 78 61 46 72
REMARK Flexibility Score: inf
ROOT
ATOM      1  C   UNL A   1      41.669  29.184  28.348  1.00  0.00     0.202 C 
ENDROOT
BRANCH   1   2
ATOM      2  C   UNL A   1      41.766  27.246  28.508  1.00  0.00     0.261 C 
BRANCH   2   3
ATOM      3  O   UNL A   1      40.116  26.240  27.567  1.00  0.00    -0.462 OA
BRANCH   3   4
ATOM      4  C   UNL A   1      39.929  24.875  26.789  1.00  0.00     0.331 C 
ATOM      5  O   UNL A   1      38.865  24.313  26.454  1.00  0.00    -0.250 OA
BRANCH   4   6
ATOM      6  C   UNL A   1      41.077  23.936  26.761  1.00  0.00     0.218 C 
BRANCH   6   7
ATOM      7  N   UNL A   1      41.812  23.852  25.517  1.00  0.00    -0.341 N 
ATOM      8  C   UNL A   1      43.122  23.408  25.422  1.00  0.00     0.225 C 
ATOM      9  O   UNL A   1      43.405  22.730  24.427  1.00  0.00    -0.275 OA
ATOM     10  H   UNL A   1      41.354  24.125  24.689  1.00  0.00     0.164 HD
BRANCH   8  11
ATOM     11  C   UNL A   1      44.224  23.736  26.476  1.00  0.00     0.137 C 
BRANCH  11  12
ATOM     12  C   UNL A   1      45.254  24.693  25.956  1.00  0.00    -0.017 A 
ATOM     13  C   UNL A   1      45.261  26.551  28.225  1.00  0.00     0.065 C 
ATOM     14  C   UNL A   1      45.778  26.084  26.905  1.00  0.00     0.024 A 
ATOM     15  N   UNL A   1      47.423  26.576  26.444  1.00  0.00    -0.313 N 
ATOM     16  C   UNL A   1      46.733  24.314  24.671  1.00  0.00     0.033 A 
ATOM     17  C   UNL A   1      48.068  25.634  25.039  1.00  0.00     0.053 A 
BRANCH  15  18
ATOM     18  C   UNL A   1      48.093  27.670  27.020  1.00  0.00     0.049 A 
ATOM     19  C   UNL A   1      49.144  27.445  27.914  1.00  0.00     0.027 A 
ATOM     20  C   UNL A   1      47.700  28.957  26.667  1.00  0.00     0.065 A 
ATOM     21  C   UNL A   1      49.819  28.534  28.461  1.00  0.00     0.005 A 
ATOM     22  C   UNL A   1      48.386  30.028  27.224  1.00  0.00     0.125 A 
ATOM     23  C   UNL A   1      49.435  29.830  28.119  1.00  0.00     0.039 A 
ATOM     24  F   UNL A   1      48.012  31.276  26.918  1.00  0.00    -0.207 F 
ENDBRANCH  15  18
BRANCH  17  25
ATOM     25  C   UNL A   1      49.162  26.548  24.174  1.00  0.00    -0.001 A 
ATOM     26  C   UNL A   1      50.501  26.617  24.524  1.00  0.00     0.011 A 
ATOM     27  C   UNL A   1      48.903  27.329  23.028  1.00  0.00     0.011 A 
ATOM     28  C   UNL A   1      51.519  26.818  23.566  1.00  0.00     0.021 A 
ATOM     29  C   UNL A   1      49.867  27.531  22.023  1.00  0.00     0.021 A 
ATOM     30  C   UNL A   1      51.174  27.158  22.267  1.00  0.00     0.067 A 
BRANCH  30  31
ATOM     31  S   UNL A   1      52.372  27.126  20.956  1.00  0.00     0.175 S 
ATOM     32  C   UNL A   1      53.928  27.383  21.757  1.00  0.00     0.163 C 
ATOM     33  O   UNL A   1      52.341  25.789  20.389  1.00  0.00    -0.224 OA
ATOM     34  O   UNL A   1      52.113  28.276  20.104  1.00  0.00    -0.224 OA
ENDBRANCH  30  31
ENDBRANCH  17  25
ENDBRANCH  11  12
ENDBRANCH   8  11
ENDBRANCH   6   7
BRANCH   6  35
ATOM     35  C   UNL A   1      40.539  22.710  27.498  1.00  0.00     0.193 C 
BRANCH  35  36
ATOM     36  O   UNL A   1      41.219  21.510  27.073  1.00  0.00    -0.394 OA
ATOM     37  H   UNL A   1      41.872  21.732  26.391  1.00  0.00     0.210 HD
ENDBRANCH  35  36
ENDBRANCH   6  35
ENDBRANCH   4   6
ENDBRANCH   3   4
ENDBRANCH   2   3
ENDBRANCH   1   2
BRANCH   1  38
ATOM     38  O   UNL A   1      40.938  30.115  29.492  1.00  0.00    -0.374 OA
BRANCH  38  39
ATOM     39  C   UNL A   1      39.769  29.774  30.493  1.00  0.00     0.202 C 
BRANCH  39  40
ATOM     40  C   UNL A   1      39.016  30.588  31.919  1.00  0.00     0.261 C 
BRANCH  40  41
ATOM     41  O   UNL A   1      37.917  31.748  32.138  1.00  0.00    -0.460 OA
BRANCH  41  42
ATOM     42  C   UNL A   1      38.300  33.138  31.901  1.00  0.00     0.338 C 
ATOM     43  O   UNL A   1      37.692  34.009  32.528  1.00  0.00    -0.246 OA
BRANCH  42  44
ATOM     44  C   UNL A   1      39.496  33.731  30.881  1.00  0.00     0.060 A 
ATOM     45  C   UNL A   1      40.810  34.086  31.182  1.00  0.00     0.016 A 
ATOM     46  C   UNL A   1      39.188  34.307  29.601  1.00  0.00     0.016 A 
ATOM     47  C   UNL A   1      41.744  34.819  30.205  1.00  0.00     0.010 A 
ATOM     48  C   UNL A   1      40.129  35.080  28.620  1.00  0.00     0.010 A 
ATOM     49  C   UNL A   1      41.488  35.349  28.846  1.00  0.00    -0.014 A 
BRANCH  49  50
ATOM     50  C   UNL A   1      42.690  36.324  27.944  1.00  0.00     0.031 A 
ATOM     51  C   UNL A   1      43.658  35.231  27.598  1.00  0.00     0.074 A 
ATOM     52  C   UNL A   1      43.193  37.661  27.565  1.00  0.00     0.049 A 
ATOM     53  N   UNL A   1      44.227  34.609  28.594  1.00  0.00    -0.248 NA
ATOM     54  C   UNL A   1      43.724  34.487  26.336  1.00  0.00     0.031 C 
ATOM     55  C   UNL A   1      42.728  38.994  28.046  1.00  0.00     0.029 A 
ATOM     56  N   UNL A   1      44.307  38.217  26.687  1.00  0.00    -0.354 N 
ATOM     57  C   UNL A   1      44.977  33.580  28.083  1.00  0.00     0.074 A 
ATOM     58  C   UNL A   1      44.490  33.449  26.710  1.00  0.00     0.031 C 
ATOM     59  C   UNL A   1      43.313  40.082  27.426  1.00  0.00     0.029 A 
ATOM     60  C   UNL A   1      44.349  39.727  26.436  1.00  0.00     0.049 A 
ATOM     61  H   UNL A   1      44.982  37.621  26.290  1.00  0.00     0.167 HD
ATOM     62  C   UNL A   1      46.266  33.568  28.534  1.00  0.00     0.034 A 
ATOM     63  C   UNL A   1      45.198  40.625  25.654  1.00  0.00     0.034 A 
ATOM     64  C   UNL A   1      47.091  34.408  27.705  1.00  0.00     0.049 A 
ATOM     65  C   UNL A   1      46.531  40.035  25.661  1.00  0.00     0.074 A 
ATOM     66  C   UNL A   1      47.182  34.529  26.331  1.00  0.00     0.029 A 
ATOM     67  N   UNL A   1      47.535  35.600  28.243  1.00  0.00    -0.354 N 
ATOM     68  N   UNL A   1      47.291  40.031  26.706  1.00  0.00    -0.248 NA
ATOM     69  C   UNL A   1      47.022  39.316  24.502  1.00  0.00     0.031 C 
ATOM     70  C   UNL A   1      47.112  35.917  26.114  1.00  0.00     0.029 A 
ATOM     71  C   UNL A   1      47.541  36.568  27.264  1.00  0.00     0.049 A 
ATOM     72  H   UNL A   1      47.805  35.737  29.179  1.00  0.00     0.167 HD
ATOM     73  C   UNL A   1      47.885  38.814  26.570  1.00  0.00     0.074 A 
ATOM     74  C   UNL A   1      47.897  38.539  25.138  1.00  0.00     0.031 C 
ATOM     75  C   UNL A   1      47.771  37.949  27.612  1.00  0.00     0.034 A 
BRANCH  62  76
ATOM     76  C   UNL A   1      46.346  33.526  30.041  1.00  0.00     0.023 A 
ATOM     77  C   UNL A   1      45.534  34.396  30.778  1.00  0.00     0.031 A 
ATOM     78  C   UNL A   1      47.311  32.772  30.751  1.00  0.00     0.131 A 
ATOM     79  C   UNL A   1      45.760  34.560  32.155  1.00  0.00     0.055 A 
ATOM     80  C   UNL A   1      47.563  32.974  32.107  1.00  0.00     0.041 A 
ATOM     81  F   UNL A   1      48.035  31.823  30.139  1.00  0.00    -0.206 F 
ATOM     82  C   UNL A   1      46.787  33.880  32.818  1.00  0.00     0.022 A 
BRANCH  79  83
ATOM     83  S   UNL A   1      44.703  35.711  33.069  1.00  0.00     0.124 S 
ATOM     84  O   UNL A   1      45.544  36.050  34.216  1.00  0.00    -0.237 OA
ATOM     85  O   UNL A   1      44.491  36.781  32.099  1.00  0.00    -0.237 OA
ATOM     86  O   UNL A   1      43.519  34.918  33.392  1.00  0.00    -0.744 OA
ENDBRANCH  79  83
ENDBRANCH  62  76
BRANCH  63  87
ATOM     87  C   UNL A   1      45.400  42.096  24.873  1.00  0.00     0.023 A 
ATOM     88  C   UNL A   1      46.000  42.331  23.518  1.00  0.00     0.031 A 
ATOM     89  C   UNL A   1      44.577  43.160  25.266  1.00  0.00     0.131 A 
ATOM     90  C   UNL A   1      45.737  43.523  22.709  1.00  0.00     0.055 A 
ATOM     91  C   UNL A   1      44.311  44.305  24.454  1.00  0.00     0.041 A 
ATOM     92  F   UNL A   1      43.900  43.082  26.419  1.00  0.00    -0.206 F 
ATOM     93  C   UNL A   1      44.864  44.487  23.188  1.00  0.00     0.022 A 
BRANCH  90  94
ATOM     94  S   UNL A   1      46.370  43.861  20.953  1.00  0.00     0.124 S 
ATOM     95  O   UNL A   1      47.485  44.776  21.167  1.00  0.00    -0.237 OA
ATOM     96  O   UNL A   1      46.700  42.532  20.451  1.00  0.00    -0.237 OA
ATOM     97  O   UNL A   1      45.220  44.477  20.278  1.00  0.00    -0.744 OA
ENDBRANCH  90  94
ENDBRANCH  63  87
BRANCH  75  98
ATOM     98  C   UNL A   1      47.781  38.534  29.022  1.00  0.00     0.023 A 
ATOM     99  C   UNL A   1      46.684  39.144  29.689  1.00  0.00     0.031 A 
ATOM    100  C   UNL A   1      49.012  38.568  29.695  1.00  0.00     0.131 A 
ATOM    101  C   UNL A   1      46.854  39.781  30.937  1.00  0.00     0.055 A 
ATOM    102  C   UNL A   1      49.173  39.162  30.949  1.00  0.00     0.041 A 
ATOM    103  F   UNL A   1      50.104  38.027  29.130  1.00  0.00    -0.206 F 
ATOM    104  C   UNL A   1      48.097  39.786  31.569  1.00  0.00     0.022 A 
BRANCH 101 105
ATOM    105  S   UNL A   1      45.472  40.688  31.718  1.00  0.00     0.124 S 
ATOM    106  O   UNL A   1      45.615  42.039  31.189  1.00  0.00    -0.237 OA
ATOM    107  O   UNL A   1      44.303  39.945  31.257  1.00  0.00    -0.237 OA
ATOM    108  O   UNL A   1      45.748  40.564  33.151  1.00  0.00    -0.744 OA
ENDBRANCH 101 105
ENDBRANCH  75  98
ENDBRANCH  49  50
ENDBRANCH  42  44
ENDBRANCH  41  42
ENDBRANCH  40  41
ENDBRANCH  39  40
ENDBRANCH  38  39
ENDBRANCH   1  38
TORSDOF 25
ENDMDL
