MODEL 1
REMARK VINA RESULT:      -9.6      0.000      0.000
REMARK SMILES O=C(OCCOCCOC(=O)[C@@H](CO)NS(=O)(=O)c1cc[nH]c1)c1ccc(-c2c3nc(c(-c4cc(S(=O)(=O)[O-])ccc4F)c4ccc([nH]4)c(-c4cc(S(=O)(=O)[O-])ccc4F)c4nc(c(-c5cc(S(=O)(=O)[O-])ccc5F)c5ccc2[nH]5)C=C4)C=C3)cc1
REMARK SMILES IDX 6 1 5 2 4 3 3 4 2 5 1 6 24 7 25 8 86 9 26 10 85 11 27 12
REMARK SMILES IDX 28 13 29 14 79 15 30 16 84 17 78 18 80 19 31 20 83 21 77 22
REMARK SMILES IDX 76 23 32 25 64 26 44 27 63 28 45 29 48 30 62 31 81 32 46 33
REMARK SMILES IDX 47 34 61 36 82 37 49 38 33 39 34 40 42 41 35 42 41 43 43 44
REMARK SMILES IDX 40 45 36 46 37 47 38 48 39 49 65 50 66 51 74 52 67 53 73 54
REMARK SMILES IDX 75 55 72 56 68 57 69 58 70 59 71 60 50 61 51 62 59 63 52 64
REMARK SMILES IDX 58 65 60 66 57 67 53 68 54 69 55 70 56 71 7 72 8 73 9 74
REMARK SMILES IDX 10 75 11 76 12 77 13 78 14 79 15 81 16 83 17 84 18 85 19 86
REMARK SMILES IDX 20 87 23 88 21 89 22 90
REMARK H PARENT 80 24 48 35 14 80 15 82 22 91
REMARK Flexibility Score: inf
ROOT
ATOM      1  O   UNL A   1      31.615  29.667  25.638  1.00  0.00    -0.374 OA
ENDROOT
BRANCH   1   2
ATOM      2  C   UNL A   1      31.814  30.399  26.846  1.00  0.00     0.202 C 
BRANCH   2   3
ATOM      3  C   UNL A   1      33.035  31.333  26.940  1.00  0.00     0.261 C 
BRANCH   3   4
ATOM      4  O   UNL A   1      32.672  32.657  27.381  1.00  0.00    -0.460 OA
BRANCH   4   5
ATOM      5  C   UNL A   1      33.336  33.483  28.230  1.00  0.00     0.338 C 
ATOM      6  O   UNL A   1      32.771  34.488  28.652  1.00  0.00    -0.246 OA
BRANCH   5   7
ATOM      7  C   UNL A   1      34.705  33.163  28.703  1.00  0.00     0.060 A 
ATOM      8  C   UNL A   1      35.859  33.538  28.021  1.00  0.00     0.016 A 
ATOM      9  C   UNL A   1      34.827  32.425  29.890  1.00  0.00     0.016 A 
ATOM     10  C   UNL A   1      37.063  32.934  28.315  1.00  0.00     0.010 A 
ATOM     11  C   UNL A   1      36.067  31.923  30.278  1.00  0.00     0.010 A 
ATOM     12  C   UNL A   1      37.166  32.111  29.437  1.00  0.00    -0.014 A 
BRANCH  12  13
ATOM     13  C   UNL A   1      38.524  31.623  29.754  1.00  0.00     0.031 A 
ATOM     14  C   UNL A   1      39.375  32.746  30.368  1.00  0.00     0.074 A 
ATOM     15  C   UNL A   1      38.837  30.354  29.357  1.00  0.00     0.049 A 
ATOM     16  N   UNL A   1      40.623  33.058  30.186  1.00  0.00    -0.248 NA
ATOM     17  C   UNL A   1      38.670  33.792  31.167  1.00  0.00     0.031 C 
ATOM     18  C   UNL A   1      37.898  29.406  28.712  1.00  0.00     0.029 A 
ATOM     19  N   UNL A   1      39.992  29.605  29.396  1.00  0.00    -0.354 N 
ATOM     20  C   UNL A   1      40.902  34.146  31.048  1.00  0.00     0.074 A 
ATOM     21  C   UNL A   1      39.630  34.680  31.426  1.00  0.00     0.031 C 
ATOM     22  C   UNL A   1      38.521  28.252  28.384  1.00  0.00     0.029 A 
ATOM     23  C   UNL A   1      39.911  28.323  28.790  1.00  0.00     0.049 A 
ATOM     24  H   UNL A   1      40.818  29.937  29.817  1.00  0.00     0.167 HD
ATOM     25  C   UNL A   1      42.139  34.402  31.574  1.00  0.00     0.034 A 
ATOM     26  C   UNL A   1      40.900  27.394  28.600  1.00  0.00     0.034 A 
ATOM     27  C   UNL A   1      43.079  33.444  31.083  1.00  0.00     0.049 A 
ATOM     28  C   UNL A   1      42.080  27.951  29.282  1.00  0.00     0.074 A 
ATOM     29  C   UNL A   1      43.677  33.219  29.874  1.00  0.00     0.029 A 
ATOM     30  N   UNL A   1      43.324  32.359  31.898  1.00  0.00    -0.354 N 
ATOM     31  N   UNL A   1      42.223  28.030  30.570  1.00  0.00    -0.248 NA
ATOM     32  C   UNL A   1      43.161  28.529  28.474  1.00  0.00     0.031 C 
ATOM     33  C   UNL A   1      43.883  31.821  29.851  1.00  0.00     0.029 A 
ATOM     34  C   UNL A   1      43.502  31.272  31.083  1.00  0.00     0.049 A 
ATOM     35  H   UNL A   1      43.364  32.364  32.882  1.00  0.00     0.167 HD
ATOM     36  C   UNL A   1      43.244  28.935  30.712  1.00  0.00     0.074 A 
ATOM     37  C   UNL A   1      43.958  28.946  29.454  1.00  0.00     0.031 C 
ATOM     38  C   UNL A   1      43.106  29.966  31.585  1.00  0.00     0.034 A 
BRANCH  25  39
ATOM     39  C   UNL A   1      42.593  35.250  32.750  1.00  0.00     0.023 A 
ATOM     40  C   UNL A   1      41.886  35.051  33.965  1.00  0.00     0.031 A 
ATOM     41  C   UNL A   1      43.419  36.381  32.711  1.00  0.00     0.131 A 
ATOM     42  C   UNL A   1      41.879  36.012  34.985  1.00  0.00     0.055 A 
ATOM     43  C   UNL A   1      43.474  37.304  33.768  1.00  0.00     0.041 A 
ATOM     44  F   UNL A   1      44.152  36.697  31.637  1.00  0.00    -0.206 F 
ATOM     45  C   UNL A   1      42.670  37.147  34.892  1.00  0.00     0.022 A 
BRANCH  42  46
ATOM     46  S   UNL A   1      40.661  35.833  36.321  1.00  0.00     0.124 S 
ATOM     47  O   UNL A   1      40.874  34.454  36.748  1.00  0.00    -0.237 OA
ATOM     48  O   UNL A   1      41.088  36.867  37.259  1.00  0.00    -0.237 OA
ATOM     49  O   UNL A   1      39.388  36.088  35.651  1.00  0.00    -0.744 OA
ENDBRANCH  42  46
ENDBRANCH  25  39
BRANCH  26  50
ATOM     50  C   UNL A   1      41.106  26.069  27.887  1.00  0.00     0.023 A 
ATOM     51  C   UNL A   1      42.191  25.726  27.063  1.00  0.00     0.031 A 
ATOM     52  C   UNL A   1      40.157  25.016  28.084  1.00  0.00     0.131 A 
ATOM     53  C   UNL A   1      42.318  24.403  26.551  1.00  0.00     0.055 A 
ATOM     54  C   UNL A   1      40.323  23.704  27.642  1.00  0.00     0.041 A 
ATOM     55  F   UNL A   1      39.000  25.208  28.734  1.00  0.00    -0.206 F 
ATOM     56  C   UNL A   1      41.420  23.387  26.879  1.00  0.00     0.022 A 
BRANCH  53  57
ATOM     57  S   UNL A   1      43.682  23.939  25.444  1.00  0.00     0.124 S 
ATOM     58  O   UNL A   1      43.955  25.197  24.757  1.00  0.00    -0.237 OA
ATOM     59  O   UNL A   1      44.715  23.473  26.364  1.00  0.00    -0.237 OA
ATOM     60  O   UNL A   1      43.086  22.892  24.613  1.00  0.00    -0.744 OA
ENDBRANCH  53  57
ENDBRANCH  26  50
BRANCH  38  61
ATOM     61  C   UNL A   1      42.124  29.689  32.732  1.00  0.00     0.023 A 
ATOM     62  C   UNL A   1      40.974  30.482  32.915  1.00  0.00     0.031 A 
ATOM     63  C   UNL A   1      42.358  28.730  33.733  1.00  0.00     0.131 A 
ATOM     64  C   UNL A   1      40.158  30.328  34.057  1.00  0.00     0.055 A 
ATOM     65  C   UNL A   1      41.555  28.572  34.868  1.00  0.00     0.041 A 
ATOM     66  F   UNL A   1      43.390  27.898  33.649  1.00  0.00    -0.206 F 
ATOM     67  C   UNL A   1      40.448  29.381  35.039  1.00  0.00     0.022 A 
BRANCH  64  68
ATOM     68  S   UNL A   1      38.678  31.359  34.248  1.00  0.00     0.124 S 
ATOM     69  O   UNL A   1      39.227  32.710  34.267  1.00  0.00    -0.237 OA
ATOM     70  O   UNL A   1      37.890  31.005  33.072  1.00  0.00    -0.237 OA
ATOM     71  O   UNL A   1      38.109  30.908  35.520  1.00  0.00    -0.744 OA
ENDBRANCH  64  68
ENDBRANCH  38  61
ENDBRANCH  12  13
ENDBRANCH   5   7
ENDBRANCH   4   5
ENDBRANCH   3   4
ENDBRANCH   2   3
ENDBRANCH   1   2
BRANCH   1  72
ATOM     72  C   UNL A   1      32.170  28.354  25.499  1.00  0.00     0.202 C 
BRANCH  72  73
ATOM     73  C   UNL A   1      31.579  27.236  26.361  1.00  0.00     0.261 C 
BRANCH  73  74
ATOM     74  O   UNL A   1      31.025  26.202  25.530  1.00  0.00    -0.462 OA
BRANCH  74  75
ATOM     75  C   UNL A   1      30.644  25.055  26.155  1.00  0.00     0.326 C 
ATOM     76  O   UNL A   1      29.531  24.876  26.642  1.00  0.00    -0.250 OA
BRANCH  75  77
ATOM     77  C   UNL A   1      31.713  23.956  26.077  1.00  0.00     0.205 C 
BRANCH  77  78
ATOM     78  C   UNL A   1      31.819  23.088  27.332  1.00  0.00     0.188 C 
BRANCH  78  79
ATOM     79  O   UNL A   1      30.576  22.462  27.632  1.00  0.00    -0.394 OA
ATOM     80  H   UNL A   1      29.907  23.141  27.815  1.00  0.00     0.210 HD
ENDBRANCH  78  79
ENDBRANCH  77  78
BRANCH  77  81
ATOM     81  N   UNL A   1      31.440  23.124  24.876  1.00  0.00    -0.194 NA
ATOM     82  H   UNL A   1      30.622  23.521  24.415  1.00  0.00     0.142 HD
BRANCH  81  83
ATOM     83  S   UNL A   1      32.635  22.969  23.709  1.00  0.00     0.242 S 
ATOM     84  O   UNL A   1      33.878  22.598  24.370  1.00  0.00    -0.207 OA
ATOM     85  O   UNL A   1      32.088  22.185  22.642  1.00  0.00    -0.207 OA
BRANCH  83  86
ATOM     86  C   UNL A   1      33.002  24.510  23.006  1.00  0.00     0.099 A 
ATOM     87  C   UNL A   1      32.493  25.022  21.782  1.00  0.00     0.041 A 
ATOM     88  C   UNL A   1      33.789  25.500  23.563  1.00  0.00     0.104 A 
ATOM     89  C   UNL A   1      33.016  26.284  21.614  1.00  0.00     0.083 A 
ATOM     90  N   UNL A   1      33.787  26.573  22.709  1.00  0.00    -0.366 N 
ATOM     91  H   UNL A   1      34.265  27.420  22.862  1.00  0.00     0.165 HD
ENDBRANCH  83  86
ENDBRANCH  81  83
ENDBRANCH  77  81
ENDBRANCH  75  77
ENDBRANCH  74  75
ENDBRANCH  73  74
ENDBRANCH  72  73
ENDBRANCH   1  72
TORSDOF 22
ENDMDL
MODEL 2
REMARK VINA RESULT:      -9.3      3.721      9.451
REMARK SMILES O=C(OCCOCCOC(=O)[C@@H](CO)NS(=O)(=O)c1cc[nH]c1)c1ccc(-c2c3nc(c(-c4cc(S(=O)(=O)[O-])ccc4F)c4ccc([nH]4)c(-c4cc(S(=O)(=O)[O-])ccc4F)c4nc(c(-c5cc(S(=O)(=O)[O-])ccc5F)c5ccc2[nH]5)C=C4)C=C3)cc1
REMARK SMILES IDX 6 1 5 2 4 3 3 4 2 5 1 6 24 7 25 8 86 9 26 10 85 11 27 12
REMARK SMILES IDX 28 13 29 14 79 15 30 16 84 17 78 18 80 19 31 20 83 21 77 22
REMARK SMILES IDX 76 23 32 25 64 26 44 27 63 28 45 29 48 30 62 31 81 32 46 33
REMARK SMILES IDX 47 34 61 36 82 37 49 38 33 39 34 40 42 41 35 42 41 43 43 44
REMARK SMILES IDX 40 45 36 46 37 47 38 48 39 49 65 50 66 51 74 52 67 53 73 54
REMARK SMILES IDX 75 55 72 56 68 57 69 58 70 59 71 60 50 61 51 62 59 63 52 64
REMARK SMILES IDX 58 65 60 66 57 67 53 68 54 69 55 70 56 71 7 72 8 73 9 74
REMARK SMILES IDX 10 75 11 76 12 77 13 78 14 79 15 81 16 83 17 84 18 85 19 86
REMARK SMILES IDX 20 87 23 88 21 89 22 90
REMARK H PARENT 80 24 48 35 14 80 15 82 22 91
REMARK Flexibility Score: inf
ROOT
ATOM      1  O   UNL A   1      36.084  21.127  25.203  1.00  0.00    -0.374 OA
ENDROOT
BRANCH   1   2
ATOM      2  C   UNL A   1      37.420  21.246  24.719  1.00  0.00     0.202 C 
BRANCH   2   3
ATOM      3  C   UNL A   1      38.551  21.453  25.743  1.00  0.00     0.261 C 
BRANCH   3   4
ATOM      4  O   UNL A   1      39.539  20.403  25.681  1.00  0.00    -0.460 OA
BRANCH   4   5
ATOM      5  C   UNL A   1      40.859  20.457  25.998  1.00  0.00     0.338 C 
ATOM      6  O   UNL A   1      41.587  19.518  25.689  1.00  0.00    -0.246 OA
BRANCH   5   7
ATOM      7  C   UNL A   1      41.446  21.651  26.653  1.00  0.00     0.060 A 
ATOM      8  C   UNL A   1      41.587  21.777  28.032  1.00  0.00     0.016 A 
ATOM      9  C   UNL A   1      41.857  22.709  25.828  1.00  0.00     0.016 A 
ATOM     10  C   UNL A   1      41.815  23.015  28.592  1.00  0.00     0.010 A 
ATOM     11  C   UNL A   1      42.228  23.929  26.388  1.00  0.00     0.010 A 
ATOM     12  C   UNL A   1      42.121  24.100  27.769  1.00  0.00    -0.014 A 
BRANCH  12  13
ATOM     13  C   UNL A   1      42.489  25.350  28.464  1.00  0.00     0.031 A 
ATOM     14  C   UNL A   1      43.928  25.271  29.000  1.00  0.00     0.074 A 
ATOM     15  C   UNL A   1      41.506  26.285  28.626  1.00  0.00     0.049 A 
ATOM     16  N   UNL A   1      44.437  25.685  30.121  1.00  0.00    -0.248 NA
ATOM     17  C   UNL A   1      44.904  24.433  28.242  1.00  0.00     0.031 C 
ATOM     18  C   UNL A   1      40.129  26.177  28.088  1.00  0.00     0.029 A 
ATOM     19  N   UNL A   1      41.447  27.498  29.277  1.00  0.00    -0.354 N 
ATOM     20  C   UNL A   1      45.824  25.403  30.068  1.00  0.00     0.074 A 
ATOM     21  C   UNL A   1      45.987  24.443  29.020  1.00  0.00     0.031 C 
ATOM     22  C   UNL A   1      39.375  27.232  28.467  1.00  0.00     0.029 A 
ATOM     23  C   UNL A   1      40.177  28.134  29.271  1.00  0.00     0.049 A 
ATOM     24  H   UNL A   1      42.233  27.896  29.715  1.00  0.00     0.167 HD
ATOM     25  C   UNL A   1      46.775  26.131  30.730  1.00  0.00     0.034 A 
ATOM     26  C   UNL A   1      39.789  29.291  29.893  1.00  0.00     0.034 A 
ATOM     27  C   UNL A   1      46.146  27.162  31.494  1.00  0.00     0.049 A 
ATOM     28  C   UNL A   1      41.020  29.833  30.491  1.00  0.00     0.074 A 
ATOM     29  C   UNL A   1      45.386  27.185  32.631  1.00  0.00     0.029 A 
ATOM     30  N   UNL A   1      46.081  28.406  30.902  1.00  0.00    -0.354 N 
ATOM     31  N   UNL A   1      41.995  30.368  29.821  1.00  0.00    -0.248 NA
ATOM     32  C   UNL A   1      41.220  29.712  31.940  1.00  0.00     0.031 C 
ATOM     33  C   UNL A   1      44.536  28.300  32.450  1.00  0.00     0.029 A 
ATOM     34  C   UNL A   1      44.886  28.967  31.267  1.00  0.00     0.049 A 
ATOM     35  H   UNL A   1      46.766  28.815  30.325  1.00  0.00     0.167 HD
ATOM     36  C   UNL A   1      43.031  30.354  30.721  1.00  0.00     0.074 A 
ATOM     37  C   UNL A   1      42.431  30.255  32.033  1.00  0.00     0.031 C 
ATOM     38  C   UNL A   1      44.244  29.880  30.336  1.00  0.00     0.034 A 
BRANCH  25  39
ATOM     39  C   UNL A   1      48.280  26.246  30.553  1.00  0.00     0.023 A 
ATOM     40  C   UNL A   1      48.717  26.833  29.337  1.00  0.00     0.031 A 
ATOM     41  C   UNL A   1      49.273  25.601  31.303  1.00  0.00     0.131 A 
ATOM     42  C   UNL A   1      50.010  26.631  28.837  1.00  0.00     0.055 A 
ATOM     43  C   UNL A   1      50.592  25.467  30.838  1.00  0.00     0.041 A 
ATOM     44  F   UNL A   1      49.015  25.006  32.473  1.00  0.00    -0.206 F 
ATOM     45  C   UNL A   1      50.956  25.943  29.583  1.00  0.00     0.022 A 
BRANCH  42  46
ATOM     46  S   UNL A   1      50.348  27.107  27.118  1.00  0.00     0.124 S 
ATOM     47  O   UNL A   1      49.936  25.916  26.382  1.00  0.00    -0.237 OA
ATOM     48  O   UNL A   1      49.499  28.283  26.958  1.00  0.00    -0.237 OA
ATOM     49  O   UNL A   1      51.785  27.372  27.118  1.00  0.00    -0.744 OA
ENDBRANCH  42  46
ENDBRANCH  25  39
BRANCH  26  50
ATOM     50  C   UNL A   1      38.517  30.080  30.156  1.00  0.00     0.023 A 
ATOM     51  C   UNL A   1      38.140  31.283  29.538  1.00  0.00     0.031 A 
ATOM     52  C   UNL A   1      37.553  29.560  31.078  1.00  0.00     0.131 A 
ATOM     53  C   UNL A   1      36.861  31.856  29.795  1.00  0.00     0.055 A 
ATOM     54  C   UNL A   1      36.275  30.083  31.270  1.00  0.00     0.041 A 
ATOM     55  F   UNL A   1      37.804  28.492  31.849  1.00  0.00    -0.206 F 
ATOM     56  C   UNL A   1      35.916  31.235  30.613  1.00  0.00     0.022 A 
BRANCH  53  57
ATOM     57  S   UNL A   1      36.360  33.436  29.050  1.00  0.00     0.124 S 
ATOM     58  O   UNL A   1      37.598  34.205  29.113  1.00  0.00    -0.237 OA
ATOM     59  O   UNL A   1      35.912  33.048  27.716  1.00  0.00    -0.237 OA
ATOM     60  O   UNL A   1      35.295  33.894  29.944  1.00  0.00    -0.744 OA
ENDBRANCH  53  57
ENDBRANCH  26  50
BRANCH  38  61
ATOM     61  C   UNL A   1      44.504  29.975  28.825  1.00  0.00     0.023 A 
ATOM     62  C   UNL A   1      44.738  28.820  28.052  1.00  0.00     0.031 A 
ATOM     63  C   UNL A   1      44.649  31.195  28.143  1.00  0.00     0.131 A 
ATOM     64  C   UNL A   1      45.132  28.918  26.700  1.00  0.00     0.055 A 
ATOM     65  C   UNL A   1      45.039  31.301  26.804  1.00  0.00     0.041 A 
ATOM     66  F   UNL A   1      44.415  32.349  28.757  1.00  0.00    -0.206 F 
ATOM     67  C   UNL A   1      45.291  30.155  26.073  1.00  0.00     0.022 A 
BRANCH  64  68
ATOM     68  S   UNL A   1      45.410  27.408  25.734  1.00  0.00     0.124 S 
ATOM     69  O   UNL A   1      45.799  27.929  24.429  1.00  0.00    -0.237 OA
ATOM     70  O   UNL A   1      46.459  26.735  26.493  1.00  0.00    -0.237 OA
ATOM     71  O   UNL A   1      44.109  26.737  25.767  1.00  0.00    -0.744 OA
ENDBRANCH  64  68
ENDBRANCH  38  61
ENDBRANCH  12  13
ENDBRANCH   5   7
ENDBRANCH   4   5
ENDBRANCH   3   4
ENDBRANCH   2   3
ENDBRANCH   1   2
BRANCH   1  72
ATOM     72  C   UNL A   1      35.218  22.268  25.195  1.00  0.00     0.202 C 
BRANCH  72  73
ATOM     73  C   UNL A   1      34.941  22.943  23.849  1.00  0.00     0.261 C 
BRANCH  73  74
ATOM     74  O   UNL A   1      33.700  23.666  23.897  1.00  0.00    -0.462 OA
BRANCH  74  75
ATOM     75  C   UNL A   1      33.059  23.857  22.712  1.00  0.00     0.326 C 
ATOM     76  O   UNL A   1      32.742  22.948  21.950  1.00  0.00    -0.250 OA
BRANCH  75  77
ATOM     77  C   UNL A   1      32.659  25.321  22.485  1.00  0.00     0.205 C 
BRANCH  77  78
ATOM     78  C   UNL A   1      32.370  25.678  21.026  1.00  0.00     0.188 C 
BRANCH  78  79
ATOM     79  O   UNL A   1      33.276  25.022  20.146  1.00  0.00    -0.394 OA
ATOM     80  H   UNL A   1      32.780  24.596  19.429  1.00  0.00     0.210 HD
ENDBRANCH  78  79
ENDBRANCH  77  78
BRANCH  77  81
ATOM     81  N   UNL A   1      31.487  25.624  23.349  1.00  0.00    -0.194 NA
ATOM     82  H   UNL A   1      31.309  24.794  23.914  1.00  0.00     0.142 HD
BRANCH  81  83
ATOM     83  S   UNL A   1      31.572  26.927  24.401  1.00  0.00     0.242 S 
ATOM     84  O   UNL A   1      30.715  26.652  25.545  1.00  0.00    -0.207 OA
ATOM     85  O   UNL A   1      32.959  27.253  24.562  1.00  0.00    -0.207 OA
BRANCH  83  86
ATOM     86  C   UNL A   1      30.849  28.332  23.690  1.00  0.00     0.099 A 
ATOM     87  C   UNL A   1      30.189  28.397  22.434  1.00  0.00     0.041 A 
ATOM     88  C   UNL A   1      30.743  29.583  24.267  1.00  0.00     0.104 A 
ATOM     89  C   UNL A   1      29.740  29.688  22.269  1.00  0.00     0.083 A 
ATOM     90  N   UNL A   1      30.066  30.397  23.396  1.00  0.00    -0.366 N 
ATOM     91  H   UNL A   1      29.847  31.343  23.557  1.00  0.00     0.165 HD
ENDBRANCH  83  86
ENDBRANCH  81  83
ENDBRANCH  77  81
ENDBRANCH  75  77
ENDBRANCH  74  75
ENDBRANCH  73  74
ENDBRANCH  72  73
ENDBRANCH   1  72
TORSDOF 22
ENDMDL
MODEL 3
REMARK VINA RESULT:      -9.2      1.164      2.096
REMARK SMILES O=C(OCCOCCOC(=O)[C@@H](CO)NS(=O)(=O)c1cc[nH]c1)c1ccc(-c2c3nc(c(-c4cc(S(=O)(=O)[O-])ccc4F)c4ccc([nH]4)c(-c4cc(S(=O)(=O)[O-])ccc4F)c4nc(c(-c5cc(S(=O)(=O)[O-])ccc5F)c5ccc2[nH]5)C=C4)C=C3)cc1
REMARK SMILES IDX 6 1 5 2 4 3 3 4 2 5 1 6 24 7 25 8 86 9 26 10 85 11 27 12
REMARK SMILES IDX 28 13 29 14 79 15 30 16 84 17 78 18 80 19 31 20 83 21 77 22
REMARK SMILES IDX 76 23 32 25 64 26 44 27 63 28 45 29 48 30 62 31 81 32 46 33
REMARK SMILES IDX 47 34 61 36 82 37 49 38 33 39 34 40 42 41 35 42 41 43 43 44
REMARK SMILES IDX 40 45 36 46 37 47 38 48 39 49 65 50 66 51 74 52 67 53 73 54
REMARK SMILES IDX 75 55 72 56 68 57 69 58 70 59 71 60 50 61 51 62 59 63 52 64
REMARK SMILES IDX 58 65 60 66 57 67 53 68 54 69 55 70 56 71 7 72 8 73 9 74
REMARK SMILES IDX 10 75 11 76 12 77 13 78 14 79 15 81 16 83 17 84 18 85 19 86
REMARK SMILES IDX 20 87 23 88 21 89 22 90
REMARK H PARENT 80 24 48 35 14 80 15 82 22 91
REMARK Flexibility Score: inf
ROOT
ATOM      1  O   UNL A   1      32.166  29.193  25.869  1.00  0.00    -0.374 OA
ENDROOT
BRANCH   1   2
ATOM      2  C   UNL A   1      31.933  30.516  26.348  1.00  0.00     0.202 C 
BRANCH   2   3
ATOM      3  C   UNL A   1      33.024  31.184  27.205  1.00  0.00     0.261 C 
BRANCH   3   4
ATOM      4  O   UNL A   1      32.683  32.542  27.554  1.00  0.00    -0.460 OA
BRANCH   4   5
ATOM      5  C   UNL A   1      33.392  33.433  28.295  1.00  0.00     0.338 C 
ATOM      6  O   UNL A   1      32.860  34.486  28.635  1.00  0.00    -0.246 OA
BRANCH   5   7
ATOM      7  C   UNL A   1      34.771  33.132  28.750  1.00  0.00     0.060 A 
ATOM      8  C   UNL A   1      35.910  33.489  28.034  1.00  0.00     0.016 A 
ATOM      9  C   UNL A   1      34.919  32.432  29.958  1.00  0.00     0.016 A 
ATOM     10  C   UNL A   1      37.121  32.898  28.323  1.00  0.00     0.010 A 
ATOM     11  C   UNL A   1      36.168  31.947  30.336  1.00  0.00     0.010 A 
ATOM     12  C   UNL A   1      37.250  32.111  29.469  1.00  0.00    -0.014 A 
BRANCH  12  13
ATOM     13  C   UNL A   1      38.615  31.638  29.773  1.00  0.00     0.031 A 
ATOM     14  C   UNL A   1      39.468  32.776  30.355  1.00  0.00     0.074 A 
ATOM     15  C   UNL A   1      38.931  30.363  29.394  1.00  0.00     0.049 A 
ATOM     16  N   UNL A   1      40.711  33.093  30.149  1.00  0.00    -0.248 NA
ATOM     17  C   UNL A   1      38.768  33.831  31.146  1.00  0.00     0.031 C 
ATOM     18  C   UNL A   1      37.989  29.398  28.779  1.00  0.00     0.029 A 
ATOM     19  N   UNL A   1      40.092  29.623  29.429  1.00  0.00    -0.354 N 
ATOM     20  C   UNL A   1      40.995  34.198  30.989  1.00  0.00     0.074 A 
ATOM     21  C   UNL A   1      39.726  34.730  31.375  1.00  0.00     0.031 C 
ATOM     22  C   UNL A   1      38.615  28.243  28.462  1.00  0.00     0.029 A 
ATOM     23  C   UNL A   1      40.011  28.330  28.846  1.00  0.00     0.049 A 
ATOM     24  H   UNL A   1      40.922  29.967  29.832  1.00  0.00     0.167 HD
ATOM     25  C   UNL A   1      42.239  34.471  31.491  1.00  0.00     0.034 A 
ATOM     26  C   UNL A   1      41.002  27.404  28.658  1.00  0.00     0.034 A 
ATOM     27  C   UNL A   1      43.177  33.510  31.003  1.00  0.00     0.049 A 
ATOM     28  C   UNL A   1      42.189  27.980  29.313  1.00  0.00     0.074 A 
ATOM     29  C   UNL A   1      43.759  33.268  29.789  1.00  0.00     0.029 A 
ATOM     30  N   UNL A   1      43.442  32.441  31.833  1.00  0.00    -0.354 N 
ATOM     31  N   UNL A   1      42.350  28.083  30.597  1.00  0.00    -0.248 NA
ATOM     32  C   UNL A   1      43.254  28.552  28.479  1.00  0.00     0.031 C 
ATOM     33  C   UNL A   1      43.974  31.871  29.787  1.00  0.00     0.029 A 
ATOM     34  C   UNL A   1      43.615  31.341  31.035  1.00  0.00     0.049 A 
ATOM     35  H   UNL A   1      43.496  32.464  32.816  1.00  0.00     0.167 HD
ATOM     36  C   UNL A   1      43.367  28.997  30.708  1.00  0.00     0.074 A 
ATOM     37  C   UNL A   1      44.063  28.990  29.440  1.00  0.00     0.031 C 
ATOM     38  C   UNL A   1      43.235  30.042  31.565  1.00  0.00     0.034 A 
BRANCH  25  39
ATOM     39  C   UNL A   1      42.704  35.342  32.645  1.00  0.00     0.023 A 
ATOM     40  C   UNL A   1      42.039  35.137  33.883  1.00  0.00     0.031 A 
ATOM     41  C   UNL A   1      43.498  36.495  32.572  1.00  0.00     0.131 A 
ATOM     42  C   UNL A   1      42.036  36.107  34.894  1.00  0.00     0.055 A 
ATOM     43  C   UNL A   1      43.559  37.429  33.618  1.00  0.00     0.041 A 
ATOM     44  F   UNL A   1      44.190  36.820  31.474  1.00  0.00    -0.206 F 
ATOM     45  C   UNL A   1      42.793  37.262  34.767  1.00  0.00     0.022 A 
BRANCH  42  46
ATOM     46  S   UNL A   1      40.863  35.909  36.267  1.00  0.00     0.124 S 
ATOM     47  O   UNL A   1      40.744  34.458  36.362  1.00  0.00    -0.237 OA
ATOM     48  O   UNL A   1      41.568  36.566  37.363  1.00  0.00    -0.237 OA
ATOM     49  O   UNL A   1      39.668  36.602  35.791  1.00  0.00    -0.744 OA
ENDBRANCH  42  46
ENDBRANCH  25  39
BRANCH  26  50
ATOM     50  C   UNL A   1      41.207  26.068  27.965  1.00  0.00     0.023 A 
ATOM     51  C   UNL A   1      42.284  25.717  27.135  1.00  0.00     0.031 A 
ATOM     52  C   UNL A   1      40.265  25.014  28.191  1.00  0.00     0.131 A 
ATOM     53  C   UNL A   1      42.412  24.386  26.643  1.00  0.00     0.055 A 
ATOM     54  C   UNL A   1      40.433  23.696  27.770  1.00  0.00     0.041 A 
ATOM     55  F   UNL A   1      39.115  25.212  28.851  1.00  0.00    -0.206 F 
ATOM     56  C   UNL A   1      41.523  23.371  26.999  1.00  0.00     0.022 A 
BRANCH  53  57
ATOM     57  S   UNL A   1      43.766  23.909  25.529  1.00  0.00     0.124 S 
ATOM     58  O   UNL A   1      44.738  23.346  26.459  1.00  0.00    -0.237 OA
ATOM     59  O   UNL A   1      43.129  22.964  24.616  1.00  0.00    -0.237 OA
ATOM     60  O   UNL A   1      44.151  25.183  24.920  1.00  0.00    -0.744 OA
ENDBRANCH  53  57
ENDBRANCH  26  50
BRANCH  38  61
ATOM     61  C   UNL A   1      42.272  29.779  32.731  1.00  0.00     0.023 A 
ATOM     62  C   UNL A   1      41.057  30.483  32.846  1.00  0.00     0.031 A 
ATOM     63  C   UNL A   1      42.580  28.931  33.809  1.00  0.00     0.131 A 
ATOM     64  C   UNL A   1      40.249  30.356  33.997  1.00  0.00     0.055 A 
ATOM     65  C   UNL A   1      41.785  28.800  34.953  1.00  0.00     0.041 A 
ATOM     66  F   UNL A   1      43.679  28.186  33.796  1.00  0.00    -0.206 F 
ATOM     67  C   UNL A   1      40.611  29.522  35.055  1.00  0.00     0.022 A 
BRANCH  64  68
ATOM     68  S   UNL A   1      38.684  31.268  34.101  1.00  0.00     0.124 S 
ATOM     69  O   UNL A   1      37.971  30.818  32.911  1.00  0.00    -0.237 OA
ATOM     70  O   UNL A   1      38.141  30.822  35.380  1.00  0.00    -0.237 OA
ATOM     71  O   UNL A   1      39.104  32.670  34.074  1.00  0.00    -0.744 OA
ENDBRANCH  64  68
ENDBRANCH  38  61
ENDBRANCH  12  13
ENDBRANCH   5   7
ENDBRANCH   4   5
ENDBRANCH   3   4
ENDBRANCH   2   3
ENDBRANCH   1   2
BRANCH   1  72
ATOM     72  C   UNL A   1      31.423  28.095  26.412  1.00  0.00     0.202 C 
BRANCH  72  73
ATOM     73  C   UNL A   1      30.966  26.998  25.447  1.00  0.00     0.261 C 
BRANCH  73  74
ATOM     74  O   UNL A   1      32.035  26.638  24.556  1.00  0.00    -0.462 OA
BRANCH  74  75
ATOM     75  C   UNL A   1      31.780  26.743  23.223  1.00  0.00     0.326 C 
ATOM     76  O   UNL A   1      31.522  27.801  22.656  1.00  0.00    -0.250 OA
BRANCH  75  77
ATOM     77  C   UNL A   1      31.973  25.416  22.478  1.00  0.00     0.205 C 
BRANCH  77  78
ATOM     78  C   UNL A   1      32.915  25.497  21.276  1.00  0.00     0.188 C 
BRANCH  78  79
ATOM     79  O   UNL A   1      33.107  24.218  20.684  1.00  0.00    -0.394 OA
ATOM     80  H   UNL A   1      33.793  24.276  20.000  1.00  0.00     0.210 HD
ENDBRANCH  78  79
ENDBRANCH  77  78
BRANCH  77  81
ATOM     81  N   UNL A   1      32.443  24.397  23.453  1.00  0.00    -0.194 NA
ATOM     82  H   UNL A   1      32.876  24.900  24.227  1.00  0.00     0.142 HD
BRANCH  81  83
ATOM     83  S   UNL A   1      31.326  23.337  24.119  1.00  0.00     0.242 S 
ATOM     84  O   UNL A   1      31.101  23.719  25.506  1.00  0.00    -0.207 OA
ATOM     85  O   UNL A   1      30.243  23.220  23.187  1.00  0.00    -0.207 OA
BRANCH  83  86
ATOM     86  C   UNL A   1      31.997  21.746  24.248  1.00  0.00     0.099 A 
ATOM     87  C   UNL A   1      32.274  20.857  23.174  1.00  0.00     0.041 A 
ATOM     88  C   UNL A   1      32.430  21.127  25.405  1.00  0.00     0.104 A 
ATOM     89  C   UNL A   1      32.825  19.717  23.712  1.00  0.00     0.083 A 
ATOM     90  N   UNL A   1      32.933  19.897  25.067  1.00  0.00    -0.366 N 
ATOM     91  H   UNL A   1      33.313  19.246  25.700  1.00  0.00     0.165 HD
ENDBRANCH  83  86
ENDBRANCH  81  83
ENDBRANCH  77  81
ENDBRANCH  75  77
ENDBRANCH  74  75
ENDBRANCH  73  74
ENDBRANCH  72  73
ENDBRANCH   1  72
TORSDOF 22
ENDMDL
