MODEL 1
REMARK VINA RESULT:     -11.5      0.000      0.000
REMARK SMILES O=C(N[C@@H](C(=O)OCCOCCOC(=O)c1ccc(-c2c3nc(c(-c4cc(S(=O)(=O)[O-])ccc4F)c4ccc([nH]4)c(-c4cc(S(=O)(=O)[O-])ccc4F)c4nc(c(-c5cc(S(=O)(=O)[O-])ccc5F)c5ccc2[nH]5)C=C4)C=C3)cc1)c1ccccc1)c1ccc(Br)nc1
REMARK SMILES IDX 11 1 10 2 9 3 8 4 7 5 5 6 6 7 4 8 3 9 1 10 2 11 85 13 86 14
REMARK SMILES IDX 91 15 87 16 90 17 88 18 89 19 79 20 80 21 84 22 81 23 83 24
REMARK SMILES IDX 82 25 12 26 13 27 14 28 15 29 16 30 17 31 78 32 18 33 77 34
REMARK SMILES IDX 19 35 20 36 21 37 71 38 22 39 76 40 70 41 72 42 23 43 75 44
REMARK SMILES IDX 69 45 68 46 24 48 56 49 36 50 55 51 37 52 40 53 54 54 73 55
REMARK SMILES IDX 38 56 39 57 53 59 74 60 41 61 25 62 26 63 34 64 27 65 33 66
REMARK SMILES IDX 35 67 32 68 28 69 29 70 30 71 31 72 57 73 58 74 66 75 59 76
REMARK SMILES IDX 65 77 67 78 64 79 60 80 61 81 62 82 63 83 42 84 43 85 51 86
REMARK SMILES IDX 44 87 50 88 52 89 49 90 45 91 46 92 47 93 48 94
REMARK H PARENT 3 12 72 47 40 58
REMARK Flexibility Score: inf
ROOT
ATOM      1  C   UNL A   1      35.845  20.057  25.055  1.00  0.00     0.202 C 
ENDROOT
BRANCH   1   2
ATOM      2  O   UNL A   1      35.026  19.010  24.539  1.00  0.00    -0.374 OA
BRANCH   2   3
ATOM      3  C   UNL A   1      33.636  19.032  24.861  1.00  0.00     0.202 C 
BRANCH   3   4
ATOM      4  C   UNL A   1      32.698  19.650  23.818  1.00  0.00     0.261 C 
BRANCH   4   5
ATOM      5  O   UNL A   1      32.676  21.085  23.914  1.00  0.00    -0.461 OA
BRANCH   5   6
ATOM      6  C   UNL A   1      32.328  21.738  22.768  1.00  0.00     0.333 C 
ATOM      7  O   UNL A   1      31.836  21.194  21.782  1.00  0.00    -0.249 OA
BRANCH   6   8
ATOM      8  C   UNL A   1      32.577  23.266  22.854  1.00  0.00     0.223 C 
BRANCH   8   9
ATOM      9  N   UNL A   1      32.782  23.940  21.562  1.00  0.00    -0.335 N 
ATOM     10  O   UNL A   1      32.918  25.600  20.054  1.00  0.00    -0.269 OA
ATOM     11  C   UNL A   1      32.758  25.263  21.223  1.00  0.00     0.253 C 
ATOM     12  H   UNL A   1      32.968  23.332  20.810  1.00  0.00     0.165 HD
BRANCH  11  13
ATOM     13  C   UNL A   1      32.470  26.289  22.232  1.00  0.00     0.058 A 
ATOM     14  C   UNL A   1      33.528  27.026  22.761  1.00  0.00     0.018 A 
ATOM     15  C   UNL A   1      31.187  26.558  22.681  1.00  0.00     0.126 A 
ATOM     16  C   UNL A   1      33.254  28.059  23.653  1.00  0.00     0.037 A 
ATOM     17  N   UNL A   1      30.889  27.567  23.535  1.00  0.00    -0.249 NA
ATOM     18  C   UNL A   1      31.930  28.306  23.990  1.00  0.00     0.106 A 
ATOM     19  Br  UNL A   1      31.534  29.766  25.131  1.00  0.00    -0.029 Br
ENDBRANCH  11  13
ENDBRANCH   8   9
BRANCH   8  20
ATOM     20  C   UNL A   1      33.718  23.585  23.827  1.00  0.00    -0.014 A 
ATOM     21  C   UNL A   1      35.075  23.383  23.517  1.00  0.00     0.006 A 
ATOM     22  C   UNL A   1      33.404  24.077  25.107  1.00  0.00     0.006 A 
ATOM     23  C   UNL A   1      36.075  23.646  24.458  1.00  0.00     0.000 A 
ATOM     24  C   UNL A   1      34.404  24.337  26.047  1.00  0.00     0.000 A 
ATOM     25  C   UNL A   1      35.740  24.118  25.723  1.00  0.00     0.000 A 
ENDBRANCH   8  20
ENDBRANCH   6   8
ENDBRANCH   5   6
ENDBRANCH   4   5
ENDBRANCH   3   4
ENDBRANCH   2   3
ENDBRANCH   1   2
BRANCH   1  26
ATOM     26  C   UNL A   1      37.368  19.884  24.967  1.00  0.00     0.261 C 
BRANCH  26  27
ATOM     27  O   UNL A   1      38.088  21.083  25.306  1.00  0.00    -0.460 OA
BRANCH  27  28
ATOM     28  C   UNL A   1      39.202  20.873  26.050  1.00  0.00     0.338 C 
ATOM     29  O   UNL A   1      39.822  19.821  26.153  1.00  0.00    -0.246 OA
BRANCH  28  30
ATOM     30  C   UNL A   1      39.720  22.142  26.589  1.00  0.00     0.060 A 
ATOM     31  C   UNL A   1      39.132  23.324  26.122  1.00  0.00     0.016 A 
ATOM     32  C   UNL A   1      40.812  22.192  27.461  1.00  0.00     0.016 A 
ATOM     33  C   UNL A   1      39.660  24.560  26.485  1.00  0.00     0.010 A 
ATOM     34  C   UNL A   1      41.347  23.438  27.817  1.00  0.00     0.010 A 
ATOM     35  C   UNL A   1      40.795  24.626  27.305  1.00  0.00    -0.014 A 
BRANCH  35  36
ATOM     36  C   UNL A   1      41.454  25.942  27.508  1.00  0.00     0.031 A 
ATOM     37  C   UNL A   1      40.741  27.012  28.289  1.00  0.00     0.074 A 
ATOM     38  C   UNL A   1      42.705  26.152  27.060  1.00  0.00     0.049 A 
ATOM     39  N   UNL A   1      41.154  28.205  28.633  1.00  0.00    -0.248 NA
ATOM     40  C   UNL A   1      39.379  26.693  28.740  1.00  0.00     0.031 C 
ATOM     41  C   UNL A   1      43.507  25.180  26.317  1.00  0.00     0.029 A 
ATOM     42  N   UNL A   1      43.522  27.249  27.170  1.00  0.00    -0.354 N 
ATOM     43  C   UNL A   1      40.107  28.780  29.346  1.00  0.00     0.074 A 
ATOM     44  C   UNL A   1      39.024  27.818  29.344  1.00  0.00     0.031 C 
ATOM     45  C   UNL A   1      44.703  25.725  26.037  1.00  0.00     0.029 A 
ATOM     46  C   UNL A   1      44.742  27.092  26.556  1.00  0.00     0.049 A 
ATOM     47  H   UNL A   1      43.259  28.071  27.643  1.00  0.00     0.167 HD
ATOM     48  C   UNL A   1      40.057  29.992  29.954  1.00  0.00     0.034 A 
ATOM     49  C   UNL A   1      45.769  27.954  26.418  1.00  0.00     0.034 A 
ATOM     50  C   UNL A   1      41.139  30.949  29.932  1.00  0.00     0.049 A 
ATOM     51  C   UNL A   1      45.668  29.320  27.048  1.00  0.00     0.074 A 
ATOM     52  C   UNL A   1      41.203  32.195  30.533  1.00  0.00     0.029 A 
ATOM     53  N   UNL A   1      42.343  30.775  29.259  1.00  0.00    -0.354 N 
ATOM     54  N   UNL A   1      44.683  29.841  27.744  1.00  0.00    -0.248 NA
ATOM     55  C   UNL A   1      46.826  30.209  26.888  1.00  0.00     0.031 C 
ATOM     56  C   UNL A   1      42.409  32.801  30.163  1.00  0.00     0.029 A 
ATOM     57  C   UNL A   1      43.138  31.905  29.399  1.00  0.00     0.049 A 
ATOM     58  H   UNL A   1      42.596  29.967  28.756  1.00  0.00     0.167 HD
ATOM     59  C   UNL A   1      45.115  31.110  28.125  1.00  0.00     0.074 A 
ATOM     60  C   UNL A   1      46.457  31.264  27.599  1.00  0.00     0.031 C 
ATOM     61  C   UNL A   1      44.464  32.059  28.846  1.00  0.00     0.034 A 
BRANCH  48  62
ATOM     62  C   UNL A   1      38.766  30.365  30.645  1.00  0.00     0.023 A 
ATOM     63  C   UNL A   1      37.728  31.034  29.971  1.00  0.00     0.031 A 
ATOM     64  C   UNL A   1      38.584  30.079  32.011  1.00  0.00     0.131 A 
ATOM     65  C   UNL A   1      36.593  31.460  30.679  1.00  0.00     0.055 A 
ATOM     66  C   UNL A   1      37.418  30.435  32.690  1.00  0.00     0.041 A 
ATOM     67  F   UNL A   1      39.547  29.462  32.714  1.00  0.00    -0.206 F 
ATOM     68  C   UNL A   1      36.419  31.144  32.029  1.00  0.00     0.022 A 
BRANCH  65  69
ATOM     69  S   UNL A   1      35.414  32.561  29.848  1.00  0.00     0.124 S 
ATOM     70  O   UNL A   1      34.976  31.732  28.728  1.00  0.00    -0.237 OA
ATOM     71  O   UNL A   1      34.423  32.805  30.889  1.00  0.00    -0.237 OA
ATOM     72  O   UNL A   1      36.226  33.717  29.476  1.00  0.00    -0.744 OA
ENDBRANCH  65  69
ENDBRANCH  48  62
BRANCH  49  73
ATOM     73  C   UNL A   1      46.970  27.568  25.623  1.00  0.00     0.023 A 
ATOM     74  C   UNL A   1      47.104  27.934  24.275  1.00  0.00     0.031 A 
ATOM     75  C   UNL A   1      47.988  26.788  26.200  1.00  0.00     0.131 A 
ATOM     76  C   UNL A   1      48.212  27.486  23.537  1.00  0.00     0.055 A 
ATOM     77  C   UNL A   1      49.111  26.386  25.476  1.00  0.00     0.041 A 
ATOM     78  F   UNL A   1      47.909  26.415  27.488  1.00  0.00    -0.206 F 
ATOM     79  C   UNL A   1      49.222  26.726  24.132  1.00  0.00     0.022 A 
BRANCH  76  80
ATOM     80  S   UNL A   1      48.283  27.857  21.763  1.00  0.00     0.124 S 
ATOM     81  O   UNL A   1      47.048  28.606  21.565  1.00  0.00    -0.237 OA
ATOM     82  O   UNL A   1      49.522  28.621  21.664  1.00  0.00    -0.237 OA
ATOM     83  O   UNL A   1      48.319  26.535  21.141  1.00  0.00    -0.744 OA
ENDBRANCH  76  80
ENDBRANCH  49  73
BRANCH  61  84
ATOM     84  C   UNL A   1      45.219  33.338  29.127  1.00  0.00     0.023 A 
ATOM     85  C   UNL A   1      45.148  34.446  28.262  1.00  0.00     0.031 A 
ATOM     86  C   UNL A   1      46.054  33.438  30.255  1.00  0.00     0.131 A 
ATOM     87  C   UNL A   1      45.948  35.573  28.499  1.00  0.00     0.055 A 
ATOM     88  C   UNL A   1      46.797  34.589  30.522  1.00  0.00     0.041 A 
ATOM     89  F   UNL A   1      46.166  32.413  31.115  1.00  0.00    -0.206 F 
ATOM     90  C   UNL A   1      46.761  35.658  29.632  1.00  0.00     0.022 A 
BRANCH  87  91
ATOM     91  S   UNL A   1      46.009  36.879  27.240  1.00  0.00     0.124 S 
ATOM     92  O   UNL A   1      46.780  36.242  26.178  1.00  0.00    -0.237 OA
ATOM     93  O   UNL A   1      44.594  37.101  26.955  1.00  0.00    -0.237 OA
ATOM     94  O   UNL A   1      46.685  37.982  27.921  1.00  0.00    -0.744 OA
ENDBRANCH  87  91
ENDBRANCH  61  84
ENDBRANCH  35  36
ENDBRANCH  28  30
ENDBRANCH  27  28
ENDBRANCH  26  27
ENDBRANCH   1  26
TORSDOF 20
ENDMDL
MODEL 2
REMARK VINA RESULT:     -11.5      2.042      7.803
REMARK SMILES O=C(N[C@@H](C(=O)OCCOCCOC(=O)c1ccc(-c2c3nc(c(-c4cc(S(=O)(=O)[O-])ccc4F)c4ccc([nH]4)c(-c4cc(S(=O)(=O)[O-])ccc4F)c4nc(c(-c5cc(S(=O)(=O)[O-])ccc5F)c5ccc2[nH]5)C=C4)C=C3)cc1)c1ccccc1)c1ccc(Br)nc1
REMARK SMILES IDX 11 1 10 2 9 3 8 4 7 5 5 6 6 7 4 8 3 9 1 10 2 11 85 13 86 14
REMARK SMILES IDX 91 15 87 16 90 17 88 18 89 19 79 20 80 21 84 22 81 23 83 24
REMARK SMILES IDX 82 25 12 26 13 27 14 28 15 29 16 30 17 31 78 32 18 33 77 34
REMARK SMILES IDX 19 35 20 36 21 37 71 38 22 39 76 40 70 41 72 42 23 43 75 44
REMARK SMILES IDX 69 45 68 46 24 48 56 49 36 50 55 51 37 52 40 53 54 54 73 55
REMARK SMILES IDX 38 56 39 57 53 59 74 60 41 61 25 62 26 63 34 64 27 65 33 66
REMARK SMILES IDX 35 67 32 68 28 69 29 70 30 71 31 72 57 73 58 74 66 75 59 76
REMARK SMILES IDX 65 77 67 78 64 79 60 80 61 81 62 82 63 83 42 84 43 85 51 86
REMARK SMILES IDX 44 87 50 88 52 89 49 90 45 91 46 92 47 93 48 94
REMARK H PARENT 3 12 72 47 40 58
REMARK Flexibility Score: inf
ROOT
ATOM      1  C   UNL A   1      35.430  21.239  25.718  1.00  0.00     0.202 C 
ENDROOT
BRANCH   1   2
ATOM      2  O   UNL A   1      34.167  20.603  25.545  1.00  0.00    -0.374 OA
BRANCH   2   3
ATOM      3  C   UNL A   1      32.995  21.344  25.884  1.00  0.00     0.202 C 
BRANCH   3   4
ATOM      4  C   UNL A   1      32.701  22.589  25.040  1.00  0.00     0.261 C 
BRANCH   4   5
ATOM      5  O   UNL A   1      32.954  23.798  25.778  1.00  0.00    -0.461 OA
BRANCH   5   6
ATOM      6  C   UNL A   1      31.842  24.445  26.231  1.00  0.00     0.333 C 
ATOM      7  O   UNL A   1      31.188  24.097  27.210  1.00  0.00    -0.249 OA
BRANCH   6   8
ATOM      8  C   UNL A   1      31.510  25.711  25.399  1.00  0.00     0.223 C 
BRANCH   8   9
ATOM      9  N   UNL A   1      31.811  25.612  23.961  1.00  0.00    -0.335 N 
ATOM     10  O   UNL A   1      31.762  26.082  21.766  1.00  0.00    -0.269 OA
ATOM     11  C   UNL A   1      31.416  26.380  22.904  1.00  0.00     0.253 C 
ATOM     12  H   UNL A   1      32.400  24.861  23.720  1.00  0.00     0.165 HD
BRANCH  11  13
ATOM     13  C   UNL A   1      30.517  27.524  23.103  1.00  0.00     0.058 A 
ATOM     14  C   UNL A   1      31.072  28.791  23.274  1.00  0.00     0.018 A 
ATOM     15  C   UNL A   1      29.138  27.396  23.129  1.00  0.00     0.126 A 
ATOM     16  C   UNL A   1      30.226  29.892  23.376  1.00  0.00     0.037 A 
ATOM     17  N   UNL A   1      28.291  28.450  23.211  1.00  0.00    -0.249 NA
ATOM     18  C   UNL A   1      28.855  29.678  23.317  1.00  0.00     0.106 A 
ATOM     19  Br  UNL A   1      27.693  31.174  23.363  1.00  0.00    -0.029 Br
ENDBRANCH  11  13
ENDBRANCH   8   9
BRANCH   8  20
ATOM     20  C   UNL A   1      32.157  26.959  26.011  1.00  0.00    -0.014 A 
ATOM     21  C   UNL A   1      33.493  27.330  25.773  1.00  0.00     0.006 A 
ATOM     22  C   UNL A   1      31.397  27.765  26.878  1.00  0.00     0.006 A 
ATOM     23  C   UNL A   1      34.049  28.454  26.393  1.00  0.00     0.000 A 
ATOM     24  C   UNL A   1      31.954  28.884  27.499  1.00  0.00     0.000 A 
ATOM     25  C   UNL A   1      33.282  29.227  27.259  1.00  0.00     0.000 A 
ENDBRANCH   8  20
ENDBRANCH   6   8
ENDBRANCH   5   6
ENDBRANCH   4   5
ENDBRANCH   3   4
ENDBRANCH   2   3
ENDBRANCH   1   2
BRANCH   1  26
ATOM     26  C   UNL A   1      36.640  20.639  24.987  1.00  0.00     0.261 C 
BRANCH  26  27
ATOM     27  O   UNL A   1      37.758  21.543  24.921  1.00  0.00    -0.460 OA
BRANCH  27  28
ATOM     28  C   UNL A   1      38.792  21.212  25.732  1.00  0.00     0.338 C 
ATOM     29  O   UNL A   1      39.358  20.125  25.787  1.00  0.00    -0.246 OA
BRANCH  28  30
ATOM     30  C   UNL A   1      39.313  22.400  26.432  1.00  0.00     0.060 A 
ATOM     31  C   UNL A   1      38.744  23.637  26.103  1.00  0.00     0.016 A 
ATOM     32  C   UNL A   1      40.389  22.330  27.320  1.00  0.00     0.016 A 
ATOM     33  C   UNL A   1      39.276  24.812  26.624  1.00  0.00     0.010 A 
ATOM     34  C   UNL A   1      40.929  23.517  27.836  1.00  0.00     0.010 A 
ATOM     35  C   UNL A   1      40.397  24.765  27.464  1.00  0.00    -0.014 A 
BRANCH  35  36
ATOM     36  C   UNL A   1      41.065  26.038  27.839  1.00  0.00     0.031 A 
ATOM     37  C   UNL A   1      42.470  26.300  27.372  1.00  0.00     0.074 A 
ATOM     38  C   UNL A   1      40.396  26.979  28.529  1.00  0.00     0.049 A 
ATOM     39  N   UNL A   1      43.217  27.362  27.534  1.00  0.00    -0.248 NA
ATOM     40  C   UNL A   1      43.122  25.215  26.622  1.00  0.00     0.031 C 
ATOM     41  C   UNL A   1      39.021  26.851  29.011  1.00  0.00     0.029 A 
ATOM     42  N   UNL A   1      40.781  28.229  28.941  1.00  0.00    -0.354 N 
ATOM     43  C   UNL A   1      44.424  27.081  26.903  1.00  0.00     0.074 A 
ATOM     44  C   UNL A   1      44.323  25.727  26.395  1.00  0.00     0.031 C 
ATOM     45  C   UNL A   1      38.677  27.980  29.653  1.00  0.00     0.029 A 
ATOM     46  C   UNL A   1      39.814  28.899  29.653  1.00  0.00     0.049 A 
ATOM     47  H   UNL A   1      41.667  28.611  28.745  1.00  0.00     0.167 HD
ATOM     48  C   UNL A   1      45.511  27.879  26.752  1.00  0.00     0.034 A 
ATOM     49  C   UNL A   1      39.845  30.109  30.247  1.00  0.00     0.034 A 
ATOM     50  C   UNL A   1      45.604  29.220  27.280  1.00  0.00     0.049 A 
ATOM     51  C   UNL A   1      41.087  30.955  30.120  1.00  0.00     0.074 A 
ATOM     52  C   UNL A   1      46.648  30.123  27.166  1.00  0.00     0.029 A 
ATOM     53  N   UNL A   1      44.622  29.848  28.038  1.00  0.00    -0.354 N 
ATOM     54  N   UNL A   1      42.212  30.688  29.497  1.00  0.00    -0.248 NA
ATOM     55  C   UNL A   1      41.056  32.274  30.764  1.00  0.00     0.031 C 
ATOM     56  C   UNL A   1      46.329  31.262  27.914  1.00  0.00     0.029 A 
ATOM     57  C   UNL A   1      45.053  31.109  28.430  1.00  0.00     0.049 A 
ATOM     58  H   UNL A   1      43.749  29.456  28.264  1.00  0.00     0.167 HD
ATOM     59  C   UNL A   1      43.013  31.817  29.654  1.00  0.00     0.074 A 
ATOM     60  C   UNL A   1      42.231  32.774  30.412  1.00  0.00     0.031 C 
ATOM     61  C   UNL A   1      44.276  32.045  29.210  1.00  0.00     0.034 A 
BRANCH  48  62
ATOM     62  C   UNL A   1      46.703  27.293  26.032  1.00  0.00     0.023 A 
ATOM     63  C   UNL A   1      47.725  26.611  26.717  1.00  0.00     0.031 A 
ATOM     64  C   UNL A   1      46.839  27.449  24.640  1.00  0.00     0.131 A 
ATOM     65  C   UNL A   1      48.868  26.181  26.025  1.00  0.00     0.055 A 
ATOM     66  C   UNL A   1      47.940  26.948  23.945  1.00  0.00     0.041 A 
ATOM     67  F   UNL A   1      45.907  28.109  23.933  1.00  0.00    -0.206 F 
ATOM     68  C   UNL A   1      48.972  26.322  24.639  1.00  0.00     0.022 A 
BRANCH  65  69
ATOM     69  S   UNL A   1      50.283  25.565  26.980  1.00  0.00     0.124 S 
ATOM     70  O   UNL A   1      51.261  25.308  25.926  1.00  0.00    -0.237 OA
ATOM     71  O   UNL A   1      50.576  26.685  27.866  1.00  0.00    -0.237 OA
ATOM     72  O   UNL A   1      49.759  24.369  27.637  1.00  0.00    -0.744 OA
ENDBRANCH  65  69
ENDBRANCH  48  62
BRANCH  49  73
ATOM     73  C   UNL A   1      38.678  30.583  31.043  1.00  0.00     0.023 A 
ATOM     74  C   UNL A   1      37.594  31.238  30.436  1.00  0.00     0.031 A 
ATOM     75  C   UNL A   1      38.652  30.420  32.440  1.00  0.00     0.131 A 
ATOM     76  C   UNL A   1      36.550  31.740  31.229  1.00  0.00     0.055 A 
ATOM     77  C   UNL A   1      37.589  30.878  33.218  1.00  0.00     0.041 A 
ATOM     78  F   UNL A   1      39.663  29.797  33.069  1.00  0.00    -0.206 F 
ATOM     79  C   UNL A   1      36.533  31.553  32.613  1.00  0.00     0.022 A 
BRANCH  76  80
ATOM     80  S   UNL A   1      35.237  32.703  30.429  1.00  0.00     0.124 S 
ATOM     81  O   UNL A   1      34.993  31.927  29.219  1.00  0.00    -0.237 OA
ATOM     82  O   UNL A   1      34.183  32.671  31.438  1.00  0.00    -0.237 OA
ATOM     83  O   UNL A   1      35.855  34.011  30.219  1.00  0.00    -0.744 OA
ENDBRANCH  76  80
ENDBRANCH  49  73
BRANCH  61  84
ATOM     84  C   UNL A   1      44.872  33.400  29.516  1.00  0.00     0.023 A 
ATOM     85  C   UNL A   1      44.640  34.515  28.690  1.00  0.00     0.031 A 
ATOM     86  C   UNL A   1      45.717  33.570  30.628  1.00  0.00     0.131 A 
ATOM     87  C   UNL A   1      45.299  35.727  28.947  1.00  0.00     0.055 A 
ATOM     88  C   UNL A   1      46.317  34.796  30.917  1.00  0.00     0.041 A 
ATOM     89  F   UNL A   1      45.978  32.541  31.451  1.00  0.00    -0.206 F 
ATOM     90  C   UNL A   1      46.124  35.879  30.064  1.00  0.00     0.022 A 
BRANCH  87  91
ATOM     91  S   UNL A   1      45.163  37.067  27.731  1.00  0.00     0.124 S 
ATOM     92  O   UNL A   1      44.305  36.468  26.714  1.00  0.00    -0.237 OA
ATOM     93  O   UNL A   1      44.565  38.141  28.518  1.00  0.00    -0.237 OA
ATOM     94  O   UNL A   1      46.546  37.297  27.317  1.00  0.00    -0.744 OA
ENDBRANCH  87  91
ENDBRANCH  61  84
ENDBRANCH  35  36
ENDBRANCH  28  30
ENDBRANCH  27  28
ENDBRANCH  26  27
ENDBRANCH   1  26
TORSDOF 20
ENDMDL
MODEL 3
REMARK VINA RESULT:     -11.5      1.408      2.070
REMARK SMILES O=C(N[C@@H](C(=O)OCCOCCOC(=O)c1ccc(-c2c3nc(c(-c4cc(S(=O)(=O)[O-])ccc4F)c4ccc([nH]4)c(-c4cc(S(=O)(=O)[O-])ccc4F)c4nc(c(-c5cc(S(=O)(=O)[O-])ccc5F)c5ccc2[nH]5)C=C4)C=C3)cc1)c1ccccc1)c1ccc(Br)nc1
REMARK SMILES IDX 11 1 10 2 9 3 8 4 7 5 5 6 6 7 4 8 3 9 1 10 2 11 85 13 86 14
REMARK SMILES IDX 91 15 87 16 90 17 88 18 89 19 79 20 80 21 84 22 81 23 83 24
REMARK SMILES IDX 82 25 12 26 13 27 14 28 15 29 16 30 17 31 78 32 18 33 77 34
REMARK SMILES IDX 19 35 20 36 21 37 71 38 22 39 76 40 70 41 72 42 23 43 75 44
REMARK SMILES IDX 69 45 68 46 24 48 56 49 36 50 55 51 37 52 40 53 54 54 73 55
REMARK SMILES IDX 38 56 39 57 53 59 74 60 41 61 25 62 26 63 34 64 27 65 33 66
REMARK SMILES IDX 35 67 32 68 28 69 29 70 30 71 31 72 57 73 58 74 66 75 59 76
REMARK SMILES IDX 65 77 67 78 64 79 60 80 61 81 62 82 63 83 42 84 43 85 51 86
REMARK SMILES IDX 44 87 50 88 52 89 49 90 45 91 46 92 47 93 48 94
REMARK H PARENT 3 12 72 47 40 58
REMARK Flexibility Score: inf
ROOT
ATOM      1  C   UNL A   1      35.716  20.586  24.999  1.00  0.00     0.202 C 
ENDROOT
BRANCH   1   2
ATOM      2  O   UNL A   1      35.464  21.810  24.314  1.00  0.00    -0.374 OA
BRANCH   2   3
ATOM      3  C   UNL A   1      34.988  22.917  25.078  1.00  0.00     0.202 C 
BRANCH   3   4
ATOM      4  C   UNL A   1      33.804  22.649  26.012  1.00  0.00     0.261 C 
BRANCH   4   5
ATOM      5  O   UNL A   1      33.395  23.843  26.702  1.00  0.00    -0.461 OA
BRANCH   5   6
ATOM      6  C   UNL A   1      32.055  24.098  26.679  1.00  0.00     0.333 C 
ATOM      7  O   UNL A   1      31.229  23.524  27.383  1.00  0.00    -0.249 OA
BRANCH   6   8
ATOM      8  C   UNL A   1      31.682  25.232  25.690  1.00  0.00     0.223 C 
BRANCH   8   9
ATOM      9  N   UNL A   1      32.034  24.978  24.283  1.00  0.00    -0.335 N 
ATOM     10  O   UNL A   1      32.047  25.190  22.047  1.00  0.00    -0.269 OA
ATOM     11  C   UNL A   1      31.654  25.606  23.133  1.00  0.00     0.253 C 
ATOM     12  H   UNL A   1      32.652  24.223  24.149  1.00  0.00     0.165 HD
BRANCH  11  13
ATOM     13  C   UNL A   1      30.718  26.736  23.170  1.00  0.00     0.058 A 
ATOM     14  C   UNL A   1      31.191  28.011  22.865  1.00  0.00     0.018 A 
ATOM     15  C   UNL A   1      29.379  26.589  23.497  1.00  0.00     0.126 A 
ATOM     16  C   UNL A   1      30.292  29.073  22.813  1.00  0.00     0.037 A 
ATOM     17  N   UNL A   1      28.479  27.600  23.439  1.00  0.00    -0.249 NA
ATOM     18  C   UNL A   1      28.954  28.818  23.083  1.00  0.00     0.106 A 
ATOM     19  Br  UNL A   1      27.705  30.234  22.928  1.00  0.00    -0.029 Br
ENDBRANCH  11  13
ENDBRANCH   8   9
BRANCH   8  20
ATOM     20  C   UNL A   1      32.239  26.581  26.161  1.00  0.00    -0.014 A 
ATOM     21  C   UNL A   1      33.571  26.981  25.947  1.00  0.00     0.006 A 
ATOM     22  C   UNL A   1      31.396  27.457  26.868  1.00  0.00     0.006 A 
ATOM     23  C   UNL A   1      34.042  28.203  26.439  1.00  0.00     0.000 A 
ATOM     24  C   UNL A   1      31.869  28.675  27.360  1.00  0.00     0.000 A 
ATOM     25  C   UNL A   1      33.194  29.046  27.148  1.00  0.00     0.000 A 
ENDBRANCH   8  20
ENDBRANCH   6   8
ENDBRANCH   5   6
ENDBRANCH   4   5
ENDBRANCH   3   4
ENDBRANCH   2   3
ENDBRANCH   1   2
BRANCH   1  26
ATOM     26  C   UNL A   1      37.149  20.037  24.983  1.00  0.00     0.261 C 
BRANCH  26  27
ATOM     27  O   UNL A   1      38.145  21.073  25.061  1.00  0.00    -0.460 OA
BRANCH  27  28
ATOM     28  C   UNL A   1      39.149  20.818  25.936  1.00  0.00     0.338 C 
ATOM     29  O   UNL A   1      39.684  19.733  26.135  1.00  0.00    -0.246 OA
BRANCH  28  30
ATOM     30  C   UNL A   1      39.683  22.068  26.504  1.00  0.00     0.060 A 
ATOM     31  C   UNL A   1      39.085  23.266  26.091  1.00  0.00     0.016 A 
ATOM     32  C   UNL A   1      40.796  22.089  27.349  1.00  0.00     0.016 A 
ATOM     33  C   UNL A   1      39.623  24.488  26.481  1.00  0.00     0.010 A 
ATOM     34  C   UNL A   1      41.341  23.322  27.733  1.00  0.00     0.010 A 
ATOM     35  C   UNL A   1      40.778  24.527  27.274  1.00  0.00    -0.014 A 
BRANCH  35  36
ATOM     36  C   UNL A   1      41.444  25.834  27.505  1.00  0.00     0.031 A 
ATOM     37  C   UNL A   1      40.736  26.892  28.307  1.00  0.00     0.074 A 
ATOM     38  C   UNL A   1      42.696  26.048  27.062  1.00  0.00     0.049 A 
ATOM     39  N   UNL A   1      41.154  28.076  28.675  1.00  0.00    -0.248 NA
ATOM     40  C   UNL A   1      39.371  26.571  28.751  1.00  0.00     0.031 C 
ATOM     41  C   UNL A   1      43.493  25.087  26.300  1.00  0.00     0.029 A 
ATOM     42  N   UNL A   1      43.518  27.137  27.194  1.00  0.00    -0.354 N 
ATOM     43  C   UNL A   1      40.110  28.642  29.399  1.00  0.00     0.074 A 
ATOM     44  C   UNL A   1      39.022  27.685  29.377  1.00  0.00     0.031 C 
ATOM     45  C   UNL A   1      44.692  25.631  26.031  1.00  0.00     0.029 A 
ATOM     46  C   UNL A   1      44.738  26.987  26.578  1.00  0.00     0.049 A 
ATOM     47  H   UNL A   1      43.259  27.951  27.684  1.00  0.00     0.167 HD
ATOM     48  C   UNL A   1      40.066  29.841  30.032  1.00  0.00     0.034 A 
ATOM     49  C   UNL A   1      45.769  27.846  26.458  1.00  0.00     0.034 A 
ATOM     50  C   UNL A   1      41.152  30.792  30.030  1.00  0.00     0.049 A 
ATOM     51  C   UNL A   1      45.675  29.200  27.116  1.00  0.00     0.074 A 
ATOM     52  C   UNL A   1      41.223  32.025  30.656  1.00  0.00     0.029 A 
ATOM     53  N   UNL A   1      42.357  30.626  29.355  1.00  0.00    -0.354 N 
ATOM     54  N   UNL A   1      44.692  29.712  27.822  1.00  0.00    -0.248 NA
ATOM     55  C   UNL A   1      46.838  30.086  26.974  1.00  0.00     0.031 C 
ATOM     56  C   UNL A   1      42.432  32.633  30.300  1.00  0.00     0.029 A 
ATOM     57  C   UNL A   1      43.156  31.749  29.517  1.00  0.00     0.049 A 
ATOM     58  H   UNL A   1      42.605  29.828  28.835  1.00  0.00     0.167 HD
ATOM     59  C   UNL A   1      45.130  30.970  28.228  1.00  0.00     0.074 A 
ATOM     60  C   UNL A   1      46.473  31.128  27.706  1.00  0.00     0.031 C 
ATOM     61  C   UNL A   1      44.484  31.908  28.969  1.00  0.00     0.034 A 
BRANCH  48  62
ATOM     62  C   UNL A   1      38.776  30.206  30.731  1.00  0.00     0.023 A 
ATOM     63  C   UNL A   1      37.747  30.905  30.073  1.00  0.00     0.031 A 
ATOM     64  C   UNL A   1      38.587  29.883  32.086  1.00  0.00     0.131 A 
ATOM     65  C   UNL A   1      36.614  31.321  30.790  1.00  0.00     0.055 A 
ATOM     66  C   UNL A   1      37.422  30.230  32.773  1.00  0.00     0.041 A 
ATOM     67  F   UNL A   1      39.542  29.236  32.774  1.00  0.00    -0.206 F 
ATOM     68  C   UNL A   1      36.433  30.968  32.129  1.00  0.00     0.022 A 
BRANCH  65  69
ATOM     69  S   UNL A   1      35.448  32.458  29.988  1.00  0.00     0.124 S 
ATOM     70  O   UNL A   1      34.379  32.532  30.981  1.00  0.00    -0.237 OA
ATOM     71  O   UNL A   1      36.249  33.663  29.819  1.00  0.00    -0.237 OA
ATOM     72  O   UNL A   1      35.090  31.766  28.751  1.00  0.00    -0.744 OA
ENDBRANCH  65  69
ENDBRANCH  48  62
BRANCH  49  73
ATOM     73  C   UNL A   1      46.969  27.471  25.656  1.00  0.00     0.023 A 
ATOM     74  C   UNL A   1      47.092  27.839  24.307  1.00  0.00     0.031 A 
ATOM     75  C   UNL A   1      47.996  26.698  26.226  1.00  0.00     0.131 A 
ATOM     76  C   UNL A   1      48.199  27.400  23.563  1.00  0.00     0.055 A 
ATOM     77  C   UNL A   1      49.118  26.306  25.496  1.00  0.00     0.041 A 
ATOM     78  F   UNL A   1      47.928  26.323  27.514  1.00  0.00    -0.206 F 
ATOM     79  C   UNL A   1      49.219  26.647  24.151  1.00  0.00     0.022 A 
BRANCH  76  80
ATOM     80  S   UNL A   1      48.258  27.773  21.788  1.00  0.00     0.124 S 
ATOM     81  O   UNL A   1      49.388  28.690  21.714  1.00  0.00    -0.237 OA
ATOM     82  O   UNL A   1      48.464  26.450  21.209  1.00  0.00    -0.237 OA
ATOM     83  O   UNL A   1      46.950  28.370  21.523  1.00  0.00    -0.744 OA
ENDBRANCH  76  80
ENDBRANCH  49  73
BRANCH  61  84
ATOM     84  C   UNL A   1      45.245  33.177  29.276  1.00  0.00     0.023 A 
ATOM     85  C   UNL A   1      45.190  34.298  28.427  1.00  0.00     0.031 A 
ATOM     86  C   UNL A   1      46.070  33.254  30.413  1.00  0.00     0.131 A 
ATOM     87  C   UNL A   1      45.996  35.416  28.689  1.00  0.00     0.055 A 
ATOM     88  C   UNL A   1      46.819  34.395  30.705  1.00  0.00     0.041 A 
ATOM     89  F   UNL A   1      46.166  32.215  31.259  1.00  0.00    -0.206 F 
ATOM     90  C   UNL A   1      46.798  35.478  29.830  1.00  0.00     0.022 A 
BRANCH  87  91
ATOM     91  S   UNL A   1      46.078  36.740  27.450  1.00  0.00     0.124 S 
ATOM     92  O   UNL A   1      45.913  36.000  26.203  1.00  0.00    -0.237 OA
ATOM     93  O   UNL A   1      44.960  37.596  27.835  1.00  0.00    -0.237 OA
ATOM     94  O   UNL A   1      47.403  37.321  27.655  1.00  0.00    -0.744 OA
ENDBRANCH  87  91
ENDBRANCH  61  84
ENDBRANCH  35  36
ENDBRANCH  28  30
ENDBRANCH  27  28
ENDBRANCH  26  27
ENDBRANCH   1  26
TORSDOF 20
ENDMDL
