MODEL 1
REMARK VINA RESULT:     -10.7      0.000      0.000
REMARK SMILES C[C@H]1CCC[C@@H](n2cnnc2SCC(=O)OCCOCCOC(=O)c2ccc(-c3c4nc(c(-c5cc(S(=O)(=O)[O-])ccc5F)c5ccc([nH]5)c(-c5cc(S(=O)(=O)[O-])ccc5F)c5nc(c(-c6cc(S(=O)(=O)[O-])ccc6F)c6ccc3[nH]6)C=C5)C=C4)cc2)C1
REMARK SMILES IDX 19 1 18 2 17 3 16 4 14 5 15 6 13 7 12 8 11 9 7 10 8 11 9 12
REMARK SMILES IDX 10 13 6 14 1 15 2 16 3 17 88 18 4 19 5 20 20 21 21 22 22 23
REMARK SMILES IDX 23 24 24 25 25 26 26 27 87 28 27 29 86 30 28 31 29 32 30 33
REMARK SMILES IDX 80 34 31 35 85 36 79 37 81 38 32 39 84 40 78 41 77 42 33 44
REMARK SMILES IDX 65 45 45 46 64 47 46 48 49 49 63 50 82 51 47 52 48 53 62 55
REMARK SMILES IDX 83 56 50 57 34 58 35 59 43 60 36 61 42 62 44 63 41 64 37 65
REMARK SMILES IDX 38 66 39 67 40 68 66 69 67 70 75 71 68 72 74 73 76 74 73 75
REMARK SMILES IDX 69 76 70 77 71 78 72 79 51 80 52 81 60 82 53 83 59 84 61 85
REMARK SMILES IDX 58 86 54 87 55 88 56 89 57 90
REMARK H PARENT 81 43 49 54
REMARK Flexibility Score: inf
ROOT
ATOM      1  O   UNL A   1      35.995  31.181  27.733  1.00  0.00    -0.374 OA
ENDROOT
BRANCH   1   2
ATOM      2  C   UNL A   1      34.674  30.794  28.108  1.00  0.00     0.202 C 
BRANCH   2   3
ATOM      3  C   UNL A   1      33.736  30.532  26.921  1.00  0.00     0.261 C 
BRANCH   3   4
ATOM      4  O   UNL A   1      32.468  29.959  27.340  1.00  0.00    -0.463 OA
BRANCH   4   5
ATOM      5  C   UNL A   1      31.820  29.189  26.419  1.00  0.00     0.316 C 
ATOM      6  O   UNL A   1      31.284  29.638  25.409  1.00  0.00    -0.251 OA
BRANCH   5   7
ATOM      7  C   UNL A   1      31.730  27.710  26.757  1.00  0.00     0.200 C 
BRANCH   7   8
ATOM      8  S   UNL A   1      31.085  26.597  25.514  1.00  0.00    -0.074 SA
BRANCH   8   9
ATOM      9  C   UNL A   1      31.100  24.917  26.002  1.00  0.00     0.191 A 
ATOM     10  N   UNL A   1      32.106  23.963  26.022  1.00  0.00    -0.306 N 
ATOM     11  C   UNL A   1      31.679  23.002  26.904  1.00  0.00     0.226 A 
ATOM     12  N   UNL A   1      30.469  23.284  27.317  1.00  0.00    -0.138 NA
ATOM     13  N   UNL A   1      30.107  24.477  26.750  1.00  0.00    -0.124 NA
BRANCH  10  14
ATOM     14  C   UNL A   1      33.331  23.869  25.257  1.00  0.00     0.091 C 
ATOM     15  C   UNL A   1      37.161  23.929  25.772  1.00  0.00     0.008 C 
ATOM     16  C   UNL A   1      35.808  23.956  25.069  1.00  0.00    -0.012 C 
ATOM     17  C   UNL A   1      35.768  23.105  23.797  1.00  0.00     0.003 C 
ATOM     18  C   UNL A   1      34.655  23.530  25.985  1.00  0.00     0.029 C 
ATOM     19  C   UNL A   1      34.387  23.121  23.121  1.00  0.00     0.002 C 
ATOM     20  C   UNL A   1      33.222  22.883  24.087  1.00  0.00     0.025 C 
ENDBRANCH  10  14
ENDBRANCH   8   9
ENDBRANCH   7   8
ENDBRANCH   5   7
ENDBRANCH   4   5
ENDBRANCH   3   4
ENDBRANCH   2   3
ENDBRANCH   1   2
BRANCH   1  21
ATOM     21  C   UNL A   1      36.551  32.203  28.552  1.00  0.00     0.202 C 
BRANCH  21  22
ATOM     22  C   UNL A   1      37.606  31.777  29.587  1.00  0.00     0.261 C 
BRANCH  22  23
ATOM     23  O   UNL A   1      38.323  30.625  29.233  1.00  0.00    -0.460 OA
BRANCH  23  24
ATOM     24  C   UNL A   1      37.794  29.463  29.703  1.00  0.00     0.338 C 
ATOM     25  O   UNL A   1      37.182  29.299  30.727  1.00  0.00    -0.246 OA
BRANCH  24  26
ATOM     26  C   UNL A   1      38.306  28.441  28.748  1.00  0.00     0.060 A 
ATOM     27  C   UNL A   1      38.943  27.454  29.482  1.00  0.00     0.016 A 
ATOM     28  C   UNL A   1      38.898  28.989  27.592  1.00  0.00     0.016 A 
ATOM     29  C   UNL A   1      40.317  27.405  29.383  1.00  0.00     0.010 A 
ATOM     30  C   UNL A   1      40.273  29.013  27.549  1.00  0.00     0.010 A 
ATOM     31  C   UNL A   1      40.981  28.273  28.498  1.00  0.00    -0.014 A 
BRANCH  31  32
ATOM     32  C   UNL A   1      42.392  28.044  28.253  1.00  0.00     0.031 A 
ATOM     33  C   UNL A   1      42.493  26.741  27.554  1.00  0.00     0.074 A 
ATOM     34  C   UNL A   1      43.430  28.859  28.504  1.00  0.00     0.049 A 
ATOM     35  N   UNL A   1      42.418  25.587  28.140  1.00  0.00    -0.248 NA
ATOM     36  C   UNL A   1      42.164  26.702  26.115  1.00  0.00     0.031 C 
ATOM     37  C   UNL A   1      43.454  30.245  28.960  1.00  0.00     0.029 A 
ATOM     38  N   UNL A   1      44.753  28.568  28.358  1.00  0.00    -0.354 N 
ATOM     39  C   UNL A   1      42.352  24.686  27.094  1.00  0.00     0.074 A 
ATOM     40  C   UNL A   1      41.784  25.427  26.009  1.00  0.00     0.031 C 
ATOM     41  C   UNL A   1      44.720  30.731  28.860  1.00  0.00     0.029 A 
ATOM     42  C   UNL A   1      45.620  29.654  28.467  1.00  0.00     0.049 A 
ATOM     43  H   UNL A   1      45.073  27.653  28.187  1.00  0.00     0.167 HD
ATOM     44  C   UNL A   1      43.178  23.606  27.071  1.00  0.00     0.034 A 
ATOM     45  C   UNL A   1      46.965  29.635  28.222  1.00  0.00     0.034 A 
ATOM     46  C   UNL A   1      43.789  23.430  28.381  1.00  0.00     0.049 A 
ATOM     47  C   UNL A   1      47.389  28.217  28.354  1.00  0.00     0.074 A 
ATOM     48  C   UNL A   1      43.323  23.176  29.656  1.00  0.00     0.029 A 
ATOM     49  N   UNL A   1      45.047  23.979  28.537  1.00  0.00    -0.354 N 
ATOM     50  N   UNL A   1      47.354  27.573  29.489  1.00  0.00    -0.248 NA
ATOM     51  C   UNL A   1      47.361  27.366  27.170  1.00  0.00     0.031 C 
ATOM     52  C   UNL A   1      44.154  23.944  30.528  1.00  0.00     0.029 A 
ATOM     53  C   UNL A   1      45.156  24.563  29.775  1.00  0.00     0.049 A 
ATOM     54  H   UNL A   1      45.761  23.953  27.860  1.00  0.00     0.167 HD
ATOM     55  C   UNL A   1      46.850  26.318  29.179  1.00  0.00     0.074 A 
ATOM     56  C   UNL A   1      46.993  26.207  27.728  1.00  0.00     0.031 C 
ATOM     57  C   UNL A   1      46.091  25.634  30.090  1.00  0.00     0.034 A 
BRANCH  44  58
ATOM     58  C   UNL A   1      43.818  23.060  25.803  1.00  0.00     0.023 A 
ATOM     59  C   UNL A   1      43.674  21.679  25.587  1.00  0.00     0.031 A 
ATOM     60  C   UNL A   1      44.749  23.708  24.951  1.00  0.00     0.131 A 
ATOM     61  C   UNL A   1      44.509  20.996  24.688  1.00  0.00     0.055 A 
ATOM     62  C   UNL A   1      45.555  23.029  24.037  1.00  0.00     0.041 A 
ATOM     63  F   UNL A   1      44.995  25.020  24.969  1.00  0.00    -0.206 F 
ATOM     64  C   UNL A   1      45.462  21.658  23.923  1.00  0.00     0.022 A 
BRANCH  61  65
ATOM     65  S   UNL A   1      44.423  19.192  24.648  1.00  0.00     0.124 S 
ATOM     66  O   UNL A   1      44.808  18.914  23.270  1.00  0.00    -0.237 OA
ATOM     67  O   UNL A   1      45.392  18.828  25.678  1.00  0.00    -0.237 OA
ATOM     68  O   UNL A   1      43.028  18.916  24.978  1.00  0.00    -0.744 OA
ENDBRANCH  61  65
ENDBRANCH  44  58
BRANCH  45  69
ATOM     69  C   UNL A   1      47.808  30.662  27.532  1.00  0.00     0.023 A 
ATOM     70  C   UNL A   1      47.305  31.882  27.010  1.00  0.00     0.031 A 
ATOM     71  C   UNL A   1      49.212  30.558  27.636  1.00  0.00     0.131 A 
ATOM     72  C   UNL A   1      48.195  32.923  26.627  1.00  0.00     0.055 A 
ATOM     73  C   UNL A   1      50.081  31.589  27.267  1.00  0.00     0.041 A 
ATOM     74  F   UNL A   1      49.785  29.479  28.192  1.00  0.00    -0.206 F 
ATOM     75  C   UNL A   1      49.576  32.779  26.769  1.00  0.00     0.022 A 
BRANCH  72  76
ATOM     76  S   UNL A   1      47.577  34.525  25.993  1.00  0.00     0.124 S 
ATOM     77  O   UNL A   1      48.726  35.039  25.258  1.00  0.00    -0.237 OA
ATOM     78  O   UNL A   1      46.422  34.126  25.197  1.00  0.00    -0.237 OA
ATOM     79  O   UNL A   1      47.247  35.272  27.208  1.00  0.00    -0.744 OA
ENDBRANCH  72  76
ENDBRANCH  45  69
BRANCH  57  80
ATOM     80  C   UNL A   1      46.135  26.121  31.532  1.00  0.00     0.023 A 
ATOM     81  C   UNL A   1      47.167  25.855  32.467  1.00  0.00     0.031 A 
ATOM     82  C   UNL A   1      45.086  26.959  31.945  1.00  0.00     0.131 A 
ATOM     83  C   UNL A   1      47.104  26.412  33.763  1.00  0.00     0.055 A 
ATOM     84  C   UNL A   1      45.041  27.527  33.216  1.00  0.00     0.041 A 
ATOM     85  F   UNL A   1      44.086  27.262  31.100  1.00  0.00    -0.206 F 
ATOM     86  C   UNL A   1      46.047  27.249  34.134  1.00  0.00     0.022 A 
BRANCH  83  87
ATOM     87  S   UNL A   1      48.377  26.032  35.015  1.00  0.00     0.124 S 
ATOM     88  O   UNL A   1      48.740  24.651  34.724  1.00  0.00    -0.237 OA
ATOM     89  O   UNL A   1      49.401  27.035  34.737  1.00  0.00    -0.237 OA
ATOM     90  O   UNL A   1      47.673  26.223  36.286  1.00  0.00    -0.744 OA
ENDBRANCH  83  87
ENDBRANCH  57  80
ENDBRANCH  31  32
ENDBRANCH  24  26
ENDBRANCH  23  24
ENDBRANCH  22  23
ENDBRANCH  21  22
ENDBRANCH   1  21
TORSDOF 20
ENDMDL
MODEL 2
REMARK VINA RESULT:     -10.5      5.044     10.665
REMARK SMILES C[C@H]1CCC[C@@H](n2cnnc2SCC(=O)OCCOCCOC(=O)c2ccc(-c3c4nc(c(-c5cc(S(=O)(=O)[O-])ccc5F)c5ccc([nH]5)c(-c5cc(S(=O)(=O)[O-])ccc5F)c5nc(c(-c6cc(S(=O)(=O)[O-])ccc6F)c6ccc3[nH]6)C=C5)C=C4)cc2)C1
REMARK SMILES IDX 19 1 18 2 17 3 16 4 14 5 15 6 13 7 12 8 11 9 7 10 8 11 9 12
REMARK SMILES IDX 10 13 6 14 1 15 2 16 3 17 88 18 4 19 5 20 20 21 21 22 22 23
REMARK SMILES IDX 23 24 24 25 25 26 26 27 87 28 27 29 86 30 28 31 29 32 30 33
REMARK SMILES IDX 80 34 31 35 85 36 79 37 81 38 32 39 84 40 78 41 77 42 33 44
REMARK SMILES IDX 65 45 45 46 64 47 46 48 49 49 63 50 82 51 47 52 48 53 62 55
REMARK SMILES IDX 83 56 50 57 34 58 35 59 43 60 36 61 42 62 44 63 41 64 37 65
REMARK SMILES IDX 38 66 39 67 40 68 66 69 67 70 75 71 68 72 74 73 76 74 73 75
REMARK SMILES IDX 69 76 70 77 71 78 72 79 51 80 52 81 60 82 53 83 59 84 61 85
REMARK SMILES IDX 58 86 54 87 55 88 56 89 57 90
REMARK H PARENT 81 43 49 54
REMARK Flexibility Score: inf
ROOT
ATOM      1  O   UNL A   1      39.074  22.034  26.139  1.00  0.00    -0.374 OA
ENDROOT
BRANCH   1   2
ATOM      2  C   UNL A   1      37.839  22.489  25.590  1.00  0.00     0.202 C 
BRANCH   2   3
ATOM      3  C   UNL A   1      37.142  21.467  24.680  1.00  0.00     0.261 C 
BRANCH   3   4
ATOM      4  O   UNL A   1      35.931  22.002  24.082  1.00  0.00    -0.463 OA
BRANCH   4   5
ATOM      5  C   UNL A   1      34.774  21.794  24.772  1.00  0.00     0.316 C 
ATOM      6  O   UNL A   1      34.163  20.727  24.777  1.00  0.00    -0.251 OA
BRANCH   5   7
ATOM      7  C   UNL A   1      34.222  23.010  25.498  1.00  0.00     0.200 C 
BRANCH   7   8
ATOM      8  S   UNL A   1      33.061  22.743  26.834  1.00  0.00    -0.074 SA
BRANCH   8   9
ATOM      9  C   UNL A   1      31.712  23.856  26.823  1.00  0.00     0.191 A 
ATOM     10  N   UNL A   1      31.500  25.054  26.158  1.00  0.00    -0.306 N 
ATOM     11  C   UNL A   1      30.139  25.235  26.161  1.00  0.00     0.226 A 
ATOM     12  N   UNL A   1      29.565  24.286  26.855  1.00  0.00    -0.138 NA
ATOM     13  N   UNL A   1      30.548  23.428  27.272  1.00  0.00    -0.124 NA
BRANCH  10  14
ATOM     14  C   UNL A   1      32.441  26.012  25.618  1.00  0.00     0.091 C 
ATOM     15  C   UNL A   1      33.662  27.379  22.216  1.00  0.00     0.008 C 
ATOM     16  C   UNL A   1      33.608  27.102  23.715  1.00  0.00    -0.012 C 
ATOM     17  C   UNL A   1      33.908  28.336  24.570  1.00  0.00     0.003 C 
ATOM     18  C   UNL A   1      32.269  26.505  24.161  1.00  0.00     0.029 C 
ATOM     19  C   UNL A   1      33.820  28.043  26.077  1.00  0.00     0.002 C 
ATOM     20  C   UNL A   1      32.560  27.272  26.485  1.00  0.00     0.025 C 
ENDBRANCH  10  14
ENDBRANCH   8   9
ENDBRANCH   7   8
ENDBRANCH   5   7
ENDBRANCH   4   5
ENDBRANCH   3   4
ENDBRANCH   2   3
ENDBRANCH   1   2
BRANCH   1  21
ATOM     21  C   UNL A   1      39.768  23.019  26.895  1.00  0.00     0.202 C 
BRANCH  21  22
ATOM     22  C   UNL A   1      38.995  24.300  27.256  1.00  0.00     0.261 C 
BRANCH  22  23
ATOM     23  O   UNL A   1      39.705  25.484  27.013  1.00  0.00    -0.460 OA
BRANCH  23  24
ATOM     24  C   UNL A   1      40.253  26.052  28.123  1.00  0.00     0.338 C 
ATOM     25  O   UNL A   1      41.289  25.757  28.661  1.00  0.00    -0.246 OA
BRANCH  24  26
ATOM     26  C   UNL A   1      39.188  26.981  28.593  1.00  0.00     0.060 A 
ATOM     27  C   UNL A   1      39.432  28.226  28.036  1.00  0.00     0.016 A 
ATOM     28  C   UNL A   1      38.874  26.842  29.960  1.00  0.00     0.016 A 
ATOM     29  C   UNL A   1      39.873  29.208  28.896  1.00  0.00     0.010 A 
ATOM     30  C   UNL A   1      39.397  27.783  30.817  1.00  0.00     0.010 A 
ATOM     31  C   UNL A   1      39.964  28.936  30.273  1.00  0.00    -0.014 A 
BRANCH  31  32
ATOM     32  C   UNL A   1      40.212  30.049  31.170  1.00  0.00     0.031 A 
ATOM     33  C   UNL A   1      38.928  30.775  31.307  1.00  0.00     0.074 A 
ATOM     34  C   UNL A   1      41.336  30.351  31.841  1.00  0.00     0.049 A 
ATOM     35  N   UNL A   1      38.455  31.603  30.428  1.00  0.00    -0.248 NA
ATOM     36  C   UNL A   1      37.899  30.197  32.195  1.00  0.00     0.031 C 
ATOM     37  C   UNL A   1      42.580  29.601  31.985  1.00  0.00     0.029 A 
ATOM     38  N   UNL A   1      41.567  31.463  32.592  1.00  0.00    -0.354 N 
ATOM     39  C   UNL A   1      37.173  31.864  30.871  1.00  0.00     0.074 A 
ATOM     40  C   UNL A   1      36.804  30.705  31.625  1.00  0.00     0.031 C 
ATOM     41  C   UNL A   1      43.353  30.190  32.936  1.00  0.00     0.029 A 
ATOM     42  C   UNL A   1      42.725  31.432  33.367  1.00  0.00     0.049 A 
ATOM     43  H   UNL A   1      40.957  32.236  32.587  1.00  0.00     0.167 HD
ATOM     44  C   UNL A   1      36.737  33.148  30.981  1.00  0.00     0.034 A 
ATOM     45  C   UNL A   1      43.092  32.362  34.299  1.00  0.00     0.034 A 
ATOM     46  C   UNL A   1      37.650  34.036  30.276  1.00  0.00     0.049 A 
ATOM     47  C   UNL A   1      42.359  33.608  33.951  1.00  0.00     0.074 A 
ATOM     48  C   UNL A   1      38.063  34.179  28.965  1.00  0.00     0.029 A 
ATOM     49  N   UNL A   1      38.619  34.643  31.050  1.00  0.00    -0.354 N 
ATOM     50  N   UNL A   1      42.588  34.278  32.855  1.00  0.00    -0.248 NA
ATOM     51  C   UNL A   1      41.043  33.829  34.538  1.00  0.00     0.031 C 
ATOM     52  C   UNL A   1      39.450  34.517  29.036  1.00  0.00     0.029 A 
ATOM     53  C   UNL A   1      39.815  34.663  30.377  1.00  0.00     0.049 A 
ATOM     54  H   UNL A   1      38.472  35.009  31.952  1.00  0.00     0.167 HD
ATOM     55  C   UNL A   1      41.334  34.631  32.376  1.00  0.00     0.074 A 
ATOM     56  C   UNL A   1      40.435  34.440  33.514  1.00  0.00     0.031 C 
ATOM     57  C   UNL A   1      41.115  34.742  31.030  1.00  0.00     0.034 A 
BRANCH  44  58
ATOM     58  C   UNL A   1      35.843  33.641  32.110  1.00  0.00     0.023 A 
ATOM     59  C   UNL A   1      34.643  34.258  31.718  1.00  0.00     0.031 A 
ATOM     60  C   UNL A   1      36.176  33.791  33.480  1.00  0.00     0.131 A 
ATOM     61  C   UNL A   1      33.924  35.075  32.606  1.00  0.00     0.055 A 
ATOM     62  C   UNL A   1      35.442  34.579  34.367  1.00  0.00     0.041 A 
ATOM     63  F   UNL A   1      37.250  33.244  34.055  1.00  0.00    -0.206 F 
ATOM     64  C   UNL A   1      34.325  35.255  33.925  1.00  0.00     0.022 A 
BRANCH  61  65
ATOM     65  S   UNL A   1      32.530  36.020  31.956  1.00  0.00     0.124 S 
ATOM     66  O   UNL A   1      31.398  35.279  32.499  1.00  0.00    -0.237 OA
ATOM     67  O   UNL A   1      32.776  37.340  32.528  1.00  0.00    -0.237 OA
ATOM     68  O   UNL A   1      32.706  35.925  30.509  1.00  0.00    -0.744 OA
ENDBRANCH  61  65
ENDBRANCH  44  58
BRANCH  45  69
ATOM     69  C   UNL A   1      43.716  32.150  35.644  1.00  0.00     0.023 A 
ATOM     70  C   UNL A   1      44.841  32.873  36.120  1.00  0.00     0.031 A 
ATOM     71  C   UNL A   1      43.005  31.396  36.603  1.00  0.00     0.131 A 
ATOM     72  C   UNL A   1      45.201  32.821  37.495  1.00  0.00     0.055 A 
ATOM     73  C   UNL A   1      43.358  31.358  37.954  1.00  0.00     0.041 A 
ATOM     74  F   UNL A   1      41.881  30.743  36.271  1.00  0.00    -0.206 F 
ATOM     75  C   UNL A   1      44.452  32.077  38.408  1.00  0.00     0.022 A 
BRANCH  72  76
ATOM     76  S   UNL A   1      46.618  33.778  38.149  1.00  0.00     0.124 S 
ATOM     77  O   UNL A   1      47.316  34.180  36.934  1.00  0.00    -0.237 OA
ATOM     78  O   UNL A   1      45.962  34.839  38.904  1.00  0.00    -0.237 OA
ATOM     79  O   UNL A   1      47.339  32.805  38.972  1.00  0.00    -0.744 OA
ENDBRANCH  72  76
ENDBRANCH  45  69
BRANCH  57  80
ATOM     80  C   UNL A   1      42.343  34.829  30.134  1.00  0.00     0.023 A 
ATOM     81  C   UNL A   1      43.112  35.994  29.890  1.00  0.00     0.031 A 
ATOM     82  C   UNL A   1      42.781  33.629  29.550  1.00  0.00     0.131 A 
ATOM     83  C   UNL A   1      44.260  35.922  29.071  1.00  0.00     0.055 A 
ATOM     84  C   UNL A   1      43.929  33.557  28.765  1.00  0.00     0.041 A 
ATOM     85  F   UNL A   1      42.105  32.486  29.757  1.00  0.00    -0.206 F 
ATOM     86  C   UNL A   1      44.670  34.706  28.515  1.00  0.00     0.022 A 
BRANCH  83  87
ATOM     87  S   UNL A   1      45.232  37.415  28.676  1.00  0.00     0.124 S 
ATOM     88  O   UNL A   1      46.572  36.895  28.432  1.00  0.00    -0.237 OA
ATOM     89  O   UNL A   1      44.531  37.950  27.513  1.00  0.00    -0.237 OA
ATOM     90  O   UNL A   1      45.107  38.233  29.886  1.00  0.00    -0.744 OA
ENDBRANCH  83  87
ENDBRANCH  57  80
ENDBRANCH  31  32
ENDBRANCH  24  26
ENDBRANCH  23  24
ENDBRANCH  22  23
ENDBRANCH  21  22
ENDBRANCH   1  21
TORSDOF 20
ENDMDL
MODEL 3
REMARK VINA RESULT:     -10.5      1.382      2.052
REMARK SMILES C[C@H]1CCC[C@@H](n2cnnc2SCC(=O)OCCOCCOC(=O)c2ccc(-c3c4nc(c(-c5cc(S(=O)(=O)[O-])ccc5F)c5ccc([nH]5)c(-c5cc(S(=O)(=O)[O-])ccc5F)c5nc(c(-c6cc(S(=O)(=O)[O-])ccc6F)c6ccc3[nH]6)C=C5)C=C4)cc2)C1
REMARK SMILES IDX 19 1 18 2 17 3 16 4 14 5 15 6 13 7 12 8 11 9 7 10 8 11 9 12
REMARK SMILES IDX 10 13 6 14 1 15 2 16 3 17 88 18 4 19 5 20 20 21 21 22 22 23
REMARK SMILES IDX 23 24 24 25 25 26 26 27 87 28 27 29 86 30 28 31 29 32 30 33
REMARK SMILES IDX 80 34 31 35 85 36 79 37 81 38 32 39 84 40 78 41 77 42 33 44
REMARK SMILES IDX 65 45 45 46 64 47 46 48 49 49 63 50 82 51 47 52 48 53 62 55
REMARK SMILES IDX 83 56 50 57 34 58 35 59 43 60 36 61 42 62 44 63 41 64 37 65
REMARK SMILES IDX 38 66 39 67 40 68 66 69 67 70 75 71 68 72 74 73 76 74 73 75
REMARK SMILES IDX 69 76 70 77 71 78 72 79 51 80 52 81 60 82 53 83 59 84 61 85
REMARK SMILES IDX 58 86 54 87 55 88 56 89 57 90
REMARK H PARENT 81 43 49 54
REMARK Flexibility Score: inf
ROOT
ATOM      1  O   UNL A   1      35.652  32.274  27.804  1.00  0.00    -0.374 OA
ENDROOT
BRANCH   1   2
ATOM      2  C   UNL A   1      34.490  31.462  27.959  1.00  0.00     0.202 C 
BRANCH   2   3
ATOM      3  C   UNL A   1      34.469  30.216  27.062  1.00  0.00     0.261 C 
BRANCH   3   4
ATOM      4  O   UNL A   1      33.189  30.038  26.400  1.00  0.00    -0.463 OA
BRANCH   4   5
ATOM      5  C   UNL A   1      32.918  28.784  25.937  1.00  0.00     0.316 C 
ATOM      6  O   UNL A   1      32.177  27.989  26.511  1.00  0.00    -0.251 OA
BRANCH   5   7
ATOM      7  C   UNL A   1      33.662  28.382  24.674  1.00  0.00     0.200 C 
BRANCH   7   8
ATOM      8  S   UNL A   1      32.701  27.973  23.221  1.00  0.00    -0.074 SA
BRANCH   8   9
ATOM      9  C   UNL A   1      33.087  26.407  22.544  1.00  0.00     0.191 A 
ATOM     10  N   UNL A   1      32.894  25.116  23.015  1.00  0.00    -0.306 N 
ATOM     11  C   UNL A   1      32.959  24.311  21.905  1.00  0.00     0.226 A 
ATOM     12  N   UNL A   1      33.266  25.026  20.854  1.00  0.00    -0.138 NA
ATOM     13  N   UNL A   1      33.350  26.333  21.253  1.00  0.00    -0.124 NA
BRANCH  10  14
ATOM     14  C   UNL A   1      32.737  24.620  24.365  1.00  0.00     0.091 C 
ATOM     15  C   UNL A   1      30.250  22.576  26.503  1.00  0.00     0.008 C 
ATOM     16  C   UNL A   1      31.425  23.477  26.140  1.00  0.00    -0.012 C 
ATOM     17  C   UNL A   1      32.706  23.144  26.910  1.00  0.00     0.003 C 
ATOM     18  C   UNL A   1      31.735  23.472  24.638  1.00  0.00     0.029 C 
ATOM     19  C   UNL A   1      33.886  24.043  26.507  1.00  0.00     0.002 C 
ATOM     20  C   UNL A   1      34.068  24.185  24.992  1.00  0.00     0.025 C 
ENDBRANCH  10  14
ENDBRANCH   8   9
ENDBRANCH   7   8
ENDBRANCH   5   7
ENDBRANCH   4   5
ENDBRANCH   3   4
ENDBRANCH   2   3
ENDBRANCH   1   2
BRANCH   1  21
ATOM     21  C   UNL A   1      36.382  32.474  29.008  1.00  0.00     0.202 C 
BRANCH  21  22
ATOM     22  C   UNL A   1      37.655  31.633  29.205  1.00  0.00     0.261 C 
BRANCH  22  23
ATOM     23  O   UNL A   1      37.727  30.501  28.381  1.00  0.00    -0.460 OA
BRANCH  23  24
ATOM     24  C   UNL A   1      37.763  29.316  29.049  1.00  0.00     0.338 C 
ATOM     25  O   UNL A   1      37.484  29.119  30.204  1.00  0.00    -0.246 OA
BRANCH  24  26
ATOM     26  C   UNL A   1      38.392  28.388  28.068  1.00  0.00     0.060 A 
ATOM     27  C   UNL A   1      38.865  27.289  28.767  1.00  0.00     0.016 A 
ATOM     28  C   UNL A   1      39.185  29.035  27.100  1.00  0.00     0.016 A 
ATOM     29  C   UNL A   1      40.234  27.179  28.884  1.00  0.00     0.010 A 
ATOM     30  C   UNL A   1      40.548  28.991  27.281  1.00  0.00     0.010 A 
ATOM     31  C   UNL A   1      41.064  28.108  28.232  1.00  0.00    -0.014 A 
BRANCH  31  32
ATOM     32  C   UNL A   1      42.488  27.834  28.189  1.00  0.00     0.031 A 
ATOM     33  C   UNL A   1      42.650  26.558  27.453  1.00  0.00     0.074 A 
ATOM     34  C   UNL A   1      43.502  28.596  28.631  1.00  0.00     0.049 A 
ATOM     35  N   UNL A   1      42.451  25.384  27.966  1.00  0.00    -0.248 NA
ATOM     36  C   UNL A   1      42.541  26.592  25.981  1.00  0.00     0.031 C 
ATOM     37  C   UNL A   1      43.502  29.961  29.149  1.00  0.00     0.029 A 
ATOM     38  N   UNL A   1      44.822  28.261  28.670  1.00  0.00    -0.354 N 
ATOM     39  C   UNL A   1      42.514  24.532  26.881  1.00  0.00     0.074 A 
ATOM     40  C   UNL A   1      42.141  25.338  25.760  1.00  0.00     0.031 C 
ATOM     41  C   UNL A   1      44.784  30.400  29.262  1.00  0.00     0.029 A 
ATOM     42  C   UNL A   1      45.698  29.306  28.958  1.00  0.00     0.049 A 
ATOM     43  H   UNL A   1      45.134  27.342  28.506  1.00  0.00     0.167 HD
ATOM     44  C   UNL A   1      43.299  23.421  26.931  1.00  0.00     0.034 A 
ATOM     45  C   UNL A   1      47.062  29.245  28.915  1.00  0.00     0.034 A 
ATOM     46  C   UNL A   1      43.700  23.168  28.307  1.00  0.00     0.049 A 
ATOM     47  C   UNL A   1      47.416  27.807  29.043  1.00  0.00     0.074 A 
ATOM     48  C   UNL A   1      43.038  22.879  29.485  1.00  0.00     0.029 A 
ATOM     49  N   UNL A   1      44.937  23.660  28.675  1.00  0.00    -0.354 N 
ATOM     50  N   UNL A   1      47.189  27.118  30.128  1.00  0.00    -0.248 NA
ATOM     51  C   UNL A   1      47.539  27.008  27.829  1.00  0.00     0.031 C 
ATOM     52  C   UNL A   1      43.753  23.577  30.506  1.00  0.00     0.029 A 
ATOM     53  C   UNL A   1      44.876  24.187  29.941  1.00  0.00     0.049 A 
ATOM     54  H   UNL A   1      45.743  23.635  28.112  1.00  0.00     0.167 HD
ATOM     55  C   UNL A   1      46.697  25.898  29.688  1.00  0.00     0.074 A 
ATOM     56  C   UNL A   1      47.054  25.842  28.271  1.00  0.00     0.031 C 
ATOM     57  C   UNL A   1      45.787  25.207  30.442  1.00  0.00     0.034 A 
BRANCH  44  58
ATOM     58  C   UNL A   1      44.105  22.905  25.748  1.00  0.00     0.023 A 
ATOM     59  C   UNL A   1      43.963  21.537  25.459  1.00  0.00     0.031 A 
ATOM     60  C   UNL A   1      45.164  23.556  25.067  1.00  0.00     0.131 A 
ATOM     61  C   UNL A   1      44.904  20.863  24.663  1.00  0.00     0.055 A 
ATOM     62  C   UNL A   1      46.079  22.888  24.252  1.00  0.00     0.041 A 
ATOM     63  F   UNL A   1      45.434  24.860  25.172  1.00  0.00    -0.206 F 
ATOM     64  C   UNL A   1      45.973  21.526  24.072  1.00  0.00     0.022 A 
BRANCH  61  65
ATOM     65  S   UNL A   1      44.785  19.065  24.540  1.00  0.00     0.124 S 
ATOM     66  O   UNL A   1      43.564  18.803  25.292  1.00  0.00    -0.237 OA
ATOM     67  O   UNL A   1      44.710  18.874  23.095  1.00  0.00    -0.237 OA
ATOM     68  O   UNL A   1      46.020  18.604  25.167  1.00  0.00    -0.744 OA
ENDBRANCH  61  65
ENDBRANCH  44  58
BRANCH  45  69
ATOM     69  C   UNL A   1      48.033  30.266  28.408  1.00  0.00     0.023 A 
ATOM     70  C   UNL A   1      47.674  31.357  27.574  1.00  0.00     0.031 A 
ATOM     71  C   UNL A   1      49.316  30.322  28.994  1.00  0.00     0.131 A 
ATOM     72  C   UNL A   1      48.581  32.432  27.365  1.00  0.00     0.055 A 
ATOM     73  C   UNL A   1      50.198  31.387  28.793  1.00  0.00     0.041 A 
ATOM     74  F   UNL A   1      49.720  29.381  29.862  1.00  0.00    -0.206 F 
ATOM     75  C   UNL A   1      49.832  32.451  27.985  1.00  0.00     0.022 A 
BRANCH  72  76
ATOM     76  S   UNL A   1      48.132  33.875  26.332  1.00  0.00     0.124 S 
ATOM     77  O   UNL A   1      49.249  33.958  25.401  1.00  0.00    -0.237 OA
ATOM     78  O   UNL A   1      46.846  33.475  25.772  1.00  0.00    -0.237 OA
ATOM     79  O   UNL A   1      48.057  34.977  27.294  1.00  0.00    -0.744 OA
ENDBRANCH  72  76
ENDBRANCH  45  69
BRANCH  57  80
ATOM     80  C   UNL A   1      45.630  25.632  31.896  1.00  0.00     0.023 A 
ATOM     81  C   UNL A   1      46.492  25.276  32.963  1.00  0.00     0.031 A 
ATOM     82  C   UNL A   1      44.567  26.503  32.185  1.00  0.00     0.131 A 
ATOM     83  C   UNL A   1      46.254  25.781  34.260  1.00  0.00     0.055 A 
ATOM     84  C   UNL A   1      44.351  27.020  33.460  1.00  0.00     0.041 A 
ATOM     85  F   UNL A   1      43.723  26.891  31.213  1.00  0.00    -0.206 F 
ATOM     86  C   UNL A   1      45.190  26.655  34.505  1.00  0.00     0.022 A 
BRANCH  83  87
ATOM     87  S   UNL A   1      47.301  25.287  35.671  1.00  0.00     0.124 S 
ATOM     88  O   UNL A   1      46.605  24.132  36.224  1.00  0.00    -0.237 OA
ATOM     89  O   UNL A   1      48.585  25.016  35.031  1.00  0.00    -0.237 OA
ATOM     90  O   UNL A   1      47.293  26.472  36.533  1.00  0.00    -0.744 OA
ENDBRANCH  83  87
ENDBRANCH  57  80
ENDBRANCH  31  32
ENDBRANCH  24  26
ENDBRANCH  23  24
ENDBRANCH  22  23
ENDBRANCH  21  22
ENDBRANCH   1  21
TORSDOF 20
ENDMDL
