MODEL 1
REMARK VINA RESULT:     -10.7      0.000      0.000
REMARK SMILES Cc1ccc(CNC(=O)c2csc(/C=C/C(=O)OCCOCCOC(=O)c3ccc(-c4c5nc(c(-c6cc(S(=O)(=O)[O-])ccc6F)c6ccc([nH]6)c(-c6cc(S(=O)(=O)[O-])ccc6F)c6nc(c(-c7cc(S(=O)(=O)[O-])ccc7F)c7ccc4[nH]7)C=C6)C=C5)cc3)c2)s1
REMARK SMILES IDX 20 1 19 2 18 3 16 4 17 5 15 6 14 7 13 8 10 9 11 10 90 11
REMARK SMILES IDX 12 12 8 13 7 14 9 16 6 17 5 18 1 19 2 20 3 21 91 22 4 23
REMARK SMILES IDX 21 24 22 25 23 26 24 27 25 28 26 29 27 30 28 31 89 32 29 33
REMARK SMILES IDX 88 34 30 35 31 36 32 37 82 38 33 39 87 40 81 41 83 42 34 43
REMARK SMILES IDX 86 44 80 45 79 46 35 48 67 49 47 50 66 51 48 52 51 53 65 54
REMARK SMILES IDX 84 55 49 56 50 57 64 59 85 60 52 61 36 62 37 63 45 64 38 65
REMARK SMILES IDX 44 66 46 67 43 68 39 69 40 70 41 71 42 72 68 73 69 74 77 75
REMARK SMILES IDX 70 76 76 77 78 78 75 79 71 80 72 81 73 82 74 83 53 84 54 85
REMARK SMILES IDX 62 86 55 87 61 88 63 89 60 90 56 91 57 92 58 93 59 94
REMARK H PARENT 7 15 83 47 51 58
REMARK Flexibility Score: inf
ROOT
ATOM      1  C   UNL A   1      43.850  19.222  25.592  1.00  0.00     0.202 C 
ENDROOT
BRANCH   1   2
ATOM      2  C   UNL A   1      42.325  19.136  25.680  1.00  0.00     0.261 C 
BRANCH   2   3
ATOM      3  O   UNL A   1      41.737  20.447  25.746  1.00  0.00    -0.460 OA
BRANCH   3   4
ATOM      4  C   UNL A   1      40.813  20.617  26.720  1.00  0.00     0.330 C 
ATOM      5  O   UNL A   1      41.027  20.772  27.913  1.00  0.00    -0.247 OA
BRANCH   4   6
ATOM      6  C   UNL A   1      39.439  20.677  26.183  1.00  0.00     0.095 C 
ATOM      7  C   UNL A   1      38.820  21.772  25.712  1.00  0.00     0.026 C 
BRANCH   7   8
ATOM      8  C   UNL A   1      37.497  21.714  25.174  1.00  0.00     0.028 A 
ATOM      9  C   UNL A   1      35.253  21.038  24.864  1.00  0.00     0.051 A 
ATOM     10  C   UNL A   1      35.294  22.223  24.155  1.00  0.00     0.079 A 
ATOM     11  C   UNL A   1      36.573  20.691  25.317  1.00  0.00     0.033 A 
ATOM     12  S   UNL A   1      36.829  22.960  24.187  1.00  0.00    -0.144 S 
BRANCH   9  13
ATOM     13  C   UNL A   1      34.005  20.299  25.040  1.00  0.00     0.252 C 
ATOM     14  N   UNL A   1      33.112  20.703  25.997  1.00  0.00    -0.347 N 
ATOM     15  H   UNL A   1      32.345  20.101  26.138  1.00  0.00     0.164 HD
ATOM     16  O   UNL A   1      33.708  19.352  24.313  1.00  0.00    -0.269 OA
BRANCH  14  17
ATOM     17  C   UNL A   1      33.132  21.884  26.834  1.00  0.00     0.163 C 
BRANCH  17  18
ATOM     18  C   UNL A   1      32.275  22.958  26.246  1.00  0.00     0.024 A 
ATOM     19  C   UNL A   1      30.262  24.888  23.487  1.00  0.00     0.056 C 
ATOM     20  C   UNL A   1      30.979  24.369  24.684  1.00  0.00     0.002 A 
ATOM     21  C   UNL A   1      31.234  25.010  25.877  1.00  0.00     0.015 A 
ATOM     22  S   UNL A   1      31.627  22.787  24.667  1.00  0.00    -0.144 S 
ATOM     23  C   UNL A   1      31.975  24.195  26.781  1.00  0.00     0.017 A 
ENDBRANCH  17  18
ENDBRANCH  14  17
ENDBRANCH   9  13
ENDBRANCH   7   8
ENDBRANCH   4   6
ENDBRANCH   3   4
ENDBRANCH   2   3
ENDBRANCH   1   2
BRANCH   1  24
ATOM     24  O   UNL A   1      44.360  20.176  24.659  1.00  0.00    -0.374 OA
BRANCH  24  25
ATOM     25  C   UNL A   1      45.654  20.717  24.935  1.00  0.00     0.202 C 
BRANCH  25  26
ATOM     26  C   UNL A   1      45.767  22.247  24.911  1.00  0.00     0.261 C 
BRANCH  26  27
ATOM     27  O   UNL A   1      44.801  22.874  25.773  1.00  0.00    -0.460 OA
BRANCH  27  28
ATOM     28  C   UNL A   1      43.756  23.452  25.133  1.00  0.00     0.338 C 
ATOM     29  O   UNL A   1      43.302  23.137  24.041  1.00  0.00    -0.246 OA
BRANCH  28  30
ATOM     30  C   UNL A   1      43.090  24.423  26.022  1.00  0.00     0.060 A 
ATOM     31  C   UNL A   1      43.642  25.709  26.103  1.00  0.00     0.016 A 
ATOM     32  C   UNL A   1      41.987  24.077  26.805  1.00  0.00     0.016 A 
ATOM     33  C   UNL A   1      43.120  26.639  27.001  1.00  0.00     0.010 A 
ATOM     34  C   UNL A   1      41.470  25.010  27.712  1.00  0.00     0.010 A 
ATOM     35  C   UNL A   1      42.053  26.284  27.837  1.00  0.00    -0.014 A 
BRANCH  35  36
ATOM     36  C   UNL A   1      41.647  27.198  28.935  1.00  0.00     0.031 A 
ATOM     37  C   UNL A   1      42.437  27.193  30.215  1.00  0.00     0.074 A 
ATOM     38  C   UNL A   1      40.610  28.041  28.782  1.00  0.00     0.049 A 
ATOM     39  N   UNL A   1      42.244  27.876  31.315  1.00  0.00    -0.248 NA
ATOM     40  C   UNL A   1      43.599  26.293  30.261  1.00  0.00     0.031 C 
ATOM     41  C   UNL A   1      39.799  28.169  27.573  1.00  0.00     0.029 A 
ATOM     42  N   UNL A   1      40.060  28.948  29.654  1.00  0.00    -0.354 N 
ATOM     43  C   UNL A   1      43.258  27.488  32.185  1.00  0.00     0.074 A 
ATOM     44  C   UNL A   1      44.038  26.480  31.496  1.00  0.00     0.031 C 
ATOM     45  C   UNL A   1      38.847  29.096  27.783  1.00  0.00     0.029 A 
ATOM     46  C   UNL A   1      38.957  29.598  29.150  1.00  0.00     0.049 A 
ATOM     47  H   UNL A   1      40.420  29.116  30.555  1.00  0.00     0.167 HD
ATOM     48  C   UNL A   1      43.521  27.939  33.436  1.00  0.00     0.034 A 
ATOM     49  C   UNL A   1      38.119  30.478  29.736  1.00  0.00     0.034 A 
ATOM     50  C   UNL A   1      42.727  28.935  34.114  1.00  0.00     0.049 A 
ATOM     51  C   UNL A   1      38.377  30.898  31.164  1.00  0.00     0.074 A 
ATOM     52  C   UNL A   1      42.913  29.474  35.376  1.00  0.00     0.029 A 
ATOM     53  N   UNL A   1      41.588  29.536  33.593  1.00  0.00    -0.354 N 
ATOM     54  N   UNL A   1      39.344  30.530  31.973  1.00  0.00    -0.248 NA
ATOM     55  C   UNL A   1      37.432  31.856  31.754  1.00  0.00     0.031 C 
ATOM     56  C   UNL A   1      41.848  30.342  35.644  1.00  0.00     0.029 A 
ATOM     57  C   UNL A   1      41.040  30.408  34.521  1.00  0.00     0.049 A 
ATOM     58  H   UNL A   1      41.222  29.365  32.695  1.00  0.00     0.167 HD
ATOM     59  C   UNL A   1      39.140  31.237  33.156  1.00  0.00     0.074 A 
ATOM     60  C   UNL A   1      37.967  32.061  32.949  1.00  0.00     0.031 C 
ATOM     61  C   UNL A   1      39.860  31.213  34.307  1.00  0.00     0.034 A 
BRANCH  48  62
ATOM     62  C   UNL A   1      44.684  27.312  34.168  1.00  0.00     0.023 A 
ATOM     63  C   UNL A   1      44.511  26.224  35.042  1.00  0.00     0.031 A 
ATOM     64  C   UNL A   1      45.983  27.830  34.012  1.00  0.00     0.131 A 
ATOM     65  C   UNL A   1      45.602  25.738  35.779  1.00  0.00     0.055 A 
ATOM     66  C   UNL A   1      47.077  27.290  34.689  1.00  0.00     0.041 A 
ATOM     67  F   UNL A   1      46.206  28.883  33.208  1.00  0.00    -0.206 F 
ATOM     68  C   UNL A   1      46.888  26.247  35.590  1.00  0.00     0.022 A 
BRANCH  65  69
ATOM     69  S   UNL A   1      45.289  24.528  37.093  1.00  0.00     0.124 S 
ATOM     70  O   UNL A   1      46.360  24.837  38.040  1.00  0.00    -0.237 OA
ATOM     71  O   UNL A   1      43.938  24.869  37.522  1.00  0.00    -0.237 OA
ATOM     72  O   UNL A   1      45.423  23.241  36.413  1.00  0.00    -0.744 OA
ENDBRANCH  65  69
ENDBRANCH  48  62
BRANCH  49  73
ATOM     73  C   UNL A   1      36.929  30.993  28.999  1.00  0.00     0.023 A 
ATOM     74  C   UNL A   1      35.941  30.122  28.514  1.00  0.00     0.031 A 
ATOM     75  C   UNL A   1      36.794  32.365  28.720  1.00  0.00     0.131 A 
ATOM     76  C   UNL A   1      34.886  30.627  27.736  1.00  0.00     0.055 A 
ATOM     77  C   UNL A   1      35.715  32.868  27.991  1.00  0.00     0.041 A 
ATOM     78  F   UNL A   1      37.712  33.241  29.160  1.00  0.00    -0.206 F 
ATOM     79  C   UNL A   1      34.759  31.994  27.483  1.00  0.00     0.022 A 
BRANCH  76  80
ATOM     80  S   UNL A   1      33.722  29.455  26.985  1.00  0.00     0.124 S 
ATOM     81  O   UNL A   1      32.800  30.351  26.298  1.00  0.00    -0.237 OA
ATOM     82  O   UNL A   1      34.601  28.660  26.134  1.00  0.00    -0.237 OA
ATOM     83  O   UNL A   1      33.164  28.746  28.137  1.00  0.00    -0.744 OA
ENDBRANCH  76  80
ENDBRANCH  49  73
BRANCH  61  84
ATOM     84  C   UNL A   1      39.417  32.140  35.415  1.00  0.00     0.023 A 
ATOM     85  C   UNL A   1      39.921  33.446  35.534  1.00  0.00     0.031 A 
ATOM     86  C   UNL A   1      38.482  31.702  36.370  1.00  0.00     0.131 A 
ATOM     87  C   UNL A   1      39.530  34.251  36.616  1.00  0.00     0.055 A 
ATOM     88  C   UNL A   1      38.051  32.528  37.409  1.00  0.00     0.041 A 
ATOM     89  F   UNL A   1      37.968  30.463  36.307  1.00  0.00    -0.206 F 
ATOM     90  C   UNL A   1      38.586  33.806  37.545  1.00  0.00     0.022 A 
BRANCH  87  91
ATOM     91  S   UNL A   1      40.342  35.857  36.846  1.00  0.00     0.124 S 
ATOM     92  O   UNL A   1      41.735  35.538  36.552  1.00  0.00    -0.237 OA
ATOM     93  O   UNL A   1      39.659  36.695  35.866  1.00  0.00    -0.237 OA
ATOM     94  O   UNL A   1      40.062  36.186  38.242  1.00  0.00    -0.744 OA
ENDBRANCH  87  91
ENDBRANCH  61  84
ENDBRANCH  35  36
ENDBRANCH  28  30
ENDBRANCH  27  28
ENDBRANCH  26  27
ENDBRANCH  25  26
ENDBRANCH  24  25
ENDBRANCH   1  24
TORSDOF 21
ENDMDL
MODEL 2
REMARK VINA RESULT:     -10.5      4.725      7.282
REMARK SMILES Cc1ccc(CNC(=O)c2csc(/C=C/C(=O)OCCOCCOC(=O)c3ccc(-c4c5nc(c(-c6cc(S(=O)(=O)[O-])ccc6F)c6ccc([nH]6)c(-c6cc(S(=O)(=O)[O-])ccc6F)c6nc(c(-c7cc(S(=O)(=O)[O-])ccc7F)c7ccc4[nH]7)C=C6)C=C5)cc3)c2)s1
REMARK SMILES IDX 20 1 19 2 18 3 16 4 17 5 15 6 14 7 13 8 10 9 11 10 90 11
REMARK SMILES IDX 12 12 8 13 7 14 9 16 6 17 5 18 1 19 2 20 3 21 91 22 4 23
REMARK SMILES IDX 21 24 22 25 23 26 24 27 25 28 26 29 27 30 28 31 89 32 29 33
REMARK SMILES IDX 88 34 30 35 31 36 32 37 82 38 33 39 87 40 81 41 83 42 34 43
REMARK SMILES IDX 86 44 80 45 79 46 35 48 67 49 47 50 66 51 48 52 51 53 65 54
REMARK SMILES IDX 84 55 49 56 50 57 64 59 85 60 52 61 36 62 37 63 45 64 38 65
REMARK SMILES IDX 44 66 46 67 43 68 39 69 40 70 41 71 42 72 68 73 69 74 77 75
REMARK SMILES IDX 70 76 76 77 78 78 75 79 71 80 72 81 73 82 74 83 53 84 54 85
REMARK SMILES IDX 62 86 55 87 61 88 63 89 60 90 56 91 57 92 58 93 59 94
REMARK H PARENT 7 15 83 47 51 58
REMARK Flexibility Score: inf
ROOT
ATOM      1  C   UNL A   1      34.370  18.398  24.166  1.00  0.00     0.202 C 
ENDROOT
BRANCH   1   2
ATOM      2  C   UNL A   1      33.223  18.030  25.110  1.00  0.00     0.261 C 
BRANCH   2   3
ATOM      3  O   UNL A   1      32.270  19.103  25.207  1.00  0.00    -0.460 OA
BRANCH   3   4
ATOM      4  C   UNL A   1      32.739  20.245  25.759  1.00  0.00     0.330 C 
ATOM      5  O   UNL A   1      33.485  20.339  26.722  1.00  0.00    -0.247 OA
BRANCH   4   6
ATOM      6  C   UNL A   1      32.307  21.445  25.016  1.00  0.00     0.095 C 
ATOM      7  C   UNL A   1      32.878  22.659  25.072  1.00  0.00     0.026 C 
BRANCH   7   8
ATOM      8  C   UNL A   1      32.406  23.749  24.277  1.00  0.00     0.028 A 
ATOM      9  C   UNL A   1      32.438  25.665  22.892  1.00  0.00     0.051 A 
ATOM     10  C   UNL A   1      31.129  25.244  22.766  1.00  0.00     0.079 A 
ATOM     11  C   UNL A   1      33.115  24.874  23.885  1.00  0.00     0.033 A 
ATOM     12  S   UNL A   1      30.791  23.849  23.683  1.00  0.00    -0.144 S 
BRANCH   9  13
ATOM     13  C   UNL A   1      32.955  26.787  22.112  1.00  0.00     0.252 C 
ATOM     14  N   UNL A   1      32.654  28.068  22.493  1.00  0.00    -0.347 N 
ATOM     15  H   UNL A   1      32.940  28.772  21.866  1.00  0.00     0.164 HD
ATOM     16  O   UNL A   1      33.701  26.614  21.149  1.00  0.00    -0.269 OA
BRANCH  14  17
ATOM     17  C   UNL A   1      31.973  28.539  23.682  1.00  0.00     0.163 C 
BRANCH  17  18
ATOM     18  C   UNL A   1      30.624  29.078  23.334  1.00  0.00     0.024 A 
ATOM     19  C   UNL A   1      27.504  31.447  23.533  1.00  0.00     0.056 C 
ATOM     20  C   UNL A   1      28.537  30.402  23.295  1.00  0.00     0.002 A 
ATOM     21  C   UNL A   1      28.423  29.228  22.582  1.00  0.00     0.015 A 
ATOM     22  S   UNL A   1      30.098  30.582  23.969  1.00  0.00    -0.144 S 
ATOM     23  C   UNL A   1      29.628  28.468  22.598  1.00  0.00     0.017 A 
ENDBRANCH  17  18
ENDBRANCH  14  17
ENDBRANCH   9  13
ENDBRANCH   7   8
ENDBRANCH   4   6
ENDBRANCH   3   4
ENDBRANCH   2   3
ENDBRANCH   1   2
BRANCH   1  24
ATOM     24  O   UNL A   1      35.664  18.467  24.768  1.00  0.00    -0.374 OA
BRANCH  24  25
ATOM     25  C   UNL A   1      36.272  19.758  24.841  1.00  0.00     0.202 C 
BRANCH  25  26
ATOM     26  C   UNL A   1      37.804  19.781  24.912  1.00  0.00     0.261 C 
BRANCH  26  27
ATOM     27  O   UNL A   1      38.298  20.967  25.561  1.00  0.00    -0.460 OA
BRANCH  27  28
ATOM     28  C   UNL A   1      39.496  20.821  26.177  1.00  0.00     0.338 C 
ATOM     29  O   UNL A   1      40.219  19.835  26.148  1.00  0.00    -0.246 OA
BRANCH  28  30
ATOM     30  C   UNL A   1      39.927  22.108  26.758  1.00  0.00     0.060 A 
ATOM     31  C   UNL A   1      39.366  23.277  26.227  1.00  0.00     0.016 A 
ATOM     32  C   UNL A   1      40.899  22.181  27.758  1.00  0.00     0.016 A 
ATOM     33  C   UNL A   1      39.807  24.525  26.662  1.00  0.00     0.010 A 
ATOM     34  C   UNL A   1      41.346  23.437  28.188  1.00  0.00     0.010 A 
ATOM     35  C   UNL A   1      40.825  24.614  27.620  1.00  0.00    -0.014 A 
BRANCH  35  36
ATOM     36  C   UNL A   1      41.438  25.933  27.917  1.00  0.00     0.031 A 
ATOM     37  C   UNL A   1      42.844  26.204  27.453  1.00  0.00     0.074 A 
ATOM     38  C   UNL A   1      40.744  26.886  28.565  1.00  0.00     0.049 A 
ATOM     39  N   UNL A   1      43.589  27.265  27.630  1.00  0.00    -0.248 NA
ATOM     40  C   UNL A   1      43.495  25.131  26.688  1.00  0.00     0.031 C 
ATOM     41  C   UNL A   1      39.361  26.757  29.022  1.00  0.00     0.029 A 
ATOM     42  N   UNL A   1      41.110  28.152  28.951  1.00  0.00    -0.354 N 
ATOM     43  C   UNL A   1      44.798  26.988  27.002  1.00  0.00     0.074 A 
ATOM     44  C   UNL A   1      44.698  25.642  26.475  1.00  0.00     0.031 C 
ATOM     45  C   UNL A   1      38.998  27.897  29.638  1.00  0.00     0.029 A 
ATOM     46  C   UNL A   1      40.131  28.820  29.650  1.00  0.00     0.049 A 
ATOM     47  H   UNL A   1      41.989  28.544  28.748  1.00  0.00     0.167 HD
ATOM     48  C   UNL A   1      45.887  27.785  26.867  1.00  0.00     0.034 A 
ATOM     49  C   UNL A   1      40.156  30.026  30.252  1.00  0.00     0.034 A 
ATOM     50  C   UNL A   1      45.977  29.120  27.408  1.00  0.00     0.049 A 
ATOM     51  C   UNL A   1      41.413  30.862  30.168  1.00  0.00     0.074 A 
ATOM     52  C   UNL A   1      47.026  30.019  27.318  1.00  0.00     0.029 A 
ATOM     53  N   UNL A   1      44.985  29.745  28.154  1.00  0.00    -0.354 N 
ATOM     54  N   UNL A   1      42.547  30.592  29.563  1.00  0.00    -0.248 NA
ATOM     55  C   UNL A   1      41.388  32.166  30.844  1.00  0.00     0.031 C 
ATOM     56  C   UNL A   1      46.698  31.154  28.068  1.00  0.00     0.029 A 
ATOM     57  C   UNL A   1      45.413  31.000  28.561  1.00  0.00     0.049 A 
ATOM     58  H   UNL A   1      44.107  29.353  28.364  1.00  0.00     0.167 HD
ATOM     59  C   UNL A   1      43.358  31.707  29.761  1.00  0.00     0.074 A 
ATOM     60  C   UNL A   1      42.578  32.656  30.528  1.00  0.00     0.031 C 
ATOM     61  C   UNL A   1      44.630  31.930  29.340  1.00  0.00     0.034 A 
BRANCH  48  62
ATOM     62  C   UNL A   1      47.084  27.207  26.151  1.00  0.00     0.023 A 
ATOM     63  C   UNL A   1      48.078  26.483  26.833  1.00  0.00     0.031 A 
ATOM     64  C   UNL A   1      47.250  27.410  24.768  1.00  0.00     0.131 A 
ATOM     65  C   UNL A   1      49.224  26.051  26.148  1.00  0.00     0.055 A 
ATOM     66  C   UNL A   1      48.355  26.909  24.079  1.00  0.00     0.041 A 
ATOM     67  F   UNL A   1      46.346  28.113  24.068  1.00  0.00    -0.206 F 
ATOM     68  C   UNL A   1      49.358  26.237  24.771  1.00  0.00     0.022 A 
BRANCH  65  69
ATOM     69  S   UNL A   1      50.602  25.369  27.110  1.00  0.00     0.124 S 
ATOM     70  O   UNL A   1      49.948  24.279  27.831  1.00  0.00    -0.237 OA
ATOM     71  O   UNL A   1      51.546  24.972  26.072  1.00  0.00    -0.237 OA
ATOM     72  O   UNL A   1      51.026  26.491  27.944  1.00  0.00    -0.744 OA
ENDBRANCH  65  69
ENDBRANCH  48  62
BRANCH  49  73
ATOM     73  C   UNL A   1      38.978  30.508  31.029  1.00  0.00     0.023 A 
ATOM     74  C   UNL A   1      38.022  31.357  30.450  1.00  0.00     0.031 A 
ATOM     75  C   UNL A   1      38.824  30.171  32.386  1.00  0.00     0.131 A 
ATOM     76  C   UNL A   1      36.980  31.876  31.235  1.00  0.00     0.055 A 
ATOM     77  C   UNL A   1      37.757  30.647  33.149  1.00  0.00     0.041 A 
ATOM     78  F   UNL A   1      39.711  29.363  32.990  1.00  0.00    -0.206 F 
ATOM     79  C   UNL A   1      36.834  31.516  32.577  1.00  0.00     0.022 A 
BRANCH  76  80
ATOM     80  S   UNL A   1      35.863  33.100  30.498  1.00  0.00     0.124 S 
ATOM     81  O   UNL A   1      34.606  32.362  30.447  1.00  0.00    -0.237 OA
ATOM     82  O   UNL A   1      35.929  34.191  31.465  1.00  0.00    -0.237 OA
ATOM     83  O   UNL A   1      36.476  33.381  29.201  1.00  0.00    -0.744 OA
ENDBRANCH  76  80
ENDBRANCH  49  73
BRANCH  61  84
ATOM     84  C   UNL A   1      45.237  33.274  29.670  1.00  0.00     0.023 A 
ATOM     85  C   UNL A   1      45.020  34.403  28.861  1.00  0.00     0.031 A 
ATOM     86  C   UNL A   1      46.052  33.421  30.807  1.00  0.00     0.131 A 
ATOM     87  C   UNL A   1      45.656  35.617  29.169  1.00  0.00     0.055 A 
ATOM     88  C   UNL A   1      46.632  34.645  31.142  1.00  0.00     0.041 A 
ATOM     89  F   UNL A   1      46.294  32.377  31.614  1.00  0.00    -0.206 F 
ATOM     90  C   UNL A   1      46.447  35.749  30.313  1.00  0.00     0.022 A 
BRANCH  87  91
ATOM     91  S   UNL A   1      45.510  36.999  28.003  1.00  0.00     0.124 S 
ATOM     92  O   UNL A   1      45.019  38.070  28.863  1.00  0.00    -0.237 OA
ATOM     93  O   UNL A   1      46.878  37.145  27.519  1.00  0.00    -0.237 OA
ATOM     94  O   UNL A   1      44.552  36.511  27.012  1.00  0.00    -0.744 OA
ENDBRANCH  87  91
ENDBRANCH  61  84
ENDBRANCH  35  36
ENDBRANCH  28  30
ENDBRANCH  27  28
ENDBRANCH  26  27
ENDBRANCH  25  26
ENDBRANCH  24  25
ENDBRANCH   1  24
TORSDOF 21
ENDMDL
MODEL 3
REMARK VINA RESULT:     -10.2      4.960      7.656
REMARK SMILES Cc1ccc(CNC(=O)c2csc(/C=C/C(=O)OCCOCCOC(=O)c3ccc(-c4c5nc(c(-c6cc(S(=O)(=O)[O-])ccc6F)c6ccc([nH]6)c(-c6cc(S(=O)(=O)[O-])ccc6F)c6nc(c(-c7cc(S(=O)(=O)[O-])ccc7F)c7ccc4[nH]7)C=C6)C=C5)cc3)c2)s1
REMARK SMILES IDX 20 1 19 2 18 3 16 4 17 5 15 6 14 7 13 8 10 9 11 10 90 11
REMARK SMILES IDX 12 12 8 13 7 14 9 16 6 17 5 18 1 19 2 20 3 21 91 22 4 23
REMARK SMILES IDX 21 24 22 25 23 26 24 27 25 28 26 29 27 30 28 31 89 32 29 33
REMARK SMILES IDX 88 34 30 35 31 36 32 37 82 38 33 39 87 40 81 41 83 42 34 43
REMARK SMILES IDX 86 44 80 45 79 46 35 48 67 49 47 50 66 51 48 52 51 53 65 54
REMARK SMILES IDX 84 55 49 56 50 57 64 59 85 60 52 61 36 62 37 63 45 64 38 65
REMARK SMILES IDX 44 66 46 67 43 68 39 69 40 70 41 71 42 72 68 73 69 74 77 75
REMARK SMILES IDX 70 76 76 77 78 78 75 79 71 80 72 81 73 82 74 83 53 84 54 85
REMARK SMILES IDX 62 86 55 87 61 88 63 89 60 90 56 91 57 92 58 93 59 94
REMARK H PARENT 7 15 83 47 51 58
REMARK Flexibility Score: inf
ROOT
ATOM      1  C   UNL A   1      33.612  21.891  24.790  1.00  0.00     0.202 C 
ENDROOT
BRANCH   1   2
ATOM      2  C   UNL A   1      32.403  21.119  25.323  1.00  0.00     0.261 C 
BRANCH   2   3
ATOM      3  O   UNL A   1      31.411  22.016  25.853  1.00  0.00    -0.460 OA
BRANCH   3   4
ATOM      4  C   UNL A   1      31.858  22.884  26.789  1.00  0.00     0.330 C 
ATOM      5  O   UNL A   1      32.146  22.626  27.948  1.00  0.00    -0.247 OA
BRANCH   4   6
ATOM      6  C   UNL A   1      32.050  24.243  26.246  1.00  0.00     0.095 C 
ATOM      7  C   UNL A   1      31.699  25.393  26.846  1.00  0.00     0.026 C 
BRANCH   7   8
ATOM      8  C   UNL A   1      31.968  26.664  26.251  1.00  0.00     0.028 A 
ATOM      9  C   UNL A   1      32.387  28.296  24.592  1.00  0.00     0.051 A 
ATOM     10  C   UNL A   1      32.090  29.077  25.692  1.00  0.00     0.079 A 
ATOM     11  C   UNL A   1      32.456  26.911  24.977  1.00  0.00     0.033 A 
ATOM     12  S   UNL A   1      31.745  28.157  27.083  1.00  0.00    -0.144 S 
BRANCH   9  13
ATOM     13  C   UNL A   1      32.619  28.889  23.277  1.00  0.00     0.252 C 
ATOM     14  N   UNL A   1      31.571  29.023  22.404  1.00  0.00    -0.347 N 
ATOM     15  H   UNL A   1      31.813  29.327  21.499  1.00  0.00     0.164 HD
ATOM     16  O   UNL A   1      33.723  29.322  22.950  1.00  0.00    -0.269 OA
BRANCH  14  17
ATOM     17  C   UNL A   1      30.160  28.779  22.617  1.00  0.00     0.163 C 
BRANCH  17  18
ATOM     18  C   UNL A   1      29.392  30.060  22.552  1.00  0.00     0.024 A 
ATOM     19  C   UNL A   1      27.590  33.129  20.902  1.00  0.00     0.056 C 
ATOM     20  C   UNL A   1      28.237  32.095  21.756  1.00  0.00     0.002 A 
ATOM     21  C   UNL A   1      28.496  32.138  23.109  1.00  0.00     0.015 A 
ATOM     22  S   UNL A   1      28.781  30.633  21.055  1.00  0.00    -0.144 S 
ATOM     23  C   UNL A   1      29.156  30.962  23.570  1.00  0.00     0.017 A 
ENDBRANCH  17  18
ENDBRANCH  14  17
ENDBRANCH   9  13
ENDBRANCH   7   8
ENDBRANCH   4   6
ENDBRANCH   3   4
ENDBRANCH   2   3
ENDBRANCH   1   2
BRANCH   1  24
ATOM     24  O   UNL A   1      34.887  21.413  25.222  1.00  0.00    -0.374 OA
BRANCH  24  25
ATOM     25  C   UNL A   1      35.995  21.657  24.353  1.00  0.00     0.202 C 
BRANCH  25  26
ATOM     26  C   UNL A   1      37.334  21.036  24.772  1.00  0.00     0.261 C 
BRANCH  26  27
ATOM     27  O   UNL A   1      37.808  21.566  26.023  1.00  0.00    -0.460 OA
BRANCH  27  28
ATOM     28  C   UNL A   1      39.144  21.452  26.220  1.00  0.00     0.338 C 
ATOM     29  O   UNL A   1      39.861  20.530  25.856  1.00  0.00    -0.246 OA
BRANCH  28  30
ATOM     30  C   UNL A   1      39.682  22.705  26.783  1.00  0.00     0.060 A 
ATOM     31  C   UNL A   1      39.084  23.905  26.377  1.00  0.00     0.016 A 
ATOM     32  C   UNL A   1      40.782  22.719  27.644  1.00  0.00     0.016 A 
ATOM     33  C   UNL A   1      39.611  25.126  26.795  1.00  0.00     0.010 A 
ATOM     34  C   UNL A   1      41.315  23.947  28.055  1.00  0.00     0.010 A 
ATOM     35  C   UNL A   1      40.752  25.156  27.608  1.00  0.00    -0.014 A 
BRANCH  35  36
ATOM     36  C   UNL A   1      41.432  26.450  27.867  1.00  0.00     0.031 A 
ATOM     37  C   UNL A   1      42.854  26.629  27.409  1.00  0.00     0.074 A 
ATOM     38  C   UNL A   1      40.785  27.460  28.476  1.00  0.00     0.049 A 
ATOM     39  N   UNL A   1      43.654  27.654  27.559  1.00  0.00    -0.248 NA
ATOM     40  C   UNL A   1      43.454  25.497  26.686  1.00  0.00     0.031 C 
ATOM     41  C   UNL A   1      39.394  27.421  28.923  1.00  0.00     0.029 A 
ATOM     42  N   UNL A   1      41.215  28.716  28.824  1.00  0.00    -0.354 N 
ATOM     43  C   UNL A   1      44.852  27.291  26.952  1.00  0.00     0.074 A 
ATOM     44  C   UNL A   1      44.684  25.936  26.469  1.00  0.00     0.031 C 
ATOM     45  C   UNL A   1      39.087  28.598  29.496  1.00  0.00     0.029 A 
ATOM     46  C   UNL A   1      40.268  29.459  29.490  1.00  0.00     0.049 A 
ATOM     47  H   UNL A   1      42.116  29.053  28.617  1.00  0.00     0.167 HD
ATOM     48  C   UNL A   1      45.983  28.024  26.802  1.00  0.00     0.034 A 
ATOM     49  C   UNL A   1      40.353  30.681  30.052  1.00  0.00     0.034 A 
ATOM     50  C   UNL A   1      46.140  29.370  27.300  1.00  0.00     0.049 A 
ATOM     51  C   UNL A   1      41.653  31.445  29.954  1.00  0.00     0.074 A 
ATOM     52  C   UNL A   1      47.237  30.208  27.190  1.00  0.00     0.029 A 
ATOM     53  N   UNL A   1      45.177  30.072  28.014  1.00  0.00    -0.354 N 
ATOM     54  N   UNL A   1      42.777  31.095  29.369  1.00  0.00    -0.248 NA
ATOM     55  C   UNL A   1      41.693  32.771  30.585  1.00  0.00     0.031 C 
ATOM     56  C   UNL A   1      46.965  31.383  27.899  1.00  0.00     0.029 A 
ATOM     57  C   UNL A   1      45.669  31.315  28.384  1.00  0.00     0.049 A 
ATOM     58  H   UNL A   1      44.277  29.735  28.228  1.00  0.00     0.167 HD
ATOM     59  C   UNL A   1      43.645  32.171  29.538  1.00  0.00     0.074 A 
ATOM     60  C   UNL A   1      42.911  33.186  30.266  1.00  0.00     0.031 C 
ATOM     61  C   UNL A   1      44.930  32.312  29.124  1.00  0.00     0.034 A 
BRANCH  48  62
ATOM     62  C   UNL A   1      47.153  27.359  26.117  1.00  0.00     0.023 A 
ATOM     63  C   UNL A   1      48.101  26.607  26.833  1.00  0.00     0.031 A 
ATOM     64  C   UNL A   1      47.342  27.505  24.731  1.00  0.00     0.131 A 
ATOM     65  C   UNL A   1      49.229  26.091  26.175  1.00  0.00     0.055 A 
ATOM     66  C   UNL A   1      48.424  26.923  24.070  1.00  0.00     0.041 A 
ATOM     67  F   UNL A   1      46.482  28.231  23.998  1.00  0.00    -0.206 F 
ATOM     68  C   UNL A   1      49.383  26.223  24.794  1.00  0.00     0.022 A 
BRANCH  65  69
ATOM     69  S   UNL A   1      50.560  25.370  27.173  1.00  0.00     0.124 S 
ATOM     70  O   UNL A   1      50.974  26.514  27.984  1.00  0.00    -0.237 OA
ATOM     71  O   UNL A   1      49.877  24.296  27.883  1.00  0.00    -0.237 OA
ATOM     72  O   UNL A   1      51.538  24.937  26.177  1.00  0.00    -0.744 OA
ENDBRANCH  65  69
ENDBRANCH  48  62
BRANCH  49  73
ATOM     73  C   UNL A   1      39.196  31.252  30.800  1.00  0.00     0.023 A 
ATOM     74  C   UNL A   1      38.130  31.872  30.130  1.00  0.00     0.031 A 
ATOM     75  C   UNL A   1      39.170  31.235  32.207  1.00  0.00     0.131 A 
ATOM     76  C   UNL A   1      37.106  32.490  30.866  1.00  0.00     0.055 A 
ATOM     77  C   UNL A   1      38.123  31.804  32.933  1.00  0.00     0.041 A 
ATOM     78  F   UNL A   1      40.165  30.655  32.897  1.00  0.00    -0.206 F 
ATOM     79  C   UNL A   1      37.088  32.448  32.262  1.00  0.00     0.022 A 
BRANCH  76  80
ATOM     80  S   UNL A   1      35.836  33.426  29.971  1.00  0.00     0.124 S 
ATOM     81  O   UNL A   1      36.644  34.381  29.221  1.00  0.00    -0.237 OA
ATOM     82  O   UNL A   1      35.185  32.380  29.190  1.00  0.00    -0.237 OA
ATOM     83  O   UNL A   1      35.021  34.000  31.041  1.00  0.00    -0.744 OA
ENDBRANCH  76  80
ENDBRANCH  49  73
BRANCH  61  84
ATOM     84  C   UNL A   1      45.606  33.631  29.415  1.00  0.00     0.023 A 
ATOM     85  C   UNL A   1      46.353  33.839  30.587  1.00  0.00     0.031 A 
ATOM     86  C   UNL A   1      45.489  34.699  28.506  1.00  0.00     0.131 A 
ATOM     87  C   UNL A   1      46.910  35.101  30.847  1.00  0.00     0.055 A 
ATOM     88  C   UNL A   1      46.096  35.934  28.742  1.00  0.00     0.041 A 
ATOM     89  F   UNL A   1      44.786  34.558  27.372  1.00  0.00    -0.206 F 
ATOM     90  C   UNL A   1      46.800  36.145  29.924  1.00  0.00     0.022 A 
BRANCH  87  91
ATOM     91  S   UNL A   1      47.704  35.390  32.452  1.00  0.00     0.124 S 
ATOM     92  O   UNL A   1      47.348  34.182  33.189  1.00  0.00    -0.237 OA
ATOM     93  O   UNL A   1      49.110  35.521  32.086  1.00  0.00    -0.237 OA
ATOM     94  O   UNL A   1      47.072  36.617  32.932  1.00  0.00    -0.744 OA
ENDBRANCH  87  91
ENDBRANCH  61  84
ENDBRANCH  35  36
ENDBRANCH  28  30
ENDBRANCH  27  28
ENDBRANCH  26  27
ENDBRANCH  25  26
ENDBRANCH  24  25
ENDBRANCH   1  24
TORSDOF 21
ENDMDL
