MODEL 1
REMARK VINA RESULT:     -10.1      0.000      0.000
REMARK SMILES CC[C@@H](C(=O)OCCOCCOC(=O)c1ccc(-c2c3nc(c(-c4cc(S(=O)(=O)[O-])ccc4F)c4ccc([nH]4)c(-c4cc(S(=O)(=O)[O-])ccc4F)c4nc(c(-c5cc(S(=O)(=O)[O-])ccc5F)c5ccc2[nH]5)C=C4)C=C3)cc1)[N@@H+](C)Cc1cccc(C)n1
REMARK SMILES IDX 9 1 8 2 7 3 6 4 4 5 5 6 3 7 2 8 1 9 78 10 79 11 80 13 81 14
REMARK SMILES IDX 82 15 87 16 83 17 85 18 84 19 86 20 10 21 11 22 12 23 13 24
REMARK SMILES IDX 14 25 15 26 16 27 77 28 17 29 76 30 18 31 19 32 20 33 70 34
REMARK SMILES IDX 21 35 75 36 69 37 71 38 22 39 74 40 68 41 67 42 23 44 55 45
REMARK SMILES IDX 35 46 54 47 36 48 39 49 53 50 72 51 37 52 38 53 52 55 73 56
REMARK SMILES IDX 40 57 24 58 25 59 33 60 26 61 32 62 34 63 31 64 27 65 28 66
REMARK SMILES IDX 29 67 30 68 56 69 57 70 65 71 58 72 64 73 66 74 63 75 59 76
REMARK SMILES IDX 60 77 61 78 62 79 41 80 42 81 50 82 43 83 49 84 51 85 48 86
REMARK SMILES IDX 44 87 45 88 46 89 47 90
REMARK H PARENT 78 12 71 43 39 54
REMARK Flexibility Score: inf
ROOT
ATOM      1  O   UNL A   1      34.517  36.259  34.048  1.00  0.00    -0.374 OA
ENDROOT
BRANCH   1   2
ATOM      2  C   UNL A   1      33.628  37.025  33.236  1.00  0.00     0.202 C 
BRANCH   2   3
ATOM      3  C   UNL A   1      32.912  36.295  32.099  1.00  0.00     0.261 C 
BRANCH   3   4
ATOM      4  O   UNL A   1      33.648  36.394  30.868  1.00  0.00    -0.459 OA
BRANCH   4   5
ATOM      5  C   UNL A   1      33.048  35.868  29.766  1.00  0.00     0.364 C 
ATOM      6  O   UNL A   1      32.218  36.466  29.088  1.00  0.00    -0.245 OA
BRANCH   5   7
ATOM      7  C   UNL A   1      33.482  34.406  29.513  1.00  0.00     0.294 C 
BRANCH   7   8
ATOM      8  C   UNL A   1      34.772  33.900  30.210  1.00  0.00     0.074 C 
ATOM      9  C   UNL A   1      34.696  32.491  30.790  1.00  0.00     0.011 C 
ENDBRANCH   7   8
BRANCH   7  10
ATOM     10  N   UNL A   1      33.548  34.112  28.056  1.00  0.00    -0.321 N 
ATOM     11  C   UNL A   1      34.822  34.406  27.439  1.00  0.00     0.333 C 
ATOM     12  H   UNL A   1      32.943  34.845  27.687  1.00  0.00     0.348 HD
BRANCH  10  13
ATOM     13  C   UNL A   1      32.695  33.065  27.474  1.00  0.00     0.320 C 
BRANCH  13  14
ATOM     14  C   UNL A   1      33.105  31.612  27.233  1.00  0.00     0.095 A 
ATOM     15  C   UNL A   1      32.239  30.593  26.853  1.00  0.00     0.030 A 
ATOM     16  N   UNL A   1      34.379  31.314  27.639  1.00  0.00    -0.252 NA
ATOM     17  C   UNL A   1      32.672  29.267  26.876  1.00  0.00     0.004 A 
ATOM     18  C   UNL A   1      34.787  30.018  27.665  1.00  0.00     0.038 A 
ATOM     19  C   UNL A   1      33.962  28.970  27.291  1.00  0.00     0.023 A 
ATOM     20  C   UNL A   1      36.185  29.747  28.141  1.00  0.00     0.067 C 
ENDBRANCH  13  14
ENDBRANCH  10  13
ENDBRANCH   7  10
ENDBRANCH   5   7
ENDBRANCH   4   5
ENDBRANCH   3   4
ENDBRANCH   2   3
ENDBRANCH   1   2
BRANCH   1  21
ATOM     21  C   UNL A   1      34.943  34.987  33.565  1.00  0.00     0.202 C 
BRANCH  21  22
ATOM     22  C   UNL A   1      35.519  33.989  34.580  1.00  0.00     0.261 C 
BRANCH  22  23
ATOM     23  O   UNL A   1      35.797  32.699  34.010  1.00  0.00    -0.460 OA
BRANCH  23  24
ATOM     24  C   UNL A   1      36.983  32.175  34.405  1.00  0.00     0.338 C 
ATOM     25  O   UNL A   1      37.438  32.172  35.542  1.00  0.00    -0.246 OA
BRANCH  24  26
ATOM     26  C   UNL A   1      37.614  31.408  33.316  1.00  0.00     0.060 A 
ATOM     27  C   UNL A   1      38.465  30.364  33.701  1.00  0.00     0.016 A 
ATOM     28  C   UNL A   1      37.477  31.752  31.969  1.00  0.00     0.016 A 
ATOM     29  C   UNL A   1      39.252  29.721  32.753  1.00  0.00     0.010 A 
ATOM     30  C   UNL A   1      38.277  31.107  31.015  1.00  0.00     0.010 A 
ATOM     31  C   UNL A   1      39.209  30.131  31.414  1.00  0.00    -0.014 A 
BRANCH  31  32
ATOM     32  C   UNL A   1      40.309  29.687  30.520  1.00  0.00     0.031 A 
ATOM     33  C   UNL A   1      41.571  30.511  30.471  1.00  0.00     0.074 A 
ATOM     34  C   UNL A   1      40.238  28.512  29.869  1.00  0.00     0.049 A 
ATOM     35  N   UNL A   1      42.696  30.276  29.847  1.00  0.00    -0.248 NA
ATOM     36  C   UNL A   1      41.558  31.770  31.233  1.00  0.00     0.031 C 
ATOM     37  C   UNL A   1      39.090  27.607  29.886  1.00  0.00     0.029 A 
ATOM     38  N   UNL A   1      41.162  27.868  29.085  1.00  0.00    -0.354 N 
ATOM     39  C   UNL A   1      43.528  31.351  30.148  1.00  0.00     0.074 A 
ATOM     40  C   UNL A   1      42.756  32.263  30.965  1.00  0.00     0.031 C 
ATOM     41  C   UNL A   1      39.382  26.517  29.155  1.00  0.00     0.029 A 
ATOM     42  C   UNL A   1      40.726  26.658  28.598  1.00  0.00     0.049 A 
ATOM     43  H   UNL A   1      42.054  28.237  28.890  1.00  0.00     0.167 HD
ATOM     44  C   UNL A   1      44.821  31.551  29.793  1.00  0.00     0.034 A 
ATOM     45  C   UNL A   1      41.341  25.771  27.790  1.00  0.00     0.034 A 
ATOM     46  C   UNL A   1      45.575  30.637  28.970  1.00  0.00     0.049 A 
ATOM     47  C   UNL A   1      42.755  26.054  27.342  1.00  0.00     0.074 A 
ATOM     48  C   UNL A   1      46.888  30.738  28.545  1.00  0.00     0.029 A 
ATOM     49  N   UNL A   1      45.076  29.454  28.437  1.00  0.00    -0.354 N 
ATOM     50  N   UNL A   1      43.533  27.070  27.640  1.00  0.00    -0.248 NA
ATOM     51  C   UNL A   1      43.380  25.058  26.462  1.00  0.00     0.031 C 
ATOM     52  C   UNL A   1      47.160  29.656  27.700  1.00  0.00     0.029 A 
ATOM     53  C   UNL A   1      46.045  28.835  27.660  1.00  0.00     0.049 A 
ATOM     54  H   UNL A   1      44.168  29.106  28.588  1.00  0.00     0.167 HD
ATOM     55  C   UNL A   1      44.746  26.821  27.004  1.00  0.00     0.074 A 
ATOM     56  C   UNL A   1      44.604  25.545  26.330  1.00  0.00     0.031 C 
ATOM     57  C   UNL A   1      45.879  27.572  26.976  1.00  0.00     0.034 A 
BRANCH  44  58
ATOM     58  C   UNL A   1      45.472  32.836  30.249  1.00  0.00     0.023 A 
ATOM     59  C   UNL A   1      46.155  32.929  31.476  1.00  0.00     0.031 A 
ATOM     60  C   UNL A   1      45.372  34.000  29.466  1.00  0.00     0.131 A 
ATOM     61  C   UNL A   1      46.642  34.171  31.915  1.00  0.00     0.055 A 
ATOM     62  C   UNL A   1      45.930  35.214  29.871  1.00  0.00     0.041 A 
ATOM     63  F   UNL A   1      44.711  33.980  28.297  1.00  0.00    -0.206 F 
ATOM     64  C   UNL A   1      46.557  35.308  31.110  1.00  0.00     0.022 A 
BRANCH  61  65
ATOM     65  S   UNL A   1      47.259  34.311  33.617  1.00  0.00     0.124 S 
ATOM     66  O   UNL A   1      48.646  33.881  33.463  1.00  0.00    -0.237 OA
ATOM     67  O   UNL A   1      47.055  35.725  33.910  1.00  0.00    -0.237 OA
ATOM     68  O   UNL A   1      46.407  33.390  34.366  1.00  0.00    -0.744 OA
ENDBRANCH  61  65
ENDBRANCH  44  58
BRANCH  45  69
ATOM     69  C   UNL A   1      40.626  24.548  27.322  1.00  0.00     0.023 A 
ATOM     70  C   UNL A   1      41.256  23.294  27.299  1.00  0.00     0.031 A 
ATOM     71  C   UNL A   1      39.312  24.633  26.825  1.00  0.00     0.131 A 
ATOM     72  C   UNL A   1      40.591  22.186  26.748  1.00  0.00     0.055 A 
ATOM     73  C   UNL A   1      38.636  23.518  26.328  1.00  0.00     0.041 A 
ATOM     74  F   UNL A   1      38.663  25.808  26.820  1.00  0.00    -0.206 F 
ATOM     75  C   UNL A   1      39.281  22.288  26.275  1.00  0.00     0.022 A 
BRANCH  72  76
ATOM     76  S   UNL A   1      41.498  20.623  26.575  1.00  0.00     0.124 S 
ATOM     77  O   UNL A   1      42.516  20.977  25.594  1.00  0.00    -0.237 OA
ATOM     78  O   UNL A   1      41.969  20.396  27.937  1.00  0.00    -0.237 OA
ATOM     79  O   UNL A   1      40.477  19.688  26.107  1.00  0.00    -0.744 OA
ENDBRANCH  72  76
ENDBRANCH  45  69
BRANCH  57  80
ATOM     80  C   UNL A   1      47.054  27.007  26.215  1.00  0.00     0.023 A 
ATOM     81  C   UNL A   1      48.107  26.341  26.871  1.00  0.00     0.031 A 
ATOM     82  C   UNL A   1      47.143  27.167  24.822  1.00  0.00     0.131 A 
ATOM     83  C   UNL A   1      49.235  25.930  26.144  1.00  0.00     0.055 A 
ATOM     84  C   UNL A   1      48.237  26.693  24.094  1.00  0.00     0.041 A 
ATOM     85  F   UNL A   1      46.171  27.794  24.142  1.00  0.00    -0.206 F 
ATOM     86  C   UNL A   1      49.299  26.088  24.758  1.00  0.00     0.022 A 
BRANCH  83  87
ATOM     87  S   UNL A   1      50.673  25.304  27.057  1.00  0.00     0.124 S 
ATOM     88  O   UNL A   1      50.093  24.208  27.824  1.00  0.00    -0.237 OA
ATOM     89  O   UNL A   1      51.580  24.919  25.980  1.00  0.00    -0.237 OA
ATOM     90  O   UNL A   1      51.105  26.456  27.847  1.00  0.00    -0.744 OA
ENDBRANCH  83  87
ENDBRANCH  57  80
ENDBRANCH  31  32
ENDBRANCH  24  26
ENDBRANCH  23  24
ENDBRANCH  22  23
ENDBRANCH  21  22
ENDBRANCH   1  21
TORSDOF 21
ENDMDL
MODEL 2
REMARK VINA RESULT:      -9.8      3.811     10.225
REMARK SMILES CC[C@@H](C(=O)OCCOCCOC(=O)c1ccc(-c2c3nc(c(-c4cc(S(=O)(=O)[O-])ccc4F)c4ccc([nH]4)c(-c4cc(S(=O)(=O)[O-])ccc4F)c4nc(c(-c5cc(S(=O)(=O)[O-])ccc5F)c5ccc2[nH]5)C=C4)C=C3)cc1)[N@@H+](C)Cc1cccc(C)n1
REMARK SMILES IDX 9 1 8 2 7 3 6 4 4 5 5 6 3 7 2 8 1 9 78 10 79 11 80 13 81 14
REMARK SMILES IDX 82 15 87 16 83 17 85 18 84 19 86 20 10 21 11 22 12 23 13 24
REMARK SMILES IDX 14 25 15 26 16 27 77 28 17 29 76 30 18 31 19 32 20 33 70 34
REMARK SMILES IDX 21 35 75 36 69 37 71 38 22 39 74 40 68 41 67 42 23 44 55 45
REMARK SMILES IDX 35 46 54 47 36 48 39 49 53 50 72 51 37 52 38 53 52 55 73 56
REMARK SMILES IDX 40 57 24 58 25 59 33 60 26 61 32 62 34 63 31 64 27 65 28 66
REMARK SMILES IDX 29 67 30 68 56 69 57 70 65 71 58 72 64 73 66 74 63 75 59 76
REMARK SMILES IDX 60 77 61 78 62 79 41 80 42 81 50 82 43 83 49 84 51 85 48 86
REMARK SMILES IDX 44 87 45 88 46 89 47 90
REMARK H PARENT 78 12 71 43 39 54
REMARK Flexibility Score: inf
ROOT
ATOM      1  O   UNL A   1      38.813  21.931  25.516  1.00  0.00    -0.374 OA
ENDROOT
BRANCH   1   2
ATOM      2  C   UNL A   1      37.521  22.520  25.651  1.00  0.00     0.202 C 
BRANCH   2   3
ATOM      3  C   UNL A   1      36.320  21.573  25.692  1.00  0.00     0.261 C 
BRANCH   3   4
ATOM      4  O   UNL A   1      35.080  22.297  25.618  1.00  0.00    -0.459 OA
BRANCH   4   5
ATOM      5  C   UNL A   1      34.087  21.871  26.444  1.00  0.00     0.364 C 
ATOM      6  O   UNL A   1      34.275  21.459  27.585  1.00  0.00    -0.245 OA
BRANCH   5   7
ATOM      7  C   UNL A   1      32.705  21.901  25.752  1.00  0.00     0.294 C 
BRANCH   7   8
ATOM      8  C   UNL A   1      32.480  20.958  24.541  1.00  0.00     0.074 C 
ATOM      9  C   UNL A   1      33.125  19.580  24.652  1.00  0.00     0.011 C 
ENDBRANCH   7   8
BRANCH   7  10
ATOM     10  N   UNL A   1      32.319  23.290  25.386  1.00  0.00    -0.321 N 
ATOM     11  C   UNL A   1      31.007  23.415  24.792  1.00  0.00     0.333 C 
ATOM     12  H   UNL A   1      32.942  23.458  24.597  1.00  0.00     0.348 HD
BRANCH  10  13
ATOM     13  C   UNL A   1      32.884  24.432  26.122  1.00  0.00     0.320 C 
BRANCH  13  14
ATOM     14  C   UNL A   1      32.908  25.881  25.636  1.00  0.00     0.095 A 
ATOM     15  C   UNL A   1      33.652  26.346  24.557  1.00  0.00     0.030 A 
ATOM     16  N   UNL A   1      32.306  26.769  26.487  1.00  0.00    -0.252 NA
ATOM     17  C   UNL A   1      33.775  27.719  24.336  1.00  0.00     0.004 A 
ATOM     18  C   UNL A   1      32.439  28.104  26.267  1.00  0.00     0.038 A 
ATOM     19  C   UNL A   1      33.165  28.614  25.203  1.00  0.00     0.023 A 
ATOM     20  C   UNL A   1      31.776  29.031  27.244  1.00  0.00     0.067 C 
ENDBRANCH  13  14
ENDBRANCH  10  13
ENDBRANCH   7  10
ENDBRANCH   5   7
ENDBRANCH   4   5
ENDBRANCH   3   4
ENDBRANCH   2   3
ENDBRANCH   1   2
BRANCH   1  21
ATOM     21  C   UNL A   1      39.044  20.664  26.129  1.00  0.00     0.202 C 
BRANCH  21  22
ATOM     22  C   UNL A   1      40.497  20.255  26.408  1.00  0.00     0.261 C 
BRANCH  22  23
ATOM     23  O   UNL A   1      41.444  20.900  25.539  1.00  0.00    -0.460 OA
BRANCH  23  24
ATOM     24  C   UNL A   1      42.535  21.379  26.184  1.00  0.00     0.338 C 
ATOM     25  O   UNL A   1      43.675  20.934  26.123  1.00  0.00    -0.246 OA
BRANCH  24  26
ATOM     26  C   UNL A   1      42.238  22.661  26.849  1.00  0.00     0.060 A 
ATOM     27  C   UNL A   1      41.950  23.746  26.013  1.00  0.00     0.016 A 
ATOM     28  C   UNL A   1      42.341  22.838  28.232  1.00  0.00     0.016 A 
ATOM     29  C   UNL A   1      41.856  25.028  26.541  1.00  0.00     0.010 A 
ATOM     30  C   UNL A   1      42.251  24.133  28.762  1.00  0.00     0.010 A 
ATOM     31  C   UNL A   1      42.068  25.237  27.909  1.00  0.00    -0.014 A 
BRANCH  31  32
ATOM     32  C   UNL A   1      42.324  26.627  28.364  1.00  0.00     0.031 A 
ATOM     33  C   UNL A   1      43.729  27.167  28.268  1.00  0.00     0.074 A 
ATOM     34  C   UNL A   1      41.310  27.433  28.729  1.00  0.00     0.049 A 
ATOM     35  N   UNL A   1      44.178  28.372  28.509  1.00  0.00    -0.248 NA
ATOM     36  C   UNL A   1      44.766  26.215  27.838  1.00  0.00     0.031 C 
ATOM     37  C   UNL A   1      39.905  27.036  28.808  1.00  0.00     0.029 A 
ATOM     38  N   UNL A   1      41.305  28.759  29.081  1.00  0.00    -0.354 N 
ATOM     39  C   UNL A   1      45.545  28.325  28.252  1.00  0.00     0.074 A 
ATOM     40  C   UNL A   1      45.858  26.959  27.890  1.00  0.00     0.031 C 
ATOM     41  C   UNL A   1      39.171  28.100  29.173  1.00  0.00     0.029 A 
ATOM     42  C   UNL A   1      40.054  29.247  29.380  1.00  0.00     0.049 A 
ATOM     43  H   UNL A   1      42.120  29.310  29.116  1.00  0.00     0.167 HD
ATOM     44  C   UNL A   1      46.454  29.331  28.295  1.00  0.00     0.034 A 
ATOM     45  C   UNL A   1      39.670  30.476  29.780  1.00  0.00     0.034 A 
ATOM     46  C   UNL A   1      46.129  30.686  28.667  1.00  0.00     0.049 A 
ATOM     47  C   UNL A   1      40.714  31.561  29.897  1.00  0.00     0.074 A 
ATOM     48  C   UNL A   1      46.966  31.785  28.747  1.00  0.00     0.029 A 
ATOM     49  N   UNL A   1      44.862  31.127  29.031  1.00  0.00    -0.354 N 
ATOM     50  N   UNL A   1      42.001  31.506  29.644  1.00  0.00    -0.248 NA
ATOM     51  C   UNL A   1      40.245  32.881  30.338  1.00  0.00     0.031 C 
ATOM     52  C   UNL A   1      46.222  32.869  29.227  1.00  0.00     0.029 A 
ATOM     53  C   UNL A   1      44.903  32.471  29.369  1.00  0.00     0.049 A 
ATOM     54  H   UNL A   1      44.053  30.566  29.046  1.00  0.00     0.167 HD
ATOM     55  C   UNL A   1      42.490  32.790  29.870  1.00  0.00     0.074 A 
ATOM     56  C   UNL A   1      41.352  33.602  30.253  1.00  0.00     0.031 C 
ATOM     57  C   UNL A   1      43.761  33.262  29.771  1.00  0.00     0.034 A 
BRANCH  44  58
ATOM     58  C   UNL A   1      47.891  28.978  27.986  1.00  0.00     0.023 A 
ATOM     59  C   UNL A   1      48.342  28.785  26.667  1.00  0.00     0.031 A 
ATOM     60  C   UNL A   1      48.814  28.789  29.030  1.00  0.00     0.131 A 
ATOM     61  C   UNL A   1      49.654  28.344  26.433  1.00  0.00     0.055 A 
ATOM     62  C   UNL A   1      50.141  28.429  28.785  1.00  0.00     0.041 A 
ATOM     63  F   UNL A   1      48.437  28.934  30.310  1.00  0.00    -0.206 F 
ATOM     64  C   UNL A   1      50.564  28.189  27.481  1.00  0.00     0.022 A 
BRANCH  61  65
ATOM     65  S   UNL A   1      50.113  27.832  24.753  1.00  0.00     0.124 S 
ATOM     66  O   UNL A   1      48.815  27.822  24.084  1.00  0.00    -0.237 OA
ATOM     67  O   UNL A   1      51.036  28.884  24.345  1.00  0.00    -0.237 OA
ATOM     68  O   UNL A   1      50.715  26.515  24.949  1.00  0.00    -0.744 OA
ENDBRANCH  61  65
ENDBRANCH  44  58
BRANCH  45  69
ATOM     69  C   UNL A   1      38.246  30.750  30.130  1.00  0.00     0.023 A 
ATOM     70  C   UNL A   1      37.328  31.203  29.169  1.00  0.00     0.031 A 
ATOM     71  C   UNL A   1      37.798  30.621  31.458  1.00  0.00     0.131 A 
ATOM     72  C   UNL A   1      36.026  31.558  29.557  1.00  0.00     0.055 A 
ATOM     73  C   UNL A   1      36.487  30.923  31.828  1.00  0.00     0.041 A 
ATOM     74  F   UNL A   1      38.633  30.194  32.418  1.00  0.00    -0.206 F 
ATOM     75  C   UNL A   1      35.596  31.408  30.877  1.00  0.00     0.022 A 
BRANCH  72  76
ATOM     76  S   UNL A   1      34.923  32.305  28.324  1.00  0.00     0.124 S 
ATOM     77  O   UNL A   1      34.505  31.140  27.554  1.00  0.00    -0.237 OA
ATOM     78  O   UNL A   1      33.902  32.919  29.167  1.00  0.00    -0.237 OA
ATOM     79  O   UNL A   1      35.791  33.244  27.617  1.00  0.00    -0.744 OA
ENDBRANCH  72  76
ENDBRANCH  45  69
BRANCH  57  80
ATOM     80  C   UNL A   1      43.967  34.731  30.054  1.00  0.00     0.023 A 
ATOM     81  C   UNL A   1      43.842  35.702  29.042  1.00  0.00     0.031 A 
ATOM     82  C   UNL A   1      44.330  35.164  31.341  1.00  0.00     0.131 A 
ATOM     83  C   UNL A   1      44.152  37.042  29.317  1.00  0.00     0.055 A 
ATOM     84  C   UNL A   1      44.568  36.510  31.625  1.00  0.00     0.041 A 
ATOM     85  F   UNL A   1      44.465  34.284  32.345  1.00  0.00    -0.206 F 
ATOM     86  C   UNL A   1      44.499  37.455  30.606  1.00  0.00     0.022 A 
BRANCH  83  87
ATOM     87  S   UNL A   1      44.222  38.217  27.936  1.00  0.00     0.124 S 
ATOM     88  O   UNL A   1      43.309  37.610  26.974  1.00  0.00    -0.237 OA
ATOM     89  O   UNL A   1      43.761  39.455  28.559  1.00  0.00    -0.237 OA
ATOM     90  O   UNL A   1      45.631  38.206  27.549  1.00  0.00    -0.744 OA
ENDBRANCH  83  87
ENDBRANCH  57  80
ENDBRANCH  31  32
ENDBRANCH  24  26
ENDBRANCH  23  24
ENDBRANCH  22  23
ENDBRANCH  21  22
ENDBRANCH   1  21
TORSDOF 21
ENDMDL
MODEL 3
REMARK VINA RESULT:      -9.7      3.520      9.875
REMARK SMILES CC[C@@H](C(=O)OCCOCCOC(=O)c1ccc(-c2c3nc(c(-c4cc(S(=O)(=O)[O-])ccc4F)c4ccc([nH]4)c(-c4cc(S(=O)(=O)[O-])ccc4F)c4nc(c(-c5cc(S(=O)(=O)[O-])ccc5F)c5ccc2[nH]5)C=C4)C=C3)cc1)[N@@H+](C)Cc1cccc(C)n1
REMARK SMILES IDX 9 1 8 2 7 3 6 4 4 5 5 6 3 7 2 8 1 9 78 10 79 11 80 13 81 14
REMARK SMILES IDX 82 15 87 16 83 17 85 18 84 19 86 20 10 21 11 22 12 23 13 24
REMARK SMILES IDX 14 25 15 26 16 27 77 28 17 29 76 30 18 31 19 32 20 33 70 34
REMARK SMILES IDX 21 35 75 36 69 37 71 38 22 39 74 40 68 41 67 42 23 44 55 45
REMARK SMILES IDX 35 46 54 47 36 48 39 49 53 50 72 51 37 52 38 53 52 55 73 56
REMARK SMILES IDX 40 57 24 58 25 59 33 60 26 61 32 62 34 63 31 64 27 65 28 66
REMARK SMILES IDX 29 67 30 68 56 69 57 70 65 71 58 72 64 73 66 74 63 75 59 76
REMARK SMILES IDX 60 77 61 78 62 79 41 80 42 81 50 82 43 83 49 84 51 85 48 86
REMARK SMILES IDX 44 87 45 88 46 89 47 90
REMARK H PARENT 78 12 71 43 39 54
REMARK Flexibility Score: inf
ROOT
ATOM      1  O   UNL A   1      36.280  20.566  25.302  1.00  0.00    -0.374 OA
ENDROOT
BRANCH   1   2
ATOM      2  C   UNL A   1      35.804  21.909  25.243  1.00  0.00     0.202 C 
BRANCH   2   3
ATOM      3  C   UNL A   1      35.905  22.630  23.897  1.00  0.00     0.261 C 
BRANCH   3   4
ATOM      4  O   UNL A   1      35.000  23.745  23.831  1.00  0.00    -0.459 OA
BRANCH   4   5
ATOM      5  C   UNL A   1      33.799  23.508  23.238  1.00  0.00     0.364 C 
ATOM      6  O   UNL A   1      33.628  23.488  22.023  1.00  0.00    -0.245 OA
BRANCH   5   7
ATOM      7  C   UNL A   1      32.664  23.339  24.275  1.00  0.00     0.294 C 
BRANCH   7   8
ATOM      8  C   UNL A   1      32.011  21.939  24.414  1.00  0.00     0.074 C 
ATOM      9  C   UNL A   1      32.620  20.840  23.548  1.00  0.00     0.011 C 
ENDBRANCH   7   8
BRANCH   7  10
ATOM     10  N   UNL A   1      31.609  24.370  24.086  1.00  0.00    -0.321 N 
ATOM     11  C   UNL A   1      30.539  23.983  23.194  1.00  0.00     0.333 C 
ATOM     12  H   UNL A   1      32.118  25.065  23.540  1.00  0.00     0.348 HD
BRANCH  10  13
ATOM     13  C   UNL A   1      31.335  25.351  25.148  1.00  0.00     0.320 C 
BRANCH  13  14
ATOM     14  C   UNL A   1      31.971  26.737  25.266  1.00  0.00     0.095 A 
ATOM     15  C   UNL A   1      31.656  27.676  26.241  1.00  0.00     0.030 A 
ATOM     16  N   UNL A   1      32.736  27.096  24.189  1.00  0.00    -0.252 NA
ATOM     17  C   UNL A   1      32.130  28.983  26.127  1.00  0.00     0.004 A 
ATOM     18  C   UNL A   1      33.186  28.375  24.084  1.00  0.00     0.038 A 
ATOM     19  C   UNL A   1      32.902  29.344  25.033  1.00  0.00     0.023 A 
ATOM     20  C   UNL A   1      34.002  28.719  22.872  1.00  0.00     0.067 C 
ENDBRANCH  13  14
ENDBRANCH  10  13
ENDBRANCH   7  10
ENDBRANCH   5   7
ENDBRANCH   4   5
ENDBRANCH   3   4
ENDBRANCH   2   3
ENDBRANCH   1   2
BRANCH   1  21
ATOM     21  C   UNL A   1      37.644  20.319  24.968  1.00  0.00     0.202 C 
BRANCH  21  22
ATOM     22  C   UNL A   1      38.720  21.145  25.686  1.00  0.00     0.261 C 
BRANCH  22  23
ATOM     23  O   UNL A   1      40.002  20.494  25.723  1.00  0.00    -0.460 OA
BRANCH  23  24
ATOM     24  C   UNL A   1      40.563  20.469  26.956  1.00  0.00     0.338 C 
ATOM     25  O   UNL A   1      40.983  19.481  27.547  1.00  0.00    -0.246 OA
BRANCH  24  26
ATOM     26  C   UNL A   1      40.801  21.833  27.460  1.00  0.00     0.060 A 
ATOM     27  C   UNL A   1      40.055  22.857  26.865  1.00  0.00     0.016 A 
ATOM     28  C   UNL A   1      41.791  22.130  28.401  1.00  0.00     0.016 A 
ATOM     29  C   UNL A   1      40.356  24.187  27.136  1.00  0.00     0.010 A 
ATOM     30  C   UNL A   1      42.096  23.472  28.669  1.00  0.00     0.010 A 
ATOM     31  C   UNL A   1      41.419  24.502  27.991  1.00  0.00    -0.014 A 
BRANCH  31  32
ATOM     32  C   UNL A   1      41.937  25.894  27.965  1.00  0.00     0.031 A 
ATOM     33  C   UNL A   1      41.162  26.963  28.692  1.00  0.00     0.074 A 
ATOM     34  C   UNL A   1      43.135  26.175  27.419  1.00  0.00     0.049 A 
ATOM     35  N   UNL A   1      41.461  28.220  28.893  1.00  0.00    -0.248 NA
ATOM     36  C   UNL A   1      39.873  26.553  29.274  1.00  0.00     0.031 C 
ATOM     37  C   UNL A   1      43.997  25.211  26.737  1.00  0.00     0.029 A 
ATOM     38  N   UNL A   1      43.842  27.350  27.373  1.00  0.00    -0.354 N 
ATOM     39  C   UNL A   1      40.405  28.749  29.630  1.00  0.00     0.074 A 
ATOM     40  C   UNL A   1      39.434  27.688  29.792  1.00  0.00     0.031 C 
ATOM     41  C   UNL A   1      45.124  25.832  26.350  1.00  0.00     0.029 A 
ATOM     42  C   UNL A   1      45.054  27.241  26.733  1.00  0.00     0.049 A 
ATOM     43  H   UNL A   1      43.513  28.192  27.763  1.00  0.00     0.167 HD
ATOM     44  C   UNL A   1      40.265  29.997  30.141  1.00  0.00     0.034 A 
ATOM     45  C   UNL A   1      45.994  28.175  26.481  1.00  0.00     0.034 A 
ATOM     46  C   UNL A   1      41.238  31.047  29.963  1.00  0.00     0.049 A 
ATOM     47  C   UNL A   1      45.779  29.579  26.993  1.00  0.00     0.074 A 
ATOM     48  C   UNL A   1      41.201  32.348  30.433  1.00  0.00     0.029 A 
ATOM     49  N   UNL A   1      42.423  30.918  29.248  1.00  0.00    -0.354 N 
ATOM     50  N   UNL A   1      44.780  30.063  27.695  1.00  0.00    -0.248 NA
ATOM     51  C   UNL A   1      46.831  30.559  26.691  1.00  0.00     0.031 C 
ATOM     52  C   UNL A   1      42.325  33.024  29.943  1.00  0.00     0.029 A 
ATOM     53  C   UNL A   1      43.107  32.125  29.236  1.00  0.00     0.049 A 
ATOM     54  H   UNL A   1      42.732  30.090  28.814  1.00  0.00     0.167 HD
ATOM     55  C   UNL A   1      45.098  31.397  27.940  1.00  0.00     0.074 A 
ATOM     56  C   UNL A   1      46.394  31.630  27.334  1.00  0.00     0.031 C 
ATOM     57  C   UNL A   1      44.389  32.346  28.606  1.00  0.00     0.034 A 
BRANCH  44  58
ATOM     58  C   UNL A   1      38.987  30.298  30.889  1.00  0.00     0.023 A 
ATOM     59  C   UNL A   1      37.972  31.099  30.333  1.00  0.00     0.031 A 
ATOM     60  C   UNL A   1      38.798  29.812  32.195  1.00  0.00     0.131 A 
ATOM     61  C   UNL A   1      36.854  31.450  31.107  1.00  0.00     0.055 A 
ATOM     62  C   UNL A   1      37.645  30.098  32.929  1.00  0.00     0.041 A 
ATOM     63  F   UNL A   1      39.741  29.063  32.787  1.00  0.00    -0.206 F 
ATOM     64  C   UNL A   1      36.672  30.934  32.392  1.00  0.00     0.022 A 
BRANCH  61  65
ATOM     65  S   UNL A   1      35.713  32.709  30.467  1.00  0.00     0.124 S 
ATOM     66  O   UNL A   1      36.420  33.943  30.801  1.00  0.00    -0.237 OA
ATOM     67  O   UNL A   1      35.641  32.376  29.050  1.00  0.00    -0.237 OA
ATOM     68  O   UNL A   1      34.487  32.477  31.227  1.00  0.00    -0.744 OA
ENDBRANCH  61  65
ENDBRANCH  44  58
BRANCH  45  69
ATOM     69  C   UNL A   1      47.209  27.833  25.685  1.00  0.00     0.023 A 
ATOM     70  C   UNL A   1      47.266  28.060  24.301  1.00  0.00     0.031 A 
ATOM     71  C   UNL A   1      48.312  27.208  26.295  1.00  0.00     0.131 A 
ATOM     72  C   UNL A   1      48.380  27.623  23.565  1.00  0.00     0.055 A 
ATOM     73  C   UNL A   1      49.440  26.825  25.568  1.00  0.00     0.041 A 
ATOM     74  F   UNL A   1      48.310  26.964  27.615  1.00  0.00    -0.206 F 
ATOM     75  C   UNL A   1      49.472  27.020  24.191  1.00  0.00     0.022 A 
BRANCH  72  76
ATOM     76  S   UNL A   1      48.343  27.775  21.757  1.00  0.00     0.124 S 
ATOM     77  O   UNL A   1      49.359  28.794  21.523  1.00  0.00    -0.237 OA
ATOM     78  O   UNL A   1      48.683  26.421  21.334  1.00  0.00    -0.237 OA
ATOM     79  O   UNL A   1      46.969  28.186  21.478  1.00  0.00    -0.744 OA
ENDBRANCH  72  76
ENDBRANCH  45  69
BRANCH  57  80
ATOM     80  C   UNL A   1      45.026  33.710  28.732  1.00  0.00     0.023 A 
ATOM     81  C   UNL A   1      45.847  34.043  29.826  1.00  0.00     0.031 A 
ATOM     82  C   UNL A   1      44.780  34.702  27.767  1.00  0.00     0.131 A 
ATOM     83  C   UNL A   1      46.327  35.354  29.966  1.00  0.00     0.055 A 
ATOM     84  C   UNL A   1      45.320  35.985  27.876  1.00  0.00     0.041 A 
ATOM     85  F   UNL A   1      44.005  34.444  26.702  1.00  0.00    -0.206 F 
ATOM     86  C   UNL A   1      46.083  36.322  28.990  1.00  0.00     0.022 A 
BRANCH  83  87
ATOM     87  S   UNL A   1      47.169  35.808  31.508  1.00  0.00     0.124 S 
ATOM     88  O   UNL A   1      46.688  37.168  31.727  1.00  0.00    -0.237 OA
ATOM     89  O   UNL A   1      46.675  34.800  32.440  1.00  0.00    -0.237 OA
ATOM     90  O   UNL A   1      48.587  35.697  31.170  1.00  0.00    -0.744 OA
ENDBRANCH  83  87
ENDBRANCH  57  80
ENDBRANCH  31  32
ENDBRANCH  24  26
ENDBRANCH  23  24
ENDBRANCH  22  23
ENDBRANCH  21  22
ENDBRANCH   1  21
TORSDOF 21
ENDMDL
