MODEL 1
REMARK VINA RESULT:     -11.7      0.000      0.000
REMARK SMILES Cc1ccc(-n2nc(C(=O)OCCOCCOC(=O)c3ccc(-c4c5nc(c(-c6cc(S(=O)(=O)[O-])ccc6F)c6ccc([nH]6)c(-c6cc(S(=O)(=O)[O-])ccc6F)c6nc(c(-c7cc(S(=O)(=O)[O-])ccc7F)c7ccc4[nH]7)C=C6)C=C5)cc3)c(C)c(C#N)c2=O)cc1Cl
REMARK SMILES IDX 15 1 14 2 13 3 12 4 11 5 9 6 10 7 8 8 6 9 7 10 88 11 85 12
REMARK SMILES IDX 89 13 83 14 84 15 5 16 1 17 2 18 3 19 91 20 4 21 90 22 92 23
REMARK SMILES IDX 86 24 87 25 16 26 17 27 18 28 19 29 20 30 21 31 82 32 22 33
REMARK SMILES IDX 81 34 23 35 24 36 25 37 75 38 26 39 80 40 74 41 76 42 27 43
REMARK SMILES IDX 79 44 73 45 72 46 28 48 60 49 40 50 59 51 41 52 44 53 58 54
REMARK SMILES IDX 77 55 42 56 43 57 57 59 78 60 45 61 29 62 30 63 38 64 31 65
REMARK SMILES IDX 37 66 39 67 36 68 32 69 33 70 34 71 35 72 61 73 62 74 70 75
REMARK SMILES IDX 63 76 69 77 71 78 68 79 64 80 65 81 66 82 67 83 46 84 47 85
REMARK SMILES IDX 55 86 48 87 54 88 56 89 53 90 49 91 50 92 51 93 52 94
REMARK H PARENT 76 47 44 58
REMARK Flexibility Score: inf
ROOT
ATOM      1  C   UNL A   1      35.217  20.761  25.394  1.00  0.00     0.202 C 
ENDROOT
BRANCH   1   2
ATOM      2  O   UNL A   1      35.004  21.651  26.487  1.00  0.00    -0.374 OA
BRANCH   2   3
ATOM      3  C   UNL A   1      33.837  21.493  27.289  1.00  0.00     0.202 C 
BRANCH   3   4
ATOM      4  C   UNL A   1      32.924  22.709  27.446  1.00  0.00     0.261 C 
BRANCH   4   5
ATOM      5  O   UNL A   1      31.829  22.622  26.527  1.00  0.00    -0.458 OA
BRANCH   5   6
ATOM      6  C   UNL A   1      31.143  23.759  26.325  1.00  0.00     0.359 C 
ATOM      7  O   UNL A   1      30.064  24.072  26.796  1.00  0.00    -0.244 OA
BRANCH   6   8
ATOM      8  C   UNL A   1      31.944  24.736  25.450  1.00  0.00     0.173 A 
ATOM      9  N   UNL A   1      32.791  26.850  25.251  1.00  0.00    -0.195 N 
ATOM     10  N   UNL A   1      32.305  25.839  26.035  1.00  0.00    -0.157 NA
ATOM     11  C   UNL A   1      32.832  26.797  23.860  1.00  0.00     0.289 A 
ATOM     12  C   UNL A   1      32.617  25.449  23.268  1.00  0.00     0.125 A 
ATOM     13  O   UNL A   1      33.095  27.750  23.128  1.00  0.00    -0.266 OA
ATOM     14  C   UNL A   1      32.214  24.408  24.021  1.00  0.00     0.007 A 
ATOM     15  C   UNL A   1      32.074  22.997  23.528  1.00  0.00     0.049 C 
BRANCH   9  16
ATOM     16  C   UNL A   1      32.972  28.075  25.942  1.00  0.00     0.070 A 
ATOM     17  C   UNL A   1      33.532  31.926  27.826  1.00  0.00     0.046 C 
ATOM     18  C   UNL A   1      33.351  30.569  27.204  1.00  0.00    -0.032 A 
ATOM     19  C   UNL A   1      32.141  30.269  26.566  1.00  0.00     0.007 A 
ATOM     20  C   UNL A   1      34.365  29.595  27.213  1.00  0.00     0.046 A 
ATOM     21  C   UNL A   1      31.962  29.042  25.925  1.00  0.00     0.029 A 
ATOM     22  C   UNL A   1      34.166  28.342  26.617  1.00  0.00     0.049 A 
ATOM     23  Cl  UNL A   1      35.909  29.919  27.922  1.00  0.00    -0.084 Cl
ENDBRANCH   9  16
BRANCH  12  24
ATOM     24  C   UNL A   1      32.885  25.321  21.878  1.00  0.00     0.105 C 
ATOM     25  N   UNL A   1      33.107  25.169  20.748  1.00  0.00    -0.192 NA
ENDBRANCH  12  24
ENDBRANCH   6   8
ENDBRANCH   5   6
ENDBRANCH   4   5
ENDBRANCH   3   4
ENDBRANCH   2   3
ENDBRANCH   1   2
BRANCH   1  26
ATOM     26  C   UNL A   1      36.648  20.496  24.904  1.00  0.00     0.261 C 
BRANCH  26  27
ATOM     27  O   UNL A   1      37.558  21.584  25.134  1.00  0.00    -0.460 OA
BRANCH  27  28
ATOM     28  C   UNL A   1      38.690  21.226  25.798  1.00  0.00     0.338 C 
ATOM     29  O   UNL A   1      39.244  20.142  25.768  1.00  0.00    -0.246 OA
BRANCH  28  30
ATOM     30  C   UNL A   1      39.296  22.412  26.428  1.00  0.00     0.060 A 
ATOM     31  C   UNL A   1      38.770  23.669  26.103  1.00  0.00     0.016 A 
ATOM     32  C   UNL A   1      40.419  22.301  27.247  1.00  0.00     0.016 A 
ATOM     33  C   UNL A   1      39.386  24.826  26.573  1.00  0.00     0.010 A 
ATOM     34  C   UNL A   1      41.043  23.465  27.709  1.00  0.00     0.010 A 
ATOM     35  C   UNL A   1      40.550  24.732  27.348  1.00  0.00    -0.014 A 
BRANCH  35  36
ATOM     36  C   UNL A   1      41.325  25.959  27.653  1.00  0.00     0.031 A 
ATOM     37  C   UNL A   1      40.706  27.014  28.529  1.00  0.00     0.074 A 
ATOM     38  C   UNL A   1      42.582  26.109  27.195  1.00  0.00     0.049 A 
ATOM     39  N   UNL A   1      41.184  28.177  28.886  1.00  0.00    -0.248 NA
ATOM     40  C   UNL A   1      39.370  26.719  29.074  1.00  0.00     0.031 C 
ATOM     41  C   UNL A   1      43.308  25.125  26.393  1.00  0.00     0.029 A 
ATOM     42  N   UNL A   1      43.470  27.143  27.345  1.00  0.00    -0.354 N 
ATOM     43  C   UNL A   1      40.211  28.754  29.694  1.00  0.00     0.074 A 
ATOM     44  C   UNL A   1      39.099  27.831  29.742  1.00  0.00     0.031 C 
ATOM     45  C   UNL A   1      44.536  25.602  26.128  1.00  0.00     0.029 A 
ATOM     46  C   UNL A   1      44.667  26.942  26.698  1.00  0.00     0.049 A 
ATOM     47  H   UNL A   1      43.270  27.954  27.866  1.00  0.00     0.167 HD
ATOM     48  C   UNL A   1      40.251  29.940  30.346  1.00  0.00     0.034 A 
ATOM     49  C   UNL A   1      45.736  27.752  26.563  1.00  0.00     0.034 A 
ATOM     50  C   UNL A   1      41.368  30.849  30.295  1.00  0.00     0.049 A 
ATOM     51  C   UNL A   1      45.715  29.112  27.212  1.00  0.00     0.074 A 
ATOM     52  C   UNL A   1      41.508  32.070  30.929  1.00  0.00     0.029 A 
ATOM     53  N   UNL A   1      42.531  30.643  29.565  1.00  0.00    -0.354 N 
ATOM     54  N   UNL A   1      44.780  29.654  27.958  1.00  0.00    -0.248 NA
ATOM     55  C   UNL A   1      46.887  29.972  26.999  1.00  0.00     0.031 C 
ATOM     56  C   UNL A   1      42.718  32.638  30.523  1.00  0.00     0.029 A 
ATOM     57  C   UNL A   1      43.374  31.733  29.702  1.00  0.00     0.049 A 
ATOM     58  H   UNL A   1      42.727  29.839  29.031  1.00  0.00     0.167 HD
ATOM     59  C   UNL A   1      45.263  30.907  28.323  1.00  0.00     0.074 A 
ATOM     60  C   UNL A   1      46.575  31.039  27.723  1.00  0.00     0.031 C 
ATOM     61  C   UNL A   1      44.675  31.860  29.089  1.00  0.00     0.034 A 
BRANCH  48  62
ATOM     62  C   UNL A   1      39.041  30.344  31.149  1.00  0.00     0.023 A 
ATOM     63  C   UNL A   1      38.115  31.283  30.664  1.00  0.00     0.031 A 
ATOM     64  C   UNL A   1      38.790  29.749  32.397  1.00  0.00     0.131 A 
ATOM     65  C   UNL A   1      36.998  31.623  31.441  1.00  0.00     0.055 A 
ATOM     66  C   UNL A   1      37.644  30.043  33.135  1.00  0.00     0.041 A 
ATOM     67  F   UNL A   1      39.654  28.859  32.915  1.00  0.00    -0.206 F 
ATOM     68  C   UNL A   1      36.741  30.991  32.660  1.00  0.00     0.022 A 
BRANCH  65  69
ATOM     69  S   UNL A   1      35.917  32.961  30.867  1.00  0.00     0.124 S 
ATOM     70  O   UNL A   1      36.321  34.060  31.741  1.00  0.00    -0.237 OA
ATOM     71  O   UNL A   1      36.292  33.091  29.464  1.00  0.00    -0.237 OA
ATOM     72  O   UNL A   1      34.572  32.443  31.108  1.00  0.00    -0.744 OA
ENDBRANCH  65  69
ENDBRANCH  48  62
BRANCH  49  73
ATOM     73  C   UNL A   1      46.907  27.305  25.757  1.00  0.00     0.023 A 
ATOM     74  C   UNL A   1      47.060  27.702  24.420  1.00  0.00     0.031 A 
ATOM     75  C   UNL A   1      47.897  26.476  26.317  1.00  0.00     0.131 A 
ATOM     76  C   UNL A   1      48.169  27.259  23.683  1.00  0.00     0.055 A 
ATOM     77  C   UNL A   1      49.019  26.073  25.593  1.00  0.00     0.041 A 
ATOM     78  F   UNL A   1      47.799  26.072  27.594  1.00  0.00    -0.206 F 
ATOM     79  C   UNL A   1      49.156  26.461  24.265  1.00  0.00     0.022 A 
BRANCH  76  80
ATOM     80  S   UNL A   1      48.292  27.724  21.933  1.00  0.00     0.124 S 
ATOM     81  O   UNL A   1      49.444  28.617  21.944  1.00  0.00    -0.237 OA
ATOM     82  O   UNL A   1      48.486  26.430  21.289  1.00  0.00    -0.237 OA
ATOM     83  O   UNL A   1      47.006  28.365  21.662  1.00  0.00    -0.744 OA
ENDBRANCH  76  80
ENDBRANCH  49  73
BRANCH  61  84
ATOM     84  C   UNL A   1      45.445  33.130  29.347  1.00  0.00     0.023 A 
ATOM     85  C   UNL A   1      45.243  34.282  28.570  1.00  0.00     0.031 A 
ATOM     86  C   UNL A   1      46.344  33.208  30.428  1.00  0.00     0.131 A 
ATOM     87  C   UNL A   1      45.950  35.457  28.866  1.00  0.00     0.055 A 
ATOM     88  C   UNL A   1      47.002  34.395  30.751  1.00  0.00     0.041 A 
ATOM     89  F   UNL A   1      46.570  32.138  31.207  1.00  0.00    -0.206 F 
ATOM     90  C   UNL A   1      46.812  35.526  29.964  1.00  0.00     0.022 A 
BRANCH  87  91
ATOM     91  S   UNL A   1      45.757  36.887  27.769  1.00  0.00     0.124 S 
ATOM     92  O   UNL A   1      44.906  37.766  28.564  1.00  0.00    -0.237 OA
ATOM     93  O   UNL A   1      47.135  37.330  27.585  1.00  0.00    -0.237 OA
ATOM     94  O   UNL A   1      45.126  36.323  26.577  1.00  0.00    -0.744 OA
ENDBRANCH  87  91
ENDBRANCH  61  84
ENDBRANCH  35  36
ENDBRANCH  28  30
ENDBRANCH  27  28
ENDBRANCH  26  27
ENDBRANCH   1  26
TORSDOF 19
ENDMDL
MODEL 2
REMARK VINA RESULT:     -11.6      0.690      7.404
REMARK SMILES Cc1ccc(-n2nc(C(=O)OCCOCCOC(=O)c3ccc(-c4c5nc(c(-c6cc(S(=O)(=O)[O-])ccc6F)c6ccc([nH]6)c(-c6cc(S(=O)(=O)[O-])ccc6F)c6nc(c(-c7cc(S(=O)(=O)[O-])ccc7F)c7ccc4[nH]7)C=C6)C=C5)cc3)c(C)c(C#N)c2=O)cc1Cl
REMARK SMILES IDX 15 1 14 2 13 3 12 4 11 5 9 6 10 7 8 8 6 9 7 10 88 11 85 12
REMARK SMILES IDX 89 13 83 14 84 15 5 16 1 17 2 18 3 19 91 20 4 21 90 22 92 23
REMARK SMILES IDX 86 24 87 25 16 26 17 27 18 28 19 29 20 30 21 31 82 32 22 33
REMARK SMILES IDX 81 34 23 35 24 36 25 37 75 38 26 39 80 40 74 41 76 42 27 43
REMARK SMILES IDX 79 44 73 45 72 46 28 48 60 49 40 50 59 51 41 52 44 53 58 54
REMARK SMILES IDX 77 55 42 56 43 57 57 59 78 60 45 61 29 62 30 63 38 64 31 65
REMARK SMILES IDX 37 66 39 67 36 68 32 69 33 70 34 71 35 72 61 73 62 74 70 75
REMARK SMILES IDX 63 76 69 77 71 78 68 79 64 80 65 81 66 82 67 83 46 84 47 85
REMARK SMILES IDX 55 86 48 87 54 88 56 89 53 90 49 91 50 92 51 93 52 94
REMARK H PARENT 76 47 44 58
REMARK Flexibility Score: inf
ROOT
ATOM      1  C   UNL A   1      36.012  19.983  24.999  1.00  0.00     0.202 C 
ENDROOT
BRANCH   1   2
ATOM      2  O   UNL A   1      35.341  21.226  25.194  1.00  0.00    -0.374 OA
BRANCH   2   3
ATOM      3  C   UNL A   1      34.982  21.615  26.517  1.00  0.00     0.202 C 
BRANCH   3   4
ATOM      4  C   UNL A   1      33.652  22.347  26.696  1.00  0.00     0.261 C 
BRANCH   4   5
ATOM      5  O   UNL A   1      32.790  22.077  25.583  1.00  0.00    -0.458 OA
BRANCH   5   6
ATOM      6  C   UNL A   1      31.823  22.982  25.361  1.00  0.00     0.359 C 
ATOM      7  O   UNL A   1      30.679  22.966  25.780  1.00  0.00    -0.244 OA
BRANCH   6   8
ATOM      8  C   UNL A   1      32.355  24.165  24.539  1.00  0.00     0.173 A 
ATOM      9  N   UNL A   1      32.829  26.402  24.519  1.00  0.00    -0.195 N 
ATOM     10  N   UNL A   1      32.600  25.247  25.217  1.00  0.00    -0.157 NA
ATOM     11  C   UNL A   1      32.722  26.501  23.134  1.00  0.00     0.289 A 
ATOM     12  C   UNL A   1      32.658  25.205  22.407  1.00  0.00     0.125 A 
ATOM     13  O   UNL A   1      32.746  27.556  22.501  1.00  0.00    -0.266 OA
ATOM     14  C   UNL A   1      32.512  24.039  23.062  1.00  0.00     0.007 A 
ATOM     15  C   UNL A   1      32.543  22.683  22.417  1.00  0.00     0.049 C 
BRANCH   9  16
ATOM     16  C   UNL A   1      32.889  27.561  25.333  1.00  0.00     0.070 A 
ATOM     17  C   UNL A   1      33.086  31.234  27.606  1.00  0.00     0.046 C 
ATOM     18  C   UNL A   1      33.031  29.937  26.848  1.00  0.00    -0.032 A 
ATOM     19  C   UNL A   1      31.878  29.624  26.117  1.00  0.00     0.007 A 
ATOM     20  C   UNL A   1      34.108  29.034  26.819  1.00  0.00     0.046 A 
ATOM     21  C   UNL A   1      31.817  28.458  25.353  1.00  0.00     0.029 A 
ATOM     22  C   UNL A   1      34.027  27.837  26.096  1.00  0.00     0.049 A 
ATOM     23  Cl  UNL A   1      35.590  29.386  27.641  1.00  0.00    -0.084 Cl
ENDBRANCH   9  16
BRANCH  12  24
ATOM     24  C   UNL A   1      32.785  25.270  20.992  1.00  0.00     0.105 C 
ATOM     25  N   UNL A   1      32.903  25.368  19.840  1.00  0.00    -0.192 NA
ENDBRANCH  12  24
ENDBRANCH   6   8
ENDBRANCH   5   6
ENDBRANCH   4   5
ENDBRANCH   3   4
ENDBRANCH   2   3
ENDBRANCH   1   2
BRANCH   1  26
ATOM     26  C   UNL A   1      37.539  19.968  24.833  1.00  0.00     0.261 C 
BRANCH  26  27
ATOM     27  O   UNL A   1      38.186  21.182  25.246  1.00  0.00    -0.460 OA
BRANCH  27  28
ATOM     28  C   UNL A   1      39.259  20.987  26.060  1.00  0.00     0.338 C 
ATOM     29  O   UNL A   1      39.896  19.957  26.196  1.00  0.00    -0.246 OA
BRANCH  28  30
ATOM     30  C   UNL A   1      39.694  22.273  26.632  1.00  0.00     0.060 A 
ATOM     31  C   UNL A   1      39.090  23.442  26.152  1.00  0.00     0.016 A 
ATOM     32  C   UNL A   1      40.741  22.338  27.551  1.00  0.00     0.016 A 
ATOM     33  C   UNL A   1      39.553  24.688  26.569  1.00  0.00     0.010 A 
ATOM     34  C   UNL A   1      41.212  23.590  27.959  1.00  0.00     0.010 A 
ATOM     35  C   UNL A   1      40.642  24.770  27.446  1.00  0.00    -0.014 A 
BRANCH  35  36
ATOM     36  C   UNL A   1      41.273  26.087  27.707  1.00  0.00     0.031 A 
ATOM     37  C   UNL A   1      42.626  26.377  27.118  1.00  0.00     0.074 A 
ATOM     38  C   UNL A   1      40.626  27.028  28.419  1.00  0.00     0.049 A 
ATOM     39  N   UNL A   1      43.377  27.439  27.255  1.00  0.00    -0.248 NA
ATOM     40  C   UNL A   1      43.213  25.331  26.264  1.00  0.00     0.031 C 
ATOM     41  C   UNL A   1      39.284  26.884  28.982  1.00  0.00     0.029 A 
ATOM     42  N   UNL A   1      41.010  28.294  28.783  1.00  0.00    -0.354 N 
ATOM     43  C   UNL A   1      44.522  27.191  26.507  1.00  0.00     0.074 A 
ATOM     44  C   UNL A   1      44.386  25.862  25.952  1.00  0.00     0.031 C 
ATOM     45  C   UNL A   1      38.955  28.022  29.616  1.00  0.00     0.029 A 
ATOM     46  C   UNL A   1      40.077  28.957  29.545  1.00  0.00     0.049 A 
ATOM     47  H   UNL A   1      41.873  28.691  28.524  1.00  0.00     0.167 HD
ATOM     48  C   UNL A   1      45.583  28.005  26.293  1.00  0.00     0.034 A 
ATOM     49  C   UNL A   1      40.129  30.168  30.136  1.00  0.00     0.034 A 
ATOM     50  C   UNL A   1      45.703  29.330  26.847  1.00  0.00     0.049 A 
ATOM     51  C   UNL A   1      41.365  31.014  29.970  1.00  0.00     0.074 A 
ATOM     52  C   UNL A   1      46.735  30.236  26.680  1.00  0.00     0.029 A 
ATOM     53  N   UNL A   1      44.771  29.935  27.677  1.00  0.00    -0.354 N 
ATOM     54  N   UNL A   1      42.450  30.760  29.276  1.00  0.00    -0.248 NA
ATOM     55  C   UNL A   1      41.388  32.307  30.668  1.00  0.00     0.031 C 
ATOM     56  C   UNL A   1      46.465  31.356  27.470  1.00  0.00     0.029 A 
ATOM     57  C   UNL A   1      45.224  31.186  28.064  1.00  0.00     0.049 A 
ATOM     58  H   UNL A   1      43.914  29.535  27.950  1.00  0.00     0.167 HD
ATOM     59  C   UNL A   1      43.273  31.872  29.434  1.00  0.00     0.074 A 
ATOM     60  C   UNL A   1      42.557  32.802  30.283  1.00  0.00     0.031 C 
ATOM     61  C   UNL A   1      44.507  32.101  28.920  1.00  0.00     0.034 A 
BRANCH  48  62
ATOM     62  C   UNL A   1      46.716  27.480  25.449  1.00  0.00     0.023 A 
ATOM     63  C   UNL A   1      46.909  27.911  24.126  1.00  0.00     0.031 A 
ATOM     64  C   UNL A   1      47.638  26.569  25.992  1.00  0.00     0.131 A 
ATOM     65  C   UNL A   1      47.982  27.403  23.379  1.00  0.00     0.055 A 
ATOM     66  C   UNL A   1      48.740  26.117  25.265  1.00  0.00     0.041 A 
ATOM     67  F   UNL A   1      47.488  26.111  27.246  1.00  0.00    -0.206 F 
ATOM     68  C   UNL A   1      48.914  26.530  23.946  1.00  0.00     0.022 A 
BRANCH  65  69
ATOM     69  S   UNL A   1      48.103  27.844  21.624  1.00  0.00     0.124 S 
ATOM     70  O   UNL A   1      49.239  28.762  21.629  1.00  0.00    -0.237 OA
ATOM     71  O   UNL A   1      48.330  26.552  20.988  1.00  0.00    -0.237 OA
ATOM     72  O   UNL A   1      46.811  28.462  21.336  1.00  0.00    -0.744 OA
ENDBRANCH  65  69
ENDBRANCH  48  62
BRANCH  49  73
ATOM     73  C   UNL A   1      38.981  30.640  30.961  1.00  0.00     0.023 A 
ATOM     74  C   UNL A   1      37.955  31.413  30.397  1.00  0.00     0.031 A 
ATOM     75  C   UNL A   1      38.892  30.319  32.328  1.00  0.00     0.131 A 
ATOM     76  C   UNL A   1      36.890  31.850  31.200  1.00  0.00     0.055 A 
ATOM     77  C   UNL A   1      37.811  30.720  33.112  1.00  0.00     0.041 A 
ATOM     78  F   UNL A   1      39.847  29.578  32.914  1.00  0.00    -0.206 F 
ATOM     79  C   UNL A   1      36.804  31.497  32.549  1.00  0.00     0.022 A 
BRANCH  76  80
ATOM     80  S   UNL A   1      35.623  32.916  30.459  1.00  0.00     0.124 S 
ATOM     81  O   UNL A   1      34.399  32.357  31.021  1.00  0.00    -0.237 OA
ATOM     82  O   UNL A   1      36.012  34.235  30.947  1.00  0.00    -0.237 OA
ATOM     83  O   UNL A   1      35.804  32.709  29.023  1.00  0.00    -0.744 OA
ENDBRANCH  76  80
ENDBRANCH  49  73
BRANCH  61  84
ATOM     84  C   UNL A   1      45.168  33.419  29.238  1.00  0.00     0.023 A 
ATOM     85  C   UNL A   1      44.863  34.585  28.518  1.00  0.00     0.031 A 
ATOM     86  C   UNL A   1      46.063  33.521  30.319  1.00  0.00     0.131 A 
ATOM     87  C   UNL A   1      45.468  35.801  28.869  1.00  0.00     0.055 A 
ATOM     88  C   UNL A   1      46.620  34.743  30.698  1.00  0.00     0.041 A 
ATOM     89  F   UNL A   1      46.385  32.438  31.044  1.00  0.00    -0.206 F 
ATOM     90  C   UNL A   1      46.329  35.891  29.967  1.00  0.00     0.022 A 
BRANCH  87  91
ATOM     91  S   UNL A   1      45.147  37.261  27.844  1.00  0.00     0.124 S 
ATOM     92  O   UNL A   1      45.700  36.853  26.556  1.00  0.00    -0.237 OA
ATOM     93  O   UNL A   1      43.693  37.375  27.906  1.00  0.00    -0.237 OA
ATOM     94  O   UNL A   1      45.880  38.326  28.525  1.00  0.00    -0.744 OA
ENDBRANCH  87  91
ENDBRANCH  61  84
ENDBRANCH  35  36
ENDBRANCH  28  30
ENDBRANCH  27  28
ENDBRANCH  26  27
ENDBRANCH   1  26
TORSDOF 19
ENDMDL
MODEL 3
REMARK VINA RESULT:     -11.5      1.700      7.731
REMARK SMILES Cc1ccc(-n2nc(C(=O)OCCOCCOC(=O)c3ccc(-c4c5nc(c(-c6cc(S(=O)(=O)[O-])ccc6F)c6ccc([nH]6)c(-c6cc(S(=O)(=O)[O-])ccc6F)c6nc(c(-c7cc(S(=O)(=O)[O-])ccc7F)c7ccc4[nH]7)C=C6)C=C5)cc3)c(C)c(C#N)c2=O)cc1Cl
REMARK SMILES IDX 15 1 14 2 13 3 12 4 11 5 9 6 10 7 8 8 6 9 7 10 88 11 85 12
REMARK SMILES IDX 89 13 83 14 84 15 5 16 1 17 2 18 3 19 91 20 4 21 90 22 92 23
REMARK SMILES IDX 86 24 87 25 16 26 17 27 18 28 19 29 20 30 21 31 82 32 22 33
REMARK SMILES IDX 81 34 23 35 24 36 25 37 75 38 26 39 80 40 74 41 76 42 27 43
REMARK SMILES IDX 79 44 73 45 72 46 28 48 60 49 40 50 59 51 41 52 44 53 58 54
REMARK SMILES IDX 77 55 42 56 43 57 57 59 78 60 45 61 29 62 30 63 38 64 31 65
REMARK SMILES IDX 37 66 39 67 36 68 32 69 33 70 34 71 35 72 61 73 62 74 70 75
REMARK SMILES IDX 63 76 69 77 71 78 68 79 64 80 65 81 66 82 67 83 46 84 47 85
REMARK SMILES IDX 55 86 48 87 54 88 56 89 53 90 49 91 50 92 51 93 52 94
REMARK H PARENT 76 47 44 58
REMARK Flexibility Score: inf
ROOT
ATOM      1  C   UNL A   1      35.658  20.526  25.007  1.00  0.00     0.202 C 
ENDROOT
BRANCH   1   2
ATOM      2  O   UNL A   1      34.687  21.356  24.375  1.00  0.00    -0.374 OA
BRANCH   2   3
ATOM      3  C   UNL A   1      35.037  22.696  24.040  1.00  0.00     0.202 C 
BRANCH   3   4
ATOM      4  C   UNL A   1      34.476  23.262  22.735  1.00  0.00     0.261 C 
BRANCH   4   5
ATOM      5  O   UNL A   1      34.419  24.692  22.807  1.00  0.00    -0.458 OA
BRANCH   5   6
ATOM      6  C   UNL A   1      33.227  25.244  22.526  1.00  0.00     0.359 C 
ATOM      7  O   UNL A   1      32.715  25.391  21.431  1.00  0.00    -0.244 OA
BRANCH   6   8
ATOM      8  C   UNL A   1      32.479  25.622  23.813  1.00  0.00     0.173 A 
ATOM      9  N   UNL A   1      32.310  27.104  25.546  1.00  0.00    -0.195 N 
ATOM     10  N   UNL A   1      32.740  26.807  24.281  1.00  0.00    -0.157 NA
ATOM     11  C   UNL A   1      31.695  26.182  26.390  1.00  0.00     0.289 A 
ATOM     12  C   UNL A   1      31.232  24.930  25.734  1.00  0.00     0.125 A 
ATOM     13  O   UNL A   1      31.463  26.369  27.583  1.00  0.00    -0.266 OA
ATOM     14  C   UNL A   1      31.568  24.637  24.464  1.00  0.00     0.007 A 
ATOM     15  C   UNL A   1      31.061  23.451  23.694  1.00  0.00     0.049 C 
BRANCH   9  16
ATOM     16  C   UNL A   1      32.806  28.335  26.045  1.00  0.00     0.070 A 
ATOM     17  C   UNL A   1      34.309  31.991  27.796  1.00  0.00     0.046 C 
ATOM     18  C   UNL A   1      33.773  30.741  27.155  1.00  0.00    -0.032 A 
ATOM     19  C   UNL A   1      34.580  29.597  27.118  1.00  0.00     0.007 A 
ATOM     20  C   UNL A   1      32.478  30.666  26.614  1.00  0.00     0.046 A 
ATOM     21  C   UNL A   1      34.093  28.402  26.586  1.00  0.00     0.029 A 
ATOM     22  C   UNL A   1      32.008  29.482  26.031  1.00  0.00     0.049 A 
ATOM     23  Cl  UNL A   1      31.401  32.018  26.686  1.00  0.00    -0.084 Cl
ENDBRANCH   9  16
BRANCH  12  24
ATOM     24  C   UNL A   1      30.400  24.081  26.513  1.00  0.00     0.105 C 
ATOM     25  N   UNL A   1      29.681  23.411  27.134  1.00  0.00    -0.192 NA
ENDBRANCH  12  24
ENDBRANCH   6   8
ENDBRANCH   5   6
ENDBRANCH   4   5
ENDBRANCH   3   4
ENDBRANCH   2   3
ENDBRANCH   1   2
BRANCH   1  26
ATOM     26  C   UNL A   1      37.151  20.846  24.835  1.00  0.00     0.261 C 
BRANCH  26  27
ATOM     27  O   UNL A   1      37.652  21.820  25.766  1.00  0.00    -0.460 OA
BRANCH  27  28
ATOM     28  C   UNL A   1      38.937  21.598  26.157  1.00  0.00     0.338 C 
ATOM     29  O   UNL A   1      39.606  20.603  25.943  1.00  0.00    -0.246 OA
BRANCH  28  30
ATOM     30  C   UNL A   1      39.506  22.833  26.725  1.00  0.00     0.060 A 
ATOM     31  C   UNL A   1      38.852  24.042  26.455  1.00  0.00     0.016 A 
ATOM     32  C   UNL A   1      40.710  22.816  27.427  1.00  0.00     0.016 A 
ATOM     33  C   UNL A   1      39.417  25.247  26.863  1.00  0.00     0.010 A 
ATOM     34  C   UNL A   1      41.283  24.029  27.825  1.00  0.00     0.010 A 
ATOM     35  C   UNL A   1      40.656  25.251  27.517  1.00  0.00    -0.014 A 
BRANCH  35  36
ATOM     36  C   UNL A   1      41.359  26.537  27.745  1.00  0.00     0.031 A 
ATOM     37  C   UNL A   1      42.725  26.738  27.147  1.00  0.00     0.074 A 
ATOM     38  C   UNL A   1      40.767  27.530  28.435  1.00  0.00     0.049 A 
ATOM     39  N   UNL A   1      43.533  27.760  27.257  1.00  0.00    -0.248 NA
ATOM     40  C   UNL A   1      43.250  25.641  26.318  1.00  0.00     0.031 C 
ATOM     41  C   UNL A   1      39.421  27.473  29.003  1.00  0.00     0.029 A 
ATOM     42  N   UNL A   1      41.221  28.781  28.767  1.00  0.00    -0.354 N 
ATOM     43  C   UNL A   1      44.660  27.431  26.513  1.00  0.00     0.074 A 
ATOM     44  C   UNL A   1      44.450  26.099  25.991  1.00  0.00     0.031 C 
ATOM     45  C   UNL A   1      39.156  28.643  29.610  1.00  0.00     0.029 A 
ATOM     46  C   UNL A   1      40.328  29.512  29.514  1.00  0.00     0.049 A 
ATOM     47  H   UNL A   1      42.104  29.123  28.498  1.00  0.00     0.167 HD
ATOM     48  C   UNL A   1      45.764  28.181  26.278  1.00  0.00     0.034 A 
ATOM     49  C   UNL A   1      40.448  30.732  30.075  1.00  0.00     0.034 A 
ATOM     50  C   UNL A   1      45.959  29.510  26.799  1.00  0.00     0.049 A 
ATOM     51  C   UNL A   1      41.728  31.505  29.887  1.00  0.00     0.074 A 
ATOM     52  C   UNL A   1      47.039  30.353  26.609  1.00  0.00     0.029 A 
ATOM     53  N   UNL A   1      45.063  30.185  27.616  1.00  0.00    -0.354 N 
ATOM     54  N   UNL A   1      42.796  31.175  29.197  1.00  0.00    -0.248 NA
ATOM     55  C   UNL A   1      41.824  32.811  30.553  1.00  0.00     0.031 C 
ATOM     56  C   UNL A   1      46.832  31.505  27.372  1.00  0.00     0.029 A 
ATOM     57  C   UNL A   1      45.585  31.418  27.972  1.00  0.00     0.049 A 
ATOM     58  H   UNL A   1      44.186  29.839  27.900  1.00  0.00     0.167 HD
ATOM     59  C   UNL A   1      43.679  32.243  29.327  1.00  0.00     0.074 A 
ATOM     60  C   UNL A   1      43.018  33.232  30.154  1.00  0.00     0.031 C 
ATOM     61  C   UNL A   1      44.922  32.392  28.806  1.00  0.00     0.034 A 
BRANCH  48  62
ATOM     62  C   UNL A   1      46.864  27.574  25.446  1.00  0.00     0.023 A 
ATOM     63  C   UNL A   1      47.074  27.957  24.111  1.00  0.00     0.031 A 
ATOM     64  C   UNL A   1      47.739  26.630  26.010  1.00  0.00     0.131 A 
ATOM     65  C   UNL A   1      48.116  27.374  23.375  1.00  0.00     0.055 A 
ATOM     66  C   UNL A   1      48.813  26.101  25.293  1.00  0.00     0.041 A 
ATOM     67  F   UNL A   1      47.571  26.215  27.277  1.00  0.00    -0.206 F 
ATOM     68  C   UNL A   1      49.003  26.468  23.964  1.00  0.00     0.022 A 
BRANCH  65  69
ATOM     69  S   UNL A   1      48.253  27.760  21.608  1.00  0.00     0.124 S 
ATOM     70  O   UNL A   1      48.569  26.449  21.045  1.00  0.00    -0.237 OA
ATOM     71  O   UNL A   1      46.929  28.286  21.296  1.00  0.00    -0.237 OA
ATOM     72  O   UNL A   1      49.340  28.733  21.553  1.00  0.00    -0.744 OA
ENDBRANCH  65  69
ENDBRANCH  48  62
BRANCH  49  73
ATOM     73  C   UNL A   1      39.330  31.287  30.890  1.00  0.00     0.023 A 
ATOM     74  C   UNL A   1      39.352  31.215  32.291  1.00  0.00     0.031 A 
ATOM     75  C   UNL A   1      38.224  31.904  30.277  1.00  0.00     0.131 A 
ATOM     76  C   UNL A   1      38.282  31.738  33.033  1.00  0.00     0.055 A 
ATOM     77  C   UNL A   1      37.183  32.460  31.020  1.00  0.00     0.041 A 
ATOM     78  F   UNL A   1      38.158  32.002  28.939  1.00  0.00    -0.206 F 
ATOM     79  C   UNL A   1      37.206  32.373  32.408  1.00  0.00     0.022 A 
BRANCH  76  80
ATOM     80  S   UNL A   1      38.302  31.555  34.838  1.00  0.00     0.124 S 
ATOM     81  O   UNL A   1      37.081  32.253  35.221  1.00  0.00    -0.237 OA
ATOM     82  O   UNL A   1      38.291  30.104  34.996  1.00  0.00    -0.237 OA
ATOM     83  O   UNL A   1      39.548  32.211  35.230  1.00  0.00    -0.744 OA
ENDBRANCH  76  80
ENDBRANCH  49  73
BRANCH  61  84
ATOM     84  C   UNL A   1      45.655  33.679  29.091  1.00  0.00     0.023 A 
ATOM     85  C   UNL A   1      45.536  34.793  28.245  1.00  0.00     0.031 A 
ATOM     86  C   UNL A   1      46.428  33.811  30.259  1.00  0.00     0.131 A 
ATOM     87  C   UNL A   1      46.202  35.986  28.565  1.00  0.00     0.055 A 
ATOM     88  C   UNL A   1      47.043  35.016  30.600  1.00  0.00     0.041 A 
ATOM     89  F   UNL A   1      46.571  32.778  31.105  1.00  0.00    -0.206 F 
ATOM     90  C   UNL A   1      46.938  36.111  29.747  1.00  0.00     0.022 A 
BRANCH  87  91
ATOM     91  S   UNL A   1      46.126  37.366  27.391  1.00  0.00     0.124 S 
ATOM     92  O   UNL A   1      46.874  38.402  28.095  1.00  0.00    -0.237 OA
ATOM     93  O   UNL A   1      46.772  36.807  26.208  1.00  0.00    -0.237 OA
ATOM     94  O   UNL A   1      44.694  37.619  27.251  1.00  0.00    -0.744 OA
ENDBRANCH  87  91
ENDBRANCH  61  84
ENDBRANCH  35  36
ENDBRANCH  28  30
ENDBRANCH  27  28
ENDBRANCH  26  27
ENDBRANCH   1  26
TORSDOF 19
ENDMDL
