MODEL 1
REMARK VINA RESULT:      -8.8      0.000      0.000
REMARK SMILES COc1cc(OC)cc(-c2ccc([C@@H](C)C(=O)OCCOCCOC(=O)c3ccc(-c4c5nc(c(-c6cc(S(=O)(=O)[O-])ccc6F)c6ccc([nH]6)c(-c6cc(S(=O)(=O)[O-])ccc6F)c6nc(c(-c7cc(S(=O)(=O)[O-])ccc7F)c7ccc4[nH]7)C=C6)C=C5)cc3)cc2F)c1
REMARK SMILES IDX 21 1 20 2 19 3 18 4 16 5 17 6 14 7 15 8 13 9 10 10 11 11
REMARK SMILES IDX 91 12 12 13 90 14 92 15 9 16 3 17 4 18 93 19 5 20 8 21 2 22
REMARK SMILES IDX 1 23 6 24 7 25 22 26 23 27 24 28 25 29 26 30 27 31 28 32
REMARK SMILES IDX 89 33 29 34 88 35 30 36 31 37 32 38 82 39 33 40 87 41 81 42
REMARK SMILES IDX 83 43 34 44 86 45 80 46 79 47 35 49 67 50 47 51 66 52 48 53
REMARK SMILES IDX 51 54 65 55 84 56 49 57 50 58 64 60 85 61 52 62 36 63 37 64
REMARK SMILES IDX 45 65 38 66 44 67 46 68 43 69 39 70 40 71 41 72 42 73 68 74
REMARK SMILES IDX 69 75 77 76 70 77 76 78 78 79 75 80 71 81 72 82 73 83 74 84
REMARK SMILES IDX 53 85 54 86 62 87 55 88 61 89 63 90 60 91 56 92 57 93 58 94
REMARK SMILES IDX 59 95
REMARK H PARENT 83 48 51 59
REMARK Flexibility Score: inf
ROOT
ATOM      1  O   UNL A   1      35.218  33.251  30.393  1.00  0.00    -0.374 OA
ENDROOT
BRANCH   1   2
ATOM      2  C   UNL A   1      34.668  32.525  31.494  1.00  0.00     0.202 C 
BRANCH   2   3
ATOM      3  C   UNL A   1      35.684  31.911  32.461  1.00  0.00     0.261 C 
BRANCH   3   4
ATOM      4  O   UNL A   1      35.609  32.537  33.755  1.00  0.00    -0.463 OA
BRANCH   4   5
ATOM      5  C   UNL A   1      36.794  32.869  34.330  1.00  0.00     0.313 C 
ATOM      6  O   UNL A   1      37.430  32.140  35.084  1.00  0.00    -0.252 OA
BRANCH   5   7
ATOM      7  C   UNL A   1      37.268  34.272  33.986  1.00  0.00     0.126 C 
ATOM      8  C   UNL A   1      36.071  35.115  33.551  1.00  0.00     0.025 C 
BRANCH   7   9
ATOM      9  C   UNL A   1      38.448  34.414  33.028  1.00  0.00    -0.031 A 
ATOM     10  C   UNL A   1      40.620  34.403  31.170  1.00  0.00     0.018 A 
ATOM     11  C   UNL A   1      40.841  34.510  32.554  1.00  0.00     0.012 A 
ATOM     12  C   UNL A   1      39.288  34.365  30.741  1.00  0.00     0.131 A 
ATOM     13  C   UNL A   1      39.775  34.513  33.468  1.00  0.00     0.005 A 
ATOM     14  C   UNL A   1      38.220  34.369  31.644  1.00  0.00     0.044 A 
ATOM     15  F   UNL A   1      39.000  34.266  29.433  1.00  0.00    -0.206 F 
BRANCH  10  16
ATOM     16  C   UNL A   1      41.739  34.229  30.224  1.00  0.00    -0.008 A 
ATOM     17  C   UNL A   1      42.998  34.902  28.248  1.00  0.00     0.123 A 
ATOM     18  C   UNL A   1      43.777  33.749  28.357  1.00  0.00     0.092 A 
ATOM     19  C   UNL A   1      41.980  35.137  29.176  1.00  0.00     0.055 A 
ATOM     20  C   UNL A   1      43.561  32.833  29.385  1.00  0.00     0.123 A 
ATOM     21  C   UNL A   1      42.557  33.084  30.319  1.00  0.00     0.055 A 
BRANCH  17  22
ATOM     22  O   UNL A   1      43.297  35.686  27.167  1.00  0.00    -0.497 OA
ATOM     23  C   UNL A   1      42.979  35.152  25.888  1.00  0.00     0.278 C 
ENDBRANCH  17  22
BRANCH  20  24
ATOM     24  O   UNL A   1      44.381  31.738  29.361  1.00  0.00    -0.497 OA
ATOM     25  C   UNL A   1      44.487  30.992  30.568  1.00  0.00     0.278 C 
ENDBRANCH  20  24
ENDBRANCH  10  16
ENDBRANCH   7   9
ENDBRANCH   5   7
ENDBRANCH   4   5
ENDBRANCH   3   4
ENDBRANCH   2   3
ENDBRANCH   1   2
BRANCH   1  26
ATOM     26  C   UNL A   1      34.308  33.977  29.568  1.00  0.00     0.202 C 
BRANCH  26  27
ATOM     27  C   UNL A   1      33.848  33.290  28.276  1.00  0.00     0.261 C 
BRANCH  27  28
ATOM     28  O   UNL A   1      34.924  32.625  27.592  1.00  0.00    -0.460 OA
BRANCH  28  29
ATOM     29  C   UNL A   1      34.912  31.275  27.701  1.00  0.00     0.338 C 
ATOM     30  O   UNL A   1      34.163  30.501  27.117  1.00  0.00    -0.246 OA
BRANCH  29  31
ATOM     31  C   UNL A   1      36.064  30.809  28.496  1.00  0.00     0.060 A 
ATOM     32  C   UNL A   1      37.252  31.546  28.397  1.00  0.00     0.016 A 
ATOM     33  C   UNL A   1      36.022  29.635  29.253  1.00  0.00     0.016 A 
ATOM     34  C   UNL A   1      38.417  31.081  29.001  1.00  0.00     0.010 A 
ATOM     35  C   UNL A   1      37.196  29.166  29.855  1.00  0.00     0.010 A 
ATOM     36  C   UNL A   1      38.409  29.865  29.697  1.00  0.00    -0.014 A 
BRANCH  36  37
ATOM     37  C   UNL A   1      39.701  29.249  30.095  1.00  0.00     0.031 A 
ATOM     38  C   UNL A   1      40.389  29.750  31.339  1.00  0.00     0.074 A 
ATOM     39  C   UNL A   1      40.226  28.223  29.399  1.00  0.00     0.049 A 
ATOM     40  N   UNL A   1      41.526  29.379  31.868  1.00  0.00    -0.248 NA
ATOM     41  C   UNL A   1      39.698  30.815  32.083  1.00  0.00     0.031 C 
ATOM     42  C   UNL A   1      39.624  27.613  28.215  1.00  0.00     0.029 A 
ATOM     43  N   UNL A   1      41.384  27.513  29.591  1.00  0.00    -0.354 N 
ATOM     44  C   UNL A   1      41.688  30.161  33.007  1.00  0.00     0.074 A 
ATOM     45  C   UNL A   1      40.553  31.056  33.065  1.00  0.00     0.031 C 
ATOM     46  C   UNL A   1      40.424  26.624  27.781  1.00  0.00     0.029 A 
ATOM     47  C   UNL A   1      41.610  26.554  28.634  1.00  0.00     0.049 A 
ATOM     48  H   UNL A   1      41.997  27.676  30.345  1.00  0.00     0.167 HD
ATOM     49  C   UNL A   1      42.688  30.131  33.923  1.00  0.00     0.034 A 
ATOM     50  C   UNL A   1      42.664  25.730  28.453  1.00  0.00     0.034 A 
ATOM     51  C   UNL A   1      43.821  29.242  33.848  1.00  0.00     0.049 A 
ATOM     52  C   UNL A   1      43.810  25.778  29.436  1.00  0.00     0.074 A 
ATOM     53  C   UNL A   1      44.887  29.127  34.723  1.00  0.00     0.029 A 
ATOM     54  N   UNL A   1      44.041  28.319  32.834  1.00  0.00    -0.354 N 
ATOM     55  N   UNL A   1      43.952  26.526  30.506  1.00  0.00    -0.248 NA
ATOM     56  C   UNL A   1      44.934  24.864  29.190  1.00  0.00     0.031 C 
ATOM     57  C   UNL A   1      45.784  28.187  34.204  1.00  0.00     0.029 A 
ATOM     58  C   UNL A   1      45.240  27.656  33.045  1.00  0.00     0.049 A 
ATOM     59  H   UNL A   1      43.433  28.159  32.076  1.00  0.00     0.167 HD
ATOM     60  C   UNL A   1      45.164  26.145  31.078  1.00  0.00     0.074 A 
ATOM     61  C   UNL A   1      45.707  25.095  30.241  1.00  0.00     0.031 C 
ATOM     62  C   UNL A   1      45.772  26.615  32.199  1.00  0.00     0.034 A 
BRANCH  49  63
ATOM     63  C   UNL A   1      42.618  31.128  35.055  1.00  0.00     0.023 A 
ATOM     64  C   UNL A   1      43.074  32.450  34.907  1.00  0.00     0.031 A 
ATOM     65  C   UNL A   1      42.111  30.742  36.309  1.00  0.00     0.131 A 
ATOM     66  C   UNL A   1      43.076  33.316  36.012  1.00  0.00     0.055 A 
ATOM     67  C   UNL A   1      42.044  31.631  37.382  1.00  0.00     0.041 A 
ATOM     68  F   UNL A   1      41.681  29.487  36.514  1.00  0.00    -0.206 F 
ATOM     69  C   UNL A   1      42.541  32.923  37.242  1.00  0.00     0.022 A 
BRANCH  66  70
ATOM     70  S   UNL A   1      43.908  34.920  35.856  1.00  0.00     0.124 S 
ATOM     71  O   UNL A   1      42.913  35.697  35.120  1.00  0.00    -0.237 OA
ATOM     72  O   UNL A   1      44.119  35.304  37.246  1.00  0.00    -0.237 OA
ATOM     73  O   UNL A   1      45.122  34.606  35.103  1.00  0.00    -0.744 OA
ENDBRANCH  66  70
ENDBRANCH  49  63
BRANCH  50  74
ATOM     74  C   UNL A   1      42.718  24.816  27.274  1.00  0.00     0.023 A 
ATOM     75  C   UNL A   1      42.175  23.523  27.328  1.00  0.00     0.031 A 
ATOM     76  C   UNL A   1      43.382  25.203  26.096  1.00  0.00     0.131 A 
ATOM     77  C   UNL A   1      42.350  22.645  26.246  1.00  0.00     0.055 A 
ATOM     78  C   UNL A   1      43.506  24.345  25.002  1.00  0.00     0.041 A 
ATOM     79  F   UNL A   1      43.922  26.428  25.990  1.00  0.00    -0.206 F 
ATOM     80  C   UNL A   1      43.001  23.052  25.079  1.00  0.00     0.022 A 
BRANCH  77  81
ATOM     81  S   UNL A   1      41.798  20.926  26.423  1.00  0.00     0.124 S 
ATOM     82  O   UNL A   1      40.375  21.039  26.122  1.00  0.00    -0.237 OA
ATOM     83  O   UNL A   1      42.613  20.243  25.424  1.00  0.00    -0.237 OA
ATOM     84  O   UNL A   1      42.120  20.607  27.812  1.00  0.00    -0.744 OA
ENDBRANCH  77  81
ENDBRANCH  50  74
BRANCH  62  85
ATOM     85  C   UNL A   1      47.067  25.954  32.609  1.00  0.00     0.023 A 
ATOM     86  C   UNL A   1      47.101  24.902  33.541  1.00  0.00     0.031 A 
ATOM     87  C   UNL A   1      48.285  26.393  32.061  1.00  0.00     0.131 A 
ATOM     88  C   UNL A   1      48.334  24.360  33.937  1.00  0.00     0.055 A 
ATOM     89  C   UNL A   1      49.503  25.810  32.414  1.00  0.00     0.041 A 
ATOM     90  F   UNL A   1      48.311  27.394  31.166  1.00  0.00    -0.206 F 
ATOM     91  C   UNL A   1      49.534  24.797  33.367  1.00  0.00     0.022 A 
BRANCH  88  92
ATOM     92  S   UNL A   1      48.360  23.136  35.275  1.00  0.00     0.124 S 
ATOM     93  O   UNL A   1      49.581  23.492  35.989  1.00  0.00    -0.237 OA
ATOM     94  O   UNL A   1      47.109  23.412  35.974  1.00  0.00    -0.237 OA
ATOM     95  O   UNL A   1      48.404  21.857  34.569  1.00  0.00    -0.744 OA
ENDBRANCH  88  92
ENDBRANCH  62  85
ENDBRANCH  36  37
ENDBRANCH  29  31
ENDBRANCH  28  29
ENDBRANCH  27  28
ENDBRANCH  26  27
ENDBRANCH   1  26
TORSDOF 21
ENDMDL
MODEL 2
REMARK VINA RESULT:      -8.6      1.607      2.447
REMARK SMILES COc1cc(OC)cc(-c2ccc([C@@H](C)C(=O)OCCOCCOC(=O)c3ccc(-c4c5nc(c(-c6cc(S(=O)(=O)[O-])ccc6F)c6ccc([nH]6)c(-c6cc(S(=O)(=O)[O-])ccc6F)c6nc(c(-c7cc(S(=O)(=O)[O-])ccc7F)c7ccc4[nH]7)C=C6)C=C5)cc3)cc2F)c1
REMARK SMILES IDX 21 1 20 2 19 3 18 4 16 5 17 6 14 7 15 8 13 9 10 10 11 11
REMARK SMILES IDX 91 12 12 13 90 14 92 15 9 16 3 17 4 18 93 19 5 20 8 21 2 22
REMARK SMILES IDX 1 23 6 24 7 25 22 26 23 27 24 28 25 29 26 30 27 31 28 32
REMARK SMILES IDX 89 33 29 34 88 35 30 36 31 37 32 38 82 39 33 40 87 41 81 42
REMARK SMILES IDX 83 43 34 44 86 45 80 46 79 47 35 49 67 50 47 51 66 52 48 53
REMARK SMILES IDX 51 54 65 55 84 56 49 57 50 58 64 60 85 61 52 62 36 63 37 64
REMARK SMILES IDX 45 65 38 66 44 67 46 68 43 69 39 70 40 71 41 72 42 73 68 74
REMARK SMILES IDX 69 75 77 76 70 77 76 78 78 79 75 80 71 81 72 82 73 83 74 84
REMARK SMILES IDX 53 85 54 86 62 87 55 88 61 89 63 90 60 91 56 92 57 93 58 94
REMARK SMILES IDX 59 95
REMARK H PARENT 83 48 51 59
REMARK Flexibility Score: inf
ROOT
ATOM      1  O   UNL A   1      33.330  34.163  28.484  1.00  0.00    -0.374 OA
ENDROOT
BRANCH   1   2
ATOM      2  C   UNL A   1      32.990  35.476  28.931  1.00  0.00     0.202 C 
BRANCH   2   3
ATOM      3  C   UNL A   1      33.225  35.756  30.417  1.00  0.00     0.261 C 
BRANCH   3   4
ATOM      4  O   UNL A   1      33.444  34.534  31.145  1.00  0.00    -0.463 OA
BRANCH   4   5
ATOM      5  C   UNL A   1      34.154  34.641  32.297  1.00  0.00     0.313 C 
ATOM      6  O   UNL A   1      33.949  35.483  33.166  1.00  0.00    -0.252 OA
BRANCH   5   7
ATOM      7  C   UNL A   1      35.283  33.630  32.415  1.00  0.00     0.126 C 
ATOM      8  C   UNL A   1      35.468  33.250  33.881  1.00  0.00     0.025 C 
BRANCH   7   9
ATOM      9  C   UNL A   1      36.610  33.958  31.735  1.00  0.00    -0.031 A 
ATOM     10  C   UNL A   1      39.141  34.293  30.449  1.00  0.00     0.018 A 
ATOM     11  C   UNL A   1      38.954  34.643  31.797  1.00  0.00     0.012 A 
ATOM     12  C   UNL A   1      38.018  33.833  29.750  1.00  0.00     0.131 A 
ATOM     13  C   UNL A   1      37.711  34.477  32.431  1.00  0.00     0.005 A 
ATOM     14  C   UNL A   1      36.777  33.666  30.373  1.00  0.00     0.044 A 
ATOM     15  F   UNL A   1      38.122  33.482  28.458  1.00  0.00    -0.206 F 
BRANCH  10  16
ATOM     16  C   UNL A   1      40.481  34.306  29.831  1.00  0.00    -0.008 A 
ATOM     17  C   UNL A   1      42.769  33.483  29.660  1.00  0.00     0.123 A 
ATOM     18  C   UNL A   1      43.060  34.492  28.741  1.00  0.00     0.092 A 
ATOM     19  C   UNL A   1      41.486  33.395  30.206  1.00  0.00     0.055 A 
ATOM     20  C   UNL A   1      42.084  35.407  28.351  1.00  0.00     0.123 A 
ATOM     21  C   UNL A   1      40.799  35.301  28.884  1.00  0.00     0.055 A 
BRANCH  17  22
ATOM     22  O   UNL A   1      43.835  32.686  29.980  1.00  0.00    -0.497 OA
ATOM     23  C   UNL A   1      43.675  31.291  29.755  1.00  0.00     0.278 C 
ENDBRANCH  17  22
BRANCH  20  24
ATOM     24  O   UNL A   1      42.508  36.356  27.460  1.00  0.00    -0.497 OA
ATOM     25  C   UNL A   1      42.307  37.715  27.829  1.00  0.00     0.278 C 
ENDBRANCH  20  24
ENDBRANCH  10  16
ENDBRANCH   7   9
ENDBRANCH   5   7
ENDBRANCH   4   5
ENDBRANCH   3   4
ENDBRANCH   2   3
ENDBRANCH   1   2
BRANCH   1  26
ATOM     26  C   UNL A   1      32.587  33.631  27.388  1.00  0.00     0.202 C 
BRANCH  26  27
ATOM     27  C   UNL A   1      32.532  32.103  27.266  1.00  0.00     0.261 C 
BRANCH  27  28
ATOM     28  O   UNL A   1      33.494  31.448  28.112  1.00  0.00    -0.460 OA
BRANCH  28  29
ATOM     29  C   UNL A   1      34.220  30.485  27.498  1.00  0.00     0.338 C 
ATOM     30  O   UNL A   1      33.952  29.929  26.439  1.00  0.00    -0.246 OA
BRANCH  29  31
ATOM     31  C   UNL A   1      35.513  30.297  28.182  1.00  0.00     0.060 A 
ATOM     32  C   UNL A   1      36.674  30.456  27.413  1.00  0.00     0.016 A 
ATOM     33  C   UNL A   1      35.599  29.891  29.516  1.00  0.00     0.016 A 
ATOM     34  C   UNL A   1      37.921  30.150  27.955  1.00  0.00     0.010 A 
ATOM     35  C   UNL A   1      36.853  29.577  30.057  1.00  0.00     0.010 A 
ATOM     36  C   UNL A   1      38.015  29.666  29.266  1.00  0.00    -0.014 A 
BRANCH  36  37
ATOM     37  C   UNL A   1      39.301  29.087  29.734  1.00  0.00     0.031 A 
ATOM     38  C   UNL A   1      39.972  29.692  30.940  1.00  0.00     0.074 A 
ATOM     39  C   UNL A   1      39.835  28.007  29.134  1.00  0.00     0.049 A 
ATOM     40  N   UNL A   1      41.101  29.368  31.515  1.00  0.00    -0.248 NA
ATOM     41  C   UNL A   1      39.270  30.815  31.582  1.00  0.00     0.031 C 
ATOM     42  C   UNL A   1      39.251  27.298  27.997  1.00  0.00     0.029 A 
ATOM     43  N   UNL A   1      40.991  27.317  29.402  1.00  0.00    -0.354 N 
ATOM     44  C   UNL A   1      41.246  30.244  32.586  1.00  0.00     0.074 A 
ATOM     45  C   UNL A   1      40.110  31.139  32.552  1.00  0.00     0.031 C 
ATOM     46  C   UNL A   1      40.057  26.276  27.660  1.00  0.00     0.029 A 
ATOM     47  C   UNL A   1      41.230  26.279  28.533  1.00  0.00     0.049 A 
ATOM     48  H   UNL A   1      41.592  27.543  30.148  1.00  0.00     0.167 HD
ATOM     49  C   UNL A   1      42.232  30.292  33.516  1.00  0.00     0.034 A 
ATOM     50  C   UNL A   1      42.286  25.444  28.437  1.00  0.00     0.034 A 
ATOM     51  C   UNL A   1      43.366  29.400  33.533  1.00  0.00     0.049 A 
ATOM     52  C   UNL A   1      43.418  25.576  29.429  1.00  0.00     0.074 A 
ATOM     53  C   UNL A   1      44.420  29.361  34.429  1.00  0.00     0.029 A 
ATOM     54  N   UNL A   1      43.601  28.396  32.604  1.00  0.00    -0.354 N 
ATOM     55  N   UNL A   1      43.544  26.412  30.434  1.00  0.00    -0.248 NA
ATOM     56  C   UNL A   1      44.545  24.646  29.278  1.00  0.00     0.031 C 
ATOM     57  C   UNL A   1      45.323  28.381  34.005  1.00  0.00     0.029 A 
ATOM     58  C   UNL A   1      44.796  27.754  32.888  1.00  0.00     0.049 A 
ATOM     59  H   UNL A   1      43.004  28.172  31.853  1.00  0.00     0.167 HD
ATOM     60  C   UNL A   1      44.749  26.082  31.054  1.00  0.00     0.074 A 
ATOM     61  C   UNL A   1      45.303  24.966  30.317  1.00  0.00     0.031 C 
ATOM     62  C   UNL A   1      45.340  26.645  32.139  1.00  0.00     0.034 A 
BRANCH  49  63
ATOM     63  C   UNL A   1      42.147  31.381  34.559  1.00  0.00     0.023 A 
ATOM     64  C   UNL A   1      41.129  31.400  35.528  1.00  0.00     0.031 A 
ATOM     65  C   UNL A   1      43.084  32.430  34.566  1.00  0.00     0.131 A 
ATOM     66  C   UNL A   1      41.033  32.479  36.420  1.00  0.00     0.055 A 
ATOM     67  C   UNL A   1      43.028  33.461  35.505  1.00  0.00     0.041 A 
ATOM     68  F   UNL A   1      44.064  32.476  33.650  1.00  0.00    -0.206 F 
ATOM     69  C   UNL A   1      41.990  33.497  36.431  1.00  0.00     0.022 A 
BRANCH  66  70
ATOM     70  S   UNL A   1      39.565  32.603  37.479  1.00  0.00     0.124 S 
ATOM     71  O   UNL A   1      38.967  33.851  37.008  1.00  0.00    -0.237 OA
ATOM     72  O   UNL A   1      38.837  31.382  37.155  1.00  0.00    -0.237 OA
ATOM     73  O   UNL A   1      40.120  32.660  38.830  1.00  0.00    -0.744 OA
ENDBRANCH  66  70
ENDBRANCH  49  63
BRANCH  50  74
ATOM     74  C   UNL A   1      42.358  24.434  27.340  1.00  0.00     0.023 A 
ATOM     75  C   UNL A   1      41.583  23.264  27.376  1.00  0.00     0.031 A 
ATOM     76  C   UNL A   1      43.260  24.595  26.273  1.00  0.00     0.131 A 
ATOM     77  C   UNL A   1      41.763  22.276  26.394  1.00  0.00     0.055 A 
ATOM     78  C   UNL A   1      43.395  23.636  25.269  1.00  0.00     0.041 A 
ATOM     79  F   UNL A   1      44.026  25.695  26.191  1.00  0.00    -0.206 F 
ATOM     80  C   UNL A   1      42.654  22.461  25.334  1.00  0.00     0.022 A 
BRANCH  77  81
ATOM     81  S   UNL A   1      40.882  20.701  26.573  1.00  0.00     0.124 S 
ATOM     82  O   UNL A   1      39.555  21.045  26.075  1.00  0.00    -0.237 OA
ATOM     83  O   UNL A   1      41.675  19.814  25.728  1.00  0.00    -0.237 OA
ATOM     84  O   UNL A   1      40.962  20.428  28.006  1.00  0.00    -0.744 OA
ENDBRANCH  77  81
ENDBRANCH  50  74
BRANCH  62  85
ATOM     85  C   UNL A   1      46.629  26.022  32.623  1.00  0.00     0.023 A 
ATOM     86  C   UNL A   1      46.642  24.974  33.559  1.00  0.00     0.031 A 
ATOM     87  C   UNL A   1      47.863  26.495  32.141  1.00  0.00     0.131 A 
ATOM     88  C   UNL A   1      47.866  24.468  34.024  1.00  0.00     0.055 A 
ATOM     89  C   UNL A   1      49.075  25.948  32.563  1.00  0.00     0.041 A 
ATOM     90  F   UNL A   1      47.909  27.495  31.246  1.00  0.00    -0.206 F 
ATOM     91  C   UNL A   1      49.082  24.939  33.519  1.00  0.00     0.022 A 
BRANCH  88  92
ATOM     92  S   UNL A   1      47.853  23.247  35.365  1.00  0.00     0.124 S 
ATOM     93  O   UNL A   1      46.465  23.300  35.811  1.00  0.00    -0.237 OA
ATOM     94  O   UNL A   1      48.254  22.024  34.676  1.00  0.00    -0.237 OA
ATOM     95  O   UNL A   1      48.830  23.770  36.316  1.00  0.00    -0.744 OA
ENDBRANCH  88  92
ENDBRANCH  62  85
ENDBRANCH  36  37
ENDBRANCH  29  31
ENDBRANCH  28  29
ENDBRANCH  27  28
ENDBRANCH  26  27
ENDBRANCH   1  26
TORSDOF 21
ENDMDL
MODEL 3
REMARK VINA RESULT:      -8.2      3.460     10.258
REMARK SMILES COc1cc(OC)cc(-c2ccc([C@@H](C)C(=O)OCCOCCOC(=O)c3ccc(-c4c5nc(c(-c6cc(S(=O)(=O)[O-])ccc6F)c6ccc([nH]6)c(-c6cc(S(=O)(=O)[O-])ccc6F)c6nc(c(-c7cc(S(=O)(=O)[O-])ccc7F)c7ccc4[nH]7)C=C6)C=C5)cc3)cc2F)c1
REMARK SMILES IDX 21 1 20 2 19 3 18 4 16 5 17 6 14 7 15 8 13 9 10 10 11 11
REMARK SMILES IDX 91 12 12 13 90 14 92 15 9 16 3 17 4 18 93 19 5 20 8 21 2 22
REMARK SMILES IDX 1 23 6 24 7 25 22 26 23 27 24 28 25 29 26 30 27 31 28 32
REMARK SMILES IDX 89 33 29 34 88 35 30 36 31 37 32 38 82 39 33 40 87 41 81 42
REMARK SMILES IDX 83 43 34 44 86 45 80 46 79 47 35 49 67 50 47 51 66 52 48 53
REMARK SMILES IDX 51 54 65 55 84 56 49 57 50 58 64 60 85 61 52 62 36 63 37 64
REMARK SMILES IDX 45 65 38 66 44 67 46 68 43 69 39 70 40 71 41 72 42 73 68 74
REMARK SMILES IDX 69 75 77 76 70 77 76 78 78 79 75 80 71 81 72 82 73 83 74 84
REMARK SMILES IDX 53 85 54 86 62 87 55 88 61 89 63 90 60 91 56 92 57 93 58 94
REMARK SMILES IDX 59 95
REMARK H PARENT 83 48 51 59
REMARK Flexibility Score: inf
ROOT
ATOM      1  O   UNL A   1      43.392  22.030  24.701  1.00  0.00    -0.374 OA
ENDROOT
BRANCH   1   2
ATOM      2  C   UNL A   1      44.789  22.305  24.809  1.00  0.00     0.202 C 
BRANCH   2   3
ATOM      3  C   UNL A   1      45.328  22.465  26.234  1.00  0.00     0.261 C 
BRANCH   3   4
ATOM      4  O   UNL A   1      45.795  23.807  26.461  1.00  0.00    -0.463 OA
BRANCH   4   5
ATOM      5  C   UNL A   1      45.353  24.751  25.592  1.00  0.00     0.313 C 
ATOM      6  O   UNL A   1      45.912  25.044  24.539  1.00  0.00    -0.252 OA
BRANCH   5   7
ATOM      7  C   UNL A   1      44.094  25.466  26.055  1.00  0.00     0.126 C 
ATOM      8  C   UNL A   1      43.006  25.304  24.996  1.00  0.00     0.025 C 
BRANCH   7   9
ATOM      9  C   UNL A   1      44.226  26.912  26.526  1.00  0.00    -0.031 A 
ATOM     10  C   UNL A   1      44.482  29.693  27.134  1.00  0.00     0.018 A 
ATOM     11  C   UNL A   1      45.528  28.790  27.387  1.00  0.00     0.012 A 
ATOM     12  C   UNL A   1      43.289  29.160  26.630  1.00  0.00     0.131 A 
ATOM     13  C   UNL A   1      45.404  27.423  27.087  1.00  0.00     0.005 A 
ATOM     14  C   UNL A   1      43.157  27.801  26.329  1.00  0.00     0.044 A 
ATOM     15  F   UNL A   1      42.246  29.963  26.366  1.00  0.00    -0.206 F 
BRANCH  10  16
ATOM     16  C   UNL A   1      44.669  31.149  27.289  1.00  0.00    -0.008 A 
ATOM     17  C   UNL A   1      44.222  33.257  28.429  1.00  0.00     0.123 A 
ATOM     18  C   UNL A   1      44.919  33.940  27.431  1.00  0.00     0.092 A 
ATOM     19  C   UNL A   1      44.093  31.868  28.353  1.00  0.00     0.055 A 
ATOM     20  C   UNL A   1      45.500  33.254  26.366  1.00  0.00     0.123 A 
ATOM     21  C   UNL A   1      45.385  31.865  26.309  1.00  0.00     0.055 A 
BRANCH  17  22
ATOM     22  O   UNL A   1      43.672  34.065  29.387  1.00  0.00    -0.497 OA
ATOM     23  C   UNL A   1      43.716  35.464  29.141  1.00  0.00     0.278 C 
ENDBRANCH  17  22
BRANCH  20  24
ATOM     24  O   UNL A   1      46.136  34.046  25.449  1.00  0.00    -0.497 OA
ATOM     25  C   UNL A   1      47.454  34.471  25.774  1.00  0.00     0.278 C 
ENDBRANCH  20  24
ENDBRANCH  10  16
ENDBRANCH   7   9
ENDBRANCH   5   7
ENDBRANCH   4   5
ENDBRANCH   3   4
ENDBRANCH   2   3
ENDBRANCH   1   2
BRANCH   1  26
ATOM     26  C   UNL A   1      42.696  21.694  25.901  1.00  0.00     0.202 C 
BRANCH  26  27
ATOM     27  C   UNL A   1      41.188  21.973  25.926  1.00  0.00     0.261 C 
BRANCH  27  28
ATOM     28  O   UNL A   1      40.827  22.956  26.913  1.00  0.00    -0.460 OA
BRANCH  28  29
ATOM     29  C   UNL A   1      39.618  23.534  26.717  1.00  0.00     0.338 C 
ATOM     30  O   UNL A   1      38.656  23.039  26.142  1.00  0.00    -0.246 OA
BRANCH  29  31
ATOM     31  C   UNL A   1      39.526  24.806  27.456  1.00  0.00     0.060 A 
ATOM     32  C   UNL A   1      39.992  25.959  26.810  1.00  0.00     0.016 A 
ATOM     33  C   UNL A   1      39.079  24.870  28.779  1.00  0.00     0.016 A 
ATOM     34  C   UNL A   1      40.072  27.166  27.500  1.00  0.00     0.010 A 
ATOM     35  C   UNL A   1      39.166  26.083  29.474  1.00  0.00     0.010 A 
ATOM     36  C   UNL A   1      39.702  27.227  28.850  1.00  0.00    -0.014 A 
BRANCH  36  37
ATOM     37  C   UNL A   1      40.048  28.435  29.642  1.00  0.00     0.031 A 
ATOM     38  C   UNL A   1      41.477  28.627  30.084  1.00  0.00     0.074 A 
ATOM     39  C   UNL A   1      39.125  29.377  29.914  1.00  0.00     0.049 A 
ATOM     40  N   UNL A   1      42.006  29.589  30.794  1.00  0.00    -0.248 NA
ATOM     41  C   UNL A   1      42.433  27.589  29.666  1.00  0.00     0.031 C 
ATOM     42  C   UNL A   1      37.727  29.333  29.490  1.00  0.00     0.029 A 
ATOM     43  N   UNL A   1      39.229  30.554  30.610  1.00  0.00    -0.354 N 
ATOM     44  C   UNL A   1      43.357  29.275  30.909  1.00  0.00     0.074 A 
ATOM     45  C   UNL A   1      43.554  28.012  30.231  1.00  0.00     0.031 C 
ATOM     46  C   UNL A   1      37.100  30.433  29.943  1.00  0.00     0.029 A 
ATOM     47  C   UNL A   1      38.042  31.239  30.718  1.00  0.00     0.049 A 
ATOM     48  H   UNL A   1      40.074  30.879  30.997  1.00  0.00     0.167 HD
ATOM     49  C   UNL A   1      44.343  29.980  31.517  1.00  0.00     0.034 A 
ATOM     50  C   UNL A   1      37.745  32.374  31.386  1.00  0.00     0.034 A 
ATOM     51  C   UNL A   1      44.134  31.233  32.199  1.00  0.00     0.049 A 
ATOM     52  C   UNL A   1      38.842  33.094  32.134  1.00  0.00     0.074 A 
ATOM     53  C   UNL A   1      45.062  32.030  32.846  1.00  0.00     0.029 A 
ATOM     54  N   UNL A   1      42.907  31.870  32.332  1.00  0.00    -0.354 N 
ATOM     55  N   UNL A   1      40.114  32.784  32.237  1.00  0.00    -0.248 NA
ATOM     56  C   UNL A   1      38.464  34.321  32.848  1.00  0.00     0.031 C 
ATOM     57  C   UNL A   1      44.388  33.109  33.427  1.00  0.00     0.029 A 
ATOM     58  C   UNL A   1      43.050  33.030  33.077  1.00  0.00     0.049 A 
ATOM     59  H   UNL A   1      42.059  31.544  31.952  1.00  0.00     0.167 HD
ATOM     60  C   UNL A   1      40.692  33.800  32.998  1.00  0.00     0.074 A 
ATOM     61  C   UNL A   1      39.633  34.734  33.316  1.00  0.00     0.031 C 
ATOM     62  C   UNL A   1      41.983  33.950  33.392  1.00  0.00     0.034 A 
BRANCH  49  63
ATOM     63  C   UNL A   1      45.728  29.377  31.511  1.00  0.00     0.023 A 
ATOM     64  C   UNL A   1      46.663  29.680  30.506  1.00  0.00     0.031 A 
ATOM     65  C   UNL A   1      46.108  28.466  32.512  1.00  0.00     0.131 A 
ATOM     66  C   UNL A   1      47.906  29.027  30.487  1.00  0.00     0.055 A 
ATOM     67  C   UNL A   1      47.374  27.878  32.530  1.00  0.00     0.041 A 
ATOM     68  F   UNL A   1      45.248  28.122  33.484  1.00  0.00    -0.206 F 
ATOM     69  C   UNL A   1      48.277  28.147  31.507  1.00  0.00     0.022 A 
BRANCH  66  70
ATOM     70  S   UNL A   1      48.980  29.244  29.041  1.00  0.00     0.124 S 
ATOM     71  O   UNL A   1      50.279  29.465  29.671  1.00  0.00    -0.237 OA
ATOM     72  O   UNL A   1      48.817  27.979  28.334  1.00  0.00    -0.237 OA
ATOM     73  O   UNL A   1      48.417  30.413  28.368  1.00  0.00    -0.744 OA
ENDBRANCH  66  70
ENDBRANCH  49  63
BRANCH  50  74
ATOM     74  C   UNL A   1      36.343  32.887  31.424  1.00  0.00     0.023 A 
ATOM     75  C   UNL A   1      35.785  33.564  30.328  1.00  0.00     0.031 A 
ATOM     76  C   UNL A   1      35.566  32.767  32.590  1.00  0.00     0.131 A 
ATOM     77  C   UNL A   1      34.510  34.142  30.439  1.00  0.00     0.055 A 
ATOM     78  C   UNL A   1      34.277  33.295  32.676  1.00  0.00     0.041 A 
ATOM     79  F   UNL A   1      36.051  32.131  33.668  1.00  0.00    -0.206 F 
ATOM     80  C   UNL A   1      33.748  34.001  31.600  1.00  0.00     0.022 A 
BRANCH  77  81
ATOM     81  S   UNL A   1      33.897  35.165  29.072  1.00  0.00     0.124 S 
ATOM     82  O   UNL A   1      34.996  35.073  28.117  1.00  0.00    -0.237 OA
ATOM     83  O   UNL A   1      32.667  34.472  28.704  1.00  0.00    -0.237 OA
ATOM     84  O   UNL A   1      33.712  36.477  29.687  1.00  0.00    -0.744 OA
ENDBRANCH  77  81
ENDBRANCH  50  74
BRANCH  62  85
ATOM     85  C   UNL A   1      42.326  35.202  34.165  1.00  0.00     0.023 A 
ATOM     86  C   UNL A   1      42.778  36.369  33.527  1.00  0.00     0.031 A 
ATOM     87  C   UNL A   1      42.204  35.219  35.567  1.00  0.00     0.131 A 
ATOM     88  C   UNL A   1      43.142  37.488  34.292  1.00  0.00     0.055 A 
ATOM     89  C   UNL A   1      42.511  36.354  36.318  1.00  0.00     0.041 A 
ATOM     90  F   UNL A   1      41.777  34.131  36.229  1.00  0.00    -0.206 F 
ATOM     91  C   UNL A   1      42.996  37.492  35.683  1.00  0.00     0.022 A 
BRANCH  88  92
ATOM     92  S   UNL A   1      43.895  38.911  33.456  1.00  0.00     0.124 S 
ATOM     93  O   UNL A   1      44.363  38.317  32.208  1.00  0.00    -0.237 OA
ATOM     94  O   UNL A   1      42.770  39.834  33.340  1.00  0.00    -0.237 OA
ATOM     95  O   UNL A   1      44.948  39.332  34.376  1.00  0.00    -0.744 OA
ENDBRANCH  88  92
ENDBRANCH  62  85
ENDBRANCH  36  37
ENDBRANCH  29  31
ENDBRANCH  28  29
ENDBRANCH  27  28
ENDBRANCH  26  27
ENDBRANCH   1  26
TORSDOF 21
ENDMDL
