MODEL 1
REMARK VINA RESULT:     -12.2      0.000      0.000
REMARK SMILES O=C(OCCOCCOC(=O)c1ccc(-c2c3nc(c(-c4cc(S(=O)(=O)[O-])ccc4F)c4ccc([nH]4)c(-c4cc(S(=O)(=O)[O-])ccc4F)c4nc(c(-c5cc(S(=O)(=O)[O-])ccc5F)c5ccc2[nH]5)C=C4)C=C3)cc1)C1=Cc2ccc(Cl)c(Cl)c2O[C@@H]1C(F)(F)F
REMARK SMILES IDX 7 1 6 2 5 3 4 4 3 5 2 6 1 7 75 8 76 9 86 10 77 11 85 12
REMARK SMILES IDX 78 13 84 14 79 15 82 16 80 17 83 18 81 19 87 20 88 21 89 22
REMARK SMILES IDX 90 23 8 24 9 25 10 26 11 27 12 28 13 29 74 30 14 31 73 32
REMARK SMILES IDX 15 33 16 34 17 35 67 36 18 37 72 38 66 39 68 40 19 41 71 42
REMARK SMILES IDX 65 43 64 44 20 46 52 47 32 48 51 49 33 50 36 51 50 52 69 53
REMARK SMILES IDX 34 54 35 55 49 57 70 58 37 59 21 60 22 61 30 62 23 63 29 64
REMARK SMILES IDX 31 65 28 66 24 67 25 68 26 69 27 70 53 71 54 72 62 73 55 74
REMARK SMILES IDX 61 75 63 76 60 77 56 78 57 79 58 80 59 81 38 82 39 83 47 84
REMARK SMILES IDX 40 85 46 86 48 87 45 88 41 89 42 90 43 91 44 92
REMARK H PARENT 68 45 36 56
REMARK Flexibility Score: inf
ROOT
ATOM      1  C   UNL A   1      31.819  30.059  25.345  1.00  0.00     0.202 C 
ENDROOT
BRANCH   1   2
ATOM      2  O   UNL A   1      31.175  29.123  24.469  1.00  0.00    -0.374 OA
BRANCH   2   3
ATOM      3  C   UNL A   1      31.285  28.781  22.930  1.00  0.00     0.202 C 
BRANCH   3   4
ATOM      4  C   UNL A   1      31.737  26.941  21.847  1.00  0.00     0.261 C 
BRANCH   4   5
ATOM      5  O   UNL A   1      31.420  25.505  22.290  1.00  0.00    -0.460 OA
BRANCH   5   6
ATOM      6  C   UNL A   1      32.510  24.745  22.411  1.00  0.00     0.338 C 
ATOM      7  O   UNL A   1      33.213  24.266  21.560  1.00  0.00    -0.246 OA
BRANCH   6   8
ATOM      8  C   UNL A   1      32.308  24.426  23.808  1.00  0.00     0.087 C 
ATOM      9  C   UNL A   1      31.778  23.047  23.972  1.00  0.00     0.027 C 
ATOM     10  C   UNL A   1      34.050  25.016  24.410  1.00  0.00     0.316 C 
ATOM     11  C   UNL A   1      32.774  21.659  24.594  1.00  0.00     0.019 A 
ATOM     12  O   UNL A   1      35.142  23.544  25.011  1.00  0.00    -0.474 OA
ATOM     13  C   UNL A   1      32.256  20.397  24.491  1.00  0.00     0.013 A 
ATOM     14  C   UNL A   1      34.462  21.845  24.982  1.00  0.00     0.148 A 
ATOM     15  C   UNL A   1      33.194  19.364  24.626  1.00  0.00     0.023 A 
ATOM     16  C   UNL A   1      35.321  20.776  24.925  1.00  0.00     0.102 A 
ATOM     17  C   UNL A   1      34.638  19.536  24.767  1.00  0.00     0.063 A 
ATOM     18  Cl  UNL A   1      36.998  20.987  24.679  1.00  0.00    -0.079 Cl
ATOM     19  Cl  UNL A   1      35.505  18.039  24.596  1.00  0.00    -0.083 Cl
BRANCH  10  20
ATOM     20  C   UNL A   1      33.598  26.361  25.120  1.00  0.00     0.430 C 
ATOM     21  F   UNL A   1      34.201  26.646  26.287  1.00  0.00    -0.167 F 
ATOM     22  F   UNL A   1      33.957  27.388  24.287  1.00  0.00    -0.167 F 
ATOM     23  F   UNL A   1      32.259  26.508  25.260  1.00  0.00    -0.167 F 
ENDBRANCH  10  20
ENDBRANCH   6   8
ENDBRANCH   5   6
ENDBRANCH   4   5
ENDBRANCH   3   4
ENDBRANCH   2   3
ENDBRANCH   1   2
BRANCH   1  24
ATOM     24  C   UNL A   1      32.380  29.651  26.690  1.00  0.00     0.261 C 
BRANCH  24  25
ATOM     25  O   UNL A   1      33.789  29.692  26.725  1.00  0.00    -0.460 OA
BRANCH  25  26
ATOM     26  C   UNL A   1      34.294  30.707  27.454  1.00  0.00     0.338 C 
ATOM     27  O   UNL A   1      33.815  31.813  27.624  1.00  0.00    -0.246 OA
BRANCH  26  28
ATOM     28  C   UNL A   1      35.539  30.212  28.056  1.00  0.00     0.060 A 
ATOM     29  C   UNL A   1      36.725  30.340  27.331  1.00  0.00     0.016 A 
ATOM     30  C   UNL A   1      35.535  29.689  29.359  1.00  0.00     0.016 A 
ATOM     31  C   UNL A   1      37.926  29.988  27.934  1.00  0.00     0.010 A 
ATOM     32  C   UNL A   1      36.734  29.348  29.962  1.00  0.00     0.010 A 
ATOM     33  C   UNL A   1      37.931  29.497  29.249  1.00  0.00    -0.014 A 
BRANCH  33  34
ATOM     34  C   UNL A   1      39.140  28.866  29.799  1.00  0.00     0.031 A 
ATOM     35  C   UNL A   1      39.688  29.473  31.048  1.00  0.00     0.074 A 
ATOM     36  C   UNL A   1      39.753  27.845  29.178  1.00  0.00     0.049 A 
ATOM     37  N   UNL A   1      40.794  29.207  31.683  1.00  0.00    -0.248 NA
ATOM     38  C   UNL A   1      38.884  30.554  31.643  1.00  0.00     0.031 C 
ATOM     39  C   UNL A   1      39.281  27.191  27.963  1.00  0.00     0.029 A 
ATOM     40  N   UNL A   1      40.919  27.192  29.479  1.00  0.00    -0.354 N 
ATOM     41  C   UNL A   1      40.821  30.090  32.753  1.00  0.00     0.074 A 
ATOM     42  C   UNL A   1      39.650  30.931  32.649  1.00  0.00     0.031 C 
ATOM     43  C   UNL A   1      40.139  26.214  27.627  1.00  0.00     0.029 A 
ATOM     44  C   UNL A   1      41.264  26.230  28.559  1.00  0.00     0.049 A 
ATOM     45  H   UNL A   1      41.459  27.393  30.278  1.00  0.00     0.167 HD
ATOM     46  C   UNL A   1      41.748  30.185  33.732  1.00  0.00     0.034 A 
ATOM     47  C   UNL A   1      42.384  25.487  28.463  1.00  0.00     0.034 A 
ATOM     48  C   UNL A   1      42.936  29.374  33.761  1.00  0.00     0.049 A 
ATOM     49  C   UNL A   1      43.461  25.683  29.503  1.00  0.00     0.074 A 
ATOM     50  C   UNL A   1      43.959  29.382  34.687  1.00  0.00     0.029 A 
ATOM     51  N   UNL A   1      43.275  28.434  32.794  1.00  0.00    -0.354 N 
ATOM     52  N   UNL A   1      43.482  26.510  30.525  1.00  0.00    -0.248 NA
ATOM     53  C   UNL A   1      44.664  24.851  29.380  1.00  0.00     0.031 C 
ATOM     54  C   UNL A   1      44.961  28.521  34.229  1.00  0.00     0.029 A 
ATOM     55  C   UNL A   1      44.512  27.884  33.081  1.00  0.00     0.049 A 
ATOM     56  H   UNL A   1      42.716  28.194  32.019  1.00  0.00     0.167 HD
ATOM     57  C   UNL A   1      44.680  26.266  31.191  1.00  0.00     0.074 A 
ATOM     58  C   UNL A   1      45.357  25.220  30.449  1.00  0.00     0.031 C 
ATOM     59  C   UNL A   1      45.168  26.840  32.323  1.00  0.00     0.034 A 
BRANCH  46  60
ATOM     60  C   UNL A   1      41.531  31.262  34.765  1.00  0.00     0.023 A 
ATOM     61  C   UNL A   1      40.453  31.210  35.668  1.00  0.00     0.031 A 
ATOM     62  C   UNL A   1      42.340  32.410  34.770  1.00  0.00     0.131 A 
ATOM     63  C   UNL A   1      40.146  32.331  36.451  1.00  0.00     0.055 A 
ATOM     64  C   UNL A   1      42.093  33.477  35.633  1.00  0.00     0.041 A 
ATOM     65  F   UNL A   1      43.359  32.535  33.904  1.00  0.00    -0.206 F 
ATOM     66  C   UNL A   1      40.976  33.453  36.464  1.00  0.00     0.022 A 
BRANCH  63  67
ATOM     67  S   UNL A   1      38.531  32.387  37.277  1.00  0.00     0.124 S 
ATOM     68  O   UNL A   1      37.796  31.350  36.557  1.00  0.00    -0.237 OA
ATOM     69  O   UNL A   1      38.873  32.083  38.661  1.00  0.00    -0.237 OA
ATOM     70  O   UNL A   1      38.068  33.752  37.032  1.00  0.00    -0.744 OA
ENDBRANCH  63  67
ENDBRANCH  46  60
BRANCH  47  71
ATOM     71  C   UNL A   1      42.565  24.539  27.325  1.00  0.00     0.023 A 
ATOM     72  C   UNL A   1      42.043  23.236  27.365  1.00  0.00     0.031 A 
ATOM     73  C   UNL A   1      43.288  24.919  26.179  1.00  0.00     0.131 A 
ATOM     74  C   UNL A   1      42.279  22.353  26.298  1.00  0.00     0.055 A 
ATOM     75  C   UNL A   1      43.472  24.057  25.097  1.00  0.00     0.041 A 
ATOM     76  F   UNL A   1      43.818  26.150  26.088  1.00  0.00    -0.206 F 
ATOM     77  C   UNL A   1      42.972  22.761  25.157  1.00  0.00     0.022 A 
BRANCH  74  78
ATOM     78  S   UNL A   1      41.731  20.629  26.452  1.00  0.00     0.124 S 
ATOM     79  O   UNL A   1      42.154  20.305  27.809  1.00  0.00    -0.237 OA
ATOM     80  O   UNL A   1      40.293  20.745  26.237  1.00  0.00    -0.237 OA
ATOM     81  O   UNL A   1      42.464  19.943  25.389  1.00  0.00    -0.744 OA
ENDBRANCH  74  78
ENDBRANCH  47  71
BRANCH  59  82
ATOM     82  C   UNL A   1      46.459  26.295  32.883  1.00  0.00     0.023 A 
ATOM     83  C   UNL A   1      46.502  25.184  33.740  1.00  0.00     0.031 A 
ATOM     84  C   UNL A   1      47.679  26.884  32.500  1.00  0.00     0.131 A 
ATOM     85  C   UNL A   1      47.739  24.718  34.213  1.00  0.00     0.055 A 
ATOM     86  C   UNL A   1      48.907  26.372  32.913  1.00  0.00     0.041 A 
ATOM     87  F   UNL A   1      47.696  27.954  31.688  1.00  0.00    -0.206 F 
ATOM     88  C   UNL A   1      48.941  25.287  33.783  1.00  0.00     0.022 A 
BRANCH  85  89
ATOM     89  S   UNL A   1      47.759  23.409  35.468  1.00  0.00     0.124 S 
ATOM     90  O   UNL A   1      48.831  23.855  36.352  1.00  0.00    -0.237 OA
ATOM     91  O   UNL A   1      46.409  23.479  36.017  1.00  0.00    -0.237 OA
ATOM     92  O   UNL A   1      48.053  22.201  34.699  1.00  0.00    -0.744 OA
ENDBRANCH  85  89
ENDBRANCH  59  82
ENDBRANCH  33  34
ENDBRANCH  26  28
ENDBRANCH  25  26
ENDBRANCH  24  25
ENDBRANCH   1  24
TORSDOF 18
ENDMDL
MODEL 2
REMARK VINA RESULT:     -12.2      1.779      7.840
REMARK SMILES O=C(OCCOCCOC(=O)c1ccc(-c2c3nc(c(-c4cc(S(=O)(=O)[O-])ccc4F)c4ccc([nH]4)c(-c4cc(S(=O)(=O)[O-])ccc4F)c4nc(c(-c5cc(S(=O)(=O)[O-])ccc5F)c5ccc2[nH]5)C=C4)C=C3)cc1)C1=Cc2ccc(Cl)c(Cl)c2O[C@@H]1C(F)(F)F
REMARK SMILES IDX 7 1 6 2 5 3 4 4 3 5 2 6 1 7 75 8 76 9 86 10 77 11 85 12
REMARK SMILES IDX 78 13 84 14 79 15 82 16 80 17 83 18 81 19 87 20 88 21 89 22
REMARK SMILES IDX 90 23 8 24 9 25 10 26 11 27 12 28 13 29 74 30 14 31 73 32
REMARK SMILES IDX 15 33 16 34 17 35 67 36 18 37 72 38 66 39 68 40 19 41 71 42
REMARK SMILES IDX 65 43 64 44 20 46 52 47 32 48 51 49 33 50 36 51 50 52 69 53
REMARK SMILES IDX 34 54 35 55 49 57 70 58 37 59 21 60 22 61 30 62 23 63 29 64
REMARK SMILES IDX 31 65 28 66 24 67 25 68 26 69 27 70 53 71 54 72 62 73 55 74
REMARK SMILES IDX 61 75 63 76 60 77 56 78 57 79 58 80 59 81 38 82 39 83 47 84
REMARK SMILES IDX 40 85 46 86 48 87 45 88 41 89 42 90 43 91 44 92
REMARK H PARENT 68 45 36 56
REMARK Flexibility Score: inf
ROOT
ATOM      1  C   UNL A   1      31.647  29.643  24.637  1.00  0.00     0.202 C 
ENDROOT
BRANCH   1   2
ATOM      2  O   UNL A   1      30.502  29.295  23.846  1.00  0.00    -0.374 OA
BRANCH   2   3
ATOM      3  C   UNL A   1      30.112  28.067  22.932  1.00  0.00     0.202 C 
BRANCH   3   4
ATOM      4  C   UNL A   1      31.283  26.478  22.002  1.00  0.00     0.261 C 
BRANCH   4   5
ATOM      5  O   UNL A   1      32.781  26.197  22.196  1.00  0.00    -0.460 OA
BRANCH   5   6
ATOM      6  C   UNL A   1      33.080  24.898  22.137  1.00  0.00     0.338 C 
ATOM      7  O   UNL A   1      33.332  24.209  21.183  1.00  0.00    -0.246 OA
BRANCH   6   8
ATOM      8  C   UNL A   1      32.639  24.588  23.479  1.00  0.00     0.087 C 
ATOM      9  C   UNL A   1      31.979  23.257  23.533  1.00  0.00     0.027 C 
ATOM     10  C   UNL A   1      34.308  25.027  24.353  1.00  0.00     0.316 C 
ATOM     11  C   UNL A   1      32.749  21.786  24.274  1.00  0.00     0.019 A 
ATOM     12  O   UNL A   1      35.171  23.464  25.087  1.00  0.00    -0.474 OA
ATOM     13  C   UNL A   1      32.152  20.573  24.069  1.00  0.00     0.013 A 
ATOM     14  C   UNL A   1      34.367  21.828  24.920  1.00  0.00     0.148 A 
ATOM     15  C   UNL A   1      32.972  19.464  24.326  1.00  0.00     0.023 A 
ATOM     16  C   UNL A   1      35.134  20.692  24.976  1.00  0.00     0.102 A 
ATOM     17  C   UNL A   1      34.385  19.514  24.691  1.00  0.00     0.063 A 
ATOM     18  Cl  UNL A   1      36.841  20.763  24.995  1.00  0.00    -0.079 Cl
ATOM     19  Cl  UNL A   1      35.143  17.952  24.626  1.00  0.00    -0.083 Cl
BRANCH  10  20
ATOM     20  C   UNL A   1      33.863  26.400  25.012  1.00  0.00     0.430 C 
ATOM     21  F   UNL A   1      33.985  27.494  24.241  1.00  0.00    -0.167 F 
ATOM     22  F   UNL A   1      32.518  26.302  25.258  1.00  0.00    -0.167 F 
ATOM     23  F   UNL A   1      34.400  26.648  26.230  1.00  0.00    -0.167 F 
ENDBRANCH  10  20
ENDBRANCH   6   8
ENDBRANCH   5   6
ENDBRANCH   4   5
ENDBRANCH   3   4
ENDBRANCH   2   3
ENDBRANCH   1   2
BRANCH   1  24
ATOM     24  C   UNL A   1      31.541  30.518  25.868  1.00  0.00     0.261 C 
BRANCH  24  25
ATOM     25  O   UNL A   1      32.652  30.383  26.726  1.00  0.00    -0.460 OA
BRANCH  25  26
ATOM     26  C   UNL A   1      33.152  31.553  27.171  1.00  0.00     0.338 C 
ATOM     27  O   UNL A   1      32.656  32.660  27.074  1.00  0.00    -0.246 OA
BRANCH  26  28
ATOM     28  C   UNL A   1      34.415  31.238  27.850  1.00  0.00     0.060 A 
ATOM     29  C   UNL A   1      34.662  29.912  28.212  1.00  0.00     0.016 A 
ATOM     30  C   UNL A   1      35.375  32.240  28.060  1.00  0.00     0.016 A 
ATOM     31  C   UNL A   1      35.901  29.577  28.744  1.00  0.00     0.010 A 
ATOM     32  C   UNL A   1      36.613  31.903  28.581  1.00  0.00     0.010 A 
ATOM     33  C   UNL A   1      36.876  30.570  28.924  1.00  0.00    -0.014 A 
BRANCH  33  34
ATOM     34  C   UNL A   1      38.074  30.293  29.731  1.00  0.00     0.031 A 
ATOM     35  C   UNL A   1      39.052  29.327  29.146  1.00  0.00     0.074 A 
ATOM     36  C   UNL A   1      38.247  30.827  30.951  1.00  0.00     0.049 A 
ATOM     37  N   UNL A   1      40.123  28.809  29.676  1.00  0.00    -0.248 NA
ATOM     38  C   UNL A   1      38.756  28.862  27.780  1.00  0.00     0.031 C 
ATOM     39  C   UNL A   1      37.348  31.780  31.590  1.00  0.00     0.029 A 
ATOM     40  N   UNL A   1      39.235  30.624  31.878  1.00  0.00    -0.354 N 
ATOM     41  C   UNL A   1      40.630  27.953  28.708  1.00  0.00     0.074 A 
ATOM     42  C   UNL A   1      39.721  27.984  27.585  1.00  0.00     0.031 C 
ATOM     43  C   UNL A   1      37.832  32.098  32.801  1.00  0.00     0.029 A 
ATOM     44  C   UNL A   1      39.033  31.306  33.055  1.00  0.00     0.049 A 
ATOM     45  H   UNL A   1      40.015  30.045  31.718  1.00  0.00     0.167 HD
ATOM     46  C   UNL A   1      41.756  27.207  28.762  1.00  0.00     0.034 A 
ATOM     47  C   UNL A   1      39.718  31.252  34.215  1.00  0.00     0.034 A 
ATOM     48  C   UNL A   1      42.598  27.153  29.927  1.00  0.00     0.049 A 
ATOM     49  C   UNL A   1      40.911  30.331  34.296  1.00  0.00     0.074 A 
ATOM     50  C   UNL A   1      43.758  26.428  30.116  1.00  0.00     0.029 A 
ATOM     51  N   UNL A   1      42.346  27.827  31.117  1.00  0.00    -0.354 N 
ATOM     52  N   UNL A   1      41.399  29.529  33.376  1.00  0.00    -0.248 NA
ATOM     53  C   UNL A   1      41.645  30.303  35.567  1.00  0.00     0.031 C 
ATOM     54  C   UNL A   1      44.150  26.584  31.449  1.00  0.00     0.029 A 
ATOM     55  C   UNL A   1      43.307  27.502  32.059  1.00  0.00     0.049 A 
ATOM     56  H   UNL A   1      41.595  28.445  31.268  1.00  0.00     0.167 HD
ATOM     57  C   UNL A   1      42.524  28.934  33.943  1.00  0.00     0.074 A 
ATOM     58  C   UNL A   1      42.635  29.465  35.288  1.00  0.00     0.031 C 
ATOM     59  C   UNL A   1      43.396  28.047  33.397  1.00  0.00     0.034 A 
BRANCH  46  60
ATOM     60  C   UNL A   1      42.053  26.345  27.562  1.00  0.00     0.023 A 
ATOM     61  C   UNL A   1      41.576  25.024  27.467  1.00  0.00     0.031 A 
ATOM     62  C   UNL A   1      42.918  26.807  26.555  1.00  0.00     0.131 A 
ATOM     63  C   UNL A   1      42.060  24.180  26.459  1.00  0.00     0.055 A 
ATOM     64  C   UNL A   1      43.306  25.993  25.492  1.00  0.00     0.041 A 
ATOM     65  F   UNL A   1      43.436  28.044  26.613  1.00  0.00    -0.206 F 
ATOM     66  C   UNL A   1      42.897  24.663  25.452  1.00  0.00     0.022 A 
BRANCH  63  67
ATOM     67  S   UNL A   1      41.759  22.397  26.612  1.00  0.00     0.124 S 
ATOM     68  O   UNL A   1      40.302  22.352  26.715  1.00  0.00    -0.237 OA
ATOM     69  O   UNL A   1      42.328  21.872  25.376  1.00  0.00    -0.237 OA
ATOM     70  O   UNL A   1      42.473  22.032  27.834  1.00  0.00    -0.744 OA
ENDBRANCH  63  67
ENDBRANCH  46  60
BRANCH  47  71
ATOM     71  C   UNL A   1      39.267  32.047  35.394  1.00  0.00     0.023 A 
ATOM     72  C   UNL A   1      39.702  33.366  35.600  1.00  0.00     0.031 A 
ATOM     73  C   UNL A   1      38.403  31.485  36.353  1.00  0.00     0.131 A 
ATOM     74  C   UNL A   1      39.299  34.066  36.750  1.00  0.00     0.055 A 
ATOM     75  C   UNL A   1      37.960  32.203  37.465  1.00  0.00     0.041 A 
ATOM     76  F   UNL A   1      37.961  30.224  36.213  1.00  0.00    -0.206 F 
ATOM     77  C   UNL A   1      38.416  33.500  37.673  1.00  0.00     0.022 A 
BRANCH  74  78
ATOM     78  S   UNL A   1      40.007  35.706  37.069  1.00  0.00     0.124 S 
ATOM     79  O   UNL A   1      39.308  36.099  38.286  1.00  0.00    -0.237 OA
ATOM     80  O   UNL A   1      41.427  35.403  37.212  1.00  0.00    -0.237 OA
ATOM     81  O   UNL A   1      39.653  36.467  35.872  1.00  0.00    -0.744 OA
ENDBRANCH  74  78
ENDBRANCH  47  71
BRANCH  59  82
ATOM     82  C   UNL A   1      44.599  27.651  34.218  1.00  0.00     0.023 A 
ATOM     83  C   UNL A   1      44.607  26.518  35.049  1.00  0.00     0.031 A 
ATOM     84  C   UNL A   1      45.781  28.408  34.118  1.00  0.00     0.131 A 
ATOM     85  C   UNL A   1      45.766  26.196  35.773  1.00  0.00     0.055 A 
ATOM     86  C   UNL A   1      46.950  28.042  34.782  1.00  0.00     0.041 A 
ATOM     87  F   UNL A   1      45.826  29.505  33.344  1.00  0.00    -0.206 F 
ATOM     88  C   UNL A   1      46.943  26.934  35.623  1.00  0.00     0.022 A 
BRANCH  85  89
ATOM     89  S   UNL A   1      45.694  24.849  36.985  1.00  0.00     0.124 S 
ATOM     90  O   UNL A   1      47.080  24.774  37.435  1.00  0.00    -0.237 OA
ATOM     91  O   UNL A   1      44.733  25.354  37.959  1.00  0.00    -0.237 OA
ATOM     92  O   UNL A   1      45.236  23.705  36.198  1.00  0.00    -0.744 OA
ENDBRANCH  85  89
ENDBRANCH  59  82
ENDBRANCH  33  34
ENDBRANCH  26  28
ENDBRANCH  25  26
ENDBRANCH  24  25
ENDBRANCH   1  24
TORSDOF 18
ENDMDL
MODEL 3
REMARK VINA RESULT:     -12.0      1.877      7.746
REMARK SMILES O=C(OCCOCCOC(=O)c1ccc(-c2c3nc(c(-c4cc(S(=O)(=O)[O-])ccc4F)c4ccc([nH]4)c(-c4cc(S(=O)(=O)[O-])ccc4F)c4nc(c(-c5cc(S(=O)(=O)[O-])ccc5F)c5ccc2[nH]5)C=C4)C=C3)cc1)C1=Cc2ccc(Cl)c(Cl)c2O[C@@H]1C(F)(F)F
REMARK SMILES IDX 7 1 6 2 5 3 4 4 3 5 2 6 1 7 75 8 76 9 86 10 77 11 85 12
REMARK SMILES IDX 78 13 84 14 79 15 82 16 80 17 83 18 81 19 87 20 88 21 89 22
REMARK SMILES IDX 90 23 8 24 9 25 10 26 11 27 12 28 13 29 74 30 14 31 73 32
REMARK SMILES IDX 15 33 16 34 17 35 67 36 18 37 72 38 66 39 68 40 19 41 71 42
REMARK SMILES IDX 65 43 64 44 20 46 52 47 32 48 51 49 33 50 36 51 50 52 69 53
REMARK SMILES IDX 34 54 35 55 49 57 70 58 37 59 21 60 22 61 30 62 23 63 29 64
REMARK SMILES IDX 31 65 28 66 24 67 25 68 26 69 27 70 53 71 54 72 62 73 55 74
REMARK SMILES IDX 61 75 63 76 60 77 56 78 57 79 58 80 59 81 38 82 39 83 47 84
REMARK SMILES IDX 40 85 46 86 48 87 45 88 41 89 42 90 43 91 44 92
REMARK H PARENT 68 45 36 56
REMARK Flexibility Score: inf
ROOT
ATOM      1  C   UNL A   1      33.167  29.326  25.124  1.00  0.00     0.202 C 
ENDROOT
BRANCH   1   2
ATOM      2  O   UNL A   1      33.229  29.115  23.706  1.00  0.00    -0.374 OA
BRANCH   2   3
ATOM      3  C   UNL A   1      34.029  28.134  22.760  1.00  0.00     0.202 C 
BRANCH   3   4
ATOM      4  C   UNL A   1      33.645  26.101  22.065  1.00  0.00     0.261 C 
BRANCH   4   5
ATOM      5  O   UNL A   1      32.590  25.123  22.603  1.00  0.00    -0.460 OA
BRANCH   5   6
ATOM      6  C   UNL A   1      31.369  25.657  22.665  1.00  0.00     0.338 C 
ATOM      7  O   UNL A   1      30.933  26.646  22.135  1.00  0.00    -0.246 OA
BRANCH   6   8
ATOM      8  C   UNL A   1      30.933  24.887  23.810  1.00  0.00     0.087 C 
ATOM      9  C   UNL A   1      31.095  23.429  23.570  1.00  0.00     0.027 C 
ATOM     10  C   UNL A   1      31.917  25.904  25.130  1.00  0.00     0.316 C 
ATOM     11  C   UNL A   1      32.389  22.423  24.356  1.00  0.00     0.019 A 
ATOM     12  O   UNL A   1      33.337  24.868  25.926  1.00  0.00    -0.474 OA
ATOM     13  C   UNL A   1      32.586  21.151  23.895  1.00  0.00     0.013 A 
ATOM     14  C   UNL A   1      33.584  23.129  25.410  1.00  0.00     0.148 A 
ATOM     15  C   UNL A   1      33.811  20.576  24.262  1.00  0.00     0.023 A 
ATOM     16  C   UNL A   1      34.817  22.549  25.567  1.00  0.00     0.102 A 
ATOM     17  C   UNL A   1      34.884  21.247  24.991  1.00  0.00     0.063 A 
ATOM     18  Cl  UNL A   1      36.182  23.459  26.044  1.00  0.00    -0.079 Cl
ATOM     19  Cl  UNL A   1      36.360  20.330  24.993  1.00  0.00    -0.083 Cl
BRANCH  10  20
ATOM     20  C   UNL A   1      30.694  26.691  25.765  1.00  0.00     0.430 C 
ATOM     21  F   UNL A   1      30.941  27.346  26.911  1.00  0.00    -0.167 F 
ATOM     22  F   UNL A   1      30.352  27.674  24.874  1.00  0.00    -0.167 F 
ATOM     23  F   UNL A   1      29.558  25.965  25.900  1.00  0.00    -0.167 F 
ENDBRANCH  10  20
ENDBRANCH   6   8
ENDBRANCH   5   6
ENDBRANCH   4   5
ENDBRANCH   3   4
ENDBRANCH   2   3
ENDBRANCH   1   2
BRANCH   1  24
ATOM     24  C   UNL A   1      32.299  30.401  25.743  1.00  0.00     0.261 C 
BRANCH  24  25
ATOM     25  O   UNL A   1      32.579  30.603  27.110  1.00  0.00    -0.460 OA
BRANCH  25  26
ATOM     26  C   UNL A   1      33.194  31.772  27.380  1.00  0.00     0.338 C 
ATOM     27  O   UNL A   1      32.786  32.897  27.158  1.00  0.00    -0.246 OA
BRANCH  26  28
ATOM     28  C   UNL A   1      34.458  31.436  28.048  1.00  0.00     0.060 A 
ATOM     29  C   UNL A   1      34.693  30.104  28.393  1.00  0.00     0.016 A 
ATOM     30  C   UNL A   1      35.429  32.427  28.265  1.00  0.00     0.016 A 
ATOM     31  C   UNL A   1      35.931  29.750  28.915  1.00  0.00     0.010 A 
ATOM     32  C   UNL A   1      36.666  32.070  28.776  1.00  0.00     0.010 A 
ATOM     33  C   UNL A   1      36.917  30.731  29.101  1.00  0.00    -0.014 A 
BRANCH  33  34
ATOM     34  C   UNL A   1      38.117  30.432  29.899  1.00  0.00     0.031 A 
ATOM     35  C   UNL A   1      39.084  29.468  29.294  1.00  0.00     0.074 A 
ATOM     36  C   UNL A   1      38.299  30.946  31.126  1.00  0.00     0.049 A 
ATOM     37  N   UNL A   1      40.154  28.934  29.812  1.00  0.00    -0.248 NA
ATOM     38  C   UNL A   1      38.779  29.026  27.923  1.00  0.00     0.031 C 
ATOM     39  C   UNL A   1      37.411  31.897  31.783  1.00  0.00     0.029 A 
ATOM     40  N   UNL A   1      39.290  30.722  32.045  1.00  0.00    -0.354 N 
ATOM     41  C   UNL A   1      40.649  28.088  28.829  1.00  0.00     0.074 A 
ATOM     42  C   UNL A   1      39.735  28.143  27.710  1.00  0.00     0.031 C 
ATOM     43  C   UNL A   1      37.902  32.192  32.997  1.00  0.00     0.029 A 
ATOM     44  C   UNL A   1      39.098  31.387  33.233  1.00  0.00     0.049 A 
ATOM     45  H   UNL A   1      40.065  30.139  31.873  1.00  0.00     0.167 HD
ATOM     46  C   UNL A   1      41.770  27.333  28.867  1.00  0.00     0.034 A 
ATOM     47  C   UNL A   1      39.788  31.311  34.389  1.00  0.00     0.034 A 
ATOM     48  C   UNL A   1      42.617  27.255  30.027  1.00  0.00     0.049 A 
ATOM     49  C   UNL A   1      40.974  30.379  34.451  1.00  0.00     0.074 A 
ATOM     50  C   UNL A   1      43.771  26.518  30.199  1.00  0.00     0.029 A 
ATOM     51  N   UNL A   1      42.375  27.913  31.228  1.00  0.00    -0.354 N 
ATOM     52  N   UNL A   1      41.452  29.587  33.516  1.00  0.00    -0.248 NA
ATOM     53  C   UNL A   1      41.713  30.326  35.718  1.00  0.00     0.031 C 
ATOM     54  C   UNL A   1      44.171  26.651  31.532  1.00  0.00     0.029 A 
ATOM     55  C   UNL A   1      43.338  27.566  32.160  1.00  0.00     0.049 A 
ATOM     56  H   UNL A   1      41.629  28.534  31.392  1.00  0.00     0.167 HD
ATOM     57  C   UNL A   1      42.574  28.976  34.069  1.00  0.00     0.074 A 
ATOM     58  C   UNL A   1      42.695  29.485  35.421  1.00  0.00     0.031 C 
ATOM     59  C   UNL A   1      43.437  28.089  33.506  1.00  0.00     0.034 A 
BRANCH  46  60
ATOM     60  C   UNL A   1      42.054  26.487  27.652  1.00  0.00     0.023 A 
ATOM     61  C   UNL A   1      41.613  25.153  27.563  1.00  0.00     0.031 A 
ATOM     62  C   UNL A   1      42.874  26.980  26.623  1.00  0.00     0.131 A 
ATOM     63  C   UNL A   1      42.090  24.329  26.535  1.00  0.00     0.055 A 
ATOM     64  C   UNL A   1      43.253  26.183  25.543  1.00  0.00     0.041 A 
ATOM     65  F   UNL A   1      43.358  28.231  26.672  1.00  0.00    -0.206 F 
ATOM     66  C   UNL A   1      42.882  24.843  25.506  1.00  0.00     0.022 A 
BRANCH  63  67
ATOM     67  S   UNL A   1      41.846  22.537  26.685  1.00  0.00     0.124 S 
ATOM     68  O   UNL A   1      42.254  22.072  25.362  1.00  0.00    -0.237 OA
ATOM     69  O   UNL A   1      42.734  22.187  27.787  1.00  0.00    -0.237 OA
ATOM     70  O   UNL A   1      40.417  22.409  26.968  1.00  0.00    -0.744 OA
ENDBRANCH  63  67
ENDBRANCH  46  60
BRANCH  47  71
ATOM     71  C   UNL A   1      39.348  32.091  35.582  1.00  0.00     0.023 A 
ATOM     72  C   UNL A   1      38.595  31.500  36.609  1.00  0.00     0.031 A 
ATOM     73  C   UNL A   1      39.661  33.459  35.704  1.00  0.00     0.131 A 
ATOM     74  C   UNL A   1      38.154  32.278  37.693  1.00  0.00     0.055 A 
ATOM     75  C   UNL A   1      39.268  34.215  36.809  1.00  0.00     0.041 A 
ATOM     76  F   UNL A   1      40.371  34.080  34.747  1.00  0.00    -0.206 F 
ATOM     77  C   UNL A   1      38.501  33.626  37.809  1.00  0.00     0.022 A 
BRANCH  74  78
ATOM     78  S   UNL A   1      37.048  31.524  38.918  1.00  0.00     0.124 S 
ATOM     79  O   UNL A   1      35.876  32.387  38.829  1.00  0.00    -0.237 OA
ATOM     80  O   UNL A   1      36.891  30.170  38.395  1.00  0.00    -0.237 OA
ATOM     81  O   UNL A   1      37.804  31.623  40.165  1.00  0.00    -0.744 OA
ENDBRANCH  74  78
ENDBRANCH  47  71
BRANCH  59  82
ATOM     82  C   UNL A   1      44.640  27.672  34.316  1.00  0.00     0.023 A 
ATOM     83  C   UNL A   1      44.629  26.551  35.163  1.00  0.00     0.031 A 
ATOM     84  C   UNL A   1      45.842  28.394  34.187  1.00  0.00     0.131 A 
ATOM     85  C   UNL A   1      45.789  26.208  35.875  1.00  0.00     0.055 A 
ATOM     86  C   UNL A   1      47.009  28.004  34.840  1.00  0.00     0.041 A 
ATOM     87  F   UNL A   1      45.906  29.478  33.397  1.00  0.00    -0.206 F 
ATOM     88  C   UNL A   1      46.984  26.910  35.697  1.00  0.00     0.022 A 
BRANCH  85  89
ATOM     89  S   UNL A   1      45.697  24.880  37.108  1.00  0.00     0.124 S 
ATOM     90  O   UNL A   1      44.257  24.735  37.288  1.00  0.00    -0.237 OA
ATOM     91  O   UNL A   1      46.370  23.777  36.431  1.00  0.00    -0.237 OA
ATOM     92  O   UNL A   1      46.413  25.430  38.257  1.00  0.00    -0.744 OA
ENDBRANCH  85  89
ENDBRANCH  59  82
ENDBRANCH  33  34
ENDBRANCH  26  28
ENDBRANCH  25  26
ENDBRANCH  24  25
ENDBRANCH   1  24
TORSDOF 18
ENDMDL
