MODEL 1
REMARK VINA RESULT:     -12.6      0.000      0.000
REMARK SMILES O=C(OCCOCCOC(=O)c1cc2c(c(S(=O)(=O)Nc3cc(C(F)(F)F)ccc3-n3cccn3)c1)CCC2)c1ccc(-c2c3nc(c(-c4cc(S(=O)(=O)[O-])ccc4F)c4ccc([nH]4)c(-c4cc(S(=O)(=O)[O-])ccc4F)c4nc(c(-c5cc(S(=O)(=O)[O-])ccc5F)c5ccc2[nH]5)C=C4)C=C3)cc1
REMARK SMILES IDX 7 1 6 2 5 3 4 4 3 5 2 6 1 7 40 8 41 9 102 10 42 11 101 12
REMARK SMILES IDX 43 13 44 14 45 15 95 16 46 17 100 18 94 19 96 20 47 21 99 22
REMARK SMILES IDX 93 23 92 24 48 26 80 27 60 28 79 29 61 30 64 31 78 32 97 33
REMARK SMILES IDX 62 34 63 35 77 37 98 38 65 39 49 40 50 41 58 42 51 43 57 44
REMARK SMILES IDX 59 45 56 46 52 47 53 48 54 49 55 50 81 51 82 52 90 53 83 54
REMARK SMILES IDX 89 55 91 56 88 57 84 58 85 59 86 60 87 61 66 62 67 63 75 64
REMARK SMILES IDX 68 65 74 66 76 67 73 68 69 69 70 70 71 71 72 72 8 73 9 74
REMARK SMILES IDX 10 75 11 76 12 77 13 78 36 79 14 80 16 81 15 82 39 83 37 84
REMARK SMILES IDX 38 85 17 86 18 87 19 88 20 89 21 91 22 92 30 93 23 94 29 95
REMARK SMILES IDX 28 96 31 97 32 98 35 99 33 100 34 101 24 102 25 103 26 104
REMARK SMILES IDX 27 105
REMARK H PARENT 96 25 64 36 20 90
REMARK Flexibility Score: inf
ROOT
ATOM      1  C   UNL A   1      31.837  28.805  27.136  1.00  0.00     0.202 C 
ENDROOT
BRANCH   1   2
ATOM      2  O   UNL A   1      32.635  29.948  27.472  1.00  0.00    -0.374 OA
BRANCH   2   3
ATOM      3  C   UNL A   1      33.867  30.105  26.777  1.00  0.00     0.202 C 
BRANCH   3   4
ATOM      4  C   UNL A   1      35.031  29.207  27.179  1.00  0.00     0.261 C 
BRANCH   4   5
ATOM      5  O   UNL A   1      35.485  29.399  28.534  1.00  0.00    -0.460 OA
BRANCH   5   6
ATOM      6  C   UNL A   1      36.689  29.925  28.852  1.00  0.00     0.338 C 
ATOM      7  O   UNL A   1      36.778  30.909  29.580  1.00  0.00    -0.246 OA
BRANCH   6   8
ATOM      8  C   UNL A   1      37.889  29.105  28.547  1.00  0.00     0.060 A 
ATOM      9  C   UNL A   1      38.408  28.138  29.405  1.00  0.00     0.016 A 
ATOM     10  C   UNL A   1      38.594  29.443  27.381  1.00  0.00     0.016 A 
ATOM     11  C   UNL A   1      39.718  27.740  29.274  1.00  0.00     0.010 A 
ATOM     12  C   UNL A   1      39.890  28.990  27.204  1.00  0.00     0.010 A 
ATOM     13  C   UNL A   1      40.472  28.230  28.212  1.00  0.00    -0.014 A 
BRANCH  13  14
ATOM     14  C   UNL A   1      41.857  27.809  28.153  1.00  0.00     0.031 A 
ATOM     15  C   UNL A   1      42.032  26.492  27.499  1.00  0.00     0.074 A 
ATOM     16  C   UNL A   1      42.863  28.578  28.607  1.00  0.00     0.049 A 
ATOM     17  N   UNL A   1      42.408  25.380  28.039  1.00  0.00    -0.248 NA
ATOM     18  C   UNL A   1      41.509  26.344  26.130  1.00  0.00     0.031 C 
ATOM     19  C   UNL A   1      42.794  29.967  29.063  1.00  0.00     0.029 A 
ATOM     20  N   UNL A   1      44.195  28.311  28.645  1.00  0.00    -0.354 N 
ATOM     21  C   UNL A   1      42.422  24.451  27.005  1.00  0.00     0.074 A 
ATOM     22  C   UNL A   1      41.643  25.031  25.947  1.00  0.00     0.031 C 
ATOM     23  C   UNL A   1      44.040  30.490  29.073  1.00  0.00     0.029 A 
ATOM     24  C   UNL A   1      44.996  29.443  28.746  1.00  0.00     0.049 A 
ATOM     25  H   UNL A   1      44.560  27.398  28.607  1.00  0.00     0.167 HD
ATOM     26  C   UNL A   1      43.321  23.430  27.002  1.00  0.00     0.034 A 
ATOM     27  C   UNL A   1      46.326  29.525  28.476  1.00  0.00     0.034 A 
ATOM     28  C   UNL A   1      43.825  23.188  28.341  1.00  0.00     0.049 A 
ATOM     29  C   UNL A   1      46.869  28.144  28.576  1.00  0.00     0.074 A 
ATOM     30  C   UNL A   1      43.230  22.881  29.552  1.00  0.00     0.029 A 
ATOM     31  N   UNL A   1      45.093  23.628  28.661  1.00  0.00    -0.354 N 
ATOM     32  N   UNL A   1      46.907  27.472  29.696  1.00  0.00    -0.248 NA
ATOM     33  C   UNL A   1      46.895  27.326  27.370  1.00  0.00     0.031 C 
ATOM     34  C   UNL A   1      43.964  23.622  30.524  1.00  0.00     0.029 A 
ATOM     35  C   UNL A   1      45.018  24.266  29.874  1.00  0.00     0.049 A 
ATOM     36  H   UNL A   1      45.905  23.506  28.118  1.00  0.00     0.167 HD
ATOM     37  C   UNL A   1      46.517  26.184  29.358  1.00  0.00     0.074 A 
ATOM     38  C   UNL A   1      46.618  26.130  27.900  1.00  0.00     0.031 C 
ATOM     39  C   UNL A   1      45.868  25.380  30.254  1.00  0.00     0.034 A 
BRANCH  26  40
ATOM     40  C   UNL A   1      44.085  23.002  25.756  1.00  0.00     0.023 A 
ATOM     41  C   UNL A   1      44.128  21.618  25.510  1.00  0.00     0.031 A 
ATOM     42  C   UNL A   1      45.022  23.776  25.033  1.00  0.00     0.131 A 
ATOM     43  C   UNL A   1      45.186  21.051  24.786  1.00  0.00     0.055 A 
ATOM     44  C   UNL A   1      46.033  23.209  24.253  1.00  0.00     0.041 A 
ATOM     45  F   UNL A   1      45.068  25.110  25.078  1.00  0.00    -0.206 F 
ATOM     46  C   UNL A   1      46.154  21.835  24.168  1.00  0.00     0.022 A 
BRANCH  43  47
ATOM     47  S   UNL A   1      45.394  19.257  24.884  1.00  0.00     0.124 S 
ATOM     48  O   UNL A   1      44.071  18.849  25.343  1.00  0.00    -0.237 OA
ATOM     49  O   UNL A   1      45.731  18.922  23.505  1.00  0.00    -0.237 OA
ATOM     50  O   UNL A   1      46.476  19.095  25.852  1.00  0.00    -0.744 OA
ENDBRANCH  43  47
ENDBRANCH  26  40
BRANCH  27  51
ATOM     51  C   UNL A   1      47.022  30.654  27.789  1.00  0.00     0.023 A 
ATOM     52  C   UNL A   1      46.338  31.740  27.198  1.00  0.00     0.031 A 
ATOM     53  C   UNL A   1      48.427  30.787  27.900  1.00  0.00     0.131 A 
ATOM     54  C   UNL A   1      47.055  32.875  26.743  1.00  0.00     0.055 A 
ATOM     55  C   UNL A   1      49.129  31.902  27.441  1.00  0.00     0.041 A 
ATOM     56  F   UNL A   1      49.168  29.866  28.538  1.00  0.00    -0.206 F 
ATOM     57  C   UNL A   1      48.444  32.958  26.867  1.00  0.00     0.022 A 
BRANCH  54  58
ATOM     58  S   UNL A   1      46.179  34.318  26.051  1.00  0.00     0.124 S 
ATOM     59  O   UNL A   1      46.977  34.628  24.870  1.00  0.00    -0.237 OA
ATOM     60  O   UNL A   1      44.842  33.790  25.812  1.00  0.00    -0.237 OA
ATOM     61  O   UNL A   1      46.259  35.312  27.123  1.00  0.00    -0.744 OA
ENDBRANCH  54  58
ENDBRANCH  27  51
BRANCH  39  62
ATOM     62  C   UNL A   1      45.856  25.778  31.715  1.00  0.00     0.023 A 
ATOM     63  C   UNL A   1      44.713  26.192  32.436  1.00  0.00     0.031 A 
ATOM     64  C   UNL A   1      47.053  25.604  32.434  1.00  0.00     0.131 A 
ATOM     65  C   UNL A   1      44.803  26.426  33.823  1.00  0.00     0.055 A 
ATOM     66  C   UNL A   1      47.132  25.817  33.809  1.00  0.00     0.041 A 
ATOM     67  F   UNL A   1      48.166  25.182  31.812  1.00  0.00    -0.206 F 
ATOM     68  C   UNL A   1      46.008  26.236  34.507  1.00  0.00     0.022 A 
BRANCH  65  69
ATOM     69  S   UNL A   1      43.354  26.998  34.770  1.00  0.00     0.124 S 
ATOM     70  O   UNL A   1      42.648  27.862  33.831  1.00  0.00    -0.237 OA
ATOM     71  O   UNL A   1      42.688  25.745  35.115  1.00  0.00    -0.237 OA
ATOM     72  O   UNL A   1      43.950  27.700  35.910  1.00  0.00    -0.744 OA
ENDBRANCH  65  69
ENDBRANCH  39  62
ENDBRANCH  13  14
ENDBRANCH   6   8
ENDBRANCH   5   6
ENDBRANCH   4   5
ENDBRANCH   3   4
ENDBRANCH   2   3
ENDBRANCH   1   2
BRANCH   1  73
ATOM     73  C   UNL A   1      31.947  28.197  25.726  1.00  0.00     0.261 C 
BRANCH  73  74
ATOM     74  O   UNL A   1      32.629  26.929  25.703  1.00  0.00    -0.460 OA
BRANCH  74  75
ATOM     75  C   UNL A   1      33.561  26.761  24.721  1.00  0.00     0.338 C 
ATOM     76  O   UNL A   1      33.997  27.597  23.971  1.00  0.00    -0.246 OA
BRANCH  75  77
ATOM     77  C   UNL A   1      34.114  25.384  24.828  1.00  0.00     0.061 A 
ATOM     78  C   UNL A   1      35.073  24.961  23.912  1.00  0.00     0.019 A 
ATOM     79  C   UNL A   1      33.662  24.524  25.861  1.00  0.00     0.038 A 
ATOM     80  C   UNL A   1      35.582  23.689  24.069  1.00  0.00    -0.043 A 
ATOM     81  C   UNL A   1      34.162  23.208  25.991  1.00  0.00     0.092 A 
ATOM     82  C   UNL A   1      35.103  22.797  25.056  1.00  0.00    -0.024 A 
ATOM     83  C   UNL A   1      36.693  23.071  23.271  1.00  0.00     0.036 C 
ATOM     84  C   UNL A   1      35.776  21.479  24.834  1.00  0.00     0.037 C 
ATOM     85  C   UNL A   1      37.103  21.965  24.242  1.00  0.00     0.010 C 
BRANCH  81  86
ATOM     86  S   UNL A   1      33.408  22.107  27.176  1.00  0.00     0.262 S 
ATOM     87  O   UNL A   1      34.447  21.211  27.646  1.00  0.00    -0.201 OA
ATOM     88  O   UNL A   1      32.683  22.926  28.125  1.00  0.00    -0.201 OA
BRANCH  86  89
ATOM     89  N   UNL A   1      32.232  21.060  26.499  1.00  0.00    -0.277 N 
ATOM     90  H   UNL A   1      31.339  21.018  26.912  1.00  0.00     0.180 HD
BRANCH  89  91
ATOM     91  C   UNL A   1      32.498  20.240  25.351  1.00  0.00     0.075 A 
ATOM     92  C   UNL A   1      32.897  18.905  25.551  1.00  0.00     0.042 A 
ATOM     93  C   UNL A   1      32.264  20.697  24.046  1.00  0.00     0.089 A 
ATOM     94  C   UNL A   1      32.973  18.003  24.470  1.00  0.00     0.058 A 
ATOM     95  C   UNL A   1      32.359  19.808  22.963  1.00  0.00     0.031 A 
ATOM     96  C   UNL A   1      32.715  18.474  23.175  1.00  0.00     0.015 A 
BRANCH  93  97
ATOM     97  N   UNL A   1      31.884  22.037  23.790  1.00  0.00    -0.239 N 
ATOM     98  C   UNL A   1      30.890  22.768  24.400  1.00  0.00     0.115 A 
ATOM     99  N   UNL A   1      32.454  22.732  22.772  1.00  0.00    -0.177 NA
ATOM    100  C   UNL A   1      30.668  23.872  23.614  1.00  0.00     0.042 A 
ATOM    101  C   UNL A   1      31.637  23.777  22.604  1.00  0.00     0.135 A 
ENDBRANCH  93  97
BRANCH  94 102
ATOM    102  C   UNL A   1      33.241  16.533  24.716  1.00  0.00     0.416 C 
ATOM    103  F   UNL A   1      32.133  15.858  25.123  1.00  0.00    -0.166 F 
ATOM    104  F   UNL A   1      33.685  15.894  23.598  1.00  0.00    -0.166 F 
ATOM    105  F   UNL A   1      34.190  16.309  25.668  1.00  0.00    -0.166 F 
ENDBRANCH  94 102
ENDBRANCH  89  91
ENDBRANCH  86  89
ENDBRANCH  81  86
ENDBRANCH  75  77
ENDBRANCH  74  75
ENDBRANCH  73  74
ENDBRANCH   1  73
TORSDOF 22
ENDMDL
MODEL 2
REMARK VINA RESULT:     -12.2      1.707      2.393
REMARK SMILES O=C(OCCOCCOC(=O)c1cc2c(c(S(=O)(=O)Nc3cc(C(F)(F)F)ccc3-n3cccn3)c1)CCC2)c1ccc(-c2c3nc(c(-c4cc(S(=O)(=O)[O-])ccc4F)c4ccc([nH]4)c(-c4cc(S(=O)(=O)[O-])ccc4F)c4nc(c(-c5cc(S(=O)(=O)[O-])ccc5F)c5ccc2[nH]5)C=C4)C=C3)cc1
REMARK SMILES IDX 7 1 6 2 5 3 4 4 3 5 2 6 1 7 40 8 41 9 102 10 42 11 101 12
REMARK SMILES IDX 43 13 44 14 45 15 95 16 46 17 100 18 94 19 96 20 47 21 99 22
REMARK SMILES IDX 93 23 92 24 48 26 80 27 60 28 79 29 61 30 64 31 78 32 97 33
REMARK SMILES IDX 62 34 63 35 77 37 98 38 65 39 49 40 50 41 58 42 51 43 57 44
REMARK SMILES IDX 59 45 56 46 52 47 53 48 54 49 55 50 81 51 82 52 90 53 83 54
REMARK SMILES IDX 89 55 91 56 88 57 84 58 85 59 86 60 87 61 66 62 67 63 75 64
REMARK SMILES IDX 68 65 74 66 76 67 73 68 69 69 70 70 71 71 72 72 8 73 9 74
REMARK SMILES IDX 10 75 11 76 12 77 13 78 36 79 14 80 16 81 15 82 39 83 37 84
REMARK SMILES IDX 38 85 17 86 18 87 19 88 20 89 21 91 22 92 30 93 23 94 29 95
REMARK SMILES IDX 28 96 31 97 32 98 35 99 33 100 34 101 24 102 25 103 26 104
REMARK SMILES IDX 27 105
REMARK H PARENT 96 25 64 36 20 90
REMARK Flexibility Score: inf
ROOT
ATOM      1  C   UNL A   1      32.005  28.876  27.612  1.00  0.00     0.202 C 
ENDROOT
BRANCH   1   2
ATOM      2  O   UNL A   1      32.747  30.078  27.362  1.00  0.00    -0.374 OA
BRANCH   2   3
ATOM      3  C   UNL A   1      33.985  29.942  26.672  1.00  0.00     0.202 C 
BRANCH   3   4
ATOM      4  C   UNL A   1      35.137  29.260  27.402  1.00  0.00     0.261 C 
BRANCH   4   5
ATOM      5  O   UNL A   1      35.278  29.655  28.782  1.00  0.00    -0.460 OA
BRANCH   5   6
ATOM      6  C   UNL A   1      36.462  29.981  29.348  1.00  0.00     0.338 C 
ATOM      7  O   UNL A   1      36.511  30.710  30.336  1.00  0.00    -0.246 OA
BRANCH   6   8
ATOM      8  C   UNL A   1      37.651  29.197  28.933  1.00  0.00     0.060 A 
ATOM      9  C   UNL A   1      38.218  28.180  29.698  1.00  0.00     0.016 A 
ATOM     10  C   UNL A   1      38.298  29.619  27.760  1.00  0.00     0.016 A 
ATOM     11  C   UNL A   1      39.522  27.805  29.479  1.00  0.00     0.010 A 
ATOM     12  C   UNL A   1      39.586  29.193  27.492  1.00  0.00     0.010 A 
ATOM     13  C   UNL A   1      40.221  28.373  28.419  1.00  0.00    -0.014 A 
BRANCH  13  14
ATOM     14  C   UNL A   1      41.605  27.972  28.266  1.00  0.00     0.031 A 
ATOM     15  C   UNL A   1      41.754  26.656  27.601  1.00  0.00     0.074 A 
ATOM     16  C   UNL A   1      42.629  28.754  28.650  1.00  0.00     0.049 A 
ATOM     17  N   UNL A   1      42.181  25.550  28.114  1.00  0.00    -0.248 NA
ATOM     18  C   UNL A   1      41.142  26.500  26.270  1.00  0.00     0.031 C 
ATOM     19  C   UNL A   1      42.571  30.143  29.110  1.00  0.00     0.029 A 
ATOM     20  N   UNL A   1      43.963  28.506  28.599  1.00  0.00    -0.354 N 
ATOM     21  C   UNL A   1      42.138  24.621  27.081  1.00  0.00     0.074 A 
ATOM     22  C   UNL A   1      41.282  25.189  26.078  1.00  0.00     0.031 C 
ATOM     23  C   UNL A   1      43.808  30.683  29.037  1.00  0.00     0.029 A 
ATOM     24  C   UNL A   1      44.753  29.649  28.646  1.00  0.00     0.049 A 
ATOM     25  H   UNL A   1      44.338  27.598  28.536  1.00  0.00     0.167 HD
ATOM     26  C   UNL A   1      43.049  23.613  27.017  1.00  0.00     0.034 A 
ATOM     27  C   UNL A   1      46.062  29.750  28.286  1.00  0.00     0.034 A 
ATOM     28  C   UNL A   1      43.646  23.378  28.319  1.00  0.00     0.049 A 
ATOM     29  C   UNL A   1      46.629  28.377  28.349  1.00  0.00     0.074 A 
ATOM     30  C   UNL A   1      43.138  23.064  29.567  1.00  0.00     0.029 A 
ATOM     31  N   UNL A   1      44.926  23.836  28.553  1.00  0.00    -0.354 N 
ATOM     32  N   UNL A   1      46.752  27.706  29.463  1.00  0.00    -0.248 NA
ATOM     33  C   UNL A   1      46.584  27.559  27.144  1.00  0.00     0.031 C 
ATOM     34  C   UNL A   1      43.926  23.816  30.488  1.00  0.00     0.029 A 
ATOM     35  C   UNL A   1      44.925  24.474  29.767  1.00  0.00     0.049 A 
ATOM     36  H   UNL A   1      45.702  23.725  27.955  1.00  0.00     0.167 HD
ATOM     37  C   UNL A   1      46.358  26.412  29.152  1.00  0.00     0.074 A 
ATOM     38  C   UNL A   1      46.361  26.359  27.691  1.00  0.00     0.031 C 
ATOM     39  C   UNL A   1      45.783  25.600  30.090  1.00  0.00     0.034 A 
BRANCH  26  40
ATOM     40  C   UNL A   1      43.733  23.194  25.722  1.00  0.00     0.023 A 
ATOM     41  C   UNL A   1      43.626  21.833  25.386  1.00  0.00     0.031 A 
ATOM     42  C   UNL A   1      44.726  23.916  25.021  1.00  0.00     0.131 A 
ATOM     43  C   UNL A   1      44.602  21.211  24.593  1.00  0.00     0.055 A 
ATOM     44  C   UNL A   1      45.654  23.303  24.174  1.00  0.00     0.041 A 
ATOM     45  F   UNL A   1      44.912  25.233  25.150  1.00  0.00    -0.206 F 
ATOM     46  C   UNL A   1      45.629  21.933  23.997  1.00  0.00     0.022 A 
BRANCH  43  47
ATOM     47  S   UNL A   1      44.625  19.403  24.568  1.00  0.00     0.124 S 
ATOM     48  O   UNL A   1      43.246  19.103  24.933  1.00  0.00    -0.237 OA
ATOM     49  O   UNL A   1      45.001  19.132  23.185  1.00  0.00    -0.237 OA
ATOM     50  O   UNL A   1      45.633  19.065  25.571  1.00  0.00    -0.744 OA
ENDBRANCH  43  47
ENDBRANCH  26  40
BRANCH  27  51
ATOM     51  C   UNL A   1      46.694  30.888  27.554  1.00  0.00     0.023 A 
ATOM     52  C   UNL A   1      45.959  31.978  27.037  1.00  0.00     0.031 A 
ATOM     53  C   UNL A   1      48.103  31.023  27.545  1.00  0.00     0.131 A 
ATOM     54  C   UNL A   1      46.632  33.120  26.533  1.00  0.00     0.055 A 
ATOM     55  C   UNL A   1      48.760  32.146  27.040  1.00  0.00     0.041 A 
ATOM     56  F   UNL A   1      48.898  30.098  28.106  1.00  0.00    -0.206 F 
ATOM     57  C   UNL A   1      48.027  33.205  26.539  1.00  0.00     0.022 A 
BRANCH  54  58
ATOM     58  S   UNL A   1      45.697  34.568  25.935  1.00  0.00     0.124 S 
ATOM     59  O   UNL A   1      46.649  35.655  26.132  1.00  0.00    -0.237 OA
ATOM     60  O   UNL A   1      45.401  34.203  24.555  1.00  0.00    -0.237 OA
ATOM     61  O   UNL A   1      44.529  34.609  26.818  1.00  0.00    -0.744 OA
ENDBRANCH  54  58
ENDBRANCH  27  51
BRANCH  39  62
ATOM     62  C   UNL A   1      45.864  25.998  31.548  1.00  0.00     0.023 A 
ATOM     63  C   UNL A   1      44.787  26.501  32.315  1.00  0.00     0.031 A 
ATOM     64  C   UNL A   1      47.073  25.733  32.217  1.00  0.00     0.131 A 
ATOM     65  C   UNL A   1      44.955  26.728  33.697  1.00  0.00     0.055 A 
ATOM     66  C   UNL A   1      47.227  25.940  33.586  1.00  0.00     0.041 A 
ATOM     67  F   UNL A   1      48.123  25.226  31.550  1.00  0.00    -0.206 F 
ATOM     68  C   UNL A   1      46.169  26.446  34.330  1.00  0.00     0.022 A 
BRANCH  65  69
ATOM     69  S   UNL A   1      43.596  27.411  34.702  1.00  0.00     0.124 S 
ATOM     70  O   UNL A   1      43.992  28.798  34.918  1.00  0.00    -0.237 OA
ATOM     71  O   UNL A   1      42.433  27.202  33.844  1.00  0.00    -0.237 OA
ATOM     72  O   UNL A   1      43.616  26.579  35.908  1.00  0.00    -0.744 OA
ENDBRANCH  65  69
ENDBRANCH  39  62
ENDBRANCH  13  14
ENDBRANCH   6   8
ENDBRANCH   5   6
ENDBRANCH   4   5
ENDBRANCH   3   4
ENDBRANCH   2   3
ENDBRANCH   1   2
BRANCH   1  73
ATOM     73  C   UNL A   1      31.839  27.844  26.483  1.00  0.00     0.261 C 
BRANCH  73  74
ATOM     74  O   UNL A   1      32.855  26.823  26.489  1.00  0.00    -0.460 OA
BRANCH  74  75
ATOM     75  C   UNL A   1      33.548  26.653  25.327  1.00  0.00     0.338 C 
ATOM     76  O   UNL A   1      33.761  27.474  24.471  1.00  0.00    -0.246 OA
BRANCH  75  77
ATOM     77  C   UNL A   1      34.180  25.306  25.349  1.00  0.00     0.061 A 
ATOM     78  C   UNL A   1      35.196  25.014  24.443  1.00  0.00     0.019 A 
ATOM     79  C   UNL A   1      33.743  24.341  26.292  1.00  0.00     0.038 A 
ATOM     80  C   UNL A   1      35.775  23.764  24.521  1.00  0.00    -0.043 A 
ATOM     81  C   UNL A   1      34.316  23.050  26.339  1.00  0.00     0.092 A 
ATOM     82  C   UNL A   1      35.315  22.770  25.415  1.00  0.00    -0.024 A 
ATOM     83  C   UNL A   1      36.950  23.278  23.724  1.00  0.00     0.036 C 
ATOM     84  C   UNL A   1      36.074  21.515  25.118  1.00  0.00     0.037 C 
ATOM     85  C   UNL A   1      37.390  22.123  24.622  1.00  0.00     0.010 C 
BRANCH  81  86
ATOM     86  S   UNL A   1      33.588  21.815  27.402  1.00  0.00     0.262 S 
ATOM     87  O   UNL A   1      34.679  21.084  28.017  1.00  0.00    -0.201 OA
ATOM     88  O   UNL A   1      32.614  22.486  28.236  1.00  0.00    -0.201 OA
BRANCH  86  89
ATOM     89  N   UNL A   1      32.703  20.611  26.561  1.00  0.00    -0.277 N 
ATOM     90  H   UNL A   1      32.476  19.775  27.029  1.00  0.00     0.180 HD
BRANCH  89  91
ATOM     91  C   UNL A   1      32.281  20.775  25.199  1.00  0.00     0.075 A 
ATOM     92  C   UNL A   1      31.752  22.017  24.800  1.00  0.00     0.042 A 
ATOM     93  C   UNL A   1      32.485  19.776  24.236  1.00  0.00     0.089 A 
ATOM     94  C   UNL A   1      31.513  22.299  23.438  1.00  0.00     0.058 A 
ATOM     95  C   UNL A   1      32.229  20.044  22.882  1.00  0.00     0.031 A 
ATOM     96  C   UNL A   1      31.743  21.294  22.489  1.00  0.00     0.015 A 
BRANCH  93  97
ATOM     97  N   UNL A   1      32.993  18.503  24.590  1.00  0.00    -0.239 N 
ATOM     98  C   UNL A   1      34.015  17.800  23.993  1.00  0.00     0.115 A 
ATOM     99  N   UNL A   1      32.398  17.773  25.569  1.00  0.00    -0.177 NA
ATOM    100  C   UNL A   1      33.929  16.508  24.450  1.00  0.00     0.042 A 
ATOM    101  C   UNL A   1      32.890  16.542  25.391  1.00  0.00     0.135 A 
ENDBRANCH  93  97
BRANCH  94 102
ATOM    102  C   UNL A   1      31.102  23.689  23.004  1.00  0.00     0.416 C 
ATOM    103  F   UNL A   1      29.786  23.768  22.671  1.00  0.00    -0.166 F 
ATOM    104  F   UNL A   1      31.302  24.617  23.980  1.00  0.00    -0.166 F 
ATOM    105  F   UNL A   1      31.792  24.143  21.920  1.00  0.00    -0.166 F 
ENDBRANCH  94 102
ENDBRANCH  89  91
ENDBRANCH  86  89
ENDBRANCH  81  86
ENDBRANCH  75  77
ENDBRANCH  74  75
ENDBRANCH  73  74
ENDBRANCH   1  73
TORSDOF 22
ENDMDL
MODEL 3
REMARK VINA RESULT:     -12.2      2.934      7.261
REMARK SMILES O=C(OCCOCCOC(=O)c1cc2c(c(S(=O)(=O)Nc3cc(C(F)(F)F)ccc3-n3cccn3)c1)CCC2)c1ccc(-c2c3nc(c(-c4cc(S(=O)(=O)[O-])ccc4F)c4ccc([nH]4)c(-c4cc(S(=O)(=O)[O-])ccc4F)c4nc(c(-c5cc(S(=O)(=O)[O-])ccc5F)c5ccc2[nH]5)C=C4)C=C3)cc1
REMARK SMILES IDX 7 1 6 2 5 3 4 4 3 5 2 6 1 7 40 8 41 9 102 10 42 11 101 12
REMARK SMILES IDX 43 13 44 14 45 15 95 16 46 17 100 18 94 19 96 20 47 21 99 22
REMARK SMILES IDX 93 23 92 24 48 26 80 27 60 28 79 29 61 30 64 31 78 32 97 33
REMARK SMILES IDX 62 34 63 35 77 37 98 38 65 39 49 40 50 41 58 42 51 43 57 44
REMARK SMILES IDX 59 45 56 46 52 47 53 48 54 49 55 50 81 51 82 52 90 53 83 54
REMARK SMILES IDX 89 55 91 56 88 57 84 58 85 59 86 60 87 61 66 62 67 63 75 64
REMARK SMILES IDX 68 65 74 66 76 67 73 68 69 69 70 70 71 71 72 72 8 73 9 74
REMARK SMILES IDX 10 75 11 76 12 77 13 78 36 79 14 80 16 81 15 82 39 83 37 84
REMARK SMILES IDX 38 85 17 86 18 87 19 88 20 89 21 91 22 92 30 93 23 94 29 95
REMARK SMILES IDX 28 96 31 97 32 98 35 99 33 100 34 101 24 102 25 103 26 104
REMARK SMILES IDX 27 105
REMARK H PARENT 96 25 64 36 20 90
REMARK Flexibility Score: inf
ROOT
ATOM      1  C   UNL A   1      33.149  28.831  24.627  1.00  0.00     0.202 C 
ENDROOT
BRANCH   1   2
ATOM      2  O   UNL A   1      32.785  29.782  25.637  1.00  0.00    -0.374 OA
BRANCH   2   3
ATOM      3  C   UNL A   1      33.605  29.838  26.799  1.00  0.00     0.202 C 
BRANCH   3   4
ATOM      4  C   UNL A   1      33.717  31.173  27.528  1.00  0.00     0.261 C 
BRANCH   4   5
ATOM      5  O   UNL A   1      35.071  31.639  27.702  1.00  0.00    -0.460 OA
BRANCH   5   6
ATOM      6  C   UNL A   1      35.819  31.369  28.794  1.00  0.00     0.338 C 
ATOM      7  O   UNL A   1      35.379  31.557  29.925  1.00  0.00    -0.246 OA
BRANCH   6   8
ATOM      8  C   UNL A   1      37.050  30.563  28.591  1.00  0.00     0.060 A 
ATOM      9  C   UNL A   1      37.049  29.231  28.183  1.00  0.00     0.016 A 
ATOM     10  C   UNL A   1      38.259  31.167  28.970  1.00  0.00     0.016 A 
ATOM     11  C   UNL A   1      38.146  28.440  28.429  1.00  0.00     0.010 A 
ATOM     12  C   UNL A   1      39.389  30.391  29.154  1.00  0.00     0.010 A 
ATOM     13  C   UNL A   1      39.285  29.015  28.984  1.00  0.00    -0.014 A 
BRANCH  13  14
ATOM     14  C   UNL A   1      40.392  28.122  29.261  1.00  0.00     0.031 A 
ATOM     15  C   UNL A   1      40.815  28.151  30.680  1.00  0.00     0.074 A 
ATOM     16  C   UNL A   1      40.927  27.324  28.319  1.00  0.00     0.049 A 
ATOM     17  N   UNL A   1      41.920  28.603  31.171  1.00  0.00    -0.248 NA
ATOM     18  C   UNL A   1      39.791  27.847  31.695  1.00  0.00     0.031 C 
ATOM     19  C   UNL A   1      40.431  27.081  26.964  1.00  0.00     0.029 A 
ATOM     20  N   UNL A   1      41.974  26.465  28.419  1.00  0.00    -0.354 N 
ATOM     21  C   UNL A   1      41.832  28.390  32.543  1.00  0.00     0.074 A 
ATOM     22  C   UNL A   1      40.441  28.161  32.814  1.00  0.00     0.031 C 
ATOM     23  C   UNL A   1      41.008  25.960  26.478  1.00  0.00     0.029 A 
ATOM     24  C   UNL A   1      41.996  25.484  27.434  1.00  0.00     0.049 A 
ATOM     25  H   UNL A   1      42.657  26.530  29.125  1.00  0.00     0.167 HD
ATOM     26  C   UNL A   1      42.946  28.122  33.276  1.00  0.00     0.034 A 
ATOM     27  C   UNL A   1      42.698  24.319  27.460  1.00  0.00     0.034 A 
ATOM     28  C   UNL A   1      44.137  28.577  32.583  1.00  0.00     0.049 A 
ATOM     29  C   UNL A   1      43.811  24.512  28.428  1.00  0.00     0.074 A 
ATOM     30  C   UNL A   1      44.554  29.800  32.087  1.00  0.00     0.029 A 
ATOM     31  N   UNL A   1      44.940  27.641  31.963  1.00  0.00    -0.354 N 
ATOM     32  N   UNL A   1      44.786  25.359  28.233  1.00  0.00    -0.248 NA
ATOM     33  C   UNL A   1      43.580  24.154  29.822  1.00  0.00     0.031 C 
ATOM     34  C   UNL A   1      45.205  29.497  30.855  1.00  0.00     0.029 A 
ATOM     35  C   UNL A   1      45.231  28.109  30.706  1.00  0.00     0.049 A 
ATOM     36  H   UNL A   1      45.248  26.790  32.352  1.00  0.00     0.167 HD
ATOM     37  C   UNL A   1      44.988  25.968  29.464  1.00  0.00     0.074 A 
ATOM     38  C   UNL A   1      44.286  25.117  30.424  1.00  0.00     0.031 C 
ATOM     39  C   UNL A   1      45.448  27.252  29.555  1.00  0.00     0.034 A 
BRANCH  26  40
ATOM     40  C   UNL A   1      42.992  27.044  34.350  1.00  0.00     0.023 A 
ATOM     41  C   UNL A   1      43.803  25.931  34.065  1.00  0.00     0.031 A 
ATOM     42  C   UNL A   1      42.074  26.869  35.410  1.00  0.00     0.131 A 
ATOM     43  C   UNL A   1      43.534  24.681  34.640  1.00  0.00     0.055 A 
ATOM     44  C   UNL A   1      41.858  25.636  36.032  1.00  0.00     0.041 A 
ATOM     45  F   UNL A   1      41.285  27.844  35.872  1.00  0.00    -0.206 F 
ATOM     46  C   UNL A   1      42.552  24.518  35.611  1.00  0.00     0.022 A 
BRANCH  43  47
ATOM     47  S   UNL A   1      44.336  23.236  33.905  1.00  0.00     0.124 S 
ATOM     48  O   UNL A   1      43.294  22.775  32.994  1.00  0.00    -0.237 OA
ATOM     49  O   UNL A   1      45.515  23.834  33.288  1.00  0.00    -0.237 OA
ATOM     50  O   UNL A   1      44.598  22.375  35.055  1.00  0.00    -0.744 OA
ENDBRANCH  43  47
ENDBRANCH  26  40
BRANCH  27  51
ATOM     51  C   UNL A   1      42.221  22.986  26.983  1.00  0.00     0.023 A 
ATOM     52  C   UNL A   1      43.076  22.016  26.415  1.00  0.00     0.031 A 
ATOM     53  C   UNL A   1      40.907  22.558  27.290  1.00  0.00     0.131 A 
ATOM     54  C   UNL A   1      42.605  20.702  26.170  1.00  0.00     0.055 A 
ATOM     55  C   UNL A   1      40.445  21.265  27.038  1.00  0.00     0.041 A 
ATOM     56  F   UNL A   1      40.041  23.361  27.929  1.00  0.00    -0.206 F 
ATOM     57  C   UNL A   1      41.296  20.327  26.484  1.00  0.00     0.022 A 
BRANCH  54  58
ATOM     58  S   UNL A   1      43.719  19.417  25.511  1.00  0.00     0.124 S 
ATOM     59  O   UNL A   1      43.276  19.302  24.126  1.00  0.00    -0.237 OA
ATOM     60  O   UNL A   1      45.037  20.002  25.727  1.00  0.00    -0.237 OA
ATOM     61  O   UNL A   1      43.427  18.250  26.347  1.00  0.00    -0.744 OA
ENDBRANCH  54  58
ENDBRANCH  27  51
BRANCH  39  62
ATOM     62  C   UNL A   1      46.038  27.904  28.322  1.00  0.00     0.023 A 
ATOM     63  C   UNL A   1      47.378  27.767  27.893  1.00  0.00     0.031 A 
ATOM     64  C   UNL A   1      45.151  28.600  27.481  1.00  0.00     0.131 A 
ATOM     65  C   UNL A   1      47.783  28.329  26.664  1.00  0.00     0.055 A 
ATOM     66  C   UNL A   1      45.551  29.135  26.258  1.00  0.00     0.041 A 
ATOM     67  F   UNL A   1      43.858  28.737  27.818  1.00  0.00    -0.206 F 
ATOM     68  C   UNL A   1      46.872  29.008  25.849  1.00  0.00     0.022 A 
BRANCH  65  69
ATOM     69  S   UNL A   1      49.513  28.201  26.104  1.00  0.00     0.124 S 
ATOM     70  O   UNL A   1      50.048  27.094  26.888  1.00  0.00    -0.237 OA
ATOM     71  O   UNL A   1      49.363  27.959  24.671  1.00  0.00    -0.237 OA
ATOM     72  O   UNL A   1      50.076  29.512  26.440  1.00  0.00    -0.744 OA
ENDBRANCH  65  69
ENDBRANCH  39  62
ENDBRANCH  13  14
ENDBRANCH   6   8
ENDBRANCH   5   6
ENDBRANCH   4   5
ENDBRANCH   3   4
ENDBRANCH   2   3
ENDBRANCH   1   2
BRANCH   1  73
ATOM     73  C   UNL A   1      32.454  28.886  23.254  1.00  0.00     0.261 C 
BRANCH  73  74
ATOM     74  O   UNL A   1      31.151  28.274  23.250  1.00  0.00    -0.460 OA
BRANCH  74  75
ATOM     75  C   UNL A   1      31.027  27.120  22.534  1.00  0.00     0.338 C 
ATOM     76  O   UNL A   1      31.064  26.992  21.336  1.00  0.00    -0.246 OA
BRANCH  75  77
ATOM     77  C   UNL A   1      31.016  25.975  23.483  1.00  0.00     0.061 A 
ATOM     78  C   UNL A   1      30.300  26.081  24.672  1.00  0.00     0.019 A 
ATOM     79  C   UNL A   1      31.730  24.792  23.164  1.00  0.00     0.038 A 
ATOM     80  C   UNL A   1      30.291  24.983  25.507  1.00  0.00    -0.043 A 
ATOM     81  C   UNL A   1      31.746  23.685  24.043  1.00  0.00     0.092 A 
ATOM     82  C   UNL A   1      31.042  23.817  25.234  1.00  0.00    -0.024 A 
ATOM     83  C   UNL A   1      29.503  24.837  26.775  1.00  0.00     0.036 C 
ATOM     84  C   UNL A   1      30.906  22.909  26.416  1.00  0.00     0.037 C 
ATOM     85  C   UNL A   1      29.506  23.314  26.890  1.00  0.00     0.010 C 
BRANCH  81  86
ATOM     86  S   UNL A   1      32.825  22.310  23.688  1.00  0.00     0.262 S 
ATOM     87  O   UNL A   1      32.040  21.326  22.967  1.00  0.00    -0.201 OA
ATOM     88  O   UNL A   1      34.026  22.850  23.085  1.00  0.00    -0.201 OA
BRANCH  86  89
ATOM     89  N   UNL A   1      33.363  21.471  25.083  1.00  0.00    -0.277 N 
ATOM     90  H   UNL A   1      33.056  21.776  25.968  1.00  0.00     0.180 HD
BRANCH  89  91
ATOM     91  C   UNL A   1      34.244  20.340  25.011  1.00  0.00     0.075 A 
ATOM     92  C   UNL A   1      33.689  19.063  24.805  1.00  0.00     0.042 A 
ATOM     93  C   UNL A   1      35.639  20.487  25.026  1.00  0.00     0.089 A 
ATOM     94  C   UNL A   1      34.512  17.953  24.523  1.00  0.00     0.058 A 
ATOM     95  C   UNL A   1      36.463  19.381  24.767  1.00  0.00     0.031 A 
ATOM     96  C   UNL A   1      35.903  18.125  24.522  1.00  0.00     0.015 A 
BRANCH  93  97
ATOM     97  N   UNL A   1      36.245  21.746  25.253  1.00  0.00    -0.239 N 
ATOM     98  C   UNL A   1      35.994  22.639  26.271  1.00  0.00     0.115 A 
ATOM     99  N   UNL A   1      37.127  22.257  24.356  1.00  0.00    -0.177 NA
ATOM    100  C   UNL A   1      36.559  23.834  25.900  1.00  0.00     0.042 A 
ATOM    101  C   UNL A   1      37.212  23.548  24.692  1.00  0.00     0.135 A 
ENDBRANCH  93  97
BRANCH  94 102
ATOM    102  C   UNL A   1      33.900  16.623  24.140  1.00  0.00     0.416 C 
ATOM    103  F   UNL A   1      32.542  16.664  24.089  1.00  0.00    -0.166 F 
ATOM    104  F   UNL A   1      34.312  16.196  22.915  1.00  0.00    -0.166 F 
ATOM    105  F   UNL A   1      34.213  15.616  25.004  1.00  0.00    -0.166 F 
ENDBRANCH  94 102
ENDBRANCH  89  91
ENDBRANCH  86  89
ENDBRANCH  81  86
ENDBRANCH  75  77
ENDBRANCH  74  75
ENDBRANCH  73  74
ENDBRANCH   1  73
TORSDOF 22
ENDMDL
