MODEL 1
REMARK VINA RESULT:     -11.4      0.000      0.000
REMARK SMILES C[C@@H]1CCC[C@H](Oc2ccc(F)cc2C(=O)OCCOCCOC(=O)c2ccc(-c3c4nc(c(-c5cc(S(=O)(=O)[O-])ccc5F)c5ccc([nH]5)c(-c5cc(S(=O)(=O)[O-])ccc5F)c5nc(c(-c6cc(S(=O)(=O)[O-])ccc6F)c6ccc3[nH]6)C=C5)C=C4)cc2)C1
REMARK SMILES IDX 21 1 20 2 19 3 18 4 17 5 15 6 16 7 14 8 8 9 9 10 10 11 13 12
REMARK SMILES IDX 11 13 12 14 7 15 6 16 1 17 2 18 3 19 89 20 4 21 5 22 22 23
REMARK SMILES IDX 23 24 24 25 25 26 26 27 27 28 88 29 28 30 87 31 29 32 30 33
REMARK SMILES IDX 31 34 81 35 32 36 86 37 80 38 82 39 33 40 85 41 79 42 78 43
REMARK SMILES IDX 34 45 66 46 46 47 65 48 47 49 50 50 64 51 83 52 48 53 49 54
REMARK SMILES IDX 63 56 84 57 51 58 35 59 36 60 44 61 37 62 43 63 45 64 42 65
REMARK SMILES IDX 38 66 39 67 40 68 41 69 67 70 68 71 76 72 69 73 75 74 77 75
REMARK SMILES IDX 74 76 70 77 71 78 72 79 73 80 52 81 53 82 61 83 54 84 60 85
REMARK SMILES IDX 62 86 59 87 55 88 56 89 57 90 58 91
REMARK H PARENT 82 44 50 55
REMARK Flexibility Score: inf
ROOT
ATOM      1  C   UNL A   1      31.522  29.091  24.801  1.00  0.00     0.202 C 
ENDROOT
BRANCH   1   2
ATOM      2  O   UNL A   1      32.201  29.189  23.550  1.00  0.00    -0.374 OA
BRANCH   2   3
ATOM      3  C   UNL A   1      33.441  28.486  23.452  1.00  0.00     0.202 C 
BRANCH   3   4
ATOM      4  C   UNL A   1      33.843  28.008  22.056  1.00  0.00     0.261 C 
BRANCH   4   5
ATOM      5  O   UNL A   1      34.094  26.588  22.035  1.00  0.00    -0.460 OA
BRANCH   5   6
ATOM      6  C   UNL A   1      33.114  25.861  21.456  1.00  0.00     0.342 C 
ATOM      7  O   UNL A   1      32.989  25.667  20.252  1.00  0.00    -0.246 OA
BRANCH   6   8
ATOM      8  C   UNL A   1      32.208  25.178  22.414  1.00  0.00     0.104 A 
ATOM      9  C   UNL A   1      32.472  23.992  23.116  1.00  0.00     0.134 A 
ATOM     10  C   UNL A   1      31.702  23.720  24.254  1.00  0.00     0.050 A 
ATOM     11  C   UNL A   1      30.545  24.447  24.539  1.00  0.00     0.043 A 
ATOM     12  C   UNL A   1      31.028  25.896  22.689  1.00  0.00     0.058 A 
ATOM     13  C   UNL A   1      30.192  25.502  23.719  1.00  0.00     0.124 A 
ATOM     14  F   UNL A   1      29.059  26.175  23.953  1.00  0.00    -0.207 F 
BRANCH   9  15
ATOM     15  O   UNL A   1      33.525  23.186  22.816  1.00  0.00    -0.490 OA
BRANCH  15  16
ATOM     16  C   UNL A   1      34.760  23.288  23.575  1.00  0.00     0.173 C 
ATOM     17  C   UNL A   1      33.669  21.065  25.890  1.00  0.00     0.008 C 
ATOM     18  C   UNL A   1      35.046  21.660  25.617  1.00  0.00    -0.011 C 
ATOM     19  C   UNL A   1      35.311  22.873  26.512  1.00  0.00     0.003 C 
ATOM     20  C   UNL A   1      35.302  21.960  24.129  1.00  0.00     0.048 C 
ATOM     21  C   UNL A   1      34.628  24.144  26.024  1.00  0.00     0.004 C 
ATOM     22  C   UNL A   1      34.938  24.461  24.558  1.00  0.00     0.045 C 
ENDBRANCH  15  16
ENDBRANCH   9  15
ENDBRANCH   6   8
ENDBRANCH   5   6
ENDBRANCH   4   5
ENDBRANCH   3   4
ENDBRANCH   2   3
ENDBRANCH   1   2
BRANCH   1  23
ATOM     23  C   UNL A   1      31.566  30.339  25.696  1.00  0.00     0.261 C 
BRANCH  23  24
ATOM     24  O   UNL A   1      32.541  30.214  26.750  1.00  0.00    -0.460 OA
BRANCH  24  25
ATOM     25  C   UNL A   1      33.103  31.379  27.155  1.00  0.00     0.338 C 
ATOM     26  O   UNL A   1      32.540  32.457  27.281  1.00  0.00    -0.246 OA
BRANCH  25  27
ATOM     27  C   UNL A   1      34.474  31.131  27.646  1.00  0.00     0.060 A 
ATOM     28  C   UNL A   1      34.861  29.800  27.853  1.00  0.00     0.016 A 
ATOM     29  C   UNL A   1      35.352  32.175  27.944  1.00  0.00     0.016 A 
ATOM     30  C   UNL A   1      36.107  29.506  28.406  1.00  0.00     0.010 A 
ATOM     31  C   UNL A   1      36.597  31.879  28.510  1.00  0.00     0.010 A 
ATOM     32  C   UNL A   1      36.966  30.547  28.777  1.00  0.00    -0.014 A 
BRANCH  32  33
ATOM     33  C   UNL A   1      38.171  30.267  29.599  1.00  0.00     0.031 A 
ATOM     34  C   UNL A   1      39.227  29.352  29.039  1.00  0.00     0.074 A 
ATOM     35  C   UNL A   1      38.337  30.824  30.812  1.00  0.00     0.049 A 
ATOM     36  N   UNL A   1      40.279  28.842  29.624  1.00  0.00    -0.248 NA
ATOM     37  C   UNL A   1      39.068  28.954  27.631  1.00  0.00     0.031 C 
ATOM     38  C   UNL A   1      37.432  31.792  31.431  1.00  0.00     0.029 A 
ATOM     39  N   UNL A   1      39.327  30.644  31.746  1.00  0.00    -0.354 N 
ATOM     40  C   UNL A   1      40.898  28.050  28.663  1.00  0.00     0.074 A 
ATOM     41  C   UNL A   1      40.091  28.131  27.465  1.00  0.00     0.031 C 
ATOM     42  C   UNL A   1      37.905  32.112  32.648  1.00  0.00     0.029 A 
ATOM     43  C   UNL A   1      39.114  31.335  32.915  1.00  0.00     0.049 A 
ATOM     44  H   UNL A   1      40.115  30.075  31.593  1.00  0.00     0.167 HD
ATOM     45  C   UNL A   1      42.038  27.326  28.772  1.00  0.00     0.034 A 
ATOM     46  C   UNL A   1      39.793  31.313  34.080  1.00  0.00     0.034 A 
ATOM     47  C   UNL A   1      42.839  27.260  29.969  1.00  0.00     0.049 A 
ATOM     48  C   UNL A   1      41.002  30.421  34.213  1.00  0.00     0.074 A 
ATOM     49  C   UNL A   1      44.008  26.552  30.182  1.00  0.00     0.029 A 
ATOM     50  N   UNL A   1      42.553  27.923  31.155  1.00  0.00    -0.354 N 
ATOM     51  N   UNL A   1      41.545  29.626  33.320  1.00  0.00    -0.248 NA
ATOM     52  C   UNL A   1      41.686  30.419  35.514  1.00  0.00     0.031 C 
ATOM     53  C   UNL A   1      44.394  26.734  31.514  1.00  0.00     0.029 A 
ATOM     54  C   UNL A   1      43.509  27.616  32.111  1.00  0.00     0.049 A 
ATOM     55  H   UNL A   1      41.786  28.523  31.296  1.00  0.00     0.167 HD
ATOM     56  C   UNL A   1      42.646  29.045  33.946  1.00  0.00     0.074 A 
ATOM     57  C   UNL A   1      42.695  29.591  35.288  1.00  0.00     0.031 C 
ATOM     58  C   UNL A   1      43.537  28.148  33.454  1.00  0.00     0.034 A 
BRANCH  45  59
ATOM     59  C   UNL A   1      42.464  26.508  27.581  1.00  0.00     0.023 A 
ATOM     60  C   UNL A   1      42.080  25.165  27.428  1.00  0.00     0.031 A 
ATOM     61  C   UNL A   1      43.250  27.093  26.571  1.00  0.00     0.131 A 
ATOM     62  C   UNL A   1      42.514  24.441  26.306  1.00  0.00     0.055 A 
ATOM     63  C   UNL A   1      43.624  26.385  25.428  1.00  0.00     0.041 A 
ATOM     64  F   UNL A   1      43.663  28.366  26.680  1.00  0.00    -0.206 F 
ATOM     65  C   UNL A   1      43.260  25.049  25.293  1.00  0.00     0.022 A 
BRANCH  62  66
ATOM     66  S   UNL A   1      42.149  22.667  26.220  1.00  0.00     0.124 S 
ATOM     67  O   UNL A   1      40.689  22.663  26.285  1.00  0.00    -0.237 OA
ATOM     68  O   UNL A   1      42.732  22.286  24.938  1.00  0.00    -0.237 OA
ATOM     69  O   UNL A   1      42.821  22.120  27.397  1.00  0.00    -0.744 OA
ENDBRANCH  62  66
ENDBRANCH  45  59
BRANCH  46  70
ATOM     70  C   UNL A   1      39.319  32.125  35.235  1.00  0.00     0.023 A 
ATOM     71  C   UNL A   1      39.808  33.421  35.458  1.00  0.00     0.031 A 
ATOM     72  C   UNL A   1      38.377  31.607  36.142  1.00  0.00     0.131 A 
ATOM     73  C   UNL A   1      39.368  34.150  36.574  1.00  0.00     0.055 A 
ATOM     74  C   UNL A   1      37.912  32.353  37.227  1.00  0.00     0.041 A 
ATOM     75  F   UNL A   1      37.879  30.371  35.972  1.00  0.00    -0.206 F 
ATOM     76  C   UNL A   1      38.413  33.631  37.450  1.00  0.00     0.022 A 
BRANCH  73  77
ATOM     77  S   UNL A   1      40.084  35.788  36.881  1.00  0.00     0.124 S 
ATOM     78  O   UNL A   1      39.660  36.524  35.694  1.00  0.00    -0.237 OA
ATOM     79  O   UNL A   1      39.446  36.171  38.136  1.00  0.00    -0.237 OA
ATOM     80  O   UNL A   1      41.518  35.520  36.973  1.00  0.00    -0.744 OA
ENDBRANCH  73  77
ENDBRANCH  46  70
BRANCH  58  81
ATOM     81  C   UNL A   1      44.662  27.717  34.362  1.00  0.00     0.023 A 
ATOM     82  C   UNL A   1      44.568  26.559  35.152  1.00  0.00     0.031 A 
ATOM     83  C   UNL A   1      45.851  28.467  34.424  1.00  0.00     0.131 A 
ATOM     84  C   UNL A   1      45.625  26.209  36.007  1.00  0.00     0.055 A 
ATOM     85  C   UNL A   1      46.921  28.082  35.232  1.00  0.00     0.041 A 
ATOM     86  F   UNL A   1      45.994  29.580  33.689  1.00  0.00    -0.206 F 
ATOM     87  C   UNL A   1      46.808  26.953  36.038  1.00  0.00     0.022 A 
BRANCH  84  88
ATOM     88  S   UNL A   1      45.405  24.805  37.134  1.00  0.00     0.124 S 
ATOM     89  O   UNL A   1      44.946  25.465  38.352  1.00  0.00    -0.237 OA
ATOM     90  O   UNL A   1      44.413  23.994  36.435  1.00  0.00    -0.237 OA
ATOM     91  O   UNL A   1      46.740  24.216  37.213  1.00  0.00    -0.744 OA
ENDBRANCH  84  88
ENDBRANCH  58  81
ENDBRANCH  32  33
ENDBRANCH  25  27
ENDBRANCH  24  25
ENDBRANCH  23  24
ENDBRANCH   1  23
TORSDOF 19
ENDMDL
MODEL 2
REMARK VINA RESULT:     -11.4      5.011      9.970
REMARK SMILES C[C@@H]1CCC[C@H](Oc2ccc(F)cc2C(=O)OCCOCCOC(=O)c2ccc(-c3c4nc(c(-c5cc(S(=O)(=O)[O-])ccc5F)c5ccc([nH]5)c(-c5cc(S(=O)(=O)[O-])ccc5F)c5nc(c(-c6cc(S(=O)(=O)[O-])ccc6F)c6ccc3[nH]6)C=C5)C=C4)cc2)C1
REMARK SMILES IDX 21 1 20 2 19 3 18 4 17 5 15 6 16 7 14 8 8 9 9 10 10 11 13 12
REMARK SMILES IDX 11 13 12 14 7 15 6 16 1 17 2 18 3 19 89 20 4 21 5 22 22 23
REMARK SMILES IDX 23 24 24 25 25 26 26 27 27 28 88 29 28 30 87 31 29 32 30 33
REMARK SMILES IDX 31 34 81 35 32 36 86 37 80 38 82 39 33 40 85 41 79 42 78 43
REMARK SMILES IDX 34 45 66 46 46 47 65 48 47 49 50 50 64 51 83 52 48 53 49 54
REMARK SMILES IDX 63 56 84 57 51 58 35 59 36 60 44 61 37 62 43 63 45 64 42 65
REMARK SMILES IDX 38 66 39 67 40 68 41 69 67 70 68 71 76 72 69 73 75 74 77 75
REMARK SMILES IDX 74 76 70 77 71 78 72 79 73 80 52 81 53 82 61 83 54 84 60 85
REMARK SMILES IDX 62 86 59 87 55 88 56 89 57 90 58 91
REMARK H PARENT 82 44 50 55
REMARK Flexibility Score: inf
ROOT
ATOM      1  C   UNL A   1      35.554  21.110  24.683  1.00  0.00     0.202 C 
ENDROOT
BRANCH   1   2
ATOM      2  O   UNL A   1      34.476  20.389  25.280  1.00  0.00    -0.374 OA
BRANCH   2   3
ATOM      3  C   UNL A   1      33.706  21.101  26.249  1.00  0.00     0.202 C 
BRANCH   3   4
ATOM      4  C   UNL A   1      34.373  22.321  26.885  1.00  0.00     0.261 C 
BRANCH   4   5
ATOM      5  O   UNL A   1      33.726  23.547  26.486  1.00  0.00    -0.460 OA
BRANCH   5   6
ATOM      6  C   UNL A   1      32.423  23.624  26.832  1.00  0.00     0.342 C 
ATOM      7  O   UNL A   1      31.962  23.340  27.931  1.00  0.00    -0.246 OA
BRANCH   6   8
ATOM      8  C   UNL A   1      31.544  24.208  25.789  1.00  0.00     0.104 A 
ATOM      9  C   UNL A   1      31.062  25.526  25.740  1.00  0.00     0.134 A 
ATOM     10  C   UNL A   1      30.600  26.009  24.510  1.00  0.00     0.050 A 
ATOM     11  C   UNL A   1      30.372  25.152  23.432  1.00  0.00     0.043 A 
ATOM     12  C   UNL A   1      31.291  23.341  24.708  1.00  0.00     0.058 A 
ATOM     13  C   UNL A   1      30.675  23.810  23.561  1.00  0.00     0.124 A 
ATOM     14  F   UNL A   1      30.415  22.969  22.553  1.00  0.00    -0.207 F 
BRANCH   9  15
ATOM     15  O   UNL A   1      31.161  26.377  26.796  1.00  0.00    -0.490 OA
BRANCH  15  16
ATOM     16  C   UNL A   1      32.234  27.357  26.844  1.00  0.00     0.173 C 
ATOM     17  C   UNL A   1      30.806  29.227  24.403  1.00  0.00     0.008 C 
ATOM     18  C   UNL A   1      31.951  29.512  25.369  1.00  0.00    -0.011 C 
ATOM     19  C   UNL A   1      33.306  29.214  24.722  1.00  0.00     0.003 C 
ATOM     20  C   UNL A   1      31.789  28.824  26.737  1.00  0.00     0.048 C 
ATOM     21  C   UNL A   1      33.650  27.731  24.699  1.00  0.00     0.004 C 
ATOM     22  C   UNL A   1      33.540  27.072  26.077  1.00  0.00     0.045 C 
ENDBRANCH  15  16
ENDBRANCH   9  15
ENDBRANCH   6   8
ENDBRANCH   5   6
ENDBRANCH   4   5
ENDBRANCH   3   4
ENDBRANCH   2   3
ENDBRANCH   1   2
BRANCH   1  23
ATOM     23  C   UNL A   1      36.969  20.610  25.014  1.00  0.00     0.261 C 
BRANCH  23  24
ATOM     24  O   UNL A   1      37.888  21.697  25.233  1.00  0.00    -0.460 OA
BRANCH  24  25
ATOM     25  C   UNL A   1      38.992  21.381  25.954  1.00  0.00     0.338 C 
ATOM     26  O   UNL A   1      39.590  20.315  25.945  1.00  0.00    -0.246 OA
BRANCH  25  27
ATOM     27  C   UNL A   1      39.527  22.591  26.612  1.00  0.00     0.060 A 
ATOM     28  C   UNL A   1      39.016  23.833  26.206  1.00  0.00     0.016 A 
ATOM     29  C   UNL A   1      40.537  22.525  27.572  1.00  0.00     0.016 A 
ATOM     30  C   UNL A   1      39.548  25.015  26.719  1.00  0.00     0.010 A 
ATOM     31  C   UNL A   1      41.077  23.712  28.079  1.00  0.00     0.010 A 
ATOM     32  C   UNL A   1      40.611  24.963  27.628  1.00  0.00    -0.014 A 
BRANCH  32  33
ATOM     33  C   UNL A   1      41.356  26.197  27.982  1.00  0.00     0.031 A 
ATOM     34  C   UNL A   1      40.638  27.277  28.745  1.00  0.00     0.074 A 
ATOM     35  C   UNL A   1      42.650  26.356  27.647  1.00  0.00     0.049 A 
ATOM     36  N   UNL A   1      41.027  28.493  29.028  1.00  0.00    -0.248 NA
ATOM     37  C   UNL A   1      39.297  26.940  29.250  1.00  0.00     0.031 C 
ATOM     38  C   UNL A   1      43.482  25.352  26.984  1.00  0.00     0.029 A 
ATOM     39  N   UNL A   1      43.487  27.431  27.814  1.00  0.00    -0.354 N 
ATOM     40  C   UNL A   1      39.974  29.072  29.729  1.00  0.00     0.074 A 
ATOM     41  C   UNL A   1      38.922  28.081  29.807  1.00  0.00     0.031 C 
ATOM     42  C   UNL A   1      44.710  25.865  26.792  1.00  0.00     0.029 A 
ATOM     43  C   UNL A   1      44.735  27.247  27.268  1.00  0.00     0.049 A 
ATOM     44  H   UNL A   1      43.219  28.255  28.281  1.00  0.00     0.167 HD
ATOM     45  C   UNL A   1      39.896  30.316  30.259  1.00  0.00     0.034 A 
ATOM     46  C   UNL A   1      45.766  28.106  27.134  1.00  0.00     0.034 A 
ATOM     47  C   UNL A   1      40.953  31.293  30.182  1.00  0.00     0.049 A 
ATOM     48  C   UNL A   1      45.620  29.519  27.642  1.00  0.00     0.074 A 
ATOM     49  C   UNL A   1      40.971  32.581  30.684  1.00  0.00     0.029 A 
ATOM     50  N   UNL A   1      42.179  31.091  29.563  1.00  0.00    -0.354 N 
ATOM     51  N   UNL A   1      44.597  30.079  28.246  1.00  0.00    -0.248 NA
ATOM     52  C   UNL A   1      46.766  30.417  27.444  1.00  0.00     0.031 C 
ATOM     53  C   UNL A   1      42.178  33.181  30.313  1.00  0.00     0.029 A 
ATOM     54  C   UNL A   1      42.947  32.242  29.645  1.00  0.00     0.049 A 
ATOM     55  H   UNL A   1      42.462  30.253  29.129  1.00  0.00     0.167 HD
ATOM     56  C   UNL A   1      44.986  31.389  28.518  1.00  0.00     0.074 A 
ATOM     57  C   UNL A   1      46.340  31.531  28.022  1.00  0.00     0.031 C 
ATOM     58  C   UNL A   1      44.288  32.381  29.127  1.00  0.00     0.034 A 
BRANCH  45  59
ATOM     59  C   UNL A   1      38.606  30.711  30.931  1.00  0.00     0.023 A 
ATOM     60  C   UNL A   1      37.577  31.366  30.233  1.00  0.00     0.031 A 
ATOM     61  C   UNL A   1      38.397  30.404  32.287  1.00  0.00     0.131 A 
ATOM     62  C   UNL A   1      36.399  31.725  30.906  1.00  0.00     0.055 A 
ATOM     63  C   UNL A   1      37.198  30.707  32.934  1.00  0.00     0.041 A 
ATOM     64  F   UNL A   1      39.357  29.799  33.006  1.00  0.00    -0.206 F 
ATOM     65  C   UNL A   1      36.192  31.376  32.244  1.00  0.00     0.022 A 
BRANCH  62  66
ATOM     66  S   UNL A   1      35.163  32.720  30.029  1.00  0.00     0.124 S 
ATOM     67  O   UNL A   1      34.628  31.751  29.075  1.00  0.00    -0.237 OA
ATOM     68  O   UNL A   1      34.261  33.123  31.103  1.00  0.00    -0.237 OA
ATOM     69  O   UNL A   1      35.948  33.801  29.438  1.00  0.00    -0.744 OA
ENDBRANCH  62  66
ENDBRANCH  45  59
BRANCH  46  70
ATOM     70  C   UNL A   1      47.013  27.673  26.444  1.00  0.00     0.023 A 
ATOM     71  C   UNL A   1      47.167  27.838  25.059  1.00  0.00     0.031 A 
ATOM     72  C   UNL A   1      48.064  27.075  27.162  1.00  0.00     0.131 A 
ATOM     73  C   UNL A   1      48.340  27.390  24.430  1.00  0.00     0.055 A 
ATOM     74  C   UNL A   1      49.245  26.669  26.538  1.00  0.00     0.041 A 
ATOM     75  F   UNL A   1      47.963  26.894  28.489  1.00  0.00    -0.206 F 
ATOM     76  C   UNL A   1      49.385  26.821  25.162  1.00  0.00     0.022 A 
BRANCH  73  77
ATOM     77  S   UNL A   1      48.472  27.540  22.628  1.00  0.00     0.124 S 
ATOM     78  O   UNL A   1      47.255  28.275  22.301  1.00  0.00    -0.237 OA
ATOM     79  O   UNL A   1      49.725  28.272  22.473  1.00  0.00    -0.237 OA
ATOM     80  O   UNL A   1      48.507  26.151  22.173  1.00  0.00    -0.744 OA
ENDBRANCH  73  77
ENDBRANCH  46  70
BRANCH  58  81
ATOM     81  C   UNL A   1      44.987  33.705  29.318  1.00  0.00     0.023 A 
ATOM     82  C   UNL A   1      44.921  34.718  28.347  1.00  0.00     0.031 A 
ATOM     83  C   UNL A   1      45.713  33.961  30.495  1.00  0.00     0.131 A 
ATOM     84  C   UNL A   1      45.609  35.925  28.549  1.00  0.00     0.055 A 
ATOM     85  C   UNL A   1      46.347  35.184  30.715  1.00  0.00     0.041 A 
ATOM     86  F   UNL A   1      45.807  33.029  31.456  1.00  0.00    -0.206 F 
ATOM     87  C   UNL A   1      46.307  36.171  29.734  1.00  0.00     0.022 A 
BRANCH  84  88
ATOM     88  S   UNL A   1      45.641  37.144  27.206  1.00  0.00     0.124 S 
ATOM     89  O   UNL A   1      46.413  38.229  27.802  1.00  0.00    -0.237 OA
ATOM     90  O   UNL A   1      46.299  36.409  26.130  1.00  0.00    -0.237 OA
ATOM     91  O   UNL A   1      44.228  37.441  26.979  1.00  0.00    -0.744 OA
ENDBRANCH  84  88
ENDBRANCH  58  81
ENDBRANCH  32  33
ENDBRANCH  25  27
ENDBRANCH  24  25
ENDBRANCH  23  24
ENDBRANCH   1  23
TORSDOF 19
ENDMDL
MODEL 3
REMARK VINA RESULT:     -11.4      4.719     10.017
REMARK SMILES C[C@@H]1CCC[C@H](Oc2ccc(F)cc2C(=O)OCCOCCOC(=O)c2ccc(-c3c4nc(c(-c5cc(S(=O)(=O)[O-])ccc5F)c5ccc([nH]5)c(-c5cc(S(=O)(=O)[O-])ccc5F)c5nc(c(-c6cc(S(=O)(=O)[O-])ccc6F)c6ccc3[nH]6)C=C5)C=C4)cc2)C1
REMARK SMILES IDX 21 1 20 2 19 3 18 4 17 5 15 6 16 7 14 8 8 9 9 10 10 11 13 12
REMARK SMILES IDX 11 13 12 14 7 15 6 16 1 17 2 18 3 19 89 20 4 21 5 22 22 23
REMARK SMILES IDX 23 24 24 25 25 26 26 27 27 28 88 29 28 30 87 31 29 32 30 33
REMARK SMILES IDX 31 34 81 35 32 36 86 37 80 38 82 39 33 40 85 41 79 42 78 43
REMARK SMILES IDX 34 45 66 46 46 47 65 48 47 49 50 50 64 51 83 52 48 53 49 54
REMARK SMILES IDX 63 56 84 57 51 58 35 59 36 60 44 61 37 62 43 63 45 64 42 65
REMARK SMILES IDX 38 66 39 67 40 68 41 69 67 70 68 71 76 72 69 73 75 74 77 75
REMARK SMILES IDX 74 76 70 77 71 78 72 79 73 80 52 81 53 82 61 83 54 84 60 85
REMARK SMILES IDX 62 86 59 87 55 88 56 89 57 90 58 91
REMARK H PARENT 82 44 50 55
REMARK Flexibility Score: inf
ROOT
ATOM      1  C   UNL A   1      35.269  20.544  24.964  1.00  0.00     0.202 C 
ENDROOT
BRANCH   1   2
ATOM      2  O   UNL A   1      34.869  21.834  25.427  1.00  0.00    -0.374 OA
BRANCH   2   3
ATOM      3  C   UNL A   1      34.012  21.853  26.570  1.00  0.00     0.202 C 
BRANCH   3   4
ATOM      4  C   UNL A   1      33.008  23.003  26.647  1.00  0.00     0.261 C 
BRANCH   4   5
ATOM      5  O   UNL A   1      33.648  24.279  26.442  1.00  0.00    -0.460 OA
BRANCH   5   6
ATOM      6  C   UNL A   1      33.080  25.036  25.478  1.00  0.00     0.342 C 
ATOM      7  O   UNL A   1      32.705  24.628  24.384  1.00  0.00    -0.246 OA
BRANCH   6   8
ATOM      8  C   UNL A   1      32.820  26.442  25.873  1.00  0.00     0.104 A 
ATOM      9  C   UNL A   1      31.564  27.045  26.047  1.00  0.00     0.134 A 
ATOM     10  C   UNL A   1      31.504  28.224  26.801  1.00  0.00     0.050 A 
ATOM     11  C   UNL A   1      32.659  28.927  27.144  1.00  0.00     0.043 A 
ATOM     12  C   UNL A   1      33.984  27.165  26.200  1.00  0.00     0.058 A 
ATOM     13  C   UNL A   1      33.892  28.412  26.794  1.00  0.00     0.124 A 
ATOM     14  F   UNL A   1      35.005  29.101  27.074  1.00  0.00    -0.207 F 
BRANCH   9  15
ATOM     15  O   UNL A   1      30.410  26.455  25.638  1.00  0.00    -0.490 OA
BRANCH  15  16
ATOM     16  C   UNL A   1      30.027  26.498  24.237  1.00  0.00     0.173 C 
ATOM     17  C   UNL A   1      30.414  29.863  24.104  1.00  0.00     0.008 C 
ATOM     18  C   UNL A   1      30.229  28.813  23.013  1.00  0.00    -0.011 C 
ATOM     19  C   UNL A   1      28.759  28.694  22.604  1.00  0.00     0.003 C 
ATOM     20  C   UNL A   1      30.855  27.450  23.359  1.00  0.00     0.048 C 
ATOM     21  C   UNL A   1      27.925  27.875  23.580  1.00  0.00     0.004 C 
ATOM     22  C   UNL A   1      28.531  26.498  23.871  1.00  0.00     0.045 C 
ENDBRANCH  15  16
ENDBRANCH   9  15
ENDBRANCH   6   8
ENDBRANCH   5   6
ENDBRANCH   4   5
ENDBRANCH   3   4
ENDBRANCH   2   3
ENDBRANCH   1   2
BRANCH   1  23
ATOM     23  C   UNL A   1      36.780  20.263  24.964  1.00  0.00     0.261 C 
BRANCH  23  24
ATOM     24  O   UNL A   1      37.541  21.402  25.409  1.00  0.00    -0.460 OA
BRANCH  24  25
ATOM     25  C   UNL A   1      38.776  21.116  25.890  1.00  0.00     0.338 C 
ATOM     26  O   UNL A   1      39.423  20.098  25.684  1.00  0.00    -0.246 OA
BRANCH  25  27
ATOM     27  C   UNL A   1      39.353  22.311  26.539  1.00  0.00     0.060 A 
ATOM     28  C   UNL A   1      38.853  23.564  26.156  1.00  0.00     0.016 A 
ATOM     29  C   UNL A   1      40.390  22.220  27.468  1.00  0.00     0.016 A 
ATOM     30  C   UNL A   1      39.422  24.733  26.660  1.00  0.00     0.010 A 
ATOM     31  C   UNL A   1      40.967  23.394  27.965  1.00  0.00     0.010 A 
ATOM     32  C   UNL A   1      40.511  24.655  27.536  1.00  0.00    -0.014 A 
BRANCH  32  33
ATOM     33  C   UNL A   1      41.290  25.873  27.874  1.00  0.00     0.031 A 
ATOM     34  C   UNL A   1      40.608  26.971  28.646  1.00  0.00     0.074 A 
ATOM     35  C   UNL A   1      42.581  26.002  27.519  1.00  0.00     0.049 A 
ATOM     36  N   UNL A   1      41.029  28.178  28.919  1.00  0.00    -0.248 NA
ATOM     37  C   UNL A   1      39.268  26.666  29.172  1.00  0.00     0.031 C 
ATOM     38  C   UNL A   1      43.380  24.978  26.846  1.00  0.00     0.029 A 
ATOM     39  N   UNL A   1      43.445  27.058  27.670  1.00  0.00    -0.354 N 
ATOM     40  C   UNL A   1      40.000  28.783  29.635  1.00  0.00     0.074 A 
ATOM     41  C   UNL A   1      38.928  27.817  29.732  1.00  0.00     0.031 C 
ATOM     42  C   UNL A   1      44.616  25.462  26.633  1.00  0.00     0.029 A 
ATOM     43  C   UNL A   1      44.680  26.844  27.105  1.00  0.00     0.049 A 
ATOM     44  H   UNL A   1      43.203  27.889  28.139  1.00  0.00     0.167 HD
ATOM     45  C   UNL A   1      39.959  30.030  30.163  1.00  0.00     0.034 A 
ATOM     46  C   UNL A   1      45.727  27.680  26.953  1.00  0.00     0.034 A 
ATOM     47  C   UNL A   1      41.037  30.982  30.066  1.00  0.00     0.049 A 
ATOM     48  C   UNL A   1      45.622  29.097  27.459  1.00  0.00     0.074 A 
ATOM     49  C   UNL A   1      41.092  32.271  30.565  1.00  0.00     0.029 A 
ATOM     50  N   UNL A   1      42.247  30.751  29.428  1.00  0.00    -0.354 N 
ATOM     51  N   UNL A   1      44.622  29.681  28.077  1.00  0.00    -0.248 NA
ATOM     52  C   UNL A   1      46.784  29.968  27.240  1.00  0.00     0.031 C 
ATOM     53  C   UNL A   1      42.306  32.842  30.173  1.00  0.00     0.029 A 
ATOM     54  C   UNL A   1      43.043  31.884  29.496  1.00  0.00     0.049 A 
ATOM     55  H   UNL A   1      42.504  29.906  28.993  1.00  0.00     0.167 HD
ATOM     56  C   UNL A   1      45.044  30.983  28.339  1.00  0.00     0.074 A 
ATOM     57  C   UNL A   1      46.393  31.093  27.821  1.00  0.00     0.031 C 
ATOM     58  C   UNL A   1      44.378  31.992  28.956  1.00  0.00     0.034 A 
BRANCH  45  59
ATOM     59  C   UNL A   1      38.689  30.455  30.853  1.00  0.00     0.023 A 
ATOM     60  C   UNL A   1      37.658  31.117  30.167  1.00  0.00     0.031 A 
ATOM     61  C   UNL A   1      38.502  30.171  32.218  1.00  0.00     0.131 A 
ATOM     62  C   UNL A   1      36.499  31.505  30.857  1.00  0.00     0.055 A 
ATOM     63  C   UNL A   1      37.320  30.503  32.883  1.00  0.00     0.041 A 
ATOM     64  F   UNL A   1      39.465  29.560  32.927  1.00  0.00    -0.206 F 
ATOM     65  C   UNL A   1      36.312  31.179  32.203  1.00  0.00     0.022 A 
BRANCH  62  66
ATOM     66  S   UNL A   1      35.262  32.508  29.990  1.00  0.00     0.124 S 
ATOM     67  O   UNL A   1      34.281  32.744  31.047  1.00  0.00    -0.237 OA
ATOM     68  O   UNL A   1      36.036  33.670  29.567  1.00  0.00    -0.237 OA
ATOM     69  O   UNL A   1      34.808  31.636  28.909  1.00  0.00    -0.744 OA
ENDBRANCH  62  66
ENDBRANCH  45  59
BRANCH  46  70
ATOM     70  C   UNL A   1      46.953  27.217  26.244  1.00  0.00     0.023 A 
ATOM     71  C   UNL A   1      48.013  26.622  26.946  1.00  0.00     0.031 A 
ATOM     72  C   UNL A   1      47.086  27.377  24.853  1.00  0.00     0.131 A 
ATOM     73  C   UNL A   1      49.170  26.226  26.257  1.00  0.00     0.055 A 
ATOM     74  C   UNL A   1      48.222  26.943  24.167  1.00  0.00     0.041 A 
ATOM     75  F   UNL A   1      46.100  27.941  24.138  1.00  0.00    -0.206 F 
ATOM     76  C   UNL A   1      49.275  26.369  24.871  1.00  0.00     0.022 A 
BRANCH  73  77
ATOM     77  S   UNL A   1      50.555  25.539  27.204  1.00  0.00     0.124 S 
ATOM     78  O   UNL A   1      50.017  24.249  27.623  1.00  0.00    -0.237 OA
ATOM     79  O   UNL A   1      51.619  25.498  26.206  1.00  0.00    -0.237 OA
ATOM     80  O   UNL A   1      50.750  26.514  28.276  1.00  0.00    -0.744 OA
ENDBRANCH  73  77
ENDBRANCH  46  70
BRANCH  58  81
ATOM     81  C   UNL A   1      45.110  33.300  29.132  1.00  0.00     0.023 A 
ATOM     82  C   UNL A   1      45.088  34.294  28.140  1.00  0.00     0.031 A 
ATOM     83  C   UNL A   1      45.823  33.561  30.316  1.00  0.00     0.131 A 
ATOM     84  C   UNL A   1      45.806  35.486  28.329  1.00  0.00     0.055 A 
ATOM     85  C   UNL A   1      46.486  34.770  30.523  1.00  0.00     0.041 A 
ATOM     86  F   UNL A   1      45.875  32.646  31.297  1.00  0.00    -0.206 F 
ATOM     87  C   UNL A   1      46.490  35.737  29.522  1.00  0.00     0.022 A 
BRANCH  84  88
ATOM     88  S   UNL A   1      45.893  36.676  26.964  1.00  0.00     0.124 S 
ATOM     89  O   UNL A   1      46.208  35.812  25.830  1.00  0.00    -0.237 OA
ATOM     90  O   UNL A   1      44.556  37.259  26.969  1.00  0.00    -0.237 OA
ATOM     91  O   UNL A   1      46.966  37.583  27.367  1.00  0.00    -0.744 OA
ENDBRANCH  84  88
ENDBRANCH  58  81
ENDBRANCH  32  33
ENDBRANCH  25  27
ENDBRANCH  24  25
ENDBRANCH  23  24
ENDBRANCH   1  23
TORSDOF 19
ENDMDL
