MODEL 1
REMARK VINA RESULT:     -10.6      0.000      0.000
REMARK SMILES C[C@H]([NH2+]C1C(C)(C)C1(C)C)[C@H](C)C(=O)OCCOCCOC(=O)c1ccc(-c2c3nc(c(-c4cc(S(=O)(=O)[O-])ccc4F)c4ccc([nH]4)c(-c4cc(S(=O)(=O)[O-])ccc4F)c4nc(c(-c5cc(S(=O)(=O)[O-])ccc5F)c5ccc2[nH]5)C=C4)C=C3)cc1
REMARK SMILES IDX 18 1 17 2 16 3 15 4 13 5 14 6 11 7 12 8 2 9 1 10 3 11 4 14
REMARK SMILES IDX 5 15 8 16 6 17 7 18 9 19 10 20 19 21 20 22 21 23 22 24 23 25
REMARK SMILES IDX 24 26 25 27 86 28 26 29 85 30 27 31 28 32 29 33 79 34 30 35
REMARK SMILES IDX 84 36 78 37 80 38 31 39 83 40 77 41 76 42 32 44 64 45 44 46
REMARK SMILES IDX 63 47 45 48 48 49 62 50 81 51 46 52 47 53 61 55 82 56 49 57
REMARK SMILES IDX 33 58 34 59 42 60 35 61 41 62 43 63 40 64 36 65 37 66 38 67
REMARK SMILES IDX 39 68 65 69 66 70 74 71 67 72 73 73 75 74 72 75 68 76 69 77
REMARK SMILES IDX 70 78 71 79 50 80 51 81 59 82 52 83 58 84 60 85 57 86 53 87
REMARK SMILES IDX 54 88 55 89 56 90
REMARK H PARENT 3 12 3 13 80 43 48 54
REMARK Flexibility Score: inf
ROOT
ATOM      1  O   UNL A   1      34.763  20.455  25.236  1.00  0.00    -0.374 OA
ENDROOT
BRANCH   1   2
ATOM      2  C   UNL A   1      33.625  20.665  26.041  1.00  0.00     0.202 C 
BRANCH   2   3
ATOM      3  C   UNL A   1      33.590  21.585  27.295  1.00  0.00     0.261 C 
BRANCH   3   4
ATOM      4  O   UNL A   1      33.587  23.031  27.259  1.00  0.00    -0.463 OA
BRANCH   4   5
ATOM      5  C   UNL A   1      32.424  23.501  26.763  1.00  0.00     0.314 C 
ATOM      6  O   UNL A   1      31.441  23.547  27.485  1.00  0.00    -0.252 OA
BRANCH   5   7
ATOM      7  C   UNL A   1      32.371  24.000  25.328  1.00  0.00     0.154 C 
ATOM      8  C   UNL A   1      31.223  23.414  24.495  1.00  0.00     0.026 C 
BRANCH   7   9
ATOM      9  C   UNL A   1      32.574  25.553  25.092  1.00  0.00     0.193 C 
ATOM     10  C   UNL A   1      34.028  25.999  25.313  1.00  0.00     0.076 C 
BRANCH   9  11
ATOM     11  N   UNL A   1      31.722  26.634  25.590  1.00  0.00    -0.340 N 
ATOM     12  H   UNL A   1      32.391  27.338  25.902  1.00  0.00     0.346 HD
ATOM     13  H   UNL A   1      31.104  26.037  26.141  1.00  0.00     0.346 HD
BRANCH  11  14
ATOM     14  C   UNL A   1      30.638  27.444  24.960  1.00  0.00     0.195 C 
ATOM     15  C   UNL A   1      31.051  28.907  24.488  1.00  0.00     0.028 C 
ATOM     16  C   UNL A   1      30.376  27.704  23.554  1.00  0.00     0.028 C 
ATOM     17  C   UNL A   1      30.334  30.207  24.118  1.00  0.00     0.018 C 
ATOM     18  C   UNL A   1      31.978  29.299  25.663  1.00  0.00     0.018 C 
ATOM     19  C   UNL A   1      30.984  26.924  22.413  1.00  0.00     0.018 C 
ATOM     20  C   UNL A   1      28.911  27.921  23.155  1.00  0.00     0.018 C 
ENDBRANCH  11  14
ENDBRANCH   9  11
ENDBRANCH   7   9
ENDBRANCH   5   7
ENDBRANCH   4   5
ENDBRANCH   3   4
ENDBRANCH   2   3
ENDBRANCH   1   2
BRANCH   1  21
ATOM     21  C   UNL A   1      35.979  21.144  25.464  1.00  0.00     0.202 C 
BRANCH  21  22
ATOM     22  C   UNL A   1      37.356  20.616  25.030  1.00  0.00     0.261 C 
BRANCH  22  23
ATOM     23  O   UNL A   1      38.452  21.532  25.110  1.00  0.00    -0.460 OA
BRANCH  23  24
ATOM     24  C   UNL A   1      39.378  21.213  26.054  1.00  0.00     0.338 C 
ATOM     25  O   UNL A   1      39.962  20.156  26.169  1.00  0.00    -0.246 OA
BRANCH  24  26
ATOM     26  C   UNL A   1      39.782  22.438  26.780  1.00  0.00     0.060 A 
ATOM     27  C   UNL A   1      39.139  23.640  26.440  1.00  0.00     0.016 A 
ATOM     28  C   UNL A   1      40.791  22.420  27.743  1.00  0.00     0.016 A 
ATOM     29  C   UNL A   1      39.539  24.838  27.019  1.00  0.00     0.010 A 
ATOM     30  C   UNL A   1      41.234  23.632  28.283  1.00  0.00     0.010 A 
ATOM     31  C   UNL A   1      40.646  24.845  27.874  1.00  0.00    -0.014 A 
BRANCH  31  32
ATOM     32  C   UNL A   1      41.379  26.126  28.015  1.00  0.00     0.031 A 
ATOM     33  C   UNL A   1      40.664  27.244  28.732  1.00  0.00     0.074 A 
ATOM     34  C   UNL A   1      42.657  26.262  27.623  1.00  0.00     0.049 A 
ATOM     35  N   UNL A   1      41.077  28.449  29.019  1.00  0.00    -0.248 NA
ATOM     36  C   UNL A   1      39.295  26.954  29.192  1.00  0.00     0.031 C 
ATOM     37  C   UNL A   1      43.464  25.221  26.991  1.00  0.00     0.029 A 
ATOM     38  N   UNL A   1      43.501  27.338  27.712  1.00  0.00    -0.354 N 
ATOM     39  C   UNL A   1      40.021  29.059  29.690  1.00  0.00     0.074 A 
ATOM     40  C   UNL A   1      38.936  28.106  29.731  1.00  0.00     0.031 C 
ATOM     41  C   UNL A   1      44.690  25.716  26.738  1.00  0.00     0.029 A 
ATOM     42  C   UNL A   1      44.742  27.115  27.163  1.00  0.00     0.049 A 
ATOM     43  H   UNL A   1      43.244  28.192  28.130  1.00  0.00     0.167 HD
ATOM     44  C   UNL A   1      39.963  30.300  30.228  1.00  0.00     0.034 A 
ATOM     45  C   UNL A   1      45.786  27.955  27.006  1.00  0.00     0.034 A 
ATOM     46  C   UNL A   1      41.050  31.243  30.162  1.00  0.00     0.049 A 
ATOM     47  C   UNL A   1      45.666  29.366  27.539  1.00  0.00     0.074 A 
ATOM     48  C   UNL A   1      41.103  32.532  30.658  1.00  0.00     0.029 A 
ATOM     49  N   UNL A   1      42.274  30.999  29.550  1.00  0.00    -0.354 N 
ATOM     50  N   UNL A   1      44.660  29.936  28.165  1.00  0.00    -0.248 NA
ATOM     51  C   UNL A   1      46.833  30.240  27.363  1.00  0.00     0.031 C 
ATOM     52  C   UNL A   1      42.326  33.096  30.276  1.00  0.00     0.029 A 
ATOM     53  C   UNL A   1      43.077  32.126  29.631  1.00  0.00     0.049 A 
ATOM     54  H   UNL A   1      42.533  30.151  29.122  1.00  0.00     0.167 HD
ATOM     55  C   UNL A   1      45.093  31.220  28.497  1.00  0.00     0.074 A 
ATOM     56  C   UNL A   1      46.455  31.328  28.016  1.00  0.00     0.031 C 
ATOM     57  C   UNL A   1      44.433  32.217  29.143  1.00  0.00     0.034 A 
BRANCH  44  58
ATOM     58  C   UNL A   1      38.661  30.721  30.864  1.00  0.00     0.023 A 
ATOM     59  C   UNL A   1      37.698  31.477  30.171  1.00  0.00     0.031 A 
ATOM     60  C   UNL A   1      38.394  30.389  32.204  1.00  0.00     0.131 A 
ATOM     61  C   UNL A   1      36.547  31.925  30.838  1.00  0.00     0.055 A 
ATOM     62  C   UNL A   1      37.210  30.767  32.837  1.00  0.00     0.041 A 
ATOM     63  F   UNL A   1      39.291  29.699  32.928  1.00  0.00    -0.206 F 
ATOM     64  C   UNL A   1      36.282  31.551  32.157  1.00  0.00     0.022 A 
BRANCH  61  65
ATOM     65  S   UNL A   1      35.465  33.120  30.003  1.00  0.00     0.124 S 
ATOM     66  O   UNL A   1      36.403  33.790  29.107  1.00  0.00    -0.237 OA
ATOM     67  O   UNL A   1      34.476  32.258  29.367  1.00  0.00    -0.237 OA
ATOM     68  O   UNL A   1      34.960  33.947  31.098  1.00  0.00    -0.744 OA
ENDBRANCH  61  65
ENDBRANCH  44  58
BRANCH  45  69
ATOM     69  C   UNL A   1      47.018  27.518  26.283  1.00  0.00     0.023 A 
ATOM     70  C   UNL A   1      47.243  27.859  24.940  1.00  0.00     0.031 A 
ATOM     71  C   UNL A   1      47.955  26.675  26.910  1.00  0.00     0.131 A 
ATOM     72  C   UNL A   1      48.336  27.311  24.249  1.00  0.00     0.055 A 
ATOM     73  C   UNL A   1      49.075  26.184  26.238  1.00  0.00     0.041 A 
ATOM     74  F   UNL A   1      47.789  26.311  28.192  1.00  0.00    -0.206 F 
ATOM     75  C   UNL A   1      49.261  26.487  24.895  1.00  0.00     0.022 A 
BRANCH  72  76
ATOM     76  S   UNL A   1      48.469  27.594  22.462  1.00  0.00     0.124 S 
ATOM     77  O   UNL A   1      47.257  28.358  22.192  1.00  0.00    -0.237 OA
ATOM     78  O   UNL A   1      49.726  28.329  22.367  1.00  0.00    -0.237 OA
ATOM     79  O   UNL A   1      48.496  26.244  21.905  1.00  0.00    -0.744 OA
ENDBRANCH  72  76
ENDBRANCH  45  69
BRANCH  57  80
ATOM     80  C   UNL A   1      45.208  33.485  29.427  1.00  0.00     0.023 A 
ATOM     81  C   UNL A   1      45.236  34.560  28.523  1.00  0.00     0.031 A 
ATOM     82  C   UNL A   1      45.959  33.600  30.611  1.00  0.00     0.131 A 
ATOM     83  C   UNL A   1      46.068  35.662  28.774  1.00  0.00     0.055 A 
ATOM     84  C   UNL A   1      46.719  34.735  30.894  1.00  0.00     0.041 A 
ATOM     85  F   UNL A   1      45.972  32.606  31.513  1.00  0.00    -0.206 F 
ATOM     86  C   UNL A   1      46.794  35.765  29.963  1.00  0.00     0.022 A 
BRANCH  83  87
ATOM     87  S   UNL A   1      46.305  36.887  27.456  1.00  0.00     0.124 S 
ATOM     88  O   UNL A   1      45.168  37.778  27.663  1.00  0.00    -0.237 OA
ATOM     89  O   UNL A   1      47.615  37.441  27.781  1.00  0.00    -0.237 OA
ATOM     90  O   UNL A   1      46.255  36.088  26.234  1.00  0.00    -0.744 OA
ENDBRANCH  83  87
ENDBRANCH  57  80
ENDBRANCH  31  32
ENDBRANCH  24  26
ENDBRANCH  23  24
ENDBRANCH  22  23
ENDBRANCH  21  22
ENDBRANCH   1  21
TORSDOF 20
ENDMDL
MODEL 2
REMARK VINA RESULT:     -10.6      4.861      8.059
REMARK SMILES C[C@H]([NH2+]C1C(C)(C)C1(C)C)[C@H](C)C(=O)OCCOCCOC(=O)c1ccc(-c2c3nc(c(-c4cc(S(=O)(=O)[O-])ccc4F)c4ccc([nH]4)c(-c4cc(S(=O)(=O)[O-])ccc4F)c4nc(c(-c5cc(S(=O)(=O)[O-])ccc5F)c5ccc2[nH]5)C=C4)C=C3)cc1
REMARK SMILES IDX 18 1 17 2 16 3 15 4 13 5 14 6 11 7 12 8 2 9 1 10 3 11 4 14
REMARK SMILES IDX 5 15 8 16 6 17 7 18 9 19 10 20 19 21 20 22 21 23 22 24 23 25
REMARK SMILES IDX 24 26 25 27 86 28 26 29 85 30 27 31 28 32 29 33 79 34 30 35
REMARK SMILES IDX 84 36 78 37 80 38 31 39 83 40 77 41 76 42 32 44 64 45 44 46
REMARK SMILES IDX 63 47 45 48 48 49 62 50 81 51 46 52 47 53 61 55 82 56 49 57
REMARK SMILES IDX 33 58 34 59 42 60 35 61 41 62 43 63 40 64 36 65 37 66 38 67
REMARK SMILES IDX 39 68 65 69 66 70 74 71 67 72 73 73 75 74 72 75 68 76 69 77
REMARK SMILES IDX 70 78 71 79 50 80 51 81 59 82 52 83 58 84 60 85 57 86 53 87
REMARK SMILES IDX 54 88 55 89 56 90
REMARK H PARENT 3 12 3 13 80 43 48 54
REMARK Flexibility Score: inf
ROOT
ATOM      1  O   UNL A   1      31.585  30.032  27.081  1.00  0.00    -0.374 OA
ENDROOT
BRANCH   1   2
ATOM      2  C   UNL A   1      32.569  29.060  26.814  1.00  0.00     0.202 C 
BRANCH   2   3
ATOM      3  C   UNL A   1      33.529  29.088  25.590  1.00  0.00     0.261 C 
BRANCH   3   4
ATOM      4  O   UNL A   1      33.112  29.283  24.219  1.00  0.00    -0.463 OA
BRANCH   4   5
ATOM      5  C   UNL A   1      32.541  28.167  23.722  1.00  0.00     0.314 C 
ATOM      6  O   UNL A   1      33.235  27.346  23.146  1.00  0.00    -0.252 OA
BRANCH   5   7
ATOM      7  C   UNL A   1      31.051  27.936  23.922  1.00  0.00     0.154 C 
ATOM      8  C   UNL A   1      30.171  29.150  23.593  1.00  0.00     0.026 C 
BRANCH   7   9
ATOM      9  C   UNL A   1      30.450  26.574  23.382  1.00  0.00     0.193 C 
ATOM     10  C   UNL A   1      29.016  26.324  23.877  1.00  0.00     0.076 C 
BRANCH   9  11
ATOM     11  N   UNL A   1      31.118  25.272  23.352  1.00  0.00    -0.340 N 
ATOM     12  H   UNL A   1      32.069  25.501  23.062  1.00  0.00     0.346 HD
ATOM     13  H   UNL A   1      30.382  24.786  22.838  1.00  0.00     0.346 HD
BRANCH  11  14
ATOM     14  C   UNL A   1      31.318  24.210  24.382  1.00  0.00     0.195 C 
ATOM     15  C   UNL A   1      32.619  23.310  24.206  1.00  0.00     0.028 C 
ATOM     16  C   UNL A   1      32.191  24.203  25.545  1.00  0.00     0.028 C 
ATOM     17  C   UNL A   1      33.122  21.959  24.719  1.00  0.00     0.018 C 
ATOM     18  C   UNL A   1      32.614  23.159  22.666  1.00  0.00     0.018 C 
ATOM     19  C   UNL A   1      32.850  25.431  26.126  1.00  0.00     0.018 C 
ATOM     20  C   UNL A   1      31.717  23.391  26.757  1.00  0.00     0.018 C 
ENDBRANCH  11  14
ENDBRANCH   9  11
ENDBRANCH   7   9
ENDBRANCH   5   7
ENDBRANCH   4   5
ENDBRANCH   3   4
ENDBRANCH   2   3
ENDBRANCH   1   2
BRANCH   1  21
ATOM     21  C   UNL A   1      31.468  31.211  26.306  1.00  0.00     0.202 C 
BRANCH  21  22
ATOM     22  C   UNL A   1      31.775  32.620  26.839  1.00  0.00     0.261 C 
BRANCH  22  23
ATOM     23  O   UNL A   1      32.428  32.700  28.109  1.00  0.00    -0.460 OA
BRANCH  23  24
ATOM     24  C   UNL A   1      33.426  33.623  28.167  1.00  0.00     0.338 C 
ATOM     25  O   UNL A   1      33.302  34.815  28.352  1.00  0.00    -0.246 OA
BRANCH  24  26
ATOM     26  C   UNL A   1      34.732  32.929  28.235  1.00  0.00     0.060 A 
ATOM     27  C   UNL A   1      34.724  31.542  28.452  1.00  0.00     0.016 A 
ATOM     28  C   UNL A   1      35.937  33.625  28.128  1.00  0.00     0.016 A 
ATOM     29  C   UNL A   1      35.917  30.851  28.620  1.00  0.00     0.010 A 
ATOM     30  C   UNL A   1      37.136  32.940  28.354  1.00  0.00     0.010 A 
ATOM     31  C   UNL A   1      37.119  31.565  28.659  1.00  0.00    -0.014 A 
BRANCH  31  32
ATOM     32  C   UNL A   1      38.253  30.935  29.375  1.00  0.00     0.031 A 
ATOM     33  C   UNL A   1      38.461  31.341  30.813  1.00  0.00     0.074 A 
ATOM     34  C   UNL A   1      39.000  29.969  28.816  1.00  0.00     0.049 A 
ATOM     35  N   UNL A   1      39.350  30.929  31.677  1.00  0.00    -0.248 NA
ATOM     36  C   UNL A   1      37.529  32.350  31.348  1.00  0.00     0.031 C 
ATOM     37  C   UNL A   1      38.834  29.448  27.460  1.00  0.00     0.029 A 
ATOM     38  N   UNL A   1      40.046  29.247  29.330  1.00  0.00    -0.354 N 
ATOM     39  C   UNL A   1      39.084  31.627  32.851  1.00  0.00     0.074 A 
ATOM     40  C   UNL A   1      37.979  32.516  32.578  1.00  0.00     0.031 C 
ATOM     41  C   UNL A   1      39.758  28.492  27.247  1.00  0.00     0.029 A 
ATOM     42  C   UNL A   1      40.597  28.358  28.438  1.00  0.00     0.049 A 
ATOM     43  H   UNL A   1      40.373  29.355  30.253  1.00  0.00     0.167 HD
ATOM     44  C   UNL A   1      39.703  31.530  34.052  1.00  0.00     0.034 A 
ATOM     45  C   UNL A   1      41.668  27.548  28.568  1.00  0.00     0.034 A 
ATOM     46  C   UNL A   1      40.816  30.649  34.300  1.00  0.00     0.049 A 
ATOM     47  C   UNL A   1      42.397  27.520  29.894  1.00  0.00     0.074 A 
ATOM     48  C   UNL A   1      41.532  30.474  35.470  1.00  0.00     0.029 A 
ATOM     49  N   UNL A   1      41.381  29.800  33.355  1.00  0.00    -0.354 N 
ATOM     50  N   UNL A   1      42.144  28.189  30.996  1.00  0.00    -0.248 NA
ATOM     51  C   UNL A   1      43.545  26.610  29.997  1.00  0.00     0.031 C 
ATOM     52  C   UNL A   1      42.578  29.582  35.211  1.00  0.00     0.029 A 
ATOM     53  C   UNL A   1      42.455  29.123  33.909  1.00  0.00     0.049 A 
ATOM     54  H   UNL A   1      41.064  29.696  32.429  1.00  0.00     0.167 HD
ATOM     55  C   UNL A   1      43.074  27.745  31.936  1.00  0.00     0.074 A 
ATOM     56  C   UNL A   1      43.878  26.740  31.271  1.00  0.00     0.031 C 
ATOM     57  C   UNL A   1      43.248  28.125  33.229  1.00  0.00     0.034 A 
BRANCH  44  58
ATOM     58  C   UNL A   1      39.234  32.450  35.152  1.00  0.00     0.023 A 
ATOM     59  C   UNL A   1      39.745  33.751  35.311  1.00  0.00     0.031 A 
ATOM     60  C   UNL A   1      38.279  32.002  36.083  1.00  0.00     0.131 A 
ATOM     61  C   UNL A   1      39.345  34.532  36.406  1.00  0.00     0.055 A 
ATOM     62  C   UNL A   1      37.825  32.813  37.122  1.00  0.00     0.041 A 
ATOM     63  F   UNL A   1      37.781  30.757  36.004  1.00  0.00    -0.206 F 
ATOM     64  C   UNL A   1      38.368  34.083  37.297  1.00  0.00     0.022 A 
BRANCH  61  65
ATOM     65  S   UNL A   1      40.221  36.087  36.734  1.00  0.00     0.124 S 
ATOM     66  O   UNL A   1      40.005  36.815  35.487  1.00  0.00    -0.237 OA
ATOM     67  O   UNL A   1      39.521  36.602  37.906  1.00  0.00    -0.237 OA
ATOM     68  O   UNL A   1      41.600  35.661  36.968  1.00  0.00    -0.744 OA
ENDBRANCH  61  65
ENDBRANCH  44  58
BRANCH  45  69
ATOM     69  C   UNL A   1      42.151  26.726  27.418  1.00  0.00     0.023 A 
ATOM     70  C   UNL A   1      41.825  25.366  27.298  1.00  0.00     0.031 A 
ATOM     71  C   UNL A   1      43.025  27.277  26.462  1.00  0.00     0.131 A 
ATOM     72  C   UNL A   1      42.415  24.589  26.287  1.00  0.00     0.055 A 
ATOM     73  C   UNL A   1      43.558  26.515  25.421  1.00  0.00     0.041 A 
ATOM     74  F   UNL A   1      43.377  28.571  26.529  1.00  0.00    -0.206 F 
ATOM     75  C   UNL A   1      43.268  25.159  25.339  1.00  0.00     0.022 A 
BRANCH  72  76
ATOM     76  S   UNL A   1      42.144  22.795  26.297  1.00  0.00     0.124 S 
ATOM     77  O   UNL A   1      42.650  22.411  24.984  1.00  0.00    -0.237 OA
ATOM     78  O   UNL A   1      42.945  22.376  27.442  1.00  0.00    -0.237 OA
ATOM     79  O   UNL A   1      40.698  22.671  26.472  1.00  0.00    -0.744 OA
ENDBRANCH  72  76
ENDBRANCH  45  69
BRANCH  57  80
ATOM     80  C   UNL A   1      44.306  27.393  34.026  1.00  0.00     0.023 A 
ATOM     81  C   UNL A   1      44.020  26.220  34.745  1.00  0.00     0.031 A 
ATOM     82  C   UNL A   1      45.616  27.903  34.090  1.00  0.00     0.131 A 
ATOM     83  C   UNL A   1      45.002  25.648  35.567  1.00  0.00     0.055 A 
ATOM     84  C   UNL A   1      46.611  27.280  34.844  1.00  0.00     0.041 A 
ATOM     85  F   UNL A   1      45.950  29.019  33.425  1.00  0.00    -0.206 F 
ATOM     86  C   UNL A   1      46.302  26.159  35.606  1.00  0.00     0.022 A 
BRANCH  83  87
ATOM     87  S   UNL A   1      44.516  24.318  36.702  1.00  0.00     0.124 S 
ATOM     88  O   UNL A   1      45.752  24.085  37.442  1.00  0.00    -0.237 OA
ATOM     89  O   UNL A   1      43.430  24.935  37.455  1.00  0.00    -0.237 OA
ATOM     90  O   UNL A   1      44.115  23.235  35.806  1.00  0.00    -0.744 OA
ENDBRANCH  83  87
ENDBRANCH  57  80
ENDBRANCH  31  32
ENDBRANCH  24  26
ENDBRANCH  23  24
ENDBRANCH  22  23
ENDBRANCH  21  22
ENDBRANCH   1  21
TORSDOF 20
ENDMDL
MODEL 3
REMARK VINA RESULT:     -10.6      1.744      7.926
REMARK SMILES C[C@H]([NH2+]C1C(C)(C)C1(C)C)[C@H](C)C(=O)OCCOCCOC(=O)c1ccc(-c2c3nc(c(-c4cc(S(=O)(=O)[O-])ccc4F)c4ccc([nH]4)c(-c4cc(S(=O)(=O)[O-])ccc4F)c4nc(c(-c5cc(S(=O)(=O)[O-])ccc5F)c5ccc2[nH]5)C=C4)C=C3)cc1
REMARK SMILES IDX 18 1 17 2 16 3 15 4 13 5 14 6 11 7 12 8 2 9 1 10 3 11 4 14
REMARK SMILES IDX 5 15 8 16 6 17 7 18 9 19 10 20 19 21 20 22 21 23 22 24 23 25
REMARK SMILES IDX 24 26 25 27 86 28 26 29 85 30 27 31 28 32 29 33 79 34 30 35
REMARK SMILES IDX 84 36 78 37 80 38 31 39 83 40 77 41 76 42 32 44 64 45 44 46
REMARK SMILES IDX 63 47 45 48 48 49 62 50 81 51 46 52 47 53 61 55 82 56 49 57
REMARK SMILES IDX 33 58 34 59 42 60 35 61 41 62 43 63 40 64 36 65 37 66 38 67
REMARK SMILES IDX 39 68 65 69 66 70 74 71 67 72 73 73 75 74 72 75 68 76 69 77
REMARK SMILES IDX 70 78 71 79 50 80 51 81 59 82 52 83 58 84 60 85 57 86 53 87
REMARK SMILES IDX 54 88 55 89 56 90
REMARK H PARENT 3 12 3 13 80 43 48 54
REMARK Flexibility Score: inf
ROOT
ATOM      1  O   UNL A   1      35.926  20.495  25.122  1.00  0.00    -0.374 OA
ENDROOT
BRANCH   1   2
ATOM      2  C   UNL A   1      34.596  20.422  24.660  1.00  0.00     0.202 C 
BRANCH   2   3
ATOM      3  C   UNL A   1      33.393  19.922  25.509  1.00  0.00     0.261 C 
BRANCH   3   4
ATOM      4  O   UNL A   1      32.018  20.326  25.312  1.00  0.00    -0.463 OA
BRANCH   4   5
ATOM      5  C   UNL A   1      31.920  21.665  25.184  1.00  0.00     0.314 C 
ATOM      6  O   UNL A   1      31.863  22.156  24.069  1.00  0.00    -0.252 OA
BRANCH   5   7
ATOM      7  C   UNL A   1      31.843  22.532  26.431  1.00  0.00     0.154 C 
ATOM      8  C   UNL A   1      33.196  23.076  26.909  1.00  0.00     0.026 C 
BRANCH   7   9
ATOM      9  C   UNL A   1      30.686  23.613  26.492  1.00  0.00     0.193 C 
ATOM     10  C   UNL A   1      29.409  23.073  27.155  1.00  0.00     0.076 C 
BRANCH   9  11
ATOM     11  N   UNL A   1      30.257  24.499  25.409  1.00  0.00    -0.340 N 
ATOM     12  H   UNL A   1      29.465  24.999  25.813  1.00  0.00     0.346 HD
ATOM     13  H   UNL A   1      30.270  23.787  24.678  1.00  0.00     0.346 HD
BRANCH  11  14
ATOM     14  C   UNL A   1      30.962  25.551  24.619  1.00  0.00     0.195 C 
ATOM     15  C   UNL A   1      30.169  26.915  24.417  1.00  0.00     0.028 C 
ATOM     16  C   UNL A   1      31.685  26.724  25.080  1.00  0.00     0.028 C 
ATOM     17  C   UNL A   1      30.244  28.126  23.484  1.00  0.00     0.018 C 
ATOM     18  C   UNL A   1      28.745  26.350  24.200  1.00  0.00     0.018 C 
ATOM     19  C   UNL A   1      32.142  26.943  26.503  1.00  0.00     0.018 C 
ATOM     20  C   UNL A   1      32.852  27.202  24.206  1.00  0.00     0.018 C 
ENDBRANCH  11  14
ENDBRANCH   9  11
ENDBRANCH   7   9
ENDBRANCH   5   7
ENDBRANCH   4   5
ENDBRANCH   3   4
ENDBRANCH   2   3
ENDBRANCH   1   2
BRANCH   1  21
ATOM     21  C   UNL A   1      36.818  19.401  25.013  1.00  0.00     0.202 C 
BRANCH  21  22
ATOM     22  C   UNL A   1      38.349  19.540  25.015  1.00  0.00     0.261 C 
BRANCH  22  23
ATOM     23  O   UNL A   1      38.879  20.805  25.420  1.00  0.00    -0.460 OA
BRANCH  23  24
ATOM     24  C   UNL A   1      40.038  20.724  26.129  1.00  0.00     0.338 C 
ATOM     25  O   UNL A   1      40.911  19.892  25.999  1.00  0.00    -0.246 OA
BRANCH  24  26
ATOM     26  C   UNL A   1      40.217  21.962  26.920  1.00  0.00     0.060 A 
ATOM     27  C   UNL A   1      39.490  23.098  26.529  1.00  0.00     0.016 A 
ATOM     28  C   UNL A   1      41.105  22.022  27.994  1.00  0.00     0.016 A 
ATOM     29  C   UNL A   1      39.686  24.313  27.172  1.00  0.00     0.010 A 
ATOM     30  C   UNL A   1      41.346  23.259  28.605  1.00  0.00     0.010 A 
ATOM     31  C   UNL A   1      40.679  24.413  28.152  1.00  0.00    -0.014 A 
BRANCH  31  32
ATOM     32  C   UNL A   1      41.245  25.760  28.401  1.00  0.00     0.031 A 
ATOM     33  C   UNL A   1      42.627  26.030  27.861  1.00  0.00     0.074 A 
ATOM     34  C   UNL A   1      40.529  26.736  28.985  1.00  0.00     0.049 A 
ATOM     35  N   UNL A   1      43.344  27.120  27.909  1.00  0.00    -0.248 NA
ATOM     36  C   UNL A   1      43.285  24.910  27.164  1.00  0.00     0.031 C 
ATOM     37  C   UNL A   1      39.158  26.604  29.474  1.00  0.00     0.029 A 
ATOM     38  N   UNL A   1      40.861  28.039  29.255  1.00  0.00    -0.354 N 
ATOM     39  C   UNL A   1      44.533  26.817  27.252  1.00  0.00     0.074 A 
ATOM     40  C   UNL A   1      44.458  25.432  26.851  1.00  0.00     0.031 C 
ATOM     41  C   UNL A   1      38.769  27.782  29.996  1.00  0.00     0.029 A 
ATOM     42  C   UNL A   1      39.872  28.738  29.905  1.00  0.00     0.049 A 
ATOM     43  H   UNL A   1      41.727  28.436  29.006  1.00  0.00     0.167 HD
ATOM     44  C   UNL A   1      45.591  27.625  27.001  1.00  0.00     0.034 A 
ATOM     45  C   UNL A   1      39.873  29.998  30.387  1.00  0.00     0.034 A 
ATOM     46  C   UNL A   1      45.655  29.000  27.425  1.00  0.00     0.049 A 
ATOM     47  C   UNL A   1      41.102  30.855  30.170  1.00  0.00     0.074 A 
ATOM     48  C   UNL A   1      46.678  29.912  27.240  1.00  0.00     0.029 A 
ATOM     49  N   UNL A   1      44.654  29.660  28.129  1.00  0.00    -0.354 N 
ATOM     50  N   UNL A   1      42.225  30.557  29.555  1.00  0.00    -0.248 NA
ATOM     51  C   UNL A   1      41.052  32.226  30.694  1.00  0.00     0.031 C 
ATOM     52  C   UNL A   1      46.332  31.095  27.902  1.00  0.00     0.029 A 
ATOM     53  C   UNL A   1      45.051  30.957  28.411  1.00  0.00     0.049 A 
ATOM     54  H   UNL A   1      43.791  29.264  28.388  1.00  0.00     0.167 HD
ATOM     55  C   UNL A   1      42.995  31.721  29.580  1.00  0.00     0.074 A 
ATOM     56  C   UNL A   1      42.198  32.724  30.255  1.00  0.00     0.031 C 
ATOM     57  C   UNL A   1      44.242  31.945  29.089  1.00  0.00     0.034 A 
BRANCH  44  58
ATOM     58  C   UNL A   1      46.781  27.014  26.303  1.00  0.00     0.023 A 
ATOM     59  C   UNL A   1      47.806  26.354  27.006  1.00  0.00     0.031 A 
ATOM     60  C   UNL A   1      46.910  27.125  24.907  1.00  0.00     0.131 A 
ATOM     61  C   UNL A   1      48.937  25.887  26.320  1.00  0.00     0.055 A 
ATOM     62  C   UNL A   1      47.998  26.586  24.221  1.00  0.00     0.041 A 
ATOM     63  F   UNL A   1      45.981  27.774  24.186  1.00  0.00    -0.206 F 
ATOM     64  C   UNL A   1      49.028  25.973  24.929  1.00  0.00     0.022 A 
BRANCH  61  65
ATOM     65  S   UNL A   1      50.356  25.291  27.282  1.00  0.00     0.124 S 
ATOM     66  O   UNL A   1      51.357  25.090  26.237  1.00  0.00    -0.237 OA
ATOM     67  O   UNL A   1      50.602  26.396  28.200  1.00  0.00    -0.237 OA
ATOM     68  O   UNL A   1      49.858  24.064  27.901  1.00  0.00    -0.744 OA
ENDBRANCH  61  65
ENDBRANCH  44  58
BRANCH  45  69
ATOM     69  C   UNL A   1      38.706  30.526  31.155  1.00  0.00     0.023 A 
ATOM     70  C   UNL A   1      37.607  31.116  30.510  1.00  0.00     0.031 A 
ATOM     71  C   UNL A   1      38.715  30.522  32.563  1.00  0.00     0.131 A 
ATOM     72  C   UNL A   1      36.597  31.733  31.267  1.00  0.00     0.055 A 
ATOM     73  C   UNL A   1      37.676  31.080  33.311  1.00  0.00     0.041 A 
ATOM     74  F   UNL A   1      39.741  29.977  33.234  1.00  0.00    -0.206 F 
ATOM     75  C   UNL A   1      36.618  31.705  32.663  1.00  0.00     0.022 A 
BRANCH  72  76
ATOM     76  S   UNL A   1      35.312  32.675  30.399  1.00  0.00     0.124 S 
ATOM     77  O   UNL A   1      35.990  33.942  30.151  1.00  0.00    -0.237 OA
ATOM     78  O   UNL A   1      35.063  31.839  29.230  1.00  0.00    -0.237 OA
ATOM     79  O   UNL A   1      34.219  32.730  31.368  1.00  0.00    -0.744 OA
ENDBRANCH  72  76
ENDBRANCH  45  69
BRANCH  57  80
ATOM     80  C   UNL A   1      44.785  33.352  29.203  1.00  0.00     0.023 A 
ATOM     81  C   UNL A   1      44.542  34.327  28.220  1.00  0.00     0.031 A 
ATOM     82  C   UNL A   1      45.587  33.710  30.302  1.00  0.00     0.131 A 
ATOM     83  C   UNL A   1      45.169  35.579  28.309  1.00  0.00     0.055 A 
ATOM     84  C   UNL A   1      46.139  34.985  30.426  1.00  0.00     0.041 A 
ATOM     85  F   UNL A   1      45.854  32.822  31.273  1.00  0.00    -0.206 F 
ATOM     86  C   UNL A   1      45.950  35.921  29.416  1.00  0.00     0.022 A 
BRANCH  83  87
ATOM     87  S   UNL A   1      45.073  36.699  26.885  1.00  0.00     0.124 S 
ATOM     88  O   UNL A   1      43.646  36.998  26.831  1.00  0.00    -0.237 OA
ATOM     89  O   UNL A   1      45.939  37.799  27.297  1.00  0.00    -0.237 OA
ATOM     90  O   UNL A   1      45.581  35.890  25.778  1.00  0.00    -0.744 OA
ENDBRANCH  83  87
ENDBRANCH  57  80
ENDBRANCH  31  32
ENDBRANCH  24  26
ENDBRANCH  23  24
ENDBRANCH  22  23
ENDBRANCH  21  22
ENDBRANCH   1  21
TORSDOF 20
ENDMDL
