MODEL 1
REMARK VINA RESULT:     -11.3      0.000      0.000
REMARK SMILES CCc1ccnc(C(=O)c2[nH]c3ccc(OC(F)(F)F)cc3c2CC(=O)OCCOCCOC(=O)c2ccc(-c3c4nc(c(-c5cc(S(=O)(=O)[O-])ccc5F)c5ccc([nH]5)c(-c5cc(S(=O)(=O)[O-])ccc5F)c5nc(c(-c6cc(S(=O)(=O)[O-])ccc6F)c6ccc3[nH]6)C=C5)C=C4)cc2)c1
REMARK SMILES IDX 29 1 28 2 27 3 25 4 26 5 24 6 23 7 10 8 11 9 12 10 22 12
REMARK SMILES IDX 13 13 21 14 14 15 15 16 8 17 9 18 7 19 3 20 4 21 99 22 5 23
REMARK SMILES IDX 6 24 2 25 1 26 16 27 17 28 18 29 19 30 20 31 30 32 31 33
REMARK SMILES IDX 32 34 33 35 34 36 35 37 36 38 37 39 98 40 38 41 97 42 39 43
REMARK SMILES IDX 40 44 41 45 91 46 42 47 96 48 90 49 92 50 43 51 95 52 89 53
REMARK SMILES IDX 88 54 44 56 76 57 56 58 75 59 57 60 60 61 74 62 93 63 58 64
REMARK SMILES IDX 59 65 73 67 94 68 61 69 45 70 46 71 54 72 47 73 53 74 55 75
REMARK SMILES IDX 52 76 48 77 49 78 50 79 51 80 77 81 78 82 86 83 79 84 85 85
REMARK SMILES IDX 87 86 84 87 80 88 81 89 82 90 83 91 62 92 63 93 71 94 64 95
REMARK SMILES IDX 70 96 72 97 69 98 65 99 66 100 67 101 68 102
REMARK H PARENT 11 11 92 55 60 66
REMARK Flexibility Score: inf
ROOT
ATOM      1  C   UNL A   1      35.313  23.272  26.193  1.00  0.00     0.202 C 
ENDROOT
BRANCH   1   2
ATOM      2  C   UNL A   1      35.621  23.976  24.866  1.00  0.00     0.261 C 
BRANCH   2   3
ATOM      3  O   UNL A   1      34.973  23.342  23.740  1.00  0.00    -0.463 OA
BRANCH   3   4
ATOM      4  C   UNL A   1      34.255  24.172  22.936  1.00  0.00     0.310 C 
ATOM      5  O   UNL A   1      33.898  23.883  21.794  1.00  0.00    -0.252 OA
BRANCH   4   6
ATOM      6  C   UNL A   1      33.992  25.552  23.498  1.00  0.00     0.161 C 
BRANCH   6   7
ATOM      7  C   UNL A   1      33.003  25.711  24.624  1.00  0.00     0.000 A 
ATOM      8  C   UNL A   1      31.841  24.966  24.854  1.00  0.00     0.093 A 
ATOM      9  N   UNL A   1      31.281  25.463  26.014  1.00  0.00    -0.352 N 
ATOM     10  C   UNL A   1      31.865  26.660  26.358  1.00  0.00     0.046 A 
ATOM     11  H   UNL A   1      30.563  25.023  26.525  1.00  0.00     0.167 HD
ATOM     12  C   UNL A   1      32.965  26.826  25.524  1.00  0.00     0.008 A 
ATOM     13  C   UNL A   1      31.510  27.607  27.329  1.00  0.00     0.030 A 
ATOM     14  C   UNL A   1      33.739  27.998  25.658  1.00  0.00     0.057 A 
ATOM     15  C   UNL A   1      32.268  28.787  27.404  1.00  0.00     0.049 A 
ATOM     16  C   UNL A   1      33.361  28.996  26.566  1.00  0.00     0.130 A 
BRANCH   8  17
ATOM     17  C   UNL A   1      31.323  23.870  24.042  1.00  0.00     0.227 C 
ATOM     18  O   UNL A   1      30.561  24.064  23.095  1.00  0.00    -0.285 OA
BRANCH  17  19
ATOM     19  C   UNL A   1      31.646  22.446  24.358  1.00  0.00     0.113 A 
ATOM     20  C   UNL A   1      32.271  20.228  23.660  1.00  0.00    -0.044 A 
ATOM     21  C   UNL A   1      32.617  19.972  24.991  1.00  0.00     0.024 A 
ATOM     22  C   UNL A   1      31.756  21.497  23.346  1.00  0.00     0.036 A 
ATOM     23  C   UNL A   1      32.452  20.973  25.936  1.00  0.00     0.112 A 
ATOM     24  N   UNL A   1      31.977  22.200  25.650  1.00  0.00    -0.253 NA
BRANCH  20  25
ATOM     25  C   UNL A   1      32.438  19.218  22.549  1.00  0.00     0.032 C 
ATOM     26  C   UNL A   1      32.792  17.795  22.970  1.00  0.00     0.009 C 
ENDBRANCH  20  25
ENDBRANCH  17  19
ENDBRANCH   8  17
BRANCH  16  27
ATOM     27  O   UNL A   1      34.148  30.112  26.517  1.00  0.00    -0.406 OA
BRANCH  27  28
ATOM     28  C   UNL A   1      34.872  30.460  27.683  1.00  0.00     0.573 C 
ATOM     29  F   UNL A   1      35.219  29.365  28.395  1.00  0.00    -0.132 F 
ATOM     30  F   UNL A   1      35.980  31.166  27.375  1.00  0.00    -0.132 F 
ATOM     31  F   UNL A   1      34.084  31.230  28.468  1.00  0.00    -0.132 F 
ENDBRANCH  27  28
ENDBRANCH  16  27
ENDBRANCH   6   7
ENDBRANCH   4   6
ENDBRANCH   3   4
ENDBRANCH   2   3
ENDBRANCH   1   2
BRANCH   1  32
ATOM     32  O   UNL A   1      35.946  22.009  26.406  1.00  0.00    -0.374 OA
BRANCH  32  33
ATOM     33  C   UNL A   1      36.006  21.130  25.284  1.00  0.00     0.202 C 
BRANCH  33  34
ATOM     34  C   UNL A   1      37.392  20.582  24.924  1.00  0.00     0.261 C 
BRANCH  34  35
ATOM     35  O   UNL A   1      38.431  21.563  25.061  1.00  0.00    -0.460 OA
BRANCH  35  36
ATOM     36  C   UNL A   1      39.382  21.218  25.960  1.00  0.00     0.338 C 
ATOM     37  O   UNL A   1      39.980  20.151  26.025  1.00  0.00    -0.246 OA
BRANCH  36  38
ATOM     38  C   UNL A   1      39.751  22.370  26.801  1.00  0.00     0.060 A 
ATOM     39  C   UNL A   1      39.097  23.576  26.528  1.00  0.00     0.016 A 
ATOM     40  C   UNL A   1      40.769  22.309  27.758  1.00  0.00     0.016 A 
ATOM     41  C   UNL A   1      39.525  24.749  27.136  1.00  0.00     0.010 A 
ATOM     42  C   UNL A   1      41.200  23.493  28.369  1.00  0.00     0.010 A 
ATOM     43  C   UNL A   1      40.619  24.723  28.010  1.00  0.00    -0.014 A 
BRANCH  43  44
ATOM     44  C   UNL A   1      41.272  26.012  28.345  1.00  0.00     0.031 A 
ATOM     45  C   UNL A   1      42.649  26.279  27.795  1.00  0.00     0.074 A 
ATOM     46  C   UNL A   1      40.605  26.962  29.024  1.00  0.00     0.049 A 
ATOM     47  N   UNL A   1      43.385  27.357  27.877  1.00  0.00    -0.248 NA
ATOM     48  C   UNL A   1      43.279  25.176  27.052  1.00  0.00     0.031 C 
ATOM     49  C   UNL A   1      39.250  26.820  29.556  1.00  0.00     0.029 A 
ATOM     50  N   UNL A   1      40.969  28.239  29.364  1.00  0.00    -0.354 N 
ATOM     51  C   UNL A   1      44.561  27.064  27.192  1.00  0.00     0.074 A 
ATOM     52  C   UNL A   1      44.460  25.691  26.749  1.00  0.00     0.031 C 
ATOM     53  C   UNL A   1      38.892  27.972  30.149  1.00  0.00     0.029 A 
ATOM     54  C   UNL A   1      39.999  28.922  30.060  1.00  0.00     0.049 A 
ATOM     55  H   UNL A   1      41.842  28.631  29.132  1.00  0.00     0.167 HD
ATOM     56  C   UNL A   1      45.621  27.872  26.942  1.00  0.00     0.034 A 
ATOM     57  C   UNL A   1      40.012  30.171  30.570  1.00  0.00     0.034 A 
ATOM     58  C   UNL A   1      45.703  29.236  27.406  1.00  0.00     0.049 A 
ATOM     59  C   UNL A   1      41.227  31.035  30.333  1.00  0.00     0.074 A 
ATOM     60  C   UNL A   1      46.725  30.151  27.229  1.00  0.00     0.029 A 
ATOM     61  N   UNL A   1      44.719  29.881  28.148  1.00  0.00    -0.354 N 
ATOM     62  N   UNL A   1      42.332  30.748  29.680  1.00  0.00    -0.248 NA
ATOM     63  C   UNL A   1      41.189  32.396  30.882  1.00  0.00     0.031 C 
ATOM     64  C   UNL A   1      46.390  31.322  27.918  1.00  0.00     0.029 A 
ATOM     65  C   UNL A   1      45.122  31.170  28.457  1.00  0.00     0.049 A 
ATOM     66  H   UNL A   1      43.860  29.480  28.415  1.00  0.00     0.167 HD
ATOM     67  C   UNL A   1      43.103  31.907  29.711  1.00  0.00     0.074 A 
ATOM     68  C   UNL A   1      42.331  32.898  30.434  1.00  0.00     0.031 C 
ATOM     69  C   UNL A   1      44.334  32.138  29.185  1.00  0.00     0.034 A 
BRANCH  56  70
ATOM     70  C   UNL A   1      46.786  27.275  26.189  1.00  0.00     0.023 A 
ATOM     71  C   UNL A   1      47.838  26.611  26.848  1.00  0.00     0.031 A 
ATOM     72  C   UNL A   1      46.872  27.413  24.792  1.00  0.00     0.131 A 
ATOM     73  C   UNL A   1      48.961  26.183  26.122  1.00  0.00     0.055 A 
ATOM     74  C   UNL A   1      47.954  26.911  24.066  1.00  0.00     0.041 A 
ATOM     75  F   UNL A   1      45.915  28.059  24.109  1.00  0.00    -0.206 F 
ATOM     76  C   UNL A   1      49.015  26.306  24.733  1.00  0.00     0.022 A 
BRANCH  73  77
ATOM     77  S   UNL A   1      50.418  25.601  27.035  1.00  0.00     0.124 S 
ATOM     78  O   UNL A   1      49.937  24.335  27.583  1.00  0.00    -0.237 OA
ATOM     79  O   UNL A   1      51.428  25.504  25.988  1.00  0.00    -0.237 OA
ATOM     80  O   UNL A   1      50.645  26.653  28.025  1.00  0.00    -0.744 OA
ENDBRANCH  73  77
ENDBRANCH  56  70
BRANCH  57  81
ATOM     81  C   UNL A   1      38.854  30.675  31.363  1.00  0.00     0.023 A 
ATOM     82  C   UNL A   1      37.879  31.509  30.792  1.00  0.00     0.031 A 
ATOM     83  C   UNL A   1      38.731  30.360  32.729  1.00  0.00     0.131 A 
ATOM     84  C   UNL A   1      36.852  32.035  31.592  1.00  0.00     0.055 A 
ATOM     85  C   UNL A   1      37.678  30.843  33.508  1.00  0.00     0.041 A 
ATOM     86  F   UNL A   1      39.633  29.567  33.327  1.00  0.00    -0.206 F 
ATOM     87  C   UNL A   1      36.737  31.696  32.942  1.00  0.00     0.022 A 
BRANCH  84  88
ATOM     88  S   UNL A   1      35.708  33.240  30.861  1.00  0.00     0.124 S 
ATOM     89  O   UNL A   1      34.425  32.563  31.016  1.00  0.00    -0.237 OA
ATOM     90  O   UNL A   1      35.923  34.410  31.704  1.00  0.00    -0.237 OA
ATOM     91  O   UNL A   1      36.183  33.368  29.485  1.00  0.00    -0.744 OA
ENDBRANCH  84  88
ENDBRANCH  57  81
BRANCH  69  92
ATOM     92  C   UNL A   1      44.889  33.535  29.330  1.00  0.00     0.023 A 
ATOM     93  C   UNL A   1      45.685  33.908  30.426  1.00  0.00     0.031 A 
ATOM     94  C   UNL A   1      44.600  34.511  28.358  1.00  0.00     0.131 A 
ATOM     95  C   UNL A   1      46.115  35.237  30.557  1.00  0.00     0.055 A 
ATOM     96  C   UNL A   1      45.083  35.816  28.462  1.00  0.00     0.041 A 
ATOM     97  F   UNL A   1      43.845  34.209  27.290  1.00  0.00    -0.206 F 
ATOM     98  C   UNL A   1      45.832  36.189  29.574  1.00  0.00     0.022 A 
BRANCH  95  99
ATOM     99  S   UNL A   1      46.959  35.732  32.083  1.00  0.00     0.124 S 
ATOM    100  O   UNL A   1      46.585  34.660  33.000  1.00  0.00    -0.237 OA
ATOM    101  O   UNL A   1      48.359  35.757  31.671  1.00  0.00    -0.237 OA
ATOM    102  O   UNL A   1      46.380  37.039  32.388  1.00  0.00    -0.744 OA
ENDBRANCH  95  99
ENDBRANCH  69  92
ENDBRANCH  43  44
ENDBRANCH  36  38
ENDBRANCH  35  36
ENDBRANCH  34  35
ENDBRANCH  33  34
ENDBRANCH  32  33
ENDBRANCH   1  32
TORSDOF 23
ENDMDL
MODEL 2
REMARK VINA RESULT:     -11.3      1.806      2.078
REMARK SMILES CCc1ccnc(C(=O)c2[nH]c3ccc(OC(F)(F)F)cc3c2CC(=O)OCCOCCOC(=O)c2ccc(-c3c4nc(c(-c5cc(S(=O)(=O)[O-])ccc5F)c5ccc([nH]5)c(-c5cc(S(=O)(=O)[O-])ccc5F)c5nc(c(-c6cc(S(=O)(=O)[O-])ccc6F)c6ccc3[nH]6)C=C5)C=C4)cc2)c1
REMARK SMILES IDX 29 1 28 2 27 3 25 4 26 5 24 6 23 7 10 8 11 9 12 10 22 12
REMARK SMILES IDX 13 13 21 14 14 15 15 16 8 17 9 18 7 19 3 20 4 21 99 22 5 23
REMARK SMILES IDX 6 24 2 25 1 26 16 27 17 28 18 29 19 30 20 31 30 32 31 33
REMARK SMILES IDX 32 34 33 35 34 36 35 37 36 38 37 39 98 40 38 41 97 42 39 43
REMARK SMILES IDX 40 44 41 45 91 46 42 47 96 48 90 49 92 50 43 51 95 52 89 53
REMARK SMILES IDX 88 54 44 56 76 57 56 58 75 59 57 60 60 61 74 62 93 63 58 64
REMARK SMILES IDX 59 65 73 67 94 68 61 69 45 70 46 71 54 72 47 73 53 74 55 75
REMARK SMILES IDX 52 76 48 77 49 78 50 79 51 80 77 81 78 82 86 83 79 84 85 85
REMARK SMILES IDX 87 86 84 87 80 88 81 89 82 90 83 91 62 92 63 93 71 94 64 95
REMARK SMILES IDX 70 96 72 97 69 98 65 99 66 100 67 101 68 102
REMARK H PARENT 11 11 92 55 60 66
REMARK Flexibility Score: inf
ROOT
ATOM      1  C   UNL A   1      35.675  23.086  25.729  1.00  0.00     0.202 C 
ENDROOT
BRANCH   1   2
ATOM      2  C   UNL A   1      35.988  23.501  24.286  1.00  0.00     0.261 C 
BRANCH   2   3
ATOM      3  O   UNL A   1      34.932  23.143  23.365  1.00  0.00    -0.463 OA
BRANCH   3   4
ATOM      4  C   UNL A   1      34.189  24.182  22.897  1.00  0.00     0.310 C 
ATOM      5  O   UNL A   1      33.580  24.163  21.828  1.00  0.00    -0.252 OA
BRANCH   4   6
ATOM      6  C   UNL A   1      34.227  25.438  23.738  1.00  0.00     0.161 C 
BRANCH   6   7
ATOM      7  C   UNL A   1      33.195  25.632  24.820  1.00  0.00     0.000 A 
ATOM      8  C   UNL A   1      32.012  24.910  25.013  1.00  0.00     0.093 A 
ATOM      9  N   UNL A   1      31.414  25.434  26.142  1.00  0.00    -0.352 N 
ATOM     10  C   UNL A   1      32.005  26.626  26.492  1.00  0.00     0.046 A 
ATOM     11  H   UNL A   1      30.668  25.013  26.628  1.00  0.00     0.167 HD
ATOM     12  C   UNL A   1      33.140  26.761  25.702  1.00  0.00     0.008 A 
ATOM     13  C   UNL A   1      31.627  27.593  27.434  1.00  0.00     0.030 A 
ATOM     14  C   UNL A   1      33.929  27.921  25.851  1.00  0.00     0.057 A 
ATOM     15  C   UNL A   1      32.402  28.761  27.523  1.00  0.00     0.049 A 
ATOM     16  C   UNL A   1      33.532  28.938  26.729  1.00  0.00     0.130 A 
BRANCH   8  17
ATOM     17  C   UNL A   1      31.509  23.811  24.195  1.00  0.00     0.227 C 
ATOM     18  O   UNL A   1      30.751  24.000  23.244  1.00  0.00    -0.285 OA
BRANCH  17  19
ATOM     19  C   UNL A   1      31.841  22.390  24.511  1.00  0.00     0.113 A 
ATOM     20  C   UNL A   1      32.376  20.150  23.807  1.00  0.00    -0.044 A 
ATOM     21  C   UNL A   1      32.835  19.915  25.107  1.00  0.00     0.024 A 
ATOM     22  C   UNL A   1      31.851  21.419  23.514  1.00  0.00     0.036 A 
ATOM     23  C   UNL A   1      32.766  20.936  26.043  1.00  0.00     0.112 A 
ATOM     24  N   UNL A   1      32.282  22.164  25.774  1.00  0.00    -0.253 NA
BRANCH  20  25
ATOM     25  C   UNL A   1      32.433  19.116  22.707  1.00  0.00     0.032 C 
ATOM     26  C   UNL A   1      32.717  17.680  23.136  1.00  0.00     0.009 C 
ENDBRANCH  20  25
ENDBRANCH  17  19
ENDBRANCH   8  17
BRANCH  16  27
ATOM     27  O   UNL A   1      34.340  30.040  26.696  1.00  0.00    -0.406 OA
BRANCH  27  28
ATOM     28  C   UNL A   1      35.454  30.067  27.570  1.00  0.00     0.573 C 
ATOM     29  F   UNL A   1      36.447  29.263  27.131  1.00  0.00    -0.132 F 
ATOM     30  F   UNL A   1      35.924  31.322  27.720  1.00  0.00    -0.132 F 
ATOM     31  F   UNL A   1      35.062  29.614  28.783  1.00  0.00    -0.132 F 
ENDBRANCH  27  28
ENDBRANCH  16  27
ENDBRANCH   6   7
ENDBRANCH   4   6
ENDBRANCH   3   4
ENDBRANCH   2   3
ENDBRANCH   1   2
BRANCH   1  32
ATOM     32  O   UNL A   1      36.208  21.832  26.160  1.00  0.00    -0.374 OA
BRANCH  32  33
ATOM     33  C   UNL A   1      36.413  20.847  25.149  1.00  0.00     0.202 C 
BRANCH  33  34
ATOM     34  C   UNL A   1      37.856  20.366  24.952  1.00  0.00     0.261 C 
BRANCH  34  35
ATOM     35  O   UNL A   1      38.821  21.413  25.136  1.00  0.00    -0.460 OA
BRANCH  35  36
ATOM     36  C   UNL A   1      39.736  21.139  26.096  1.00  0.00     0.338 C 
ATOM     37  O   UNL A   1      40.367  20.098  26.234  1.00  0.00    -0.246 OA
BRANCH  36  38
ATOM     38  C   UNL A   1      40.019  22.335  26.907  1.00  0.00     0.060 A 
ATOM     39  C   UNL A   1      39.349  23.509  26.543  1.00  0.00     0.016 A 
ATOM     40  C   UNL A   1      40.977  22.345  27.926  1.00  0.00     0.016 A 
ATOM     41  C   UNL A   1      39.705  24.718  27.125  1.00  0.00     0.010 A 
ATOM     42  C   UNL A   1      41.335  23.566  28.511  1.00  0.00     0.010 A 
ATOM     43  C   UNL A   1      40.742  24.762  28.065  1.00  0.00    -0.014 A 
BRANCH  43  44
ATOM     44  C   UNL A   1      41.336  26.084  28.383  1.00  0.00     0.031 A 
ATOM     45  C   UNL A   1      42.710  26.395  27.849  1.00  0.00     0.074 A 
ATOM     46  C   UNL A   1      40.620  27.018  29.032  1.00  0.00     0.049 A 
ATOM     47  N   UNL A   1      43.400  27.504  27.921  1.00  0.00    -0.248 NA
ATOM     48  C   UNL A   1      43.397  25.305  27.139  1.00  0.00     0.031 C 
ATOM     49  C   UNL A   1      39.263  26.831  29.546  1.00  0.00     0.029 A 
ATOM     50  N   UNL A   1      40.925  28.316  29.351  1.00  0.00    -0.354 N 
ATOM     51  C   UNL A   1      44.598  27.247  27.260  1.00  0.00     0.074 A 
ATOM     52  C   UNL A   1      44.561  25.863  26.844  1.00  0.00     0.031 C 
ATOM     53  C   UNL A   1      38.849  27.979  30.108  1.00  0.00     0.029 A 
ATOM     54  C   UNL A   1      39.917  28.972  30.018  1.00  0.00     0.049 A 
ATOM     55  H   UNL A   1      41.785  28.738  29.125  1.00  0.00     0.167 HD
ATOM     56  C   UNL A   1      45.628  28.093  27.010  1.00  0.00     0.034 A 
ATOM     57  C   UNL A   1      39.870  30.230  30.501  1.00  0.00     0.034 A 
ATOM     58  C   UNL A   1      45.646  29.468  27.447  1.00  0.00     0.049 A 
ATOM     59  C   UNL A   1      41.052  31.139  30.265  1.00  0.00     0.074 A 
ATOM     60  C   UNL A   1      46.633  30.421  27.267  1.00  0.00     0.029 A 
ATOM     61  N   UNL A   1      44.624  30.086  28.160  1.00  0.00    -0.354 N 
ATOM     62  N   UNL A   1      42.179  30.885  29.636  1.00  0.00    -0.248 NA
ATOM     63  C   UNL A   1      40.950  32.508  30.785  1.00  0.00     0.031 C 
ATOM     64  C   UNL A   1      46.239  31.591  27.926  1.00  0.00     0.029 A 
ATOM     65  C   UNL A   1      44.969  31.397  28.449  1.00  0.00     0.049 A 
ATOM     66  H   UNL A   1      43.779  29.656  28.422  1.00  0.00     0.167 HD
ATOM     67  C   UNL A   1      42.901  32.075  29.655  1.00  0.00     0.074 A 
ATOM     68  C   UNL A   1      42.077  33.047  30.345  1.00  0.00     0.031 C 
ATOM     69  C   UNL A   1      44.131  32.347  29.144  1.00  0.00     0.034 A 
BRANCH  56  70
ATOM     70  C   UNL A   1      46.829  27.530  26.288  1.00  0.00     0.023 A 
ATOM     71  C   UNL A   1      47.134  27.886  24.960  1.00  0.00     0.031 A 
ATOM     72  C   UNL A   1      47.656  26.583  26.919  1.00  0.00     0.131 A 
ATOM     73  C   UNL A   1      48.185  27.243  24.286  1.00  0.00     0.055 A 
ATOM     74  C   UNL A   1      48.750  26.009  26.268  1.00  0.00     0.041 A 
ATOM     75  F   UNL A   1      47.401  26.183  28.174  1.00  0.00    -0.206 F 
ATOM     76  C   UNL A   1      49.010  26.326  24.939  1.00  0.00     0.022 A 
BRANCH  73  77
ATOM     77  S   UNL A   1      48.363  27.508  22.500  1.00  0.00     0.124 S 
ATOM     78  O   UNL A   1      48.454  26.136  22.006  1.00  0.00    -0.237 OA
ATOM     79  O   UNL A   1      47.142  28.230  22.164  1.00  0.00    -0.237 OA
ATOM     80  O   UNL A   1      49.598  28.284  22.389  1.00  0.00    -0.744 OA
ENDBRANCH  73  77
ENDBRANCH  56  70
BRANCH  57  81
ATOM     81  C   UNL A   1      38.680  30.701  31.266  1.00  0.00     0.023 A 
ATOM     82  C   UNL A   1      37.748  31.588  30.702  1.00  0.00     0.031 A 
ATOM     83  C   UNL A   1      38.481  30.301  32.599  1.00  0.00     0.131 A 
ATOM     84  C   UNL A   1      36.687  32.079  31.481  1.00  0.00     0.055 A 
ATOM     85  C   UNL A   1      37.396  30.750  33.354  1.00  0.00     0.041 A 
ATOM     86  F   UNL A   1      39.340  29.455  33.190  1.00  0.00    -0.206 F 
ATOM     87  C   UNL A   1      36.498  31.655  32.798  1.00  0.00     0.022 A 
BRANCH  84  88
ATOM     88  S   UNL A   1      35.601  33.348  30.773  1.00  0.00     0.124 S 
ATOM     89  O   UNL A   1      36.224  33.582  29.475  1.00  0.00    -0.237 OA
ATOM     90  O   UNL A   1      34.311  32.666  30.754  1.00  0.00    -0.237 OA
ATOM     91  O   UNL A   1      35.706  34.454  31.723  1.00  0.00    -0.744 OA
ENDBRANCH  84  88
ENDBRANCH  57  81
BRANCH  69  92
ATOM     92  C   UNL A   1      44.625  33.768  29.268  1.00  0.00     0.023 A 
ATOM     93  C   UNL A   1      44.143  34.796  28.439  1.00  0.00     0.031 A 
ATOM     94  C   UNL A   1      45.604  34.092  30.224  1.00  0.00     0.131 A 
ATOM     95  C   UNL A   1      44.687  36.085  28.539  1.00  0.00     0.055 A 
ATOM     96  C   UNL A   1      46.096  35.390  30.362  1.00  0.00     0.041 A 
ATOM     97  F   UNL A   1      46.099  33.149  31.042  1.00  0.00    -0.206 F 
ATOM     98  C   UNL A   1      45.648  36.392  29.506  1.00  0.00     0.022 A 
BRANCH  95  99
ATOM     99  S   UNL A   1      44.197  37.333  27.319  1.00  0.00     0.124 S 
ATOM    100  O   UNL A   1      45.456  37.598  26.632  1.00  0.00    -0.237 OA
ATOM    101  O   UNL A   1      43.183  36.628  26.541  1.00  0.00    -0.237 OA
ATOM    102  O   UNL A   1      43.693  38.435  28.137  1.00  0.00    -0.744 OA
ENDBRANCH  95  99
ENDBRANCH  69  92
ENDBRANCH  43  44
ENDBRANCH  36  38
ENDBRANCH  35  36
ENDBRANCH  34  35
ENDBRANCH  33  34
ENDBRANCH  32  33
ENDBRANCH   1  32
TORSDOF 23
ENDMDL
MODEL 3
REMARK VINA RESULT:     -10.8      3.452      5.484
REMARK SMILES CCc1ccnc(C(=O)c2[nH]c3ccc(OC(F)(F)F)cc3c2CC(=O)OCCOCCOC(=O)c2ccc(-c3c4nc(c(-c5cc(S(=O)(=O)[O-])ccc5F)c5ccc([nH]5)c(-c5cc(S(=O)(=O)[O-])ccc5F)c5nc(c(-c6cc(S(=O)(=O)[O-])ccc6F)c6ccc3[nH]6)C=C5)C=C4)cc2)c1
REMARK SMILES IDX 29 1 28 2 27 3 25 4 26 5 24 6 23 7 10 8 11 9 12 10 22 12
REMARK SMILES IDX 13 13 21 14 14 15 15 16 8 17 9 18 7 19 3 20 4 21 99 22 5 23
REMARK SMILES IDX 6 24 2 25 1 26 16 27 17 28 18 29 19 30 20 31 30 32 31 33
REMARK SMILES IDX 32 34 33 35 34 36 35 37 36 38 37 39 98 40 38 41 97 42 39 43
REMARK SMILES IDX 40 44 41 45 91 46 42 47 96 48 90 49 92 50 43 51 95 52 89 53
REMARK SMILES IDX 88 54 44 56 76 57 56 58 75 59 57 60 60 61 74 62 93 63 58 64
REMARK SMILES IDX 59 65 73 67 94 68 61 69 45 70 46 71 54 72 47 73 53 74 55 75
REMARK SMILES IDX 52 76 48 77 49 78 50 79 51 80 77 81 78 82 86 83 79 84 85 85
REMARK SMILES IDX 87 86 84 87 80 88 81 89 82 90 83 91 62 92 63 93 71 94 64 95
REMARK SMILES IDX 70 96 72 97 69 98 65 99 66 100 67 101 68 102
REMARK H PARENT 11 11 92 55 60 66
REMARK Flexibility Score: inf
ROOT
ATOM      1  C   UNL A   1      39.826  22.076  26.841  1.00  0.00     0.202 C 
ENDROOT
BRANCH   1   2
ATOM      2  C   UNL A   1      38.855  21.957  25.660  1.00  0.00     0.261 C 
BRANCH   2   3
ATOM      3  O   UNL A   1      37.541  21.511  26.066  1.00  0.00    -0.463 OA
BRANCH   3   4
ATOM      4  C   UNL A   1      36.510  22.320  25.699  1.00  0.00     0.310 C 
ATOM      5  O   UNL A   1      36.635  23.297  24.962  1.00  0.00    -0.252 OA
BRANCH   4   6
ATOM      6  C   UNL A   1      35.177  22.005  26.340  1.00  0.00     0.161 C 
BRANCH   6   7
ATOM      7  C   UNL A   1      34.005  21.644  25.463  1.00  0.00     0.000 A 
ATOM      8  C   UNL A   1      32.796  22.333  25.326  1.00  0.00     0.093 A 
ATOM      9  N   UNL A   1      32.051  21.635  24.395  1.00  0.00    -0.352 N 
ATOM     10  C   UNL A   1      32.605  20.397  24.165  1.00  0.00     0.046 A 
ATOM     11  H   UNL A   1      31.237  21.976  23.958  1.00  0.00     0.167 HD
ATOM     12  C   UNL A   1      33.844  20.385  24.796  1.00  0.00     0.008 A 
ATOM     13  C   UNL A   1      32.112  19.291  23.459  1.00  0.00     0.030 A 
ATOM     14  C   UNL A   1      34.621  19.210  24.729  1.00  0.00     0.057 A 
ATOM     15  C   UNL A   1      32.886  18.118  23.452  1.00  0.00     0.049 A 
ATOM     16  C   UNL A   1      34.120  18.065  24.096  1.00  0.00     0.130 A 
BRANCH   8  17
ATOM     17  C   UNL A   1      32.396  23.556  26.015  1.00  0.00     0.227 C 
ATOM     18  O   UNL A   1      31.992  23.546  27.178  1.00  0.00    -0.285 OA
BRANCH  17  19
ATOM     19  C   UNL A   1      32.401  24.878  25.321  1.00  0.00     0.113 A 
ATOM     20  C   UNL A   1      32.175  27.275  25.363  1.00  0.00    -0.044 A 
ATOM     21  C   UNL A   1      32.810  27.297  24.117  1.00  0.00     0.024 A 
ATOM     22  C   UNL A   1      31.953  26.027  25.967  1.00  0.00     0.036 A 
ATOM     23  C   UNL A   1      33.202  26.100  23.537  1.00  0.00     0.112 A 
ATOM     24  N   UNL A   1      33.013  24.896  24.110  1.00  0.00    -0.253 NA
BRANCH  20  25
ATOM     25  C   UNL A   1      31.734  28.523  26.093  1.00  0.00     0.032 C 
ATOM     26  C   UNL A   1      31.688  28.441  27.615  1.00  0.00     0.009 C 
ENDBRANCH  20  25
ENDBRANCH  17  19
ENDBRANCH   8  17
BRANCH  16  27
ATOM     27  O   UNL A   1      34.941  16.978  24.194  1.00  0.00    -0.406 OA
BRANCH  27  28
ATOM     28  C   UNL A   1      34.729  16.086  25.275  1.00  0.00     0.573 C 
ATOM     29  F   UNL A   1      33.837  16.585  26.159  1.00  0.00    -0.132 F 
ATOM     30  F   UNL A   1      34.304  14.884  24.836  1.00  0.00    -0.132 F 
ATOM     31  F   UNL A   1      35.902  15.910  25.926  1.00  0.00    -0.132 F 
ENDBRANCH  27  28
ENDBRANCH  16  27
ENDBRANCH   6   7
ENDBRANCH   4   6
ENDBRANCH   3   4
ENDBRANCH   2   3
ENDBRANCH   1   2
BRANCH   1  32
ATOM     32  O   UNL A   1      40.369  20.854  27.344  1.00  0.00    -0.374 OA
BRANCH  32  33
ATOM     33  C   UNL A   1      40.723  19.868  26.376  1.00  0.00     0.202 C 
BRANCH  33  34
ATOM     34  C   UNL A   1      42.223  19.641  26.153  1.00  0.00     0.261 C 
BRANCH  34  35
ATOM     35  O   UNL A   1      42.784  20.542  25.186  1.00  0.00    -0.460 OA
BRANCH  35  36
ATOM     36  C   UNL A   1      43.854  21.231  25.649  1.00  0.00     0.338 C 
ATOM     37  O   UNL A   1      45.035  20.988  25.431  1.00  0.00    -0.246 OA
BRANCH  36  38
ATOM     38  C   UNL A   1      43.427  22.453  26.352  1.00  0.00     0.060 A 
ATOM     39  C   UNL A   1      43.106  23.554  25.551  1.00  0.00     0.016 A 
ATOM     40  C   UNL A   1      43.433  22.560  27.747  1.00  0.00     0.016 A 
ATOM     41  C   UNL A   1      42.888  24.794  26.134  1.00  0.00     0.010 A 
ATOM     42  C   UNL A   1      43.213  23.813  28.333  1.00  0.00     0.010 A 
ATOM     43  C   UNL A   1      43.003  24.943  27.522  1.00  0.00    -0.014 A 
BRANCH  43  44
ATOM     44  C   UNL A   1      43.130  26.318  28.066  1.00  0.00     0.031 A 
ATOM     45  C   UNL A   1      44.490  26.966  28.055  1.00  0.00     0.074 A 
ATOM     46  C   UNL A   1      42.041  27.006  28.449  1.00  0.00     0.049 A 
ATOM     47  N   UNL A   1      44.837  28.181  28.395  1.00  0.00    -0.248 NA
ATOM     48  C   UNL A   1      45.610  26.127  27.600  1.00  0.00     0.031 C 
ATOM     49  C   UNL A   1      40.674  26.485  28.450  1.00  0.00     0.029 A 
ATOM     50  N   UNL A   1      41.909  28.297  28.892  1.00  0.00    -0.354 N 
ATOM     51  C   UNL A   1      46.211  28.252  28.188  1.00  0.00     0.074 A 
ATOM     52  C   UNL A   1      46.640  26.944  27.746  1.00  0.00     0.031 C 
ATOM     53  C   UNL A   1      39.839  27.453  28.865  1.00  0.00     0.029 A 
ATOM     54  C   UNL A   1      40.613  28.652  29.182  1.00  0.00     0.049 A 
ATOM     55  H   UNL A   1      42.671  28.912  28.992  1.00  0.00     0.167 HD
ATOM     56  C   UNL A   1      47.038  29.318  28.339  1.00  0.00     0.034 A 
ATOM     57  C   UNL A   1      40.114  29.813  29.654  1.00  0.00     0.034 A 
ATOM     58  C   UNL A   1      46.587  30.611  28.793  1.00  0.00     0.049 A 
ATOM     59  C   UNL A   1      41.060  30.969  29.872  1.00  0.00     0.074 A 
ATOM     60  C   UNL A   1      47.325  31.763  28.997  1.00  0.00     0.029 A 
ATOM     61  N   UNL A   1      45.271  30.920  29.121  1.00  0.00    -0.354 N 
ATOM     62  N   UNL A   1      42.358  31.025  29.671  1.00  0.00    -0.248 NA
ATOM     63  C   UNL A   1      40.473  32.221  30.362  1.00  0.00     0.031 C 
ATOM     64  C   UNL A   1      46.472  32.746  29.510  1.00  0.00     0.029 A 
ATOM     65  C   UNL A   1      45.183  32.236  29.550  1.00  0.00     0.049 A 
ATOM     66  H   UNL A   1      44.512  30.296  29.058  1.00  0.00     0.167 HD
ATOM     67  C   UNL A   1      42.733  32.332  29.975  1.00  0.00     0.074 A 
ATOM     68  C   UNL A   1      41.523  33.029  30.360  1.00  0.00     0.031 C 
ATOM     69  C   UNL A   1      43.963  32.907  29.934  1.00  0.00     0.034 A 
BRANCH  56  70
ATOM     70  C   UNL A   1      48.507  29.099  28.066  1.00  0.00     0.023 A 
ATOM     71  C   UNL A   1      49.023  29.054  26.757  1.00  0.00     0.031 A 
ATOM     72  C   UNL A   1      49.401  28.884  29.131  1.00  0.00     0.131 A 
ATOM     73  C   UNL A   1      50.371  28.723  26.547  1.00  0.00     0.055 A 
ATOM     74  C   UNL A   1      50.758  28.637  28.916  1.00  0.00     0.041 A 
ATOM     75  F   UNL A   1      48.966  28.889  30.400  1.00  0.00    -0.206 F 
ATOM     76  C   UNL A   1      51.248  28.539  27.617  1.00  0.00     0.022 A 
BRANCH  73  77
ATOM     77  S   UNL A   1      50.930  28.384  24.853  1.00  0.00     0.124 S 
ATOM     78  O   UNL A   1      51.584  29.642  24.501  1.00  0.00    -0.237 OA
ATOM     79  O   UNL A   1      51.808  27.234  25.034  1.00  0.00    -0.237 OA
ATOM     80  O   UNL A   1      49.688  28.113  24.130  1.00  0.00    -0.744 OA
ENDBRANCH  73  77
ENDBRANCH  56  70
BRANCH  57  81
ATOM     81  C   UNL A   1      38.662  29.939  29.967  1.00  0.00     0.023 A 
ATOM     82  C   UNL A   1      37.767  30.544  29.070  1.00  0.00     0.031 A 
ATOM     83  C   UNL A   1      38.153  29.490  31.199  1.00  0.00     0.131 A 
ATOM     84  C   UNL A   1      36.423  30.724  29.435  1.00  0.00     0.055 A 
ATOM     85  C   UNL A   1      36.805  29.624  31.537  1.00  0.00     0.041 A 
ATOM     86  F   UNL A   1      38.963  28.903  32.095  1.00  0.00    -0.206 F 
ATOM     87  C   UNL A   1      35.933  30.256  30.657  1.00  0.00     0.022 A 
BRANCH  84  88
ATOM     88  S   UNL A   1      35.335  31.658  28.323  1.00  0.00     0.124 S 
ATOM     89  O   UNL A   1      34.302  32.125  29.241  1.00  0.00    -0.237 OA
ATOM     90  O   UNL A   1      36.239  32.677  27.801  1.00  0.00    -0.237 OA
ATOM     91  O   UNL A   1      34.900  30.656  27.352  1.00  0.00    -0.744 OA
ENDBRANCH  84  88
ENDBRANCH  57  81
BRANCH  69  92
ATOM     92  C   UNL A   1      44.041  34.379  30.264  1.00  0.00     0.023 A 
ATOM     93  C   UNL A   1      43.846  35.369  29.286  1.00  0.00     0.031 A 
ATOM     94  C   UNL A   1      44.329  34.792  31.577  1.00  0.00     0.131 A 
ATOM     95  C   UNL A   1      44.002  36.723  29.622  1.00  0.00     0.055 A 
ATOM     96  C   UNL A   1      44.422  36.141  31.919  1.00  0.00     0.041 A 
ATOM     97  F   UNL A   1      44.524  33.888  32.550  1.00  0.00    -0.206 F 
ATOM     98  C   UNL A   1      44.273  37.115  30.936  1.00  0.00     0.022 A 
BRANCH  95  99
ATOM     99  S   UNL A   1      43.952  37.960  28.298  1.00  0.00     0.124 S 
ATOM    100  O   UNL A   1      43.150  39.019  28.901  1.00  0.00    -0.237 OA
ATOM    101  O   UNL A   1      45.365  38.265  28.102  1.00  0.00    -0.237 OA
ATOM    102  O   UNL A   1      43.312  37.252  27.191  1.00  0.00    -0.744 OA
ENDBRANCH  95  99
ENDBRANCH  69  92
ENDBRANCH  43  44
ENDBRANCH  36  38
ENDBRANCH  35  36
ENDBRANCH  34  35
ENDBRANCH  33  34
ENDBRANCH  32  33
ENDBRANCH   1  32
TORSDOF 23
ENDMDL
