MODEL 1
REMARK VINA RESULT:     -10.9      0.000      0.000
REMARK SMILES CS(=O)(=O)c1ccc(C2=NN(c3ccc(C(=O)OCCOCCOC(=O)c4ccc(-c5c6nc(c(-c7cc(S(=O)(=O)[O-])ccc7F)c7ccc([nH]7)c(-c7cc(S(=O)(=O)[O-])ccc7F)c7nc(c(-c8cc(S(=O)(=O)[O-])ccc8F)c8ccc5[nH]8)C=C7)C=C6)cc4)cc3)[C@H](c3cccs3)C2)cc1
REMARK SMILES IDX 21 1 20 2 19 3 18 4 16 5 17 6 15 7 12 8 13 9 91 10 14 11
REMARK SMILES IDX 90 12 11 13 9 14 10 15 98 16 92 17 8 18 5 19 6 20 100 21
REMARK SMILES IDX 7 22 99 23 2 24 1 25 3 26 4 27 93 28 94 29 97 30 95 31 96 32
REMARK SMILES IDX 22 33 23 34 24 35 25 36 26 37 27 38 28 39 89 40 29 41 88 42
REMARK SMILES IDX 30 43 31 44 32 45 82 46 33 47 87 48 81 49 83 50 34 51 86 52
REMARK SMILES IDX 80 53 79 54 35 56 67 57 47 58 66 59 48 60 51 61 65 62 84 63
REMARK SMILES IDX 49 64 50 65 64 67 85 68 52 69 36 70 37 71 45 72 38 73 44 74
REMARK SMILES IDX 46 75 43 76 39 77 40 78 41 79 42 80 68 81 69 82 77 83 70 84
REMARK SMILES IDX 76 85 78 86 75 87 71 88 72 89 73 90 74 91 53 92 54 93 62 94
REMARK SMILES IDX 55 95 61 96 63 97 60 98 56 99 57 100 58 101 59 102
REMARK H PARENT 83 55 51 66
REMARK Flexibility Score: inf
ROOT
ATOM      1  O   UNL A   1      33.016  35.074  28.410  1.00  0.00    -0.374 OA
ENDROOT
BRANCH   1   2
ATOM      2  C   UNL A   1      34.129  34.244  28.073  1.00  0.00     0.202 C 
BRANCH   2   3
ATOM      3  C   UNL A   1      34.146  32.860  28.728  1.00  0.00     0.261 C 
BRANCH   3   4
ATOM      4  O   UNL A   1      33.668  31.861  27.813  1.00  0.00    -0.460 OA
BRANCH   4   5
ATOM      5  C   UNL A   1      34.333  30.683  27.831  1.00  0.00     0.338 C 
ATOM      6  O   UNL A   1      35.278  30.387  28.549  1.00  0.00    -0.246 OA
BRANCH   5   7
ATOM      7  C   UNL A   1      33.696  29.714  26.905  1.00  0.00     0.060 A 
ATOM      8  C   UNL A   1      32.438  27.743  25.351  1.00  0.00     0.060 A 
ATOM      9  C   UNL A   1      31.725  28.411  26.348  1.00  0.00     0.029 A 
ATOM     10  C   UNL A   1      33.748  28.153  25.067  1.00  0.00     0.029 A 
ATOM     11  C   UNL A   1      32.353  29.384  27.129  1.00  0.00     0.018 A 
ATOM     12  C   UNL A   1      34.382  29.128  25.838  1.00  0.00     0.018 A 
BRANCH   8  13
ATOM     13  N   UNL A   1      31.938  26.583  24.760  1.00  0.00    -0.257 N 
ATOM     14  C   UNL A   1      32.134  24.600  24.032  1.00  0.00     0.071 C 
ATOM     15  N   UNL A   1      32.450  25.358  25.037  1.00  0.00    -0.176 NA
ATOM     16  C   UNL A   1      31.536  25.303  22.842  1.00  0.00     0.091 C 
ATOM     17  C   UNL A   1      31.299  26.691  23.442  1.00  0.00     0.154 C 
BRANCH  14  18
ATOM     18  C   UNL A   1      32.321  23.138  24.039  1.00  0.00    -0.002 A 
ATOM     19  C   UNL A   1      32.531  20.362  24.158  1.00  0.00     0.067 A 
ATOM     20  C   UNL A   1      32.545  21.109  25.340  1.00  0.00     0.021 A 
ATOM     21  C   UNL A   1      32.424  20.995  22.915  1.00  0.00     0.021 A 
ATOM     22  C   UNL A   1      32.446  22.499  25.277  1.00  0.00     0.011 A 
ATOM     23  C   UNL A   1      32.315  22.390  22.857  1.00  0.00     0.011 A 
BRANCH  19  24
ATOM     24  S   UNL A   1      32.640  18.589  24.274  1.00  0.00     0.175 S 
ATOM     25  C   UNL A   1      34.367  18.205  24.323  1.00  0.00     0.163 C 
ATOM     26  O   UNL A   1      32.097  18.060  23.039  1.00  0.00    -0.224 OA
ATOM     27  O   UNL A   1      32.092  18.209  25.562  1.00  0.00    -0.224 OA
ENDBRANCH  19  24
ENDBRANCH  14  18
BRANCH  17  28
ATOM     28  C   UNL A   1      29.864  27.178  23.489  1.00  0.00     0.030 A 
ATOM     29  C   UNL A   1      28.780  26.472  23.985  1.00  0.00     0.017 A 
ATOM     30  S   UNL A   1      29.357  28.665  22.802  1.00  0.00    -0.147 S 
ATOM     31  C   UNL A   1      27.540  27.135  23.769  1.00  0.00     0.012 A 
ATOM     32  C   UNL A   1      27.715  28.354  23.157  1.00  0.00     0.065 A 
ENDBRANCH  17  28
ENDBRANCH   8  13
ENDBRANCH   5   7
ENDBRANCH   4   5
ENDBRANCH   3   4
ENDBRANCH   2   3
ENDBRANCH   1   2
BRANCH   1  33
ATOM     33  C   UNL A   1      33.312  36.368  28.940  1.00  0.00     0.202 C 
BRANCH  33  34
ATOM     34  C   UNL A   1      32.572  36.766  30.222  1.00  0.00     0.261 C 
BRANCH  34  35
ATOM     35  O   UNL A   1      33.383  36.582  31.395  1.00  0.00    -0.460 OA
BRANCH  35  36
ATOM     36  C   UNL A   1      33.112  35.457  32.099  1.00  0.00     0.338 C 
ATOM     37  O   UNL A   1      32.009  35.061  32.452  1.00  0.00    -0.246 OA
BRANCH  36  38
ATOM     38  C   UNL A   1      34.332  34.639  32.239  1.00  0.00     0.060 A 
ATOM     39  C   UNL A   1      34.260  33.515  33.072  1.00  0.00     0.016 A 
ATOM     40  C   UNL A   1      35.537  34.988  31.624  1.00  0.00     0.016 A 
ATOM     41  C   UNL A   1      35.404  32.765  33.335  1.00  0.00     0.010 A 
ATOM     42  C   UNL A   1      36.688  34.237  31.896  1.00  0.00     0.010 A 
ATOM     43  C   UNL A   1      36.633  33.142  32.778  1.00  0.00    -0.014 A 
BRANCH  43  44
ATOM     44  C   UNL A   1      37.877  32.477  33.240  1.00  0.00     0.031 A 
ATOM     45  C   UNL A   1      38.474  31.381  32.398  1.00  0.00     0.074 A 
ATOM     46  C   UNL A   1      38.488  32.869  34.372  1.00  0.00     0.049 A 
ATOM     47  N   UNL A   1      39.538  30.653  32.612  1.00  0.00    -0.248 NA
ATOM     48  C   UNL A   1      37.770  31.066  31.144  1.00  0.00     0.031 C 
ATOM     49  C   UNL A   1      38.029  33.946  35.247  1.00  0.00     0.029 A 
ATOM     50  N   UNL A   1      39.627  32.404  34.981  1.00  0.00    -0.354 N 
ATOM     51  C   UNL A   1      39.635  29.792  31.524  1.00  0.00     0.074 A 
ATOM     52  C   UNL A   1      38.495  30.064  30.673  1.00  0.00     0.031 C 
ATOM     53  C   UNL A   1      38.875  34.055  36.285  1.00  0.00     0.029 A 
ATOM     54  C   UNL A   1      39.915  33.033  36.170  1.00  0.00     0.049 A 
ATOM     55  H   UNL A   1      40.185  31.687  34.603  1.00  0.00     0.167 HD
ATOM     56  C   UNL A   1      40.591  28.869  31.253  1.00  0.00     0.034 A 
ATOM     57  C   UNL A   1      40.889  32.796  37.070  1.00  0.00     0.034 A 
ATOM     58  C   UNL A   1      41.715  28.601  32.119  1.00  0.00     0.049 A 
ATOM     59  C   UNL A   1      41.893  31.702  36.792  1.00  0.00     0.074 A 
ATOM     60  C   UNL A   1      42.750  27.699  31.934  1.00  0.00     0.029 A 
ATOM     61  N   UNL A   1      41.946  29.222  33.340  1.00  0.00    -0.354 N 
ATOM     62  N   UNL A   1      41.980  30.903  35.753  1.00  0.00    -0.248 NA
ATOM     63  C   UNL A   1      42.934  31.484  37.806  1.00  0.00     0.031 C 
ATOM     64  C   UNL A   1      43.561  27.724  33.074  1.00  0.00     0.029 A 
ATOM     65  C   UNL A   1      43.082  28.697  33.936  1.00  0.00     0.049 A 
ATOM     66  H   UNL A   1      41.383  29.931  33.726  1.00  0.00     0.167 HD
ATOM     67  C   UNL A   1      43.104  30.109  35.977  1.00  0.00     0.074 A 
ATOM     68  C   UNL A   1      43.667  30.537  37.241  1.00  0.00     0.031 C 
ATOM     69  C   UNL A   1      43.626  29.121  35.205  1.00  0.00     0.034 A 
BRANCH  56  70
ATOM     70  C   UNL A   1      40.426  28.047  29.997  1.00  0.00     0.023 A 
ATOM     71  C   UNL A   1      41.207  28.280  28.851  1.00  0.00     0.031 A 
ATOM     72  C   UNL A   1      39.451  27.036  29.935  1.00  0.00     0.131 A 
ATOM     73  C   UNL A   1      40.954  27.561  27.673  1.00  0.00     0.055 A 
ATOM     74  C   UNL A   1      39.256  26.271  28.783  1.00  0.00     0.041 A 
ATOM     75  F   UNL A   1      38.659  26.784  30.989  1.00  0.00    -0.206 F 
ATOM     76  C   UNL A   1      39.999  26.541  27.638  1.00  0.00     0.022 A 
BRANCH  73  77
ATOM     77  S   UNL A   1      41.789  28.073  26.146  1.00  0.00     0.124 S 
ATOM     78  O   UNL A   1      43.080  28.531  26.655  1.00  0.00    -0.237 OA
ATOM     79  O   UNL A   1      41.810  26.840  25.370  1.00  0.00    -0.237 OA
ATOM     80  O   UNL A   1      40.925  29.128  25.620  1.00  0.00    -0.744 OA
ENDBRANCH  73  77
ENDBRANCH  56  70
BRANCH  57  81
ATOM     81  C   UNL A   1      40.950  33.574  38.341  1.00  0.00     0.023 A 
ATOM     82  C   UNL A   1      41.907  34.582  38.535  1.00  0.00     0.031 A 
ATOM     83  C   UNL A   1      40.080  33.275  39.407  1.00  0.00     0.131 A 
ATOM     84  C   UNL A   1      42.002  35.225  39.780  1.00  0.00     0.055 A 
ATOM     85  C   UNL A   1      40.145  33.954  40.625  1.00  0.00     0.041 A 
ATOM     86  F   UNL A   1      39.147  32.319  39.276  1.00  0.00    -0.206 F 
ATOM     87  C   UNL A   1      41.120  34.927  40.821  1.00  0.00     0.022 A 
BRANCH  84  88
ATOM     88  S   UNL A   1      43.357  36.401  40.049  1.00  0.00     0.124 S 
ATOM     89  O   UNL A   1      43.845  36.608  38.692  1.00  0.00    -0.237 OA
ATOM     90  O   UNL A   1      42.659  37.528  40.660  1.00  0.00    -0.237 OA
ATOM     91  O   UNL A   1      44.264  35.678  40.937  1.00  0.00    -0.744 OA
ENDBRANCH  84  88
ENDBRANCH  57  81
BRANCH  69  92
ATOM     92  C   UNL A   1      44.897  28.468  35.693  1.00  0.00     0.023 A 
ATOM     93  C   UNL A   1      44.887  27.228  36.356  1.00  0.00     0.031 A 
ATOM     94  C   UNL A   1      46.137  29.104  35.501  1.00  0.00     0.131 A 
ATOM     95  C   UNL A   1      46.084  26.690  36.852  1.00  0.00     0.055 A 
ATOM     96  C   UNL A   1      47.333  28.534  35.942  1.00  0.00     0.041 A 
ATOM     97  F   UNL A   1      46.208  30.290  34.876  1.00  0.00    -0.206 F 
ATOM     98  C   UNL A   1      47.309  27.327  36.634  1.00  0.00     0.022 A 
BRANCH  95  99
ATOM     99  S   UNL A   1      46.011  25.189  37.869  1.00  0.00     0.124 S 
ATOM    100  O   UNL A   1      46.378  24.154  36.908  1.00  0.00    -0.237 OA
ATOM    101  O   UNL A   1      46.993  25.469  38.911  1.00  0.00    -0.237 OA
ATOM    102  O   UNL A   1      44.622  25.149  38.323  1.00  0.00    -0.744 OA
ENDBRANCH  95  99
ENDBRANCH  69  92
ENDBRANCH  43  44
ENDBRANCH  36  38
ENDBRANCH  35  36
ENDBRANCH  34  35
ENDBRANCH  33  34
ENDBRANCH   1  33
TORSDOF 21
ENDMDL
MODEL 2
REMARK VINA RESULT:     -10.9      1.973      7.382
REMARK SMILES CS(=O)(=O)c1ccc(C2=NN(c3ccc(C(=O)OCCOCCOC(=O)c4ccc(-c5c6nc(c(-c7cc(S(=O)(=O)[O-])ccc7F)c7ccc([nH]7)c(-c7cc(S(=O)(=O)[O-])ccc7F)c7nc(c(-c8cc(S(=O)(=O)[O-])ccc8F)c8ccc5[nH]8)C=C7)C=C6)cc4)cc3)[C@H](c3cccs3)C2)cc1
REMARK SMILES IDX 21 1 20 2 19 3 18 4 16 5 17 6 15 7 12 8 13 9 91 10 14 11
REMARK SMILES IDX 90 12 11 13 9 14 10 15 98 16 92 17 8 18 5 19 6 20 100 21
REMARK SMILES IDX 7 22 99 23 2 24 1 25 3 26 4 27 93 28 94 29 97 30 95 31 96 32
REMARK SMILES IDX 22 33 23 34 24 35 25 36 26 37 27 38 28 39 89 40 29 41 88 42
REMARK SMILES IDX 30 43 31 44 32 45 82 46 33 47 87 48 81 49 83 50 34 51 86 52
REMARK SMILES IDX 80 53 79 54 35 56 67 57 47 58 66 59 48 60 51 61 65 62 84 63
REMARK SMILES IDX 49 64 50 65 64 67 85 68 52 69 36 70 37 71 45 72 38 73 44 74
REMARK SMILES IDX 46 75 43 76 39 77 40 78 41 79 42 80 68 81 69 82 77 83 70 84
REMARK SMILES IDX 76 85 78 86 75 87 71 88 72 89 73 90 74 91 53 92 54 93 62 94
REMARK SMILES IDX 55 95 61 96 63 97 60 98 56 99 57 100 58 101 59 102
REMARK H PARENT 83 55 51 66
REMARK Flexibility Score: inf
ROOT
ATOM      1  O   UNL A   1      32.631  35.006  28.997  1.00  0.00    -0.374 OA
ENDROOT
BRANCH   1   2
ATOM      2  C   UNL A   1      33.364  34.239  28.040  1.00  0.00     0.202 C 
BRANCH   2   3
ATOM      3  C   UNL A   1      34.153  33.054  28.603  1.00  0.00     0.261 C 
BRANCH   3   4
ATOM      4  O   UNL A   1      33.631  31.814  28.100  1.00  0.00    -0.460 OA
BRANCH   4   5
ATOM      5  C   UNL A   1      34.515  30.792  28.030  1.00  0.00     0.338 C 
ATOM      6  O   UNL A   1      35.546  30.669  28.676  1.00  0.00    -0.246 OA
BRANCH   5   7
ATOM      7  C   UNL A   1      34.018  29.740  27.108  1.00  0.00     0.060 A 
ATOM      8  C   UNL A   1      32.963  27.651  25.557  1.00  0.00     0.060 A 
ATOM      9  C   UNL A   1      32.109  28.523  26.234  1.00  0.00     0.029 A 
ATOM     10  C   UNL A   1      34.341  27.907  25.574  1.00  0.00     0.029 A 
ATOM     11  C   UNL A   1      32.632  29.556  27.014  1.00  0.00     0.018 A 
ATOM     12  C   UNL A   1      34.874  28.940  26.347  1.00  0.00     0.018 A 
BRANCH   8  13
ATOM     13  N   UNL A   1      32.494  26.454  25.017  1.00  0.00    -0.257 N 
ATOM     14  C   UNL A   1      32.729  24.433  24.414  1.00  0.00     0.071 C 
ATOM     15  N   UNL A   1      33.002  25.251  25.384  1.00  0.00    -0.176 NA
ATOM     16  C   UNL A   1      32.172  25.061  23.164  1.00  0.00     0.091 C 
ATOM     17  C   UNL A   1      31.904  26.479  23.672  1.00  0.00     0.154 C 
BRANCH  14  18
ATOM     18  C   UNL A   1      32.926  22.976  24.513  1.00  0.00    -0.002 A 
ATOM     19  C   UNL A   1      33.187  20.202  24.558  1.00  0.00     0.067 A 
ATOM     20  C   UNL A   1      31.917  20.780  24.653  1.00  0.00     0.021 A 
ATOM     21  C   UNL A   1      34.329  21.004  24.451  1.00  0.00     0.021 A 
ATOM     22  C   UNL A   1      31.790  22.169  24.637  1.00  0.00     0.011 A 
ATOM     23  C   UNL A   1      34.196  22.397  24.424  1.00  0.00     0.011 A 
BRANCH  19  24
ATOM     24  S   UNL A   1      33.313  18.427  24.562  1.00  0.00     0.175 S 
ATOM     25  C   UNL A   1      32.725  17.888  22.982  1.00  0.00     0.163 C 
ATOM     26  O   UNL A   1      32.390  17.950  25.572  1.00  0.00    -0.224 OA
ATOM     27  O   UNL A   1      34.725  18.096  24.616  1.00  0.00    -0.224 OA
ENDBRANCH  19  24
ENDBRANCH  14  18
BRANCH  17  28
ATOM     28  C   UNL A   1      30.465  26.956  23.637  1.00  0.00     0.030 A 
ATOM     29  C   UNL A   1      29.371  26.281  24.155  1.00  0.00     0.017 A 
ATOM     30  S   UNL A   1      29.970  28.379  22.819  1.00  0.00    -0.147 S 
ATOM     31  C   UNL A   1      28.134  26.915  23.849  1.00  0.00     0.012 A 
ATOM     32  C   UNL A   1      28.319  28.082  23.148  1.00  0.00     0.065 A 
ENDBRANCH  17  28
ENDBRANCH   8  13
ENDBRANCH   5   7
ENDBRANCH   4   5
ENDBRANCH   3   4
ENDBRANCH   2   3
ENDBRANCH   1   2
BRANCH   1  33
ATOM     33  C   UNL A   1      33.176  36.277  29.360  1.00  0.00     0.202 C 
BRANCH  33  34
ATOM     34  C   UNL A   1      32.775  36.824  30.735  1.00  0.00     0.261 C 
BRANCH  34  35
ATOM     35  O   UNL A   1      33.684  36.407  31.769  1.00  0.00    -0.460 OA
BRANCH  35  36
ATOM     36  C   UNL A   1      33.421  35.187  32.294  1.00  0.00     0.338 C 
ATOM     37  O   UNL A   1      32.325  34.748  32.614  1.00  0.00    -0.246 OA
BRANCH  36  38
ATOM     38  C   UNL A   1      34.636  34.349  32.267  1.00  0.00     0.060 A 
ATOM     39  C   UNL A   1      34.565  33.094  32.885  1.00  0.00     0.016 A 
ATOM     40  C   UNL A   1      35.835  34.795  31.706  1.00  0.00     0.016 A 
ATOM     41  C   UNL A   1      35.706  32.302  32.991  1.00  0.00     0.010 A 
ATOM     42  C   UNL A   1      36.983  34.000  31.820  1.00  0.00     0.010 A 
ATOM     43  C   UNL A   1      36.931  32.765  32.492  1.00  0.00    -0.014 A 
BRANCH  43  44
ATOM     44  C   UNL A   1      38.174  32.018  32.807  1.00  0.00     0.031 A 
ATOM     45  C   UNL A   1      38.914  32.337  34.078  1.00  0.00     0.074 A 
ATOM     46  C   UNL A   1      38.617  31.044  31.993  1.00  0.00     0.049 A 
ATOM     47  N   UNL A   1      40.025  31.828  34.546  1.00  0.00    -0.248 NA
ATOM     48  C   UNL A   1      38.319  33.373  34.937  1.00  0.00     0.031 C 
ATOM     49  C   UNL A   1      37.962  30.616  30.758  1.00  0.00     0.029 A 
ATOM     50  N   UNL A   1      39.724  30.237  32.083  1.00  0.00    -0.354 N 
ATOM     51  C   UNL A   1      40.264  32.480  35.750  1.00  0.00     0.074 A 
ATOM     52  C   UNL A   1      39.203  33.450  35.920  1.00  0.00     0.031 C 
ATOM     53  C   UNL A   1      38.684  29.629  30.201  1.00  0.00     0.029 A 
ATOM     54  C   UNL A   1      39.870  29.379  31.018  1.00  0.00     0.049 A 
ATOM     55  H   UNL A   1      40.354  30.270  32.838  1.00  0.00     0.167 HD
ATOM     56  C   UNL A   1      41.269  32.280  36.639  1.00  0.00     0.034 A 
ATOM     57  C   UNL A   1      40.859  28.511  30.725  1.00  0.00     0.034 A 
ATOM     58  C   UNL A   1      42.328  31.316  36.450  1.00  0.00     0.049 A 
ATOM     59  C   UNL A   1      42.016  28.367  31.686  1.00  0.00     0.074 A 
ATOM     60  C   UNL A   1      43.386  31.021  37.293  1.00  0.00     0.029 A 
ATOM     61  N   UNL A   1      42.472  30.501  35.334  1.00  0.00    -0.354 N 
ATOM     62  N   UNL A   1      42.224  28.981  32.828  1.00  0.00    -0.248 NA
ATOM     63  C   UNL A   1      43.067  27.408  31.320  1.00  0.00     0.031 C 
ATOM     64  C   UNL A   1      44.206  30.083  36.655  1.00  0.00     0.029 A 
ATOM     65  C   UNL A   1      43.620  29.732  35.450  1.00  0.00     0.049 A 
ATOM     66  H   UNL A   1      41.850  30.474  34.572  1.00  0.00     0.167 HD
ATOM     67  C   UNL A   1      43.415  28.458  33.330  1.00  0.00     0.074 A 
ATOM     68  C   UNL A   1      43.868  27.470  32.372  1.00  0.00     0.031 C 
ATOM     69  C   UNL A   1      44.071  28.761  34.480  1.00  0.00     0.034 A 
BRANCH  56  70
ATOM     70  C   UNL A   1      41.295  33.160  37.866  1.00  0.00     0.023 A 
ATOM     71  C   UNL A   1      40.587  32.824  39.034  1.00  0.00     0.031 A 
ATOM     72  C   UNL A   1      42.014  34.368  37.856  1.00  0.00     0.131 A 
ATOM     73  C   UNL A   1      40.558  33.718  40.115  1.00  0.00     0.055 A 
ATOM     74  C   UNL A   1      42.043  35.217  38.964  1.00  0.00     0.041 A 
ATOM     75  F   UNL A   1      42.689  34.752  36.762  1.00  0.00    -0.206 F 
ATOM     76  C   UNL A   1      41.300  34.902  40.097  1.00  0.00     0.022 A 
BRANCH  73  77
ATOM     77  S   UNL A   1      39.421  33.382  41.489  1.00  0.00     0.124 S 
ATOM     78  O   UNL A   1      38.646  34.620  41.541  1.00  0.00    -0.237 OA
ATOM     79  O   UNL A   1      38.706  32.200  41.024  1.00  0.00    -0.237 OA
ATOM     80  O   UNL A   1      40.313  33.166  42.627  1.00  0.00    -0.744 OA
ENDBRANCH  73  77
ENDBRANCH  56  70
BRANCH  57  81
ATOM     81  C   UNL A   1      40.832  27.735  29.452  1.00  0.00     0.023 A 
ATOM     82  C   UNL A   1      41.724  28.017  28.406  1.00  0.00     0.031 A 
ATOM     83  C   UNL A   1      39.868  26.730  29.244  1.00  0.00     0.131 A 
ATOM     84  C   UNL A   1      41.605  27.337  27.183  1.00  0.00     0.055 A 
ATOM     85  C   UNL A   1      39.788  26.020  28.045  1.00  0.00     0.041 A 
ATOM     86  F   UNL A   1      38.989  26.421  30.212  1.00  0.00    -0.206 F 
ATOM     87  C   UNL A   1      40.652  26.332  27.001  1.00  0.00     0.022 A 
BRANCH  84  88
ATOM     88  S   UNL A   1      42.661  27.845  25.799  1.00  0.00     0.124 S 
ATOM     89  O   UNL A   1      42.318  29.255  25.665  1.00  0.00    -0.237 OA
ATOM     90  O   UNL A   1      43.995  27.554  26.316  1.00  0.00    -0.237 OA
ATOM     91  O   UNL A   1      42.220  26.987  24.702  1.00  0.00    -0.744 OA
ENDBRANCH  84  88
ENDBRANCH  57  81
BRANCH  69  92
ATOM     92  C   UNL A   1      45.327  27.980  34.780  1.00  0.00     0.023 A 
ATOM     93  C   UNL A   1      46.596  28.428  34.370  1.00  0.00     0.031 A 
ATOM     94  C   UNL A   1      45.252  26.761  35.479  1.00  0.00     0.131 A 
ATOM     95  C   UNL A   1      47.729  27.637  34.611  1.00  0.00     0.055 A 
ATOM     96  C   UNL A   1      46.391  26.009  35.771  1.00  0.00     0.041 A 
ATOM     97  F   UNL A   1      44.068  26.283  35.894  1.00  0.00    -0.206 F 
ATOM     98  C   UNL A   1      47.637  26.438  35.325  1.00  0.00     0.022 A 
BRANCH  95  99
ATOM     99  S   UNL A   1      49.318  28.149  33.901  1.00  0.00     0.124 S 
ATOM    100  O   UNL A   1      49.358  29.568  34.238  1.00  0.00    -0.237 OA
ATOM    101  O   UNL A   1      50.266  27.298  34.611  1.00  0.00    -0.237 OA
ATOM    102  O   UNL A   1      49.168  27.854  32.476  1.00  0.00    -0.744 OA
ENDBRANCH  95  99
ENDBRANCH  69  92
ENDBRANCH  43  44
ENDBRANCH  36  38
ENDBRANCH  35  36
ENDBRANCH  34  35
ENDBRANCH  33  34
ENDBRANCH   1  33
TORSDOF 21
ENDMDL
MODEL 3
REMARK VINA RESULT:     -10.6      4.997      9.301
REMARK SMILES CS(=O)(=O)c1ccc(C2=NN(c3ccc(C(=O)OCCOCCOC(=O)c4ccc(-c5c6nc(c(-c7cc(S(=O)(=O)[O-])ccc7F)c7ccc([nH]7)c(-c7cc(S(=O)(=O)[O-])ccc7F)c7nc(c(-c8cc(S(=O)(=O)[O-])ccc8F)c8ccc5[nH]8)C=C7)C=C6)cc4)cc3)[C@H](c3cccs3)C2)cc1
REMARK SMILES IDX 21 1 20 2 19 3 18 4 16 5 17 6 15 7 12 8 13 9 91 10 14 11
REMARK SMILES IDX 90 12 11 13 9 14 10 15 98 16 92 17 8 18 5 19 6 20 100 21
REMARK SMILES IDX 7 22 99 23 2 24 1 25 3 26 4 27 93 28 94 29 97 30 95 31 96 32
REMARK SMILES IDX 22 33 23 34 24 35 25 36 26 37 27 38 28 39 89 40 29 41 88 42
REMARK SMILES IDX 30 43 31 44 32 45 82 46 33 47 87 48 81 49 83 50 34 51 86 52
REMARK SMILES IDX 80 53 79 54 35 56 67 57 47 58 66 59 48 60 51 61 65 62 84 63
REMARK SMILES IDX 49 64 50 65 64 67 85 68 52 69 36 70 37 71 45 72 38 73 44 74
REMARK SMILES IDX 46 75 43 76 39 77 40 78 41 79 42 80 68 81 69 82 77 83 70 84
REMARK SMILES IDX 76 85 78 86 75 87 71 88 72 89 73 90 74 91 53 92 54 93 62 94
REMARK SMILES IDX 55 95 61 96 63 97 60 98 56 99 57 100 58 101 59 102
REMARK H PARENT 83 55 51 66
REMARK Flexibility Score: inf
ROOT
ATOM      1  O   UNL A   1      34.474  31.074  27.462  1.00  0.00    -0.374 OA
ENDROOT
BRANCH   1   2
ATOM      2  C   UNL A   1      33.236  30.376  27.612  1.00  0.00     0.202 C 
BRANCH   2   3
ATOM      3  C   UNL A   1      32.209  30.600  26.498  1.00  0.00     0.261 C 
BRANCH   3   4
ATOM      4  O   UNL A   1      32.648  29.987  25.275  1.00  0.00    -0.460 OA
BRANCH   4   5
ATOM      5  C   UNL A   1      31.815  29.057  24.755  1.00  0.00     0.338 C 
ATOM      6  O   UNL A   1      30.689  29.245  24.316  1.00  0.00    -0.246 OA
BRANCH   5   7
ATOM      7  C   UNL A   1      32.492  27.737  24.685  1.00  0.00     0.060 A 
ATOM      8  C   UNL A   1      33.912  25.316  24.740  1.00  0.00     0.060 A 
ATOM      9  C   UNL A   1      33.195  25.735  25.863  1.00  0.00     0.029 A 
ATOM     10  C   UNL A   1      33.816  26.065  23.559  1.00  0.00     0.029 A 
ATOM     11  C   UNL A   1      32.497  26.944  25.840  1.00  0.00     0.018 A 
ATOM     12  C   UNL A   1      33.117  27.272  23.525  1.00  0.00     0.018 A 
BRANCH   8  13
ATOM     13  N   UNL A   1      34.842  24.281  24.823  1.00  0.00    -0.257 N 
ATOM     14  C   UNL A   1      36.796  23.518  25.142  1.00  0.00     0.071 C 
ATOM     15  N   UNL A   1      35.931  24.355  25.627  1.00  0.00    -0.176 NA
ATOM     16  C   UNL A   1      36.451  22.923  23.802  1.00  0.00     0.091 C 
ATOM     17  C   UNL A   1      35.002  23.392  23.665  1.00  0.00     0.154 C 
BRANCH  14  18
ATOM     18  C   UNL A   1      38.035  23.144  25.846  1.00  0.00    -0.002 A 
ATOM     19  C   UNL A   1      40.449  22.391  27.019  1.00  0.00     0.067 A 
ATOM     20  C   UNL A   1      39.740  21.470  26.240  1.00  0.00     0.021 A 
ATOM     21  C   UNL A   1      39.952  23.683  27.224  1.00  0.00     0.021 A 
ATOM     22  C   UNL A   1      38.528  21.848  25.660  1.00  0.00     0.011 A 
ATOM     23  C   UNL A   1      38.742  24.061  26.631  1.00  0.00     0.011 A 
BRANCH  19  24
ATOM     24  S   UNL A   1      41.999  21.883  27.729  1.00  0.00     0.175 S 
ATOM     25  C   UNL A   1      43.258  22.458  26.624  1.00  0.00     0.163 C 
ATOM     26  O   UNL A   1      42.010  20.434  27.706  1.00  0.00    -0.224 OA
ATOM     27  O   UNL A   1      42.166  22.618  28.968  1.00  0.00    -0.224 OA
ENDBRANCH  19  24
ENDBRANCH  14  18
BRANCH  17  28
ATOM     28  C   UNL A   1      33.942  22.313  23.562  1.00  0.00     0.030 A 
ATOM     29  C   UNL A   1      32.849  22.325  22.709  1.00  0.00     0.017 A 
ATOM     30  S   UNL A   1      33.885  20.952  24.603  1.00  0.00    -0.147 S 
ATOM     31  C   UNL A   1      31.956  21.240  22.938  1.00  0.00     0.012 A 
ATOM     32  C   UNL A   1      32.416  20.402  23.925  1.00  0.00     0.065 A 
ENDBRANCH  17  28
ENDBRANCH   8  13
ENDBRANCH   5   7
ENDBRANCH   4   5
ENDBRANCH   3   4
ENDBRANCH   2   3
ENDBRANCH   1   2
BRANCH   1  33
ATOM     33  C   UNL A   1      35.621  30.496  28.089  1.00  0.00     0.202 C 
BRANCH  33  34
ATOM     34  C   UNL A   1      36.378  31.386  29.082  1.00  0.00     0.261 C 
BRANCH  34  35
ATOM     35  O   UNL A   1      35.712  31.464  30.355  1.00  0.00    -0.460 OA
BRANCH  35  36
ATOM     36  C   UNL A   1      36.295  30.743  31.343  1.00  0.00     0.338 C 
ATOM     37  O   UNL A   1      36.298  29.525  31.457  1.00  0.00    -0.246 OA
BRANCH  36  38
ATOM     38  C   UNL A   1      37.111  31.625  32.201  1.00  0.00     0.060 A 
ATOM     39  C   UNL A   1      38.257  31.070  32.786  1.00  0.00     0.016 A 
ATOM     40  C   UNL A   1      36.740  32.942  32.480  1.00  0.00     0.016 A 
ATOM     41  C   UNL A   1      39.008  31.815  33.693  1.00  0.00     0.010 A 
ATOM     42  C   UNL A   1      37.493  33.686  33.398  1.00  0.00     0.010 A 
ATOM     43  C   UNL A   1      38.611  33.114  34.033  1.00  0.00    -0.014 A 
BRANCH  43  44
ATOM     44  C   UNL A   1      39.283  33.810  35.159  1.00  0.00     0.031 A 
ATOM     45  C   UNL A   1      38.789  33.576  36.561  1.00  0.00     0.074 A 
ATOM     46  C   UNL A   1      40.343  34.609  34.939  1.00  0.00     0.049 A 
ATOM     47  N   UNL A   1      39.210  34.087  37.688  1.00  0.00    -0.248 NA
ATOM     48  C   UNL A   1      37.666  32.636  36.708  1.00  0.00     0.031 C 
ATOM     49  C   UNL A   1      40.938  34.878  33.631  1.00  0.00     0.029 A 
ATOM     50  N   UNL A   1      41.107  35.342  35.813  1.00  0.00    -0.354 N 
ATOM     51  C   UNL A   1      38.406  33.536  38.680  1.00  0.00     0.074 A 
ATOM     52  C   UNL A   1      37.446  32.681  38.013  1.00  0.00     0.031 C 
ATOM     53  C   UNL A   1      41.971  35.722  33.788  1.00  0.00     0.029 A 
ATOM     54  C   UNL A   1      42.090  36.084  35.200  1.00  0.00     0.049 A 
ATOM     55  H   UNL A   1      40.965  35.337  36.787  1.00  0.00     0.167 HD
ATOM     56  C   UNL A   1      38.469  33.715  40.023  1.00  0.00     0.034 A 
ATOM     57  C   UNL A   1      42.966  36.969  35.716  1.00  0.00     0.034 A 
ATOM     58  C   UNL A   1      39.425  34.581  40.672  1.00  0.00     0.049 A 
ATOM     59  C   UNL A   1      42.960  37.221  37.205  1.00  0.00     0.074 A 
ATOM     60  C   UNL A   1      39.588  34.825  42.025  1.00  0.00     0.029 A 
ATOM     61  N   UNL A   1      40.372  35.357  40.015  1.00  0.00    -0.354 N 
ATOM     62  N   UNL A   1      42.202  36.684  38.133  1.00  0.00    -0.248 NA
ATOM     63  C   UNL A   1      43.934  38.196  37.716  1.00  0.00     0.031 C 
ATOM     64  C   UNL A   1      40.580  35.800  42.179  1.00  0.00     0.029 A 
ATOM     65  C   UNL A   1      41.094  36.107  40.930  1.00  0.00     0.049 A 
ATOM     66  H   UNL A   1      40.509  35.372  39.040  1.00  0.00     0.167 HD
ATOM     67  C   UNL A   1      42.631  37.234  39.340  1.00  0.00     0.074 A 
ATOM     68  C   UNL A   1      43.721  38.132  39.021  1.00  0.00     0.031 C 
ATOM     69  C   UNL A   1      42.170  37.012  40.598  1.00  0.00     0.034 A 
BRANCH  56  70
ATOM     70  C   UNL A   1      37.440  33.002  40.867  1.00  0.00     0.023 A 
ATOM     71  C   UNL A   1      36.170  33.555  41.110  1.00  0.00     0.031 A 
ATOM     72  C   UNL A   1      37.745  31.765  41.461  1.00  0.00     0.131 A 
ATOM     73  C   UNL A   1      35.280  32.906  41.981  1.00  0.00     0.055 A 
ATOM     74  C   UNL A   1      36.826  31.088  42.265  1.00  0.00     0.041 A 
ATOM     75  F   UNL A   1      38.950  31.200  41.284  1.00  0.00    -0.206 F 
ATOM     76  C   UNL A   1      35.591  31.664  42.541  1.00  0.00     0.022 A 
BRANCH  73  77
ATOM     77  S   UNL A   1      33.770  33.776  42.485  1.00  0.00     0.124 S 
ATOM     78  O   UNL A   1      33.468  34.562  41.291  1.00  0.00    -0.237 OA
ATOM     79  O   UNL A   1      32.856  32.678  42.774  1.00  0.00    -0.237 OA
ATOM     80  O   UNL A   1      34.195  34.558  43.644  1.00  0.00    -0.744 OA
ENDBRANCH  73  77
ENDBRANCH  56  70
BRANCH  57  81
ATOM     81  C   UNL A   1      43.897  37.718  34.824  1.00  0.00     0.023 A 
ATOM     82  C   UNL A   1      43.501  38.903  34.185  1.00  0.00     0.031 A 
ATOM     83  C   UNL A   1      45.187  37.222  34.554  1.00  0.00     0.131 A 
ATOM     84  C   UNL A   1      44.367  39.528  33.273  1.00  0.00     0.055 A 
ATOM     85  C   UNL A   1      46.063  37.877  33.687  1.00  0.00     0.041 A 
ATOM     86  F   UNL A   1      45.616  36.092  35.138  1.00  0.00    -0.206 F 
ATOM     87  C   UNL A   1      45.649  39.031  33.030  1.00  0.00     0.022 A 
BRANCH  84  88
ATOM     88  S   UNL A   1      43.759  40.960  32.340  1.00  0.00     0.124 S 
ATOM     89  O   UNL A   1      44.165  40.623  30.981  1.00  0.00    -0.237 OA
ATOM     90  O   UNL A   1      42.327  40.912  32.613  1.00  0.00    -0.237 OA
ATOM     91  O   UNL A   1      44.469  42.086  32.943  1.00  0.00    -0.744 OA
ENDBRANCH  84  88
ENDBRANCH  57  81
BRANCH  69  92
ATOM     92  C   UNL A   1      42.878  37.725  41.725  1.00  0.00     0.023 A 
ATOM     93  C   UNL A   1      43.984  37.159  42.383  1.00  0.00     0.031 A 
ATOM     94  C   UNL A   1      42.431  38.988  42.153  1.00  0.00     0.131 A 
ATOM     95  C   UNL A   1      44.570  37.827  43.469  1.00  0.00     0.055 A 
ATOM     96  C   UNL A   1      43.057  39.677  43.194  1.00  0.00     0.041 A 
ATOM     97  F   UNL A   1      41.379  39.578  41.563  1.00  0.00    -0.206 F 
ATOM     98  C   UNL A   1      44.124  39.091  43.868  1.00  0.00     0.022 A 
BRANCH  95  99
ATOM     99  S   UNL A   1      45.867  36.983  44.416  1.00  0.00     0.124 S 
ATOM    100  O   UNL A   1      47.019  37.851  44.193  1.00  0.00    -0.237 OA
ATOM    101  O   UNL A   1      45.319  36.986  45.768  1.00  0.00    -0.237 OA
ATOM    102  O   UNL A   1      45.952  35.667  43.785  1.00  0.00    -0.744 OA
ENDBRANCH  95  99
ENDBRANCH  69  92
ENDBRANCH  43  44
ENDBRANCH  36  38
ENDBRANCH  35  36
ENDBRANCH  34  35
ENDBRANCH  33  34
ENDBRANCH   1  33
TORSDOF 21
ENDMDL
