MODEL 1
REMARK VINA RESULT:     -11.0      0.000      0.000
REMARK SMILES C[C@H](C(=O)OCCOCCOC(=O)c1ccc(-c2c3nc(c(-c4cc(S(=O)(=O)[O-])ccc4F)c4ccc([nH]4)c(-c4cc(S(=O)(=O)[O-])ccc4F)c4nc(c(-c5cc(S(=O)(=O)[O-])ccc5F)c5ccc2[nH]5)C=C4)C=C3)cc1)[C@H](C)[N@@H+]1CC[C@H]([NH+]2CCCCC2)C1
REMARK SMILES IDX 8 1 7 2 6 3 5 4 3 5 4 6 2 7 1 8 77 9 78 10 79 11 80 12 89 13
REMARK SMILES IDX 81 15 82 16 83 17 84 18 88 19 85 21 87 22 86 23 9 24 10 25
REMARK SMILES IDX 11 26 12 27 13 28 14 29 15 30 76 31 16 32 75 33 17 34 18 35
REMARK SMILES IDX 19 36 69 37 20 38 74 39 68 40 70 41 21 42 73 43 67 44 66 45
REMARK SMILES IDX 22 47 54 48 34 49 53 50 35 51 38 52 52 53 71 54 36 55 37 56
REMARK SMILES IDX 51 58 72 59 39 60 23 61 24 62 32 63 25 64 31 65 33 66 30 67
REMARK SMILES IDX 26 68 27 69 28 70 29 71 55 72 56 73 64 74 57 75 63 76 65 77
REMARK SMILES IDX 62 78 58 79 59 80 60 81 61 82 40 83 41 84 49 85 42 86 48 87
REMARK SMILES IDX 50 88 47 89 43 90 44 91 45 92 46 93
REMARK H PARENT 79 14 83 20 70 46 38 57
REMARK Flexibility Score: inf
ROOT
ATOM      1  O   UNL A   1      34.778  22.076  24.386  1.00  0.00    -0.374 OA
ENDROOT
BRANCH   1   2
ATOM      2  C   UNL A   1      33.433  22.347  23.999  1.00  0.00     0.202 C 
BRANCH   2   3
ATOM      3  C   UNL A   1      33.163  22.989  22.643  1.00  0.00     0.261 C 
BRANCH   3   4
ATOM      4  O   UNL A   1      32.690  24.337  22.782  1.00  0.00    -0.463 OA
BRANCH   4   5
ATOM      5  C   UNL A   1      31.530  24.480  23.476  1.00  0.00     0.314 C 
ATOM      6  O   UNL A   1      30.535  23.778  23.345  1.00  0.00    -0.252 OA
BRANCH   5   7
ATOM      7  C   UNL A   1      31.585  25.727  24.325  1.00  0.00     0.154 C 
ATOM      8  C   UNL A   1      30.784  25.291  25.545  1.00  0.00     0.026 C 
BRANCH   7   9
ATOM      9  C   UNL A   1      33.009  26.365  24.492  1.00  0.00     0.195 C 
ATOM     10  C   UNL A   1      33.973  25.655  25.458  1.00  0.00     0.076 C 
BRANCH   9  11
ATOM     11  N   UNL A   1      33.204  27.799  24.712  1.00  0.00    -0.327 N 
ATOM     12  C   UNL A   1      33.106  28.345  26.046  1.00  0.00     0.269 C 
ATOM     13  C   UNL A   1      32.615  28.729  23.764  1.00  0.00     0.328 C 
ATOM     14  H   UNL A   1      34.202  27.736  24.512  1.00  0.00     0.348 HD
ATOM     15  C   UNL A   1      31.929  29.317  26.022  1.00  0.00     0.132 C 
ATOM     16  C   UNL A   1      31.587  29.588  24.534  1.00  0.00     0.245 C 
BRANCH  16  17
ATOM     17  N   UNL A   1      30.168  29.595  24.082  1.00  0.00    -0.328 N 
ATOM     18  C   UNL A   1      29.549  30.914  23.902  1.00  0.00     0.262 C 
ATOM     19  C   UNL A   1      29.852  28.619  23.036  1.00  0.00     0.262 C 
ATOM     20  H   UNL A   1      29.681  29.242  24.906  1.00  0.00     0.348 HD
ATOM     21  C   UNL A   1      28.087  30.894  23.454  1.00  0.00     0.062 C 
ATOM     22  C   UNL A   1      28.365  28.557  22.698  1.00  0.00     0.062 C 
ATOM     23  C   UNL A   1      27.851  29.932  22.303  1.00  0.00     0.012 C 
ENDBRANCH  16  17
ENDBRANCH   9  11
ENDBRANCH   7   9
ENDBRANCH   5   7
ENDBRANCH   4   5
ENDBRANCH   3   4
ENDBRANCH   2   3
ENDBRANCH   1   2
BRANCH   1  24
ATOM     24  C   UNL A   1      35.148  20.741  24.698  1.00  0.00     0.202 C 
BRANCH  24  25
ATOM     25  C   UNL A   1      36.605  20.405  25.064  1.00  0.00     0.261 C 
BRANCH  25  26
ATOM     26  O   UNL A   1      37.448  21.530  25.297  1.00  0.00    -0.460 OA
BRANCH  26  27
ATOM     27  C   UNL A   1      38.652  21.190  25.827  1.00  0.00     0.338 C 
ATOM     28  O   UNL A   1      39.235  20.128  25.717  1.00  0.00    -0.246 OA
BRANCH  27  29
ATOM     29  C   UNL A   1      39.246  22.393  26.428  1.00  0.00     0.060 A 
ATOM     30  C   UNL A   1      38.684  23.631  26.091  1.00  0.00     0.016 A 
ATOM     31  C   UNL A   1      40.345  22.305  27.285  1.00  0.00     0.016 A 
ATOM     32  C   UNL A   1      39.242  24.798  26.592  1.00  0.00     0.010 A 
ATOM     33  C   UNL A   1      40.921  23.481  27.766  1.00  0.00     0.010 A 
ATOM     34  C   UNL A   1      40.390  24.728  27.390  1.00  0.00    -0.014 A 
BRANCH  34  35
ATOM     35  C   UNL A   1      41.152  25.969  27.643  1.00  0.00     0.031 A 
ATOM     36  C   UNL A   1      40.486  27.048  28.447  1.00  0.00     0.074 A 
ATOM     37  C   UNL A   1      42.419  26.092  27.215  1.00  0.00     0.049 A 
ATOM     38  N   UNL A   1      40.941  28.219  28.804  1.00  0.00    -0.248 NA
ATOM     39  C   UNL A   1      39.118  26.765  28.911  1.00  0.00     0.031 C 
ATOM     40  C   UNL A   1      43.163  25.071  26.478  1.00  0.00     0.029 A 
ATOM     41  N   UNL A   1      43.305  27.129  27.343  1.00  0.00    -0.354 N 
ATOM     42  C   UNL A   1      39.917  28.814  29.532  1.00  0.00     0.074 A 
ATOM     43  C   UNL A   1      38.804  27.890  29.533  1.00  0.00     0.031 C 
ATOM     44  C   UNL A   1      44.397  25.536  26.217  1.00  0.00     0.029 A 
ATOM     45  C   UNL A   1      44.515  26.898  26.735  1.00  0.00     0.049 A 
ATOM     46  H   UNL A   1      43.094  27.961  27.826  1.00  0.00     0.167 HD
ATOM     47  C   UNL A   1      39.913  30.021  30.148  1.00  0.00     0.034 A 
ATOM     48  C   UNL A   1      45.583  27.709  26.599  1.00  0.00     0.034 A 
ATOM     49  C   UNL A   1      41.034  30.927  30.114  1.00  0.00     0.049 A 
ATOM     50  C   UNL A   1      45.521  29.085  27.217  1.00  0.00     0.074 A 
ATOM     51  C   UNL A   1      41.155  32.173  30.700  1.00  0.00     0.029 A 
ATOM     52  N   UNL A   1      42.225  30.687  29.438  1.00  0.00    -0.354 N 
ATOM     53  N   UNL A   1      44.552  29.639  27.911  1.00  0.00    -0.248 NA
ATOM     54  C   UNL A   1      46.699  29.943  27.041  1.00  0.00     0.031 C 
ATOM     55  C   UNL A   1      42.386  32.717  30.316  1.00  0.00     0.029 A 
ATOM     56  C   UNL A   1      43.071  31.777  29.561  1.00  0.00     0.049 A 
ATOM     57  H   UNL A   1      42.437  29.862  28.943  1.00  0.00     0.167 HD
ATOM     58  C   UNL A   1      45.018  30.897  28.282  1.00  0.00     0.074 A 
ATOM     59  C   UNL A   1      46.359  31.013  27.745  1.00  0.00     0.031 C 
ATOM     60  C   UNL A   1      44.401  31.870  29.003  1.00  0.00     0.034 A 
BRANCH  47  61
ATOM     61  C   UNL A   1      38.640  30.439  30.844  1.00  0.00     0.023 A 
ATOM     62  C   UNL A   1      37.596  31.088  30.161  1.00  0.00     0.031 A 
ATOM     63  C   UNL A   1      38.491  30.228  32.226  1.00  0.00     0.131 A 
ATOM     64  C   UNL A   1      36.484  31.564  30.872  1.00  0.00     0.055 A 
ATOM     65  C   UNL A   1      37.345  30.634  32.914  1.00  0.00     0.041 A 
ATOM     66  F   UNL A   1      39.466  29.641  32.937  1.00  0.00    -0.206 F 
ATOM     67  C   UNL A   1      36.339  31.319  32.239  1.00  0.00     0.022 A 
BRANCH  64  68
ATOM     68  S   UNL A   1      35.297  32.637  30.015  1.00  0.00     0.124 S 
ATOM     69  O   UNL A   1      36.148  33.753  29.611  1.00  0.00    -0.237 OA
ATOM     70  O   UNL A   1      34.815  31.778  28.940  1.00  0.00    -0.237 OA
ATOM     71  O   UNL A   1      34.314  32.955  31.048  1.00  0.00    -0.744 OA
ENDBRANCH  64  68
ENDBRANCH  47  61
BRANCH  48  72
ATOM     72  C   UNL A   1      46.779  27.266  25.826  1.00  0.00     0.023 A 
ATOM     73  C   UNL A   1      47.005  27.712  24.515  1.00  0.00     0.031 A 
ATOM     74  C   UNL A   1      47.693  26.349  26.375  1.00  0.00     0.131 A 
ATOM     75  C   UNL A   1      48.091  27.208  23.781  1.00  0.00     0.055 A 
ATOM     76  C   UNL A   1      48.800  25.889  25.661  1.00  0.00     0.041 A 
ATOM     77  F   UNL A   1      47.526  25.887  27.625  1.00  0.00    -0.206 F 
ATOM     78  C   UNL A   1      48.997  26.310  24.349  1.00  0.00     0.022 A 
BRANCH  75  79
ATOM     79  S   UNL A   1      48.253  27.676  22.036  1.00  0.00     0.124 S 
ATOM     80  O   UNL A   1      47.001  28.385  21.800  1.00  0.00    -0.237 OA
ATOM     81  O   UNL A   1      49.462  28.495  22.055  1.00  0.00    -0.237 OA
ATOM     82  O   UNL A   1      48.384  26.392  21.350  1.00  0.00    -0.744 OA
ENDBRANCH  75  79
ENDBRANCH  48  72
BRANCH  60  83
ATOM     83  C   UNL A   1      45.199  33.118  29.287  1.00  0.00     0.023 A 
ATOM     84  C   UNL A   1      45.101  34.259  28.472  1.00  0.00     0.031 A 
ATOM     85  C   UNL A   1      46.074  33.162  30.388  1.00  0.00     0.131 A 
ATOM     86  C   UNL A   1      45.910  35.375  28.736  1.00  0.00     0.055 A 
ATOM     87  C   UNL A   1      46.825  34.300  30.683  1.00  0.00     0.041 A 
ATOM     88  F   UNL A   1      46.206  32.100  31.198  1.00  0.00    -0.206 F 
ATOM     89  C   UNL A   1      46.757  35.409  29.846  1.00  0.00     0.022 A 
BRANCH  86  90
ATOM     90  S   UNL A   1      45.912  36.746  27.549  1.00  0.00     0.124 S 
ATOM     91  O   UNL A   1      44.659  36.529  26.832  1.00  0.00    -0.237 OA
ATOM     92  O   UNL A   1      45.952  37.915  28.421  1.00  0.00    -0.237 OA
ATOM     93  O   UNL A   1      47.123  36.518  26.763  1.00  0.00    -0.744 OA
ENDBRANCH  86  90
ENDBRANCH  60  83
ENDBRANCH  34  35
ENDBRANCH  27  29
ENDBRANCH  26  27
ENDBRANCH  25  26
ENDBRANCH  24  25
ENDBRANCH   1  24
TORSDOF 20
ENDMDL
MODEL 2
REMARK VINA RESULT:     -10.9      4.977      8.154
REMARK SMILES C[C@H](C(=O)OCCOCCOC(=O)c1ccc(-c2c3nc(c(-c4cc(S(=O)(=O)[O-])ccc4F)c4ccc([nH]4)c(-c4cc(S(=O)(=O)[O-])ccc4F)c4nc(c(-c5cc(S(=O)(=O)[O-])ccc5F)c5ccc2[nH]5)C=C4)C=C3)cc1)[C@H](C)[N@@H+]1CC[C@H]([NH+]2CCCCC2)C1
REMARK SMILES IDX 8 1 7 2 6 3 5 4 3 5 4 6 2 7 1 8 77 9 78 10 79 11 80 12 89 13
REMARK SMILES IDX 81 15 82 16 83 17 84 18 88 19 85 21 87 22 86 23 9 24 10 25
REMARK SMILES IDX 11 26 12 27 13 28 14 29 15 30 76 31 16 32 75 33 17 34 18 35
REMARK SMILES IDX 19 36 69 37 20 38 74 39 68 40 70 41 21 42 73 43 67 44 66 45
REMARK SMILES IDX 22 47 54 48 34 49 53 50 35 51 38 52 52 53 71 54 36 55 37 56
REMARK SMILES IDX 51 58 72 59 39 60 23 61 24 62 32 63 25 64 31 65 33 66 30 67
REMARK SMILES IDX 26 68 27 69 28 70 29 71 55 72 56 73 64 74 57 75 63 76 65 77
REMARK SMILES IDX 62 78 58 79 59 80 60 81 61 82 40 83 41 84 49 85 42 86 48 87
REMARK SMILES IDX 50 88 47 89 43 90 44 91 45 92 46 93
REMARK H PARENT 79 14 83 20 70 46 38 57
REMARK Flexibility Score: inf
ROOT
ATOM      1  O   UNL A   1      31.987  29.871  25.503  1.00  0.00    -0.374 OA
ENDROOT
BRANCH   1   2
ATOM      2  C   UNL A   1      31.608  28.834  24.601  1.00  0.00     0.202 C 
BRANCH   2   3
ATOM      3  C   UNL A   1      32.468  28.565  23.372  1.00  0.00     0.261 C 
BRANCH   3   4
ATOM      4  O   UNL A   1      32.026  27.396  22.664  1.00  0.00    -0.463 OA
BRANCH   4   5
ATOM      5  C   UNL A   1      32.965  26.427  22.496  1.00  0.00     0.314 C 
ATOM      6  O   UNL A   1      33.753  26.360  21.562  1.00  0.00    -0.252 OA
BRANCH   5   7
ATOM      7  C   UNL A   1      32.795  25.355  23.544  1.00  0.00     0.154 C 
ATOM      8  C   UNL A   1      31.424  24.800  23.182  1.00  0.00     0.026 C 
BRANCH   7   9
ATOM      9  C   UNL A   1      34.022  24.393  23.728  1.00  0.00     0.195 C 
ATOM     10  C   UNL A   1      33.927  23.018  23.045  1.00  0.00     0.076 C 
BRANCH   9  11
ATOM     11  N   UNL A   1      34.640  24.151  25.033  1.00  0.00    -0.327 N 
ATOM     12  C   UNL A   1      36.075  24.014  25.137  1.00  0.00     0.269 C 
ATOM     13  C   UNL A   1      33.997  23.215  25.939  1.00  0.00     0.328 C 
ATOM     14  H   UNL A   1      34.429  25.096  25.354  1.00  0.00     0.348 HD
ATOM     15  C   UNL A   1      36.331  22.596  25.641  1.00  0.00     0.132 C 
ATOM     16  C   UNL A   1      34.982  22.047  26.176  1.00  0.00     0.245 C 
BRANCH  16  17
ATOM     17  N   UNL A   1      34.553  20.661  25.842  1.00  0.00    -0.328 N 
ATOM     18  C   UNL A   1      33.120  20.467  25.591  1.00  0.00     0.262 C 
ATOM     19  C   UNL A   1      35.441  19.949  24.920  1.00  0.00     0.262 C 
ATOM     20  H   UNL A   1      34.680  20.180  26.732  1.00  0.00     0.348 HD
ATOM     21  C   UNL A   1      32.701  19.032  25.266  1.00  0.00     0.062 C 
ATOM     22  C   UNL A   1      35.048  18.488  24.711  1.00  0.00     0.062 C 
ATOM     23  C   UNL A   1      33.608  18.389  24.233  1.00  0.00     0.012 C 
ENDBRANCH  16  17
ENDBRANCH   9  11
ENDBRANCH   7   9
ENDBRANCH   5   7
ENDBRANCH   4   5
ENDBRANCH   3   4
ENDBRANCH   2   3
ENDBRANCH   1   2
BRANCH   1  24
ATOM     24  C   UNL A   1      31.132  30.993  25.661  1.00  0.00     0.202 C 
BRANCH  24  25
ATOM     25  C   UNL A   1      31.586  32.204  26.495  1.00  0.00     0.261 C 
BRANCH  25  26
ATOM     26  O   UNL A   1      32.565  31.923  27.492  1.00  0.00    -0.460 OA
BRANCH  26  27
ATOM     27  C   UNL A   1      33.471  32.923  27.645  1.00  0.00     0.338 C 
ATOM     28  O   UNL A   1      33.258  34.121  27.633  1.00  0.00    -0.246 OA
BRANCH  27  29
ATOM     29  C   UNL A   1      34.762  32.323  28.011  1.00  0.00     0.060 A 
ATOM     30  C   UNL A   1      34.790  30.944  28.250  1.00  0.00     0.016 A 
ATOM     31  C   UNL A   1      35.911  33.105  28.137  1.00  0.00     0.016 A 
ATOM     32  C   UNL A   1      35.973  30.340  28.649  1.00  0.00     0.010 A 
ATOM     33  C   UNL A   1      37.094  32.501  28.564  1.00  0.00     0.010 A 
ATOM     34  C   UNL A   1      37.115  31.124  28.854  1.00  0.00    -0.014 A 
BRANCH  34  35
ATOM     35  C   UNL A   1      38.258  30.533  29.580  1.00  0.00     0.031 A 
ATOM     36  C   UNL A   1      38.473  30.950  31.007  1.00  0.00     0.074 A 
ATOM     37  C   UNL A   1      39.037  29.610  28.993  1.00  0.00     0.049 A 
ATOM     38  N   UNL A   1      39.396  30.576  31.851  1.00  0.00    -0.248 NA
ATOM     39  C   UNL A   1      37.513  31.923  31.553  1.00  0.00     0.031 C 
ATOM     40  C   UNL A   1      38.865  29.103  27.632  1.00  0.00     0.029 A 
ATOM     41  N   UNL A   1      40.126  28.930  29.471  1.00  0.00    -0.354 N 
ATOM     42  C   UNL A   1      39.130  31.268  33.028  1.00  0.00     0.074 A 
ATOM     43  C   UNL A   1      37.984  32.112  32.775  1.00  0.00     0.031 C 
ATOM     44  C   UNL A   1      39.821  28.191  27.383  1.00  0.00     0.029 A 
ATOM     45  C   UNL A   1      40.691  28.078  28.553  1.00  0.00     0.049 A 
ATOM     46  H   UNL A   1      40.471  29.040  30.387  1.00  0.00     0.167 HD
ATOM     47  C   UNL A   1      39.784  31.196  34.213  1.00  0.00     0.034 A 
ATOM     48  C   UNL A   1      41.797  27.315  28.648  1.00  0.00     0.034 A 
ATOM     49  C   UNL A   1      40.937  30.357  34.427  1.00  0.00     0.049 A 
ATOM     50  C   UNL A   1      42.563  27.320  29.949  1.00  0.00     0.074 A 
ATOM     51  C   UNL A   1      41.683  30.194  35.579  1.00  0.00     0.029 A 
ATOM     52  N   UNL A   1      41.520  29.550  33.457  1.00  0.00    -0.354 N 
ATOM     53  N   UNL A   1      42.302  27.972  31.061  1.00  0.00    -0.248 NA
ATOM     54  C   UNL A   1      43.766  26.483  30.013  1.00  0.00     0.031 C 
ATOM     55  C   UNL A   1      42.759  29.349  35.285  1.00  0.00     0.029 A 
ATOM     56  C   UNL A   1      42.638  28.916  33.973  1.00  0.00     0.049 A 
ATOM     57  H   UNL A   1      41.186  29.444  32.536  1.00  0.00     0.167 HD
ATOM     58  C   UNL A   1      43.291  27.595  31.965  1.00  0.00     0.074 A 
ATOM     59  C   UNL A   1      44.144  26.651  31.272  1.00  0.00     0.031 C 
ATOM     60  C   UNL A   1      43.479  27.987  33.253  1.00  0.00     0.034 A 
BRANCH  47  61
ATOM     61  C   UNL A   1      39.302  32.096  35.325  1.00  0.00     0.023 A 
ATOM     62  C   UNL A   1      39.747  33.423  35.457  1.00  0.00     0.031 A 
ATOM     63  C   UNL A   1      38.418  31.599  36.300  1.00  0.00     0.131 A 
ATOM     64  C   UNL A   1      39.364  34.182  36.573  1.00  0.00     0.055 A 
ATOM     65  C   UNL A   1      37.978  32.387  37.365  1.00  0.00     0.041 A 
ATOM     66  F   UNL A   1      37.982  30.330  36.243  1.00  0.00    -0.206 F 
ATOM     67  C   UNL A   1      38.463  33.682  37.515  1.00  0.00     0.022 A 
BRANCH  64  68
ATOM     68  S   UNL A   1      40.175  35.781  36.858  1.00  0.00     0.124 S 
ATOM     69  O   UNL A   1      39.656  36.144  38.174  1.00  0.00    -0.237 OA
ATOM     70  O   UNL A   1      41.589  35.433  36.801  1.00  0.00    -0.237 OA
ATOM     71  O   UNL A   1      39.692  36.612  35.756  1.00  0.00    -0.744 OA
ENDBRANCH  64  68
ENDBRANCH  47  61
BRANCH  48  72
ATOM     72  C   UNL A   1      42.269  26.513  27.482  1.00  0.00     0.023 A 
ATOM     73  C   UNL A   1      41.988  25.142  27.380  1.00  0.00     0.031 A 
ATOM     74  C   UNL A   1      43.053  27.100  26.473  1.00  0.00     0.131 A 
ATOM     75  C   UNL A   1      42.522  24.395  26.318  1.00  0.00     0.055 A 
ATOM     76  C   UNL A   1      43.539  26.365  25.390  1.00  0.00     0.041 A 
ATOM     77  F   UNL A   1      43.354  28.408  26.520  1.00  0.00    -0.206 F 
ATOM     78  C   UNL A   1      43.284  24.999  25.316  1.00  0.00     0.022 A 
BRANCH  75  79
ATOM     79  S   UNL A   1      42.279  22.597  26.310  1.00  0.00     0.124 S 
ATOM     80  O   UNL A   1      43.120  22.188  25.192  1.00  0.00    -0.237 OA
ATOM     81  O   UNL A   1      42.752  22.224  27.640  1.00  0.00    -0.237 OA
ATOM     82  O   UNL A   1      40.841  22.449  26.099  1.00  0.00    -0.744 OA
ENDBRANCH  75  79
ENDBRANCH  48  72
BRANCH  60  83
ATOM     83  C   UNL A   1      44.627  27.353  33.998  1.00  0.00     0.023 A 
ATOM     84  C   UNL A   1      44.453  26.201  34.784  1.00  0.00     0.031 A 
ATOM     85  C   UNL A   1      45.915  27.916  33.922  1.00  0.00     0.131 A 
ATOM     86  C   UNL A   1      45.535  25.683  35.511  1.00  0.00     0.055 A 
ATOM     87  C   UNL A   1      47.001  27.356  34.595  1.00  0.00     0.041 A 
ATOM     88  F   UNL A   1      46.137  29.016  33.186  1.00  0.00    -0.206 F 
ATOM     89  C   UNL A   1      46.811  26.242  35.406  1.00  0.00     0.022 A 
BRANCH  86  90
ATOM     90  S   UNL A   1      45.230  24.325  36.673  1.00  0.00     0.124 S 
ATOM     91  O   UNL A   1      46.476  24.291  37.434  1.00  0.00    -0.237 OA
ATOM     92  O   UNL A   1      44.054  24.793  37.399  1.00  0.00    -0.237 OA
ATOM     93  O   UNL A   1      45.003  23.173  35.804  1.00  0.00    -0.744 OA
ENDBRANCH  86  90
ENDBRANCH  60  83
ENDBRANCH  34  35
ENDBRANCH  27  29
ENDBRANCH  26  27
ENDBRANCH  25  26
ENDBRANCH  24  25
ENDBRANCH   1  24
TORSDOF 20
ENDMDL
MODEL 3
REMARK VINA RESULT:     -10.9      0.974      7.600
REMARK SMILES C[C@H](C(=O)OCCOCCOC(=O)c1ccc(-c2c3nc(c(-c4cc(S(=O)(=O)[O-])ccc4F)c4ccc([nH]4)c(-c4cc(S(=O)(=O)[O-])ccc4F)c4nc(c(-c5cc(S(=O)(=O)[O-])ccc5F)c5ccc2[nH]5)C=C4)C=C3)cc1)[C@H](C)[N@@H+]1CC[C@H]([NH+]2CCCCC2)C1
REMARK SMILES IDX 8 1 7 2 6 3 5 4 3 5 4 6 2 7 1 8 77 9 78 10 79 11 80 12 89 13
REMARK SMILES IDX 81 15 82 16 83 17 84 18 88 19 85 21 87 22 86 23 9 24 10 25
REMARK SMILES IDX 11 26 12 27 13 28 14 29 15 30 76 31 16 32 75 33 17 34 18 35
REMARK SMILES IDX 19 36 69 37 20 38 74 39 68 40 70 41 21 42 73 43 67 44 66 45
REMARK SMILES IDX 22 47 54 48 34 49 53 50 35 51 38 52 52 53 71 54 36 55 37 56
REMARK SMILES IDX 51 58 72 59 39 60 23 61 24 62 32 63 25 64 31 65 33 66 30 67
REMARK SMILES IDX 26 68 27 69 28 70 29 71 55 72 56 73 64 74 57 75 63 76 65 77
REMARK SMILES IDX 62 78 58 79 59 80 60 81 61 82 40 83 41 84 49 85 42 86 48 87
REMARK SMILES IDX 50 88 47 89 43 90 44 91 45 92 46 93
REMARK H PARENT 79 14 83 20 70 46 38 57
REMARK Flexibility Score: inf
ROOT
ATOM      1  O   UNL A   1      35.260  21.427  24.304  1.00  0.00    -0.374 OA
ENDROOT
BRANCH   1   2
ATOM      2  C   UNL A   1      33.837  21.345  24.319  1.00  0.00     0.202 C 
BRANCH   2   3
ATOM      3  C   UNL A   1      33.020  22.409  23.596  1.00  0.00     0.261 C 
BRANCH   3   4
ATOM      4  O   UNL A   1      32.485  23.377  24.511  1.00  0.00    -0.463 OA
BRANCH   4   5
ATOM      5  C   UNL A   1      31.196  23.744  24.283  1.00  0.00     0.314 C 
ATOM      6  O   UNL A   1      30.568  23.525  23.255  1.00  0.00    -0.252 OA
BRANCH   5   7
ATOM      7  C   UNL A   1      30.693  24.600  25.420  1.00  0.00     0.154 C 
ATOM      8  C   UNL A   1      31.621  24.169  26.548  1.00  0.00     0.026 C 
BRANCH   7   9
ATOM      9  C   UNL A   1      30.500  26.121  25.083  1.00  0.00     0.195 C 
ATOM     10  C   UNL A   1      29.236  26.496  24.290  1.00  0.00     0.076 C 
BRANCH   9  11
ATOM     11  N   UNL A   1      31.578  26.945  24.533  1.00  0.00    -0.327 N 
ATOM     12  C   UNL A   1      32.318  27.836  25.398  1.00  0.00     0.269 C 
ATOM     13  C   UNL A   1      31.371  27.583  23.245  1.00  0.00     0.328 C 
ATOM     14  H   UNL A   1      32.180  26.135  24.391  1.00  0.00     0.348 HD
ATOM     15  C   UNL A   1      32.051  29.248  24.883  1.00  0.00     0.132 C 
ATOM     16  C   UNL A   1      31.430  29.112  23.469  1.00  0.00     0.245 C 
BRANCH  16  17
ATOM     17  N   UNL A   1      30.257  29.944  23.083  1.00  0.00    -0.328 N 
ATOM     18  C   UNL A   1      29.173  29.252  22.376  1.00  0.00     0.262 C 
ATOM     19  C   UNL A   1      29.817  30.895  24.105  1.00  0.00     0.262 C 
ATOM     20  H   UNL A   1      30.649  30.533  22.347  1.00  0.00     0.348 HD
ATOM     21  C   UNL A   1      27.987  30.131  21.975  1.00  0.00     0.062 C 
ATOM     22  C   UNL A   1      28.706  31.826  23.625  1.00  0.00     0.062 C 
ATOM     23  C   UNL A   1      27.522  31.021  23.113  1.00  0.00     0.012 C 
ENDBRANCH  16  17
ENDBRANCH   9  11
ENDBRANCH   7   9
ENDBRANCH   5   7
ENDBRANCH   4   5
ENDBRANCH   3   4
ENDBRANCH   2   3
ENDBRANCH   1   2
BRANCH   1  24
ATOM     24  C   UNL A   1      36.014  20.435  24.984  1.00  0.00     0.202 C 
BRANCH  24  25
ATOM     25  C   UNL A   1      37.552  20.482  24.968  1.00  0.00     0.261 C 
BRANCH  25  26
ATOM     26  O   UNL A   1      38.129  21.679  25.485  1.00  0.00    -0.460 OA
BRANCH  26  27
ATOM     27  C   UNL A   1      39.332  21.475  26.082  1.00  0.00     0.338 C 
ATOM     28  O   UNL A   1      40.048  20.497  25.985  1.00  0.00    -0.246 OA
BRANCH  27  29
ATOM     29  C   UNL A   1      39.734  22.723  26.745  1.00  0.00     0.060 A 
ATOM     30  C   UNL A   1      39.030  23.888  26.417  1.00  0.00     0.016 A 
ATOM     31  C   UNL A   1      40.795  22.749  27.653  1.00  0.00     0.016 A 
ATOM     32  C   UNL A   1      39.405  25.100  26.978  1.00  0.00     0.010 A 
ATOM     33  C   UNL A   1      41.189  23.972  28.195  1.00  0.00     0.010 A 
ATOM     34  C   UNL A   1      40.515  25.152  27.830  1.00  0.00    -0.014 A 
BRANCH  34  35
ATOM     35  C   UNL A   1      41.095  26.472  28.156  1.00  0.00     0.031 A 
ATOM     36  C   UNL A   1      42.507  26.744  27.720  1.00  0.00     0.074 A 
ATOM     37  C   UNL A   1      40.355  27.412  28.766  1.00  0.00     0.049 A 
ATOM     38  N   UNL A   1      43.234  27.815  27.883  1.00  0.00    -0.248 NA
ATOM     39  C   UNL A   1      43.188  25.653  27.004  1.00  0.00     0.031 C 
ATOM     40  C   UNL A   1      38.959  27.255  29.171  1.00  0.00     0.029 A 
ATOM     41  N   UNL A   1      40.676  28.687  29.149  1.00  0.00    -0.354 N 
ATOM     42  C   UNL A   1      44.460  27.530  27.291  1.00  0.00     0.074 A 
ATOM     43  C   UNL A   1      44.389  26.171  26.802  1.00  0.00     0.031 C 
ATOM     44  C   UNL A   1      38.543  28.395  29.750  1.00  0.00     0.029 A 
ATOM     45  C   UNL A   1      39.652  29.345  29.788  1.00  0.00     0.049 A 
ATOM     46  H   UNL A   1      41.556  29.095  28.980  1.00  0.00     0.167 HD
ATOM     47  C   UNL A   1      45.542  28.336  27.166  1.00  0.00     0.034 A 
ATOM     48  C   UNL A   1      39.631  30.567  30.355  1.00  0.00     0.034 A 
ATOM     49  C   UNL A   1      45.587  29.681  27.682  1.00  0.00     0.049 A 
ATOM     50  C   UNL A   1      40.880  31.413  30.282  1.00  0.00     0.074 A 
ATOM     51  C   UNL A   1      46.620  30.597  27.615  1.00  0.00     0.029 A 
ATOM     52  N   UNL A   1      44.552  30.297  28.377  1.00  0.00    -0.354 N 
ATOM     53  N   UNL A   1      42.034  31.140  29.715  1.00  0.00    -0.248 NA
ATOM     54  C   UNL A   1      40.821  32.735  30.918  1.00  0.00     0.031 C 
ATOM     55  C   UNL A   1      46.239  31.736  28.335  1.00  0.00     0.029 A 
ATOM     56  C   UNL A   1      44.936  31.567  28.779  1.00  0.00     0.049 A 
ATOM     57  H   UNL A   1      43.674  29.890  28.559  1.00  0.00     0.167 HD
ATOM     58  C   UNL A   1      42.826  32.270  29.897  1.00  0.00     0.074 A 
ATOM     59  C   UNL A   1      42.013  33.230  30.616  1.00  0.00     0.031 C 
ATOM     60  C   UNL A   1      44.107  32.499  29.506  1.00  0.00     0.034 A 
BRANCH  47  61
ATOM     61  C   UNL A   1      46.768  27.752  26.507  1.00  0.00     0.023 A 
ATOM     62  C   UNL A   1      47.089  28.015  25.163  1.00  0.00     0.031 A 
ATOM     63  C   UNL A   1      47.605  26.878  27.223  1.00  0.00     0.131 A 
ATOM     64  C   UNL A   1      48.171  27.356  24.559  1.00  0.00     0.055 A 
ATOM     65  C   UNL A   1      48.727  26.287  26.639  1.00  0.00     0.041 A 
ATOM     66  F   UNL A   1      47.333  26.566  28.500  1.00  0.00    -0.206 F 
ATOM     67  C   UNL A   1      49.007  26.514  25.295  1.00  0.00     0.022 A 
BRANCH  64  68
ATOM     68  S   UNL A   1      48.385  27.499  22.763  1.00  0.00     0.124 S 
ATOM     69  O   UNL A   1      49.678  28.173  22.673  1.00  0.00    -0.237 OA
ATOM     70  O   UNL A   1      48.357  26.107  22.330  1.00  0.00    -0.237 OA
ATOM     71  O   UNL A   1      47.240  28.306  22.344  1.00  0.00    -0.744 OA
ENDBRANCH  64  68
ENDBRANCH  47  61
BRANCH  48  72
ATOM     72  C   UNL A   1      38.414  31.053  31.067  1.00  0.00     0.023 A 
ATOM     73  C   UNL A   1      37.357  31.659  30.370  1.00  0.00     0.031 A 
ATOM     74  C   UNL A   1      38.312  30.961  32.466  1.00  0.00     0.131 A 
ATOM     75  C   UNL A   1      36.265  32.188  31.077  1.00  0.00     0.055 A 
ATOM     76  C   UNL A   1      37.200  31.441  33.161  1.00  0.00     0.041 A 
ATOM     77  F   UNL A   1      39.294  30.392  33.184  1.00  0.00    -0.206 F 
ATOM     78  C   UNL A   1      36.173  32.072  32.466  1.00  0.00     0.022 A 
BRANCH  75  79
ATOM     79  S   UNL A   1      35.002  33.112  30.161  1.00  0.00     0.124 S 
ATOM     80  O   UNL A   1      34.424  32.072  29.319  1.00  0.00    -0.237 OA
ATOM     81  O   UNL A   1      34.153  33.612  31.238  1.00  0.00    -0.237 OA
ATOM     82  O   UNL A   1      35.773  34.133  29.454  1.00  0.00    -0.744 OA
ENDBRANCH  75  79
ENDBRANCH  48  72
BRANCH  60  83
ATOM     83  C   UNL A   1      44.679  33.862  29.811  1.00  0.00     0.023 A 
ATOM     84  C   UNL A   1      44.354  34.990  29.040  1.00  0.00     0.031 A 
ATOM     85  C   UNL A   1      45.569  34.029  30.888  1.00  0.00     0.131 A 
ATOM     86  C   UNL A   1      44.960  36.224  29.320  1.00  0.00     0.055 A 
ATOM     87  C   UNL A   1      46.116  35.272  31.203  1.00  0.00     0.041 A 
ATOM     88  F   UNL A   1      45.914  32.984  31.657  1.00  0.00    -0.206 F 
ATOM     89  C   UNL A   1      45.824  36.376  30.407  1.00  0.00     0.022 A 
BRANCH  86  90
ATOM     90  S   UNL A   1      44.680  37.608  28.182  1.00  0.00     0.124 S 
ATOM     91  O   UNL A   1      44.082  36.938  27.031  1.00  0.00    -0.237 OA
ATOM     92  O   UNL A   1      43.788  38.470  28.951  1.00  0.00    -0.237 OA
ATOM     93  O   UNL A   1      46.020  38.146  27.959  1.00  0.00    -0.744 OA
ENDBRANCH  86  90
ENDBRANCH  60  83
ENDBRANCH  34  35
ENDBRANCH  27  29
ENDBRANCH  26  27
ENDBRANCH  25  26
ENDBRANCH  24  25
ENDBRANCH   1  24
TORSDOF 20
ENDMDL
