MODEL 1
REMARK VINA RESULT:     -11.4      0.000      0.000
REMARK SMILES CC(=O)NS(=O)(=O)c1cc(-c2ccn(C(F)F)c(=O)c2)ccc1C(=O)OCCOCCOC(=O)c1ccc(-c2c3nc(c(-c4cc(S(=O)(=O)[O-])ccc4F)c4ccc([nH]4)c(-c4cc(S(=O)(=O)[O-])ccc4F)c4nc(c(-c5cc(S(=O)(=O)[O-])ccc5F)c5ccc2[nH]5)C=C4)C=C3)cc1
REMARK SMILES IDX 30 1 29 2 28 3 27 4 26 5 24 6 25 7 23 8 8 9 9 10 10 11 22 12
REMARK SMILES IDX 21 13 5 14 6 15 7 16 4 17 1 18 2 19 3 20 11 22 12 23 20 24
REMARK SMILES IDX 13 25 18 26 14 27 19 28 15 29 16 30 17 31 31 32 32 33 33 34
REMARK SMILES IDX 34 35 35 36 36 37 97 38 37 39 96 40 38 41 39 42 40 43 90 44
REMARK SMILES IDX 41 45 95 46 89 47 91 48 42 49 94 50 88 51 87 52 43 54 75 55
REMARK SMILES IDX 55 56 74 57 56 58 59 59 73 60 92 61 57 62 58 63 72 65 93 66
REMARK SMILES IDX 60 67 44 68 45 69 53 70 46 71 52 72 54 73 51 74 47 75 48 76
REMARK SMILES IDX 49 77 50 78 76 79 77 80 85 81 78 82 84 83 86 84 83 85 79 86
REMARK SMILES IDX 80 87 81 88 82 89 61 90 62 91 70 92 63 93 69 94 71 95 68 96
REMARK SMILES IDX 64 97 65 98 66 99 67 100
REMARK H PARENT 4 21 91 53 59 64
REMARK Flexibility Score: inf
ROOT
ATOM      1  C   UNL A   1      31.231  30.407  25.682  1.00  0.00     0.202 C 
ENDROOT
BRANCH   1   2
ATOM      2  O   UNL A   1      30.987  30.051  24.319  1.00  0.00    -0.374 OA
BRANCH   2   3
ATOM      3  C   UNL A   1      31.239  28.678  23.998  1.00  0.00     0.202 C 
BRANCH   3   4
ATOM      4  C   UNL A   1      32.189  28.531  22.811  1.00  0.00     0.261 C 
BRANCH   4   5
ATOM      5  O   UNL A   1      32.560  27.145  22.682  1.00  0.00    -0.460 OA
BRANCH   5   6
ATOM      6  C   UNL A   1      33.319  26.624  23.654  1.00  0.00     0.339 C 
ATOM      7  O   UNL A   1      33.986  27.261  24.456  1.00  0.00    -0.246 OA
BRANCH   6   8
ATOM      8  C   UNL A   1      33.214  25.134  23.733  1.00  0.00     0.080 A 
ATOM      9  C   UNL A   1      32.159  24.353  24.237  1.00  0.00     0.103 A 
ATOM     10  C   UNL A   1      32.234  22.949  24.162  1.00  0.00     0.032 A 
ATOM     11  C   UNL A   1      33.387  22.308  23.698  1.00  0.00    -0.017 A 
ATOM     12  C   UNL A   1      34.354  24.465  23.233  1.00  0.00     0.018 A 
ATOM     13  C   UNL A   1      34.452  23.074  23.237  1.00  0.00     0.010 A 
BRANCH   9  14
ATOM     14  S   UNL A   1      30.768  25.064  25.090  1.00  0.00     0.264 S 
ATOM     15  O   UNL A   1      29.839  25.515  24.084  1.00  0.00    -0.201 OA
ATOM     16  O   UNL A   1      31.279  25.908  26.147  1.00  0.00    -0.201 OA
BRANCH  14  17
ATOM     17  N   UNL A   1      30.005  23.780  25.845  1.00  0.00    -0.249 N 
ATOM     18  C   UNL A   1      31.796  22.941  27.386  1.00  0.00     0.115 C 
ATOM     19  C   UNL A   1      30.351  23.259  27.107  1.00  0.00     0.230 C 
ATOM     20  O   UNL A   1      29.460  22.885  27.858  1.00  0.00    -0.274 OA
ATOM     21  H   UNL A   1      29.256  23.354  25.369  1.00  0.00     0.183 HD
ENDBRANCH  14  17
ENDBRANCH   9  14
BRANCH  11  22
ATOM     22  C   UNL A   1      33.512  20.848  23.808  1.00  0.00    -0.011 A 
ATOM     23  C   UNL A   1      34.519  20.234  24.652  1.00  0.00     0.027 A 
ATOM     24  C   UNL A   1      32.656  20.070  23.128  1.00  0.00     0.080 A 
ATOM     25  C   UNL A   1      34.593  18.903  24.758  1.00  0.00     0.095 A 
ATOM     26  C   UNL A   1      32.735  18.585  23.227  1.00  0.00     0.255 A 
ATOM     27  N   UNL A   1      33.722  18.086  24.065  1.00  0.00    -0.258 N 
ATOM     28  O   UNL A   1      31.944  17.912  22.576  1.00  0.00    -0.269 OA
BRANCH  27  29
ATOM     29  C   UNL A   1      33.816  16.654  24.182  1.00  0.00     0.451 C 
ATOM     30  F   UNL A   1      32.628  16.110  24.537  1.00  0.00    -0.185 F 
ATOM     31  F   UNL A   1      34.203  16.095  23.008  1.00  0.00    -0.185 F 
ENDBRANCH  27  29
ENDBRANCH  11  22
ENDBRANCH   6   8
ENDBRANCH   5   6
ENDBRANCH   4   5
ENDBRANCH   3   4
ENDBRANCH   2   3
ENDBRANCH   1   2
BRANCH   1  32
ATOM     32  C   UNL A   1      32.702  30.295  26.093  1.00  0.00     0.261 C 
BRANCH  32  33
ATOM     33  O   UNL A   1      32.879  30.677  27.467  1.00  0.00    -0.460 OA
BRANCH  33  34
ATOM     34  C   UNL A   1      33.665  31.763  27.670  1.00  0.00     0.338 C 
ATOM     35  O   UNL A   1      33.317  32.931  27.609  1.00  0.00    -0.246 OA
BRANCH  34  36
ATOM     36  C   UNL A   1      35.006  31.337  28.143  1.00  0.00     0.060 A 
ATOM     37  C   UNL A   1      35.151  30.008  28.565  1.00  0.00     0.016 A 
ATOM     38  C   UNL A   1      36.107  32.202  28.176  1.00  0.00     0.016 A 
ATOM     39  C   UNL A   1      36.374  29.555  29.057  1.00  0.00     0.010 A 
ATOM     40  C   UNL A   1      37.333  31.750  28.675  1.00  0.00     0.010 A 
ATOM     41  C   UNL A   1      37.462  30.433  29.145  1.00  0.00    -0.014 A 
BRANCH  41  42
ATOM     42  C   UNL A   1      38.679  30.011  29.878  1.00  0.00     0.031 A 
ATOM     43  C   UNL A   1      39.580  28.987  29.244  1.00  0.00     0.074 A 
ATOM     44  C   UNL A   1      38.992  30.545  31.071  1.00  0.00     0.049 A 
ATOM     45  N   UNL A   1      40.703  28.481  29.683  1.00  0.00    -0.248 NA
ATOM     46  C   UNL A   1      39.153  28.466  27.936  1.00  0.00     0.031 C 
ATOM     47  C   UNL A   1      38.208  31.560  31.775  1.00  0.00     0.029 A 
ATOM     48  N   UNL A   1      40.055  30.304  31.902  1.00  0.00    -0.354 N 
ATOM     49  C   UNL A   1      41.126  27.593  28.701  1.00  0.00     0.074 A 
ATOM     50  C   UNL A   1      40.117  27.601  27.663  1.00  0.00     0.031 C 
ATOM     51  C   UNL A   1      38.813  31.843  32.943  1.00  0.00     0.029 A 
ATOM     52  C   UNL A   1      40.014  31.020  33.075  1.00  0.00     0.049 A 
ATOM     53  H   UNL A   1      40.781  29.676  31.681  1.00  0.00     0.167 HD
ATOM     54  C   UNL A   1      42.256  26.846  28.662  1.00  0.00     0.034 A 
ATOM     55  C   UNL A   1      40.843  31.000  34.137  1.00  0.00     0.034 A 
ATOM     56  C   UNL A   1      43.240  26.819  29.714  1.00  0.00     0.049 A 
ATOM     57  C   UNL A   1      42.055  30.102  34.109  1.00  0.00     0.074 A 
ATOM     58  C   UNL A   1      44.422  26.103  29.775  1.00  0.00     0.029 A 
ATOM     59  N   UNL A   1      43.144  27.531  30.902  1.00  0.00    -0.354 N 
ATOM     60  N   UNL A   1      42.455  29.283  33.162  1.00  0.00    -0.248 NA
ATOM     61  C   UNL A   1      42.931  30.132  35.288  1.00  0.00     0.031 C 
ATOM     62  C   UNL A   1      45.016  26.341  31.021  1.00  0.00     0.029 A 
ATOM     63  C   UNL A   1      44.231  27.249  31.715  1.00  0.00     0.049 A 
ATOM     64  H   UNL A   1      42.412  28.146  31.133  1.00  0.00     0.167 HD
ATOM     65  C   UNL A   1      43.641  28.721  33.625  1.00  0.00     0.074 A 
ATOM     66  C   UNL A   1      43.893  29.293  34.932  1.00  0.00     0.031 C 
ATOM     67  C   UNL A   1      44.456  27.821  33.019  1.00  0.00     0.034 A 
BRANCH  54  68
ATOM     68  C   UNL A   1      42.445  25.965  27.456  1.00  0.00     0.023 A 
ATOM     69  C   UNL A   1      41.999  24.631  27.445  1.00  0.00     0.031 A 
ATOM     70  C   UNL A   1      43.129  26.446  26.327  1.00  0.00     0.131 A 
ATOM     71  C   UNL A   1      42.301  23.805  26.354  1.00  0.00     0.055 A 
ATOM     72  C   UNL A   1      43.369  25.636  25.216  1.00  0.00     0.041 A 
ATOM     73  F   UNL A   1      43.597  27.703  26.296  1.00  0.00    -0.206 F 
ATOM     74  C   UNL A   1      42.967  24.302  25.231  1.00  0.00     0.022 A 
BRANCH  71  75
ATOM     75  S   UNL A   1      41.926  22.034  26.475  1.00  0.00     0.124 S 
ATOM     76  O   UNL A   1      42.229  21.763  27.879  1.00  0.00    -0.237 OA
ATOM     77  O   UNL A   1      40.517  21.983  26.105  1.00  0.00    -0.237 OA
ATOM     78  O   UNL A   1      42.846  21.422  25.519  1.00  0.00    -0.744 OA
ENDBRANCH  71  75
ENDBRANCH  54  68
BRANCH  55  79
ATOM     79  C   UNL A   1      40.541  31.820  35.341  1.00  0.00     0.023 A 
ATOM     80  C   UNL A   1      39.468  31.506  36.189  1.00  0.00     0.031 A 
ATOM     81  C   UNL A   1      41.302  32.968  35.629  1.00  0.00     0.131 A 
ATOM     82  C   UNL A   1      39.163  32.350  37.268  1.00  0.00     0.055 A 
ATOM     83  C   UNL A   1      41.016  33.784  36.723  1.00  0.00     0.041 A 
ATOM     84  F   UNL A   1      42.338  33.308  34.847  1.00  0.00    -0.206 F 
ATOM     85  C   UNL A   1      39.934  33.482  37.545  1.00  0.00     0.022 A 
BRANCH  82  86
ATOM     86  S   UNL A   1      37.701  31.981  38.276  1.00  0.00     0.124 S 
ATOM     87  O   UNL A   1      38.234  32.096  39.629  1.00  0.00    -0.237 OA
ATOM     88  O   UNL A   1      36.773  33.027  37.860  1.00  0.00    -0.237 OA
ATOM     89  O   UNL A   1      37.336  30.627  37.862  1.00  0.00    -0.744 OA
ENDBRANCH  82  86
ENDBRANCH  55  79
BRANCH  67  90
ATOM     90  C   UNL A   1      45.715  27.439  33.753  1.00  0.00     0.023 A 
ATOM     91  C   UNL A   1      46.917  28.140  33.567  1.00  0.00     0.031 A 
ATOM     92  C   UNL A   1      45.703  26.357  34.650  1.00  0.00     0.131 A 
ATOM     93  C   UNL A   1      48.074  27.727  34.244  1.00  0.00     0.055 A 
ATOM     94  C   UNL A   1      46.847  25.975  35.351  1.00  0.00     0.041 A 
ATOM     95  F   UNL A   1      44.577  25.658  34.861  1.00  0.00    -0.206 F 
ATOM     96  C   UNL A   1      48.044  26.656  35.143  1.00  0.00     0.022 A 
BRANCH  93  97
ATOM     97  S   UNL A   1      49.640  28.577  33.900  1.00  0.00     0.124 S 
ATOM     98  O   UNL A   1      49.473  28.971  32.505  1.00  0.00    -0.237 OA
ATOM     99  O   UNL A   1      49.628  29.663  34.875  1.00  0.00    -0.237 OA
ATOM    100  O   UNL A   1      50.650  27.546  34.137  1.00  0.00    -0.744 OA
ENDBRANCH  93  97
ENDBRANCH  67  90
ENDBRANCH  41  42
ENDBRANCH  34  36
ENDBRANCH  33  34
ENDBRANCH  32  33
ENDBRANCH   1  32
TORSDOF 21
ENDMDL
MODEL 2
REMARK VINA RESULT:     -11.4      1.777      2.630
REMARK SMILES CC(=O)NS(=O)(=O)c1cc(-c2ccn(C(F)F)c(=O)c2)ccc1C(=O)OCCOCCOC(=O)c1ccc(-c2c3nc(c(-c4cc(S(=O)(=O)[O-])ccc4F)c4ccc([nH]4)c(-c4cc(S(=O)(=O)[O-])ccc4F)c4nc(c(-c5cc(S(=O)(=O)[O-])ccc5F)c5ccc2[nH]5)C=C4)C=C3)cc1
REMARK SMILES IDX 30 1 29 2 28 3 27 4 26 5 24 6 25 7 23 8 8 9 9 10 10 11 22 12
REMARK SMILES IDX 21 13 5 14 6 15 7 16 4 17 1 18 2 19 3 20 11 22 12 23 20 24
REMARK SMILES IDX 13 25 18 26 14 27 19 28 15 29 16 30 17 31 31 32 32 33 33 34
REMARK SMILES IDX 34 35 35 36 36 37 97 38 37 39 96 40 38 41 39 42 40 43 90 44
REMARK SMILES IDX 41 45 95 46 89 47 91 48 42 49 94 50 88 51 87 52 43 54 75 55
REMARK SMILES IDX 55 56 74 57 56 58 59 59 73 60 92 61 57 62 58 63 72 65 93 66
REMARK SMILES IDX 60 67 44 68 45 69 53 70 46 71 52 72 54 73 51 74 47 75 48 76
REMARK SMILES IDX 49 77 50 78 76 79 77 80 85 81 78 82 84 83 86 84 83 85 79 86
REMARK SMILES IDX 80 87 81 88 82 89 61 90 62 91 70 92 63 93 69 94 71 95 68 96
REMARK SMILES IDX 64 97 65 98 66 99 67 100
REMARK H PARENT 4 21 91 53 59 64
REMARK Flexibility Score: inf
ROOT
ATOM      1  C   UNL A   1      32.350  29.345  24.420  1.00  0.00     0.202 C 
ENDROOT
BRANCH   1   2
ATOM      2  O   UNL A   1      31.828  28.092  23.972  1.00  0.00    -0.374 OA
BRANCH   2   3
ATOM      3  C   UNL A   1      30.449  28.114  23.587  1.00  0.00     0.202 C 
BRANCH   3   4
ATOM      4  C   UNL A   1      29.631  27.055  24.324  1.00  0.00     0.261 C 
BRANCH   4   5
ATOM      5  O   UNL A   1      30.320  25.793  24.238  1.00  0.00    -0.460 OA
BRANCH   5   6
ATOM      6  C   UNL A   1      30.894  25.334  25.357  1.00  0.00     0.339 C 
ATOM      7  O   UNL A   1      30.918  25.912  26.434  1.00  0.00    -0.246 OA
BRANCH   6   8
ATOM      8  C   UNL A   1      31.458  23.958  25.195  1.00  0.00     0.080 A 
ATOM      9  C   UNL A   1      32.625  23.561  24.519  1.00  0.00     0.103 A 
ATOM     10  C   UNL A   1      33.014  22.207  24.536  1.00  0.00     0.032 A 
ATOM     11  C   UNL A   1      32.204  21.228  25.119  1.00  0.00    -0.017 A 
ATOM     12  C   UNL A   1      30.674  22.955  25.809  1.00  0.00     0.018 A 
ATOM     13  C   UNL A   1      31.026  21.607  25.753  1.00  0.00     0.010 A 
BRANCH   9  14
ATOM     14  S   UNL A   1      33.580  24.685  23.523  1.00  0.00     0.264 S 
ATOM     15  O   UNL A   1      34.524  23.892  22.776  1.00  0.00    -0.201 OA
ATOM     16  O   UNL A   1      33.954  25.808  24.354  1.00  0.00    -0.201 OA
BRANCH  14  17
ATOM     17  N   UNL A   1      32.513  25.284  22.380  1.00  0.00    -0.249 N 
ATOM     18  C   UNL A   1      33.730  27.310  21.541  1.00  0.00     0.115 C 
ATOM     19  C   UNL A   1      32.868  26.101  21.288  1.00  0.00     0.230 C 
ATOM     20  O   UNL A   1      32.304  25.933  20.215  1.00  0.00    -0.274 OA
ATOM     21  H   UNL A   1      31.563  25.047  22.478  1.00  0.00     0.183 HD
ENDBRANCH  14  17
ENDBRANCH   9  14
BRANCH  11  22
ATOM     22  C   UNL A   1      32.538  19.806  24.957  1.00  0.00    -0.011 A 
ATOM     23  C   UNL A   1      32.762  18.944  26.101  1.00  0.00     0.027 A 
ATOM     24  C   UNL A   1      32.612  19.293  23.719  1.00  0.00     0.080 A 
ATOM     25  C   UNL A   1      33.034  17.646  25.928  1.00  0.00     0.095 A 
ATOM     26  C   UNL A   1      32.928  17.852  23.511  1.00  0.00     0.255 A 
ATOM     27  N   UNL A   1      33.116  17.101  24.662  1.00  0.00    -0.258 N 
ATOM     28  O   UNL A   1      33.002  17.428  22.363  1.00  0.00    -0.269 OA
BRANCH  27  29
ATOM     29  C   UNL A   1      33.418  15.704  24.488  1.00  0.00     0.451 C 
ATOM     30  F   UNL A   1      34.602  15.381  25.059  1.00  0.00    -0.185 F 
ATOM     31  F   UNL A   1      32.456  14.926  25.042  1.00  0.00    -0.185 F 
ENDBRANCH  27  29
ENDBRANCH  11  22
ENDBRANCH   6   8
ENDBRANCH   5   6
ENDBRANCH   4   5
ENDBRANCH   3   4
ENDBRANCH   2   3
ENDBRANCH   1   2
BRANCH   1  32
ATOM     32  C   UNL A   1      31.542  29.976  25.558  1.00  0.00     0.261 C 
BRANCH  32  33
ATOM     33  O   UNL A   1      32.306  30.004  26.774  1.00  0.00    -0.460 OA
BRANCH  33  34
ATOM     34  C   UNL A   1      32.891  31.192  27.065  1.00  0.00     0.338 C 
ATOM     35  O   UNL A   1      32.371  32.293  26.988  1.00  0.00    -0.246 OA
BRANCH  34  36
ATOM     36  C   UNL A   1      34.234  30.966  27.656  1.00  0.00     0.060 A 
ATOM     37  C   UNL A   1      34.663  29.639  27.794  1.00  0.00     0.016 A 
ATOM     38  C   UNL A   1      35.067  32.014  28.065  1.00  0.00     0.016 A 
ATOM     39  C   UNL A   1      35.898  29.356  28.377  1.00  0.00     0.010 A 
ATOM     40  C   UNL A   1      36.303  31.731  28.655  1.00  0.00     0.010 A 
ATOM     41  C   UNL A   1      36.709  30.400  28.840  1.00  0.00    -0.014 A 
BRANCH  41  42
ATOM     42  C   UNL A   1      37.903  30.084  29.659  1.00  0.00     0.031 A 
ATOM     43  C   UNL A   1      38.911  29.110  29.114  1.00  0.00     0.074 A 
ATOM     44  C   UNL A   1      38.101  30.670  30.853  1.00  0.00     0.049 A 
ATOM     45  N   UNL A   1      40.035  28.696  29.638  1.00  0.00    -0.248 NA
ATOM     46  C   UNL A   1      38.606  28.527  27.799  1.00  0.00     0.031 C 
ATOM     47  C   UNL A   1      37.206  31.644  31.476  1.00  0.00     0.029 A 
ATOM     48  N   UNL A   1      39.123  30.525  31.756  1.00  0.00    -0.354 N 
ATOM     49  C   UNL A   1      40.581  27.815  28.711  1.00  0.00     0.074 A 
ATOM     50  C   UNL A   1      39.643  27.725  27.612  1.00  0.00     0.031 C 
ATOM     51  C   UNL A   1      37.713  31.999  32.670  1.00  0.00     0.029 A 
ATOM     52  C   UNL A   1      38.957  31.267  32.902  1.00  0.00     0.049 A 
ATOM     53  H   UNL A   1      39.903  29.945  31.599  1.00  0.00     0.167 HD
ATOM     54  C   UNL A   1      41.760  27.149  28.765  1.00  0.00     0.034 A 
ATOM     55  C   UNL A   1      39.716  31.332  34.014  1.00  0.00     0.034 A 
ATOM     56  C   UNL A   1      42.674  27.219  29.877  1.00  0.00     0.049 A 
ATOM     57  C   UNL A   1      40.986  30.522  34.088  1.00  0.00     0.074 A 
ATOM     58  C   UNL A   1      43.896  26.590  30.033  1.00  0.00     0.029 A 
ATOM     59  N   UNL A   1      42.453  27.953  31.034  1.00  0.00    -0.354 N 
ATOM     60  N   UNL A   1      41.501  29.709  33.193  1.00  0.00    -0.248 NA
ATOM     61  C   UNL A   1      41.780  30.644  35.318  1.00  0.00     0.031 C 
ATOM     62  C   UNL A   1      44.391  26.902  31.305  1.00  0.00     0.029 A 
ATOM     63  C   UNL A   1      43.502  27.769  31.921  1.00  0.00     0.049 A 
ATOM     64  H   UNL A   1      41.667  28.520  31.201  1.00  0.00     0.167 HD
ATOM     65  C   UNL A   1      42.691  29.244  33.746  1.00  0.00     0.074 A 
ATOM     66  C   UNL A   1      42.819  29.866  35.048  1.00  0.00     0.031 C 
ATOM     67  C   UNL A   1      43.603  28.389  33.219  1.00  0.00     0.034 A 
BRANCH  54  68
ATOM     68  C   UNL A   1      42.087  26.253  27.600  1.00  0.00     0.023 A 
ATOM     69  C   UNL A   1      41.632  24.923  27.549  1.00  0.00     0.031 A 
ATOM     70  C   UNL A   1      42.907  26.715  26.558  1.00  0.00     0.131 A 
ATOM     71  C   UNL A   1      42.057  24.082  26.511  1.00  0.00     0.055 A 
ATOM     72  C   UNL A   1      43.273  25.891  25.493  1.00  0.00     0.041 A 
ATOM     73  F   UNL A   1      43.388  27.968  26.572  1.00  0.00    -0.206 F 
ATOM     74  C   UNL A   1      42.860  24.561  25.473  1.00  0.00     0.022 A 
BRANCH  71  75
ATOM     75  S   UNL A   1      41.654  22.315  26.604  1.00  0.00     0.124 S 
ATOM     76  O   UNL A   1      42.261  21.808  25.376  1.00  0.00    -0.237 OA
ATOM     77  O   UNL A   1      42.296  21.910  27.849  1.00  0.00    -0.237 OA
ATOM     78  O   UNL A   1      40.193  22.297  26.621  1.00  0.00    -0.744 OA
ENDBRANCH  71  75
ENDBRANCH  54  68
BRANCH  55  79
ATOM     79  C   UNL A   1      39.281  32.160  35.172  1.00  0.00     0.023 A 
ATOM     80  C   UNL A   1      39.721  33.483  35.329  1.00  0.00     0.031 A 
ATOM     81  C   UNL A   1      38.453  31.611  36.167  1.00  0.00     0.131 A 
ATOM     82  C   UNL A   1      39.357  34.205  36.477  1.00  0.00     0.055 A 
ATOM     83  C   UNL A   1      38.067  32.345  37.289  1.00  0.00     0.041 A 
ATOM     84  F   UNL A   1      38.009  30.349  36.059  1.00  0.00    -0.206 F 
ATOM     85  C   UNL A   1      38.527  33.647  37.453  1.00  0.00     0.022 A 
BRANCH  82  86
ATOM     86  S   UNL A   1      40.035  35.871  36.708  1.00  0.00     0.124 S 
ATOM     87  O   UNL A   1      41.437  35.586  36.995  1.00  0.00    -0.237 OA
ATOM     88  O   UNL A   1      39.757  36.494  35.418  1.00  0.00    -0.237 OA
ATOM     89  O   UNL A   1      39.264  36.400  37.832  1.00  0.00    -0.744 OA
ENDBRANCH  82  86
ENDBRANCH  55  79
BRANCH  67  90
ATOM     90  C   UNL A   1      44.836  28.116  34.041  1.00  0.00     0.023 A 
ATOM     91  C   UNL A   1      45.920  29.008  34.061  1.00  0.00     0.031 A 
ATOM     92  C   UNL A   1      44.918  26.945  34.813  1.00  0.00     0.131 A 
ATOM     93  C   UNL A   1      47.063  28.696  34.813  1.00  0.00     0.055 A 
ATOM     94  C   UNL A   1      46.042  26.658  35.590  1.00  0.00     0.041 A 
ATOM     95  F   UNL A   1      43.906  26.063  34.827  1.00  0.00    -0.206 F 
ATOM     96  C   UNL A   1      47.126  27.532  35.586  1.00  0.00     0.022 A 
BRANCH  93  97
ATOM     97  S   UNL A   1      48.494  29.808  34.732  1.00  0.00     0.124 S 
ATOM     98  O   UNL A   1      49.610  28.867  34.713  1.00  0.00    -0.237 OA
ATOM     99  O   UNL A   1      48.255  30.537  33.491  1.00  0.00    -0.237 OA
ATOM    100  O   UNL A   1      48.377  30.608  35.950  1.00  0.00    -0.744 OA
ENDBRANCH  93  97
ENDBRANCH  67  90
ENDBRANCH  41  42
ENDBRANCH  34  36
ENDBRANCH  33  34
ENDBRANCH  32  33
ENDBRANCH   1  32
TORSDOF 21
ENDMDL
MODEL 3
REMARK VINA RESULT:     -11.4      5.377     10.405
REMARK SMILES CC(=O)NS(=O)(=O)c1cc(-c2ccn(C(F)F)c(=O)c2)ccc1C(=O)OCCOCCOC(=O)c1ccc(-c2c3nc(c(-c4cc(S(=O)(=O)[O-])ccc4F)c4ccc([nH]4)c(-c4cc(S(=O)(=O)[O-])ccc4F)c4nc(c(-c5cc(S(=O)(=O)[O-])ccc5F)c5ccc2[nH]5)C=C4)C=C3)cc1
REMARK SMILES IDX 30 1 29 2 28 3 27 4 26 5 24 6 25 7 23 8 8 9 9 10 10 11 22 12
REMARK SMILES IDX 21 13 5 14 6 15 7 16 4 17 1 18 2 19 3 20 11 22 12 23 20 24
REMARK SMILES IDX 13 25 18 26 14 27 19 28 15 29 16 30 17 31 31 32 32 33 33 34
REMARK SMILES IDX 34 35 35 36 36 37 97 38 37 39 96 40 38 41 39 42 40 43 90 44
REMARK SMILES IDX 41 45 95 46 89 47 91 48 42 49 94 50 88 51 87 52 43 54 75 55
REMARK SMILES IDX 55 56 74 57 56 58 59 59 73 60 92 61 57 62 58 63 72 65 93 66
REMARK SMILES IDX 60 67 44 68 45 69 53 70 46 71 52 72 54 73 51 74 47 75 48 76
REMARK SMILES IDX 49 77 50 78 76 79 77 80 85 81 78 82 84 83 86 84 83 85 79 86
REMARK SMILES IDX 80 87 81 88 82 89 61 90 62 91 70 92 63 93 69 94 71 95 68 96
REMARK SMILES IDX 64 97 65 98 66 99 67 100
REMARK H PARENT 4 21 91 53 59 64
REMARK Flexibility Score: inf
ROOT
ATOM      1  C   UNL A   1      38.238  19.588  25.292  1.00  0.00     0.202 C 
ENDROOT
BRANCH   1   2
ATOM      2  O   UNL A   1      37.688  20.569  24.409  1.00  0.00    -0.374 OA
BRANCH   2   3
ATOM      3  C   UNL A   1      37.557  21.881  24.968  1.00  0.00     0.202 C 
BRANCH   3   4
ATOM      4  C   UNL A   1      36.475  22.698  24.265  1.00  0.00     0.261 C 
BRANCH   4   5
ATOM      5  O   UNL A   1      36.045  23.754  25.146  1.00  0.00    -0.460 OA
BRANCH   5   6
ATOM      6  C   UNL A   1      34.867  23.593  25.762  1.00  0.00     0.339 C 
ATOM      7  O   UNL A   1      34.623  22.765  26.627  1.00  0.00    -0.246 OA
BRANCH   6   8
ATOM      8  C   UNL A   1      33.853  24.609  25.342  1.00  0.00     0.080 A 
ATOM      9  C   UNL A   1      32.722  24.435  24.524  1.00  0.00     0.103 A 
ATOM     10  C   UNL A   1      31.853  25.520  24.299  1.00  0.00     0.032 A 
ATOM     11  C   UNL A   1      32.148  26.799  24.781  1.00  0.00    -0.017 A 
ATOM     12  C   UNL A   1      34.111  25.902  25.850  1.00  0.00     0.018 A 
ATOM     13  C   UNL A   1      33.287  26.988  25.556  1.00  0.00     0.010 A 
BRANCH   9  14
ATOM     14  S   UNL A   1      32.403  22.921  23.647  1.00  0.00     0.264 S 
ATOM     15  O   UNL A   1      33.555  22.658  22.822  1.00  0.00    -0.201 OA
ATOM     16  O   UNL A   1      31.049  22.976  23.142  1.00  0.00    -0.201 OA
BRANCH  14  17
ATOM     17  N   UNL A   1      32.418  21.719  24.812  1.00  0.00    -0.249 N 
ATOM     18  C   UNL A   1      32.331  19.637  23.416  1.00  0.00     0.115 C 
ATOM     19  C   UNL A   1      32.856  20.396  24.607  1.00  0.00     0.230 C 
ATOM     20  O   UNL A   1      33.475  19.831  25.500  1.00  0.00    -0.274 OA
ATOM     21  H   UNL A   1      32.095  21.955  25.711  1.00  0.00     0.183 HD
ENDBRANCH  14  17
ENDBRANCH   9  14
BRANCH  11  22
ATOM     22  C   UNL A   1      31.327  27.947  24.373  1.00  0.00    -0.011 A 
ATOM     23  C   UNL A   1      30.360  27.845  23.297  1.00  0.00     0.027 A 
ATOM     24  C   UNL A   1      31.462  29.108  25.033  1.00  0.00     0.080 A 
ATOM     25  C   UNL A   1      29.604  28.897  22.965  1.00  0.00     0.095 A 
ATOM     26  C   UNL A   1      30.634  30.292  24.665  1.00  0.00     0.255 A 
ATOM     27  N   UNL A   1      29.729  30.100  23.631  1.00  0.00    -0.258 N 
ATOM     28  O   UNL A   1      30.801  31.338  25.282  1.00  0.00    -0.269 OA
BRANCH  27  29
ATOM     29  C   UNL A   1      28.914  31.228  23.260  1.00  0.00     0.451 C 
ATOM     30  F   UNL A   1      28.448  31.103  21.995  1.00  0.00    -0.185 F 
ATOM     31  F   UNL A   1      27.850  31.353  24.091  1.00  0.00    -0.185 F 
ENDBRANCH  27  29
ENDBRANCH  11  22
ENDBRANCH   6   8
ENDBRANCH   5   6
ENDBRANCH   4   5
ENDBRANCH   3   4
ENDBRANCH   2   3
ENDBRANCH   1   2
BRANCH   1  32
ATOM     32  C   UNL A   1      39.482  20.068  26.046  1.00  0.00     0.261 C 
BRANCH  32  33
ATOM     33  O   UNL A   1      40.662  19.409  25.557  1.00  0.00    -0.460 OA
BRANCH  33  34
ATOM     34  C   UNL A   1      41.764  19.541  26.335  1.00  0.00     0.338 C 
ATOM     35  O   UNL A   1      42.560  18.661  26.619  1.00  0.00    -0.246 OA
BRANCH  34  36
ATOM     36  C   UNL A   1      41.973  20.969  26.681  1.00  0.00     0.060 A 
ATOM     37  C   UNL A   1      42.010  21.890  25.625  1.00  0.00     0.016 A 
ATOM     38  C   UNL A   1      42.125  21.413  28.000  1.00  0.00     0.016 A 
ATOM     39  C   UNL A   1      42.242  23.242  25.879  1.00  0.00     0.010 A 
ATOM     40  C   UNL A   1      42.363  22.768  28.254  1.00  0.00     0.010 A 
ATOM     41  C   UNL A   1      42.452  23.682  27.193  1.00  0.00    -0.014 A 
BRANCH  41  42
ATOM     42  C   UNL A   1      42.923  25.068  27.428  1.00  0.00     0.031 A 
ATOM     43  C   UNL A   1      41.980  26.048  28.070  1.00  0.00     0.074 A 
ATOM     44  C   UNL A   1      44.173  25.441  27.102  1.00  0.00     0.049 A 
ATOM     45  N   UNL A   1      42.174  27.300  28.390  1.00  0.00    -0.248 NA
ATOM     46  C   UNL A   1      40.637  25.541  28.392  1.00  0.00     0.031 C 
ATOM     47  C   UNL A   1      45.183  24.575  26.494  1.00  0.00     0.029 A 
ATOM     48  N   UNL A   1      44.802  26.652  27.236  1.00  0.00    -0.354 N 
ATOM     49  C   UNL A   1      40.984  27.730  28.967  1.00  0.00     0.074 A 
ATOM     50  C   UNL A   1      40.062  26.614  28.913  1.00  0.00     0.031 C 
ATOM     51  C   UNL A   1      46.305  25.291  26.294  1.00  0.00     0.029 A 
ATOM     52  C   UNL A   1      46.086  26.664  26.743  1.00  0.00     0.049 A 
ATOM     53  H   UNL A   1      44.376  27.439  27.645  1.00  0.00     0.167 HD
ATOM     54  C   UNL A   1      40.688  28.940  29.501  1.00  0.00     0.034 A 
ATOM     55  C   UNL A   1      46.974  27.674  26.653  1.00  0.00     0.034 A 
ATOM     56  C   UNL A   1      41.599  30.056  29.522  1.00  0.00     0.049 A 
ATOM     57  C   UNL A   1      46.597  29.036  27.182  1.00  0.00     0.074 A 
ATOM     58  C   UNL A   1      41.404  31.323  30.041  1.00  0.00     0.029 A 
ATOM     59  N   UNL A   1      42.877  30.040  28.980  1.00  0.00    -0.354 N 
ATOM     60  N   UNL A   1      45.475  29.422  27.745  1.00  0.00    -0.248 NA
ATOM     61  C   UNL A   1      47.610  30.094  27.069  1.00  0.00     0.031 C 
ATOM     62  C   UNL A   1      42.544  32.089  29.768  1.00  0.00     0.029 A 
ATOM     63  C   UNL A   1      43.471  31.283  29.127  1.00  0.00     0.049 A 
ATOM     64  H   UNL A   1      43.300  29.260  28.555  1.00  0.00     0.167 HD
ATOM     65  C   UNL A   1      45.658  30.762  28.074  1.00  0.00     0.074 A 
ATOM     66  C   UNL A   1      46.997  31.117  27.650  1.00  0.00     0.031 C 
ATOM     67  C   UNL A   1      44.802  31.619  28.685  1.00  0.00     0.034 A 
BRANCH  54  68
ATOM     68  C   UNL A   1      39.299  29.114  30.056  1.00  0.00     0.023 A 
ATOM     69  C   UNL A   1      38.302  29.797  29.335  1.00  0.00     0.031 A 
ATOM     70  C   UNL A   1      38.985  28.644  31.341  1.00  0.00     0.131 A 
ATOM     71  C   UNL A   1      37.059  30.048  29.934  1.00  0.00     0.055 A 
ATOM     72  C   UNL A   1      37.724  28.840  31.906  1.00  0.00     0.041 A 
ATOM     73  F   UNL A   1      39.908  28.008  32.080  1.00  0.00    -0.206 F 
ATOM     74  C   UNL A   1      36.757  29.559  31.207  1.00  0.00     0.022 A 
BRANCH  71  75
ATOM     75  S   UNL A   1      35.887  31.136  29.078  1.00  0.00     0.124 S 
ATOM     76  O   UNL A   1      35.142  30.183  28.259  1.00  0.00    -0.237 OA
ATOM     77  O   UNL A   1      35.153  31.742  30.183  1.00  0.00    -0.237 OA
ATOM     78  O   UNL A   1      36.750  32.047  28.328  1.00  0.00    -0.744 OA
ENDBRANCH  71  75
ENDBRANCH  54  68
BRANCH  55  79
ATOM     79  C   UNL A   1      48.293  27.459  25.998  1.00  0.00     0.023 A 
ATOM     80  C   UNL A   1      48.441  27.553  24.607  1.00  0.00     0.031 A 
ATOM     81  C   UNL A   1      49.417  27.103  26.765  1.00  0.00     0.131 A 
ATOM     82  C   UNL A   1      49.682  27.261  24.018  1.00  0.00     0.055 A 
ATOM     83  C   UNL A   1      50.656  26.848  26.177  1.00  0.00     0.041 A 
ATOM     84  F   UNL A   1      49.323  27.001  28.099  1.00  0.00    -0.206 F 
ATOM     85  C   UNL A   1      50.791  26.917  24.794  1.00  0.00     0.022 A 
BRANCH  82  86
ATOM     86  S   UNL A   1      49.812  27.279  22.209  1.00  0.00     0.124 S 
ATOM     87  O   UNL A   1      51.192  26.850  22.004  1.00  0.00    -0.237 OA
ATOM     88  O   UNL A   1      48.779  26.325  21.820  1.00  0.00    -0.237 OA
ATOM     89  O   UNL A   1      49.534  28.671  21.861  1.00  0.00    -0.744 OA
ENDBRANCH  82  86
ENDBRANCH  55  79
BRANCH  67  90
ATOM     90  C   UNL A   1      45.312  33.009  28.964  1.00  0.00     0.023 A 
ATOM     91  C   UNL A   1      44.928  34.106  28.176  1.00  0.00     0.031 A 
ATOM     92  C   UNL A   1      46.193  33.230  30.036  1.00  0.00     0.131 A 
ATOM     93  C   UNL A   1      45.456  35.377  28.450  1.00  0.00     0.055 A 
ATOM     94  C   UNL A   1      46.685  34.503  30.328  1.00  0.00     0.041 A 
ATOM     95  F   UNL A   1      46.587  32.213  30.817  1.00  0.00    -0.206 F 
ATOM     96  C   UNL A   1      46.323  35.584  29.527  1.00  0.00     0.022 A 
BRANCH  93  97
ATOM     97  S   UNL A   1      45.035  36.756  27.348  1.00  0.00     0.124 S 
ATOM     98  O   UNL A   1      44.476  37.730  28.280  1.00  0.00    -0.237 OA
ATOM     99  O   UNL A   1      46.328  37.099  26.766  1.00  0.00    -0.237 OA
ATOM    100  O   UNL A   1      44.075  36.168  26.414  1.00  0.00    -0.744 OA
ENDBRANCH  93  97
ENDBRANCH  67  90
ENDBRANCH  41  42
ENDBRANCH  34  36
ENDBRANCH  33  34
ENDBRANCH  32  33
ENDBRANCH   1  32
TORSDOF 21
ENDMDL
