MODEL 1
REMARK VINA RESULT:      -9.4      0.000      0.000
REMARK SMILES Cc1ccc(C2=NN(C(=O)CCC(=O)OCCOCCOC(=O)c3ccc(-c4c5nc(c(-c6cc(S(=O)(=O)[O-])ccc6F)c6ccc([nH]6)c(-c6cc(S(=O)(=O)[O-])ccc6F)c6nc(c(-c7cc(S(=O)(=O)[O-])ccc7F)c7ccc4[nH]7)C=C6)C=C5)cc3)[C@H](C[C@H]3C=c4cccc(C)c4=NC3=O)C2)cc1
REMARK SMILES IDX 17 1 16 2 15 3 13 4 14 5 12 6 11 7 9 8 10 9 8 10 6 11 7 12
REMARK SMILES IDX 101 13 87 14 5 15 1 16 2 17 3 18 103 19 4 20 102 21 88 22
REMARK SMILES IDX 89 23 90 24 99 25 91 26 98 27 100 28 92 29 97 30 93 31 95 32
REMARK SMILES IDX 94 33 96 34 18 35 19 36 20 37 21 38 22 39 23 40 24 41 25 42
REMARK SMILES IDX 86 43 26 44 85 45 27 46 28 47 29 48 79 49 30 50 84 51 78 52
REMARK SMILES IDX 80 53 31 54 83 55 77 56 76 57 32 59 64 60 44 61 63 62 45 63
REMARK SMILES IDX 48 64 62 65 81 66 46 67 47 68 61 70 82 71 49 72 33 73 34 74
REMARK SMILES IDX 42 75 35 76 41 77 43 78 40 79 36 80 37 81 38 82 39 83 65 84
REMARK SMILES IDX 66 85 74 86 67 87 73 88 75 89 72 90 68 91 69 92 70 93 71 94
REMARK SMILES IDX 50 95 51 96 59 97 52 98 58 99 60 100 57 101 53 102 54 103
REMARK SMILES IDX 55 104 56 105
REMARK H PARENT 80 58 48 69
REMARK Flexibility Score: inf
ROOT
ATOM      1  C   UNL A   1      42.489  32.531  38.081  1.00  0.00     0.202 C 
ENDROOT
BRANCH   1   2
ATOM      2  C   UNL A   1      41.216  33.183  38.552  1.00  0.00     0.261 C 
BRANCH   2   3
ATOM      3  O   UNL A   1      40.851  34.256  37.704  1.00  0.00    -0.463 OA
BRANCH   3   4
ATOM      4  C   UNL A   1      39.781  34.974  38.068  1.00  0.00     0.306 C 
ATOM      5  O   UNL A   1      39.475  36.072  37.585  1.00  0.00    -0.252 OA
BRANCH   4   6
ATOM      6  C   UNL A   1      38.933  34.261  39.086  1.00  0.00     0.132 C 
BRANCH   6   7
ATOM      7  C   UNL A   1      37.600  33.646  38.626  1.00  0.00     0.114 C 
BRANCH   7   8
ATOM      8  C   UNL A   1      37.660  32.164  38.185  1.00  0.00     0.243 C 
ATOM      9  O   UNL A   1      37.767  31.278  39.026  1.00  0.00    -0.273 OA
BRANCH   8  10
ATOM     10  N   UNL A   1      37.702  31.855  36.806  1.00  0.00    -0.230 N 
ATOM     11  C   UNL A   1      39.257  30.777  35.687  1.00  0.00     0.070 C 
ATOM     12  N   UNL A   1      38.292  30.562  36.514  1.00  0.00    -0.174 NA
ATOM     13  C   UNL A   1      39.346  32.231  35.358  1.00  0.00     0.086 C 
ATOM     14  C   UNL A   1      37.988  33.053  35.491  1.00  0.00     0.118 C 
BRANCH  11  15
ATOM     15  C   UNL A   1      40.416  29.870  35.146  1.00  0.00    -0.002 A 
ATOM     16  C   UNL A   1      43.323  26.603  34.650  1.00  0.00     0.044 C 
ATOM     17  C   UNL A   1      42.358  27.753  34.764  1.00  0.00    -0.051 A 
ATOM     18  C   UNL A   1      41.449  28.126  33.756  1.00  0.00     0.004 A 
ATOM     19  C   UNL A   1      42.348  28.490  35.932  1.00  0.00     0.004 A 
ATOM     20  C   UNL A   1      40.469  29.156  33.949  1.00  0.00     0.010 A 
ATOM     21  C   UNL A   1      41.422  29.527  36.088  1.00  0.00     0.010 A 
ENDBRANCH  11  15
BRANCH  14  22
ATOM     22  C   UNL A   1      36.503  33.515  34.111  1.00  0.00     0.045 C 
BRANCH  22  23
ATOM     23  C   UNL A   1      35.686  32.197  32.884  1.00  0.00     0.106 C 
ATOM     24  C   UNL A   1      34.682  32.618  31.613  1.00  0.00    -0.003 C 
ATOM     25  C   UNL A   1      36.627  31.095  32.279  1.00  0.00     0.253 C 
ATOM     26  C   UNL A   1      35.053  32.542  30.325  1.00  0.00    -0.003 A 
ATOM     27  N   UNL A   1      36.566  30.714  30.925  1.00  0.00    -0.212 NA
ATOM     28  O   UNL A   1      37.429  30.547  33.035  1.00  0.00    -0.272 OA
ATOM     29  C   UNL A   1      34.832  33.553  29.283  1.00  0.00     0.010 A 
ATOM     30  C   UNL A   1      35.892  31.375  30.036  1.00  0.00     0.077 A 
ATOM     31  C   UNL A   1      35.176  33.295  28.011  1.00  0.00     0.001 A 
ATOM     32  C   UNL A   1      35.759  30.991  28.567  1.00  0.00    -0.025 A 
ATOM     33  C   UNL A   1      35.462  31.931  27.643  1.00  0.00     0.005 A 
ATOM     34  C   UNL A   1      35.650  29.541  28.250  1.00  0.00     0.047 C 
ENDBRANCH  22  23
ENDBRANCH  14  22
ENDBRANCH   8  10
ENDBRANCH   7   8
ENDBRANCH   6   7
ENDBRANCH   4   6
ENDBRANCH   3   4
ENDBRANCH   2   3
ENDBRANCH   1   2
BRANCH   1  35
ATOM     35  O   UNL A   1      43.700  33.262  38.069  1.00  0.00    -0.374 OA
BRANCH  35  36
ATOM     36  C   UNL A   1      44.505  33.648  39.218  1.00  0.00     0.202 C 
BRANCH  36  37
ATOM     37  C   UNL A   1      46.141  33.218  39.665  1.00  0.00     0.261 C 
BRANCH  37  38
ATOM     38  O   UNL A   1      47.669  32.338  38.882  1.00  0.00    -0.460 OA
BRANCH  38  39
ATOM     39  C   UNL A   1      48.320  30.779  38.558  1.00  0.00     0.338 C 
ATOM     40  O   UNL A   1      49.300  30.479  39.240  1.00  0.00    -0.246 OA
BRANCH  39  41
ATOM     41  C   UNL A   1      47.808  29.576  37.238  1.00  0.00     0.060 A 
ATOM     42  C   UNL A   1      48.418  29.563  35.941  1.00  0.00     0.016 A 
ATOM     43  C   UNL A   1      46.532  29.028  37.087  1.00  0.00     0.016 A 
ATOM     44  C   UNL A   1      47.622  29.862  34.727  1.00  0.00     0.010 A 
ATOM     45  C   UNL A   1      45.758  29.220  35.896  1.00  0.00     0.010 A 
ATOM     46  C   UNL A   1      46.230  29.903  34.767  1.00  0.00    -0.014 A 
BRANCH  46  47
ATOM     47  C   UNL A   1      45.197  30.633  33.870  1.00  0.00     0.031 A 
ATOM     48  C   UNL A   1      44.658  29.881  32.631  1.00  0.00     0.074 A 
ATOM     49  C   UNL A   1      44.437  31.756  34.202  1.00  0.00     0.049 A 
ATOM     50  N   UNL A   1      43.727  30.308  31.835  1.00  0.00    -0.248 NA
ATOM     51  C   UNL A   1      45.145  28.575  32.181  1.00  0.00     0.031 C 
ATOM     52  C   UNL A   1      43.020  31.923  33.763  1.00  0.00     0.029 A 
ATOM     53  N   UNL A   1      44.565  32.884  35.061  1.00  0.00    -0.354 N 
ATOM     54  C   UNL A   1      43.273  29.280  31.037  1.00  0.00     0.074 A 
ATOM     55  C   UNL A   1      44.276  28.259  31.208  1.00  0.00     0.031 C 
ATOM     56  C   UNL A   1      42.463  33.031  34.247  1.00  0.00     0.029 A 
ATOM     57  C   UNL A   1      43.512  33.834  34.795  1.00  0.00     0.049 A 
ATOM     58  H   UNL A   1      45.269  32.998  35.740  1.00  0.00     0.167 HD
ATOM     59  C   UNL A   1      42.070  29.381  30.384  1.00  0.00     0.034 A 
ATOM     60  C   UNL A   1      43.525  35.200  34.661  1.00  0.00     0.034 A 
ATOM     61  C   UNL A   1      41.482  30.722  30.522  1.00  0.00     0.049 A 
ATOM     62  C   UNL A   1      43.264  35.495  33.205  1.00  0.00     0.074 A 
ATOM     63  C   UNL A   1      40.363  31.259  31.134  1.00  0.00     0.029 A 
ATOM     64  N   UNL A   1      42.216  31.809  30.074  1.00  0.00    -0.354 N 
ATOM     65  N   UNL A   1      42.436  34.831  32.447  1.00  0.00    -0.248 NA
ATOM     66  C   UNL A   1      44.116  36.421  32.465  1.00  0.00     0.031 C 
ATOM     67  C   UNL A   1      40.500  32.686  31.129  1.00  0.00     0.029 A 
ATOM     68  C   UNL A   1      41.650  33.020  30.433  1.00  0.00     0.049 A 
ATOM     69  H   UNL A   1      43.049  31.729  29.557  1.00  0.00     0.167 HD
ATOM     70  C   UNL A   1      42.834  35.002  31.148  1.00  0.00     0.074 A 
ATOM     71  C   UNL A   1      43.873  36.026  31.213  1.00  0.00     0.031 C 
ATOM     72  C   UNL A   1      42.376  34.242  30.106  1.00  0.00     0.034 A 
BRANCH  59  73
ATOM     73  C   UNL A   1      41.331  28.271  29.627  1.00  0.00     0.023 A 
ATOM     74  C   UNL A   1      41.959  27.638  28.522  1.00  0.00     0.031 A 
ATOM     75  C   UNL A   1      40.009  27.843  29.876  1.00  0.00     0.131 A 
ATOM     76  C   UNL A   1      41.299  26.646  27.756  1.00  0.00     0.055 A 
ATOM     77  C   UNL A   1      39.377  26.818  29.151  1.00  0.00     0.041 A 
ATOM     78  F   UNL A   1      39.231  28.431  30.792  1.00  0.00    -0.206 F 
ATOM     79  C   UNL A   1      40.018  26.216  28.082  1.00  0.00     0.022 A 
BRANCH  76  80
ATOM     80  S   UNL A   1      42.109  25.946  26.284  1.00  0.00     0.124 S 
ATOM     81  O   UNL A   1      41.385  26.596  25.197  1.00  0.00    -0.237 OA
ATOM     82  O   UNL A   1      43.499  26.345  26.474  1.00  0.00    -0.237 OA
ATOM     83  O   UNL A   1      41.861  24.509  26.409  1.00  0.00    -0.744 OA
ENDBRANCH  76  80
ENDBRANCH  59  73
BRANCH  60  84
ATOM     84  C   UNL A   1      44.501  35.986  35.468  1.00  0.00     0.023 A 
ATOM     85  C   UNL A   1      45.819  36.102  34.945  1.00  0.00     0.031 A 
ATOM     86  C   UNL A   1      43.899  37.072  36.094  1.00  0.00     0.131 A 
ATOM     87  C   UNL A   1      46.286  37.375  34.660  1.00  0.00     0.055 A 
ATOM     88  C   UNL A   1      44.266  38.307  35.645  1.00  0.00     0.041 A 
ATOM     89  F   UNL A   1      42.718  36.963  36.722  1.00  0.00    -0.206 F 
ATOM     90  C   UNL A   1      45.430  38.431  34.897  1.00  0.00     0.022 A 
BRANCH  87  91
ATOM     91  S   UNL A   1      47.858  37.728  33.807  1.00  0.00     0.124 S 
ATOM     92  O   UNL A   1      47.697  36.989  32.557  1.00  0.00    -0.237 OA
ATOM     93  O   UNL A   1      47.878  39.182  33.685  1.00  0.00    -0.237 OA
ATOM     94  O   UNL A   1      48.886  37.167  34.686  1.00  0.00    -0.744 OA
ENDBRANCH  87  91
ENDBRANCH  60  84
BRANCH  72  95
ATOM     95  C   UNL A   1      42.698  34.635  28.686  1.00  0.00     0.023 A 
ATOM     96  C   UNL A   1      43.651  33.900  27.966  1.00  0.00     0.031 A 
ATOM     97  C   UNL A   1      42.146  35.739  28.010  1.00  0.00     0.131 A 
ATOM     98  C   UNL A   1      43.836  34.092  26.597  1.00  0.00     0.055 A 
ATOM     99  C   UNL A   1      42.454  36.032  26.677  1.00  0.00     0.041 A 
ATOM    100  F   UNL A   1      41.268  36.567  28.591  1.00  0.00    -0.206 F 
ATOM    101  C   UNL A   1      43.269  35.178  25.946  1.00  0.00     0.022 A 
BRANCH  98 102
ATOM    102  S   UNL A   1      44.702  32.792  25.689  1.00  0.00     0.124 S 
ATOM    103  O   UNL A   1      44.115  31.571  26.230  1.00  0.00    -0.237 OA
ATOM    104  O   UNL A   1      44.335  33.111  24.310  1.00  0.00    -0.237 OA
ATOM    105  O   UNL A   1      46.105  33.016  26.028  1.00  0.00    -0.744 OA
ENDBRANCH  98 102
ENDBRANCH  72  95
ENDBRANCH  46  47
ENDBRANCH  39  41
ENDBRANCH  38  39
ENDBRANCH  37  38
ENDBRANCH  36  37
ENDBRANCH  35  36
ENDBRANCH   1  35
TORSDOF 23
ENDMDL
MODEL 2
REMARK VINA RESULT:      -9.0      3.259      8.669
REMARK SMILES Cc1ccc(C2=NN(C(=O)CCC(=O)OCCOCCOC(=O)c3ccc(-c4c5nc(c(-c6cc(S(=O)(=O)[O-])ccc6F)c6ccc([nH]6)c(-c6cc(S(=O)(=O)[O-])ccc6F)c6nc(c(-c7cc(S(=O)(=O)[O-])ccc7F)c7ccc4[nH]7)C=C6)C=C5)cc3)[C@H](C[C@H]3C=c4cccc(C)c4=NC3=O)C2)cc1
REMARK SMILES IDX 17 1 16 2 15 3 13 4 14 5 12 6 11 7 9 8 10 9 8 10 6 11 7 12
REMARK SMILES IDX 101 13 87 14 5 15 1 16 2 17 3 18 103 19 4 20 102 21 88 22
REMARK SMILES IDX 89 23 90 24 99 25 91 26 98 27 100 28 92 29 97 30 93 31 95 32
REMARK SMILES IDX 94 33 96 34 18 35 19 36 20 37 21 38 22 39 23 40 24 41 25 42
REMARK SMILES IDX 86 43 26 44 85 45 27 46 28 47 29 48 79 49 30 50 84 51 78 52
REMARK SMILES IDX 80 53 31 54 83 55 77 56 76 57 32 59 64 60 44 61 63 62 45 63
REMARK SMILES IDX 48 64 62 65 81 66 46 67 47 68 61 70 82 71 49 72 33 73 34 74
REMARK SMILES IDX 42 75 35 76 41 77 43 78 40 79 36 80 37 81 38 82 39 83 65 84
REMARK SMILES IDX 66 85 74 86 67 87 73 88 75 89 72 90 68 91 69 92 70 93 71 94
REMARK SMILES IDX 50 95 51 96 59 97 52 98 58 99 60 100 57 101 53 102 54 103
REMARK SMILES IDX 55 104 56 105
REMARK H PARENT 80 58 48 69
REMARK Flexibility Score: inf
ROOT
ATOM      1  C   UNL A   1      45.352  27.152  26.131  1.00  0.00     0.202 C 
ENDROOT
BRANCH   1   2
ATOM      2  C   UNL A   1      45.027  28.401  26.907  1.00  0.00     0.261 C 
BRANCH   2   3
ATOM      3  O   UNL A   1      44.460  29.388  26.066  1.00  0.00    -0.463 OA
BRANCH   3   4
ATOM      4  C   UNL A   1      43.706  30.323  26.658  1.00  0.00     0.306 C 
ATOM      5  O   UNL A   1      43.806  31.540  26.453  1.00  0.00    -0.252 OA
BRANCH   4   6
ATOM      6  C   UNL A   1      42.655  29.727  27.555  1.00  0.00     0.132 C 
BRANCH   6   7
ATOM      7  C   UNL A   1      41.361  29.195  26.913  1.00  0.00     0.114 C 
BRANCH   7   8
ATOM      8  C   UNL A   1      41.292  27.662  26.713  1.00  0.00     0.243 C 
ATOM      9  O   UNL A   1      41.336  27.188  25.583  1.00  0.00    -0.273 OA
BRANCH   8  10
ATOM     10  N   UNL A   1      41.066  26.829  27.833  1.00  0.00    -0.230 N 
ATOM     11  C   UNL A   1      40.925  24.637  27.907  1.00  0.00     0.070 C 
ATOM     12  N   UNL A   1      41.798  25.577  27.789  1.00  0.00    -0.174 NA
ATOM     13  C   UNL A   1      39.558  25.213  28.068  1.00  0.00     0.086 C 
ATOM     14  C   UNL A   1      39.494  26.674  28.700  1.00  0.00     0.118 C 
BRANCH  11  15
ATOM     15  C   UNL A   1      41.007  23.081  27.727  1.00  0.00    -0.002 A 
ATOM     16  C   UNL A   1      41.173  19.050  25.969  1.00  0.00     0.044 C 
ATOM     17  C   UNL A   1      41.116  20.399  26.633  1.00  0.00    -0.051 A 
ATOM     18  C   UNL A   1      42.105  20.895  27.504  1.00  0.00     0.004 A 
ATOM     19  C   UNL A   1      40.034  21.217  26.373  1.00  0.00     0.004 A 
ATOM     20  C   UNL A   1      42.069  22.230  28.027  1.00  0.00     0.010 A 
ATOM     21  C   UNL A   1      39.984  22.499  26.932  1.00  0.00     0.010 A 
ENDBRANCH  11  15
BRANCH  14  22
ATOM     22  C   UNL A   1      39.275  27.331  30.660  1.00  0.00     0.045 C 
BRANCH  22  23
ATOM     23  C   UNL A   1      38.664  29.145  31.158  1.00  0.00     0.106 C 
ATOM     24  C   UNL A   1      38.450  30.383  30.052  1.00  0.00    -0.003 C 
ATOM     25  C   UNL A   1      37.411  29.251  32.098  1.00  0.00     0.253 C 
ATOM     26  C   UNL A   1      37.243  30.837  29.681  1.00  0.00    -0.003 A 
ATOM     27  N   UNL A   1      36.381  30.185  31.877  1.00  0.00    -0.212 NA
ATOM     28  O   UNL A   1      37.353  28.491  33.065  1.00  0.00    -0.272 OA
ATOM     29  C   UNL A   1      36.794  31.132  28.314  1.00  0.00     0.010 A 
ATOM     30  C   UNL A   1      36.278  30.875  30.784  1.00  0.00     0.077 A 
ATOM     31  C   UNL A   1      35.584  31.675  28.105  1.00  0.00     0.001 A 
ATOM     32  C   UNL A   1      35.210  31.925  30.503  1.00  0.00    -0.025 A 
ATOM     33  C   UNL A   1      34.884  32.241  29.231  1.00  0.00     0.005 A 
ATOM     34  C   UNL A   1      34.790  32.789  31.640  1.00  0.00     0.047 C 
ENDBRANCH  22  23
ENDBRANCH  14  22
ENDBRANCH   8  10
ENDBRANCH   7   8
ENDBRANCH   6   7
ENDBRANCH   4   6
ENDBRANCH   3   4
ENDBRANCH   2   3
ENDBRANCH   1   2
BRANCH   1  35
ATOM     35  O   UNL A   1      45.090  25.880  26.691  1.00  0.00    -0.374 OA
BRANCH  35  36
ATOM     36  C   UNL A   1      46.050  24.969  27.295  1.00  0.00     0.202 C 
BRANCH  36  37
ATOM     37  C   UNL A   1      47.239  25.228  28.552  1.00  0.00     0.261 C 
BRANCH  37  38
ATOM     38  O   UNL A   1      47.284  25.535  30.457  1.00  0.00    -0.460 OA
BRANCH  38  39
ATOM     39  C   UNL A   1      46.278  25.575  31.851  1.00  0.00     0.338 C 
ATOM     40  O   UNL A   1      46.788  25.104  32.867  1.00  0.00    -0.246 OA
BRANCH  39  41
ATOM     41  C   UNL A   1      44.504  26.115  31.967  1.00  0.00     0.060 A 
ATOM     42  C   UNL A   1      43.721  26.416  30.804  1.00  0.00     0.016 A 
ATOM     43  C   UNL A   1      43.937  26.825  33.028  1.00  0.00     0.016 A 
ATOM     44  C   UNL A   1      43.192  27.782  30.581  1.00  0.00     0.010 A 
ATOM     45  C   UNL A   1      43.337  28.114  32.845  1.00  0.00     0.010 A 
ATOM     46  C   UNL A   1      43.204  28.737  31.596  1.00  0.00    -0.014 A 
BRANCH  46  47
ATOM     47  C   UNL A   1      43.202  30.287  31.549  1.00  0.00     0.031 A 
ATOM     48  C   UNL A   1      44.334  30.985  30.761  1.00  0.00     0.074 A 
ATOM     49  C   UNL A   1      42.138  31.139  31.850  1.00  0.00     0.049 A 
ATOM     50  N   UNL A   1      44.427  32.262  30.547  1.00  0.00    -0.248 NA
ATOM     51  C   UNL A   1      45.472  30.289  30.157  1.00  0.00     0.031 C 
ATOM     52  C   UNL A   1      41.873  32.392  31.084  1.00  0.00     0.029 A 
ATOM     53  N   UNL A   1      40.985  31.111  32.685  1.00  0.00    -0.354 N 
ATOM     54  C   UNL A   1      45.360  32.513  29.563  1.00  0.00     0.074 A 
ATOM     55  C   UNL A   1      46.066  31.262  29.448  1.00  0.00     0.031 C 
ATOM     56  C   UNL A   1      40.771  33.017  31.492  1.00  0.00     0.029 A 
ATOM     57  C   UNL A   1      40.368  32.415  32.725  1.00  0.00     0.049 A 
ATOM     58  H   UNL A   1      40.656  30.317  33.165  1.00  0.00     0.167 HD
ATOM     59  C   UNL A   1      45.381  33.721  28.912  1.00  0.00     0.034 A 
ATOM     60  C   UNL A   1      39.866  33.158  33.764  1.00  0.00     0.034 A 
ATOM     61  C   UNL A   1      44.440  34.682  29.508  1.00  0.00     0.049 A 
ATOM     62  C   UNL A   1      40.807  34.320  33.960  1.00  0.00     0.074 A 
ATOM     63  C   UNL A   1      43.276  35.314  29.106  1.00  0.00     0.029 A 
ATOM     64  N   UNL A   1      44.592  35.004  30.847  1.00  0.00    -0.354 N 
ATOM     65  N   UNL A   1      41.401  34.970  32.998  1.00  0.00    -0.248 NA
ATOM     66  C   UNL A   1      41.313  34.657  35.288  1.00  0.00     0.031 C 
ATOM     67  C   UNL A   1      42.690  35.932  30.259  1.00  0.00     0.029 A 
ATOM     68  C   UNL A   1      43.540  35.757  31.338  1.00  0.00     0.049 A 
ATOM     69  H   UNL A   1      45.364  34.727  31.391  1.00  0.00     0.167 HD
ATOM     70  C   UNL A   1      42.524  35.553  33.521  1.00  0.00     0.074 A 
ATOM     71  C   UNL A   1      42.408  35.348  34.962  1.00  0.00     0.031 C 
ATOM     72  C   UNL A   1      43.531  36.081  32.760  1.00  0.00     0.034 A 
BRANCH  59  73
ATOM     73  C   UNL A   1      46.208  34.092  27.676  1.00  0.00     0.023 A 
ATOM     74  C   UNL A   1      47.623  34.160  27.773  1.00  0.00     0.031 A 
ATOM     75  C   UNL A   1      45.688  34.460  26.416  1.00  0.00     0.131 A 
ATOM     76  C   UNL A   1      48.429  34.551  26.677  1.00  0.00     0.055 A 
ATOM     77  C   UNL A   1      46.493  34.793  25.312  1.00  0.00     0.041 A 
ATOM     78  F   UNL A   1      44.374  34.580  26.196  1.00  0.00    -0.206 F 
ATOM     79  C   UNL A   1      47.871  34.844  25.438  1.00  0.00     0.022 A 
BRANCH  76  80
ATOM     80  S   UNL A   1      50.229  34.726  26.889  1.00  0.00     0.124 S 
ATOM     81  O   UNL A   1      50.527  35.879  26.046  1.00  0.00    -0.237 OA
ATOM     82  O   UNL A   1      50.356  34.921  28.328  1.00  0.00    -0.237 OA
ATOM     83  O   UNL A   1      50.756  33.454  26.392  1.00  0.00    -0.744 OA
ENDBRANCH  76  80
ENDBRANCH  59  73
BRANCH  60  84
ATOM     84  C   UNL A   1      39.234  32.445  34.910  1.00  0.00     0.023 A 
ATOM     85  C   UNL A   1      40.026  32.288  36.082  1.00  0.00     0.031 A 
ATOM     86  C   UNL A   1      37.879  32.734  35.016  1.00  0.00     0.131 A 
ATOM     87  C   UNL A   1      39.559  32.863  37.253  1.00  0.00     0.055 A 
ATOM     88  C   UNL A   1      37.500  33.464  36.105  1.00  0.00     0.041 A 
ATOM     89  F   UNL A   1      37.072  32.750  33.944  1.00  0.00    -0.206 F 
ATOM     90  C   UNL A   1      38.366  33.554  37.187  1.00  0.00     0.022 A 
BRANCH  87  91
ATOM     91  S   UNL A   1      40.507  32.948  38.808  1.00  0.00     0.124 S 
ATOM     92  O   UNL A   1      41.495  31.889  38.618  1.00  0.00    -0.237 OA
ATOM     93  O   UNL A   1      41.035  34.309  38.829  1.00  0.00    -0.237 OA
ATOM     94  O   UNL A   1      39.526  32.648  39.852  1.00  0.00    -0.744 OA
ENDBRANCH  87  91
ENDBRANCH  60  84
BRANCH  72  95
ATOM     95  C   UNL A   1      44.622  36.894  33.410  1.00  0.00     0.023 A 
ATOM     96  C   UNL A   1      44.439  38.272  33.597  1.00  0.00     0.031 A 
ATOM     97  C   UNL A   1      45.871  36.388  33.817  1.00  0.00     0.131 A 
ATOM     98  C   UNL A   1      45.322  39.026  34.368  1.00  0.00     0.055 A 
ATOM     99  C   UNL A   1      46.832  37.184  34.451  1.00  0.00     0.041 A 
ATOM    100  F   UNL A   1      46.212  35.104  33.647  1.00  0.00    -0.206 F 
ATOM    101  C   UNL A   1      46.541  38.503  34.773  1.00  0.00     0.022 A 
BRANCH  98 102
ATOM    102  S   UNL A   1      44.746  40.638  34.946  1.00  0.00     0.124 S 
ATOM    103  O   UNL A   1      45.960  41.448  34.916  1.00  0.00    -0.237 OA
ATOM    104  O   UNL A   1      43.745  40.966  33.933  1.00  0.00    -0.237 OA
ATOM    105  O   UNL A   1      44.216  40.354  36.276  1.00  0.00    -0.744 OA
ENDBRANCH  98 102
ENDBRANCH  72  95
ENDBRANCH  46  47
ENDBRANCH  39  41
ENDBRANCH  38  39
ENDBRANCH  37  38
ENDBRANCH  36  37
ENDBRANCH  35  36
ENDBRANCH   1  35
TORSDOF 23
ENDMDL
MODEL 3
REMARK VINA RESULT:      -8.6      6.526     12.345
REMARK SMILES Cc1ccc(C2=NN(C(=O)CCC(=O)OCCOCCOC(=O)c3ccc(-c4c5nc(c(-c6cc(S(=O)(=O)[O-])ccc6F)c6ccc([nH]6)c(-c6cc(S(=O)(=O)[O-])ccc6F)c6nc(c(-c7cc(S(=O)(=O)[O-])ccc7F)c7ccc4[nH]7)C=C6)C=C5)cc3)[C@H](C[C@H]3C=c4cccc(C)c4=NC3=O)C2)cc1
REMARK SMILES IDX 17 1 16 2 15 3 13 4 14 5 12 6 11 7 9 8 10 9 8 10 6 11 7 12
REMARK SMILES IDX 101 13 87 14 5 15 1 16 2 17 3 18 103 19 4 20 102 21 88 22
REMARK SMILES IDX 89 23 90 24 99 25 91 26 98 27 100 28 92 29 97 30 93 31 95 32
REMARK SMILES IDX 94 33 96 34 18 35 19 36 20 37 21 38 22 39 23 40 24 41 25 42
REMARK SMILES IDX 86 43 26 44 85 45 27 46 28 47 29 48 79 49 30 50 84 51 78 52
REMARK SMILES IDX 80 53 31 54 83 55 77 56 76 57 32 59 64 60 44 61 63 62 45 63
REMARK SMILES IDX 48 64 62 65 81 66 46 67 47 68 61 70 82 71 49 72 33 73 34 74
REMARK SMILES IDX 42 75 35 76 41 77 43 78 40 79 36 80 37 81 38 82 39 83 65 84
REMARK SMILES IDX 66 85 74 86 67 87 73 88 75 89 72 90 68 91 69 92 70 93 71 94
REMARK SMILES IDX 50 95 51 96 59 97 52 98 58 99 60 100 57 101 53 102 54 103
REMARK SMILES IDX 55 104 56 105
REMARK H PARENT 80 58 48 69
REMARK Flexibility Score: inf
ROOT
ATOM      1  C   UNL A   1      44.654  24.736  32.650  1.00  0.00     0.202 C 
ENDROOT
BRANCH   1   2
ATOM      2  C   UNL A   1      44.739  23.519  33.533  1.00  0.00     0.261 C 
BRANCH   2   3
ATOM      3  O   UNL A   1      45.838  23.612  34.420  1.00  0.00    -0.463 OA
BRANCH   3   4
ATOM      4  C   UNL A   1      46.154  22.505  35.105  1.00  0.00     0.306 C 
ATOM      5  O   UNL A   1      46.968  21.653  34.726  1.00  0.00    -0.252 OA
BRANCH   4   6
ATOM      6  C   UNL A   1      45.464  22.443  36.441  1.00  0.00     0.132 C 
BRANCH   6   7
ATOM      7  C   UNL A   1      46.283  22.766  37.703  1.00  0.00     0.114 C 
BRANCH   7   8
ATOM      8  C   UNL A   1      46.047  21.831  38.914  1.00  0.00     0.243 C 
ATOM      9  O   UNL A   1      45.298  22.179  39.821  1.00  0.00    -0.273 OA
BRANCH   8  10
ATOM     10  N   UNL A   1      46.785  20.629  39.013  1.00  0.00    -0.230 N 
ATOM     11  C   UNL A   1      46.639  19.050  40.535  1.00  0.00     0.070 C 
ATOM     12  N   UNL A   1      46.011  19.505  39.506  1.00  0.00    -0.174 NA
ATOM     13  C   UNL A   1      47.890  19.831  40.769  1.00  0.00     0.086 C 
ATOM     14  C   UNL A   1      48.522  20.524  39.481  1.00  0.00     0.118 C 
BRANCH  11  15
ATOM     15  C   UNL A   1      46.253  18.008  41.642  1.00  0.00    -0.002 A 
ATOM     16  C   UNL A   1      43.972  15.396  44.350  1.00  0.00     0.044 C 
ATOM     17  C   UNL A   1      44.811  16.268  43.456  1.00  0.00    -0.051 A 
ATOM     18  C   UNL A   1      45.802  15.783  42.581  1.00  0.00     0.004 A 
ATOM     19  C   UNL A   1      44.598  17.632  43.478  1.00  0.00     0.004 A 
ATOM     20  C   UNL A   1      46.500  16.637  41.663  1.00  0.00     0.010 A 
ATOM     21  C   UNL A   1      45.322  18.461  42.615  1.00  0.00     0.010 A 
ENDBRANCH  11  15
BRANCH  14  22
ATOM     22  C   UNL A   1      49.967  19.887  38.129  1.00  0.00     0.045 C 
BRANCH  22  23
ATOM     23  C   UNL A   1      51.219  21.100  37.195  1.00  0.00     0.106 C 
ATOM     24  C   UNL A   1      52.613  20.578  36.431  1.00  0.00    -0.003 C 
ATOM     25  C   UNL A   1      50.603  22.142  36.196  1.00  0.00     0.253 C 
ATOM     26  C   UNL A   1      52.752  20.543  35.096  1.00  0.00    -0.003 A 
ATOM     27  N   UNL A   1      51.174  22.408  34.937  1.00  0.00    -0.212 NA
ATOM     28  O   UNL A   1      49.591  22.749  36.550  1.00  0.00    -0.272 OA
ATOM     29  C   UNL A   1      53.319  19.449  34.298  1.00  0.00     0.010 A 
ATOM     30  C   UNL A   1      52.113  21.677  34.421  1.00  0.00     0.077 A 
ATOM     31  C   UNL A   1      53.482  19.596  32.973  1.00  0.00     0.001 A 
ATOM     32  C   UNL A   1      52.797  21.936  33.084  1.00  0.00    -0.025 A 
ATOM     33  C   UNL A   1      53.391  20.922  32.416  1.00  0.00     0.005 A 
ATOM     34  C   UNL A   1      53.056  23.354  32.715  1.00  0.00     0.047 C 
ENDBRANCH  22  23
ENDBRANCH  14  22
ENDBRANCH   8  10
ENDBRANCH   7   8
ENDBRANCH   6   7
ENDBRANCH   4   6
ENDBRANCH   3   4
ENDBRANCH   2   3
ENDBRANCH   1   2
BRANCH   1  35
ATOM     35  O   UNL A   1      44.175  24.619  31.324  1.00  0.00    -0.374 OA
BRANCH  35  36
ATOM     36  C   UNL A   1      44.384  23.508  30.408  1.00  0.00     0.202 C 
BRANCH  36  37
ATOM     37  C   UNL A   1      43.806  23.245  28.778  1.00  0.00     0.261 C 
BRANCH  37  38
ATOM     38  O   UNL A   1      42.362  22.328  27.885  1.00  0.00    -0.460 OA
BRANCH  38  39
ATOM     39  C   UNL A   1      40.690  22.471  27.508  1.00  0.00     0.338 C 
ATOM     40  O   UNL A   1      40.123  21.403  27.275  1.00  0.00    -0.246 OA
BRANCH  39  41
ATOM     41  C   UNL A   1      39.694  24.024  27.289  1.00  0.00     0.060 A 
ATOM     42  C   UNL A   1      39.968  24.962  26.240  1.00  0.00     0.016 A 
ATOM     43  C   UNL A   1      39.061  24.736  28.310  1.00  0.00     0.016 A 
ATOM     44  C   UNL A   1      40.397  26.345  26.555  1.00  0.00     0.010 A 
ATOM     45  C   UNL A   1      39.384  26.103  28.597  1.00  0.00     0.010 A 
ATOM     46  C   UNL A   1      40.296  26.857  27.847  1.00  0.00    -0.014 A 
BRANCH  46  47
ATOM     47  C   UNL A   1      41.070  27.992  28.567  1.00  0.00     0.031 A 
ATOM     48  C   UNL A   1      40.285  29.267  28.954  1.00  0.00     0.074 A 
ATOM     49  C   UNL A   1      42.308  27.896  29.206  1.00  0.00     0.049 A 
ATOM     50  N   UNL A   1      40.756  30.264  29.638  1.00  0.00    -0.248 NA
ATOM     51  C   UNL A   1      38.892  29.524  28.582  1.00  0.00     0.031 C 
ATOM     52  C   UNL A   1      42.616  28.628  30.469  1.00  0.00     0.029 A 
ATOM     53  N   UNL A   1      43.482  27.101  29.087  1.00  0.00    -0.354 N 
ATOM     54  C   UNL A   1      39.727  31.073  30.070  1.00  0.00     0.074 A 
ATOM     55  C   UNL A   1      38.605  30.635  29.280  1.00  0.00     0.031 C 
ATOM     56  C   UNL A   1      43.826  28.341  30.943  1.00  0.00     0.029 A 
ATOM     57  C   UNL A   1      44.533  27.638  29.918  1.00  0.00     0.049 A 
ATOM     58  H   UNL A   1      43.565  26.298  28.522  1.00  0.00     0.167 HD
ATOM     59  C   UNL A   1      39.924  31.967  31.093  1.00  0.00     0.034 A 
ATOM     60  C   UNL A   1      45.868  27.851  29.681  1.00  0.00     0.034 A 
ATOM     61  C   UNL A   1      41.337  32.038  31.496  1.00  0.00     0.049 A 
ATOM     62  C   UNL A   1      46.061  29.345  29.605  1.00  0.00     0.074 A 
ATOM     63  C   UNL A   1      42.067  31.706  32.624  1.00  0.00     0.029 A 
ATOM     64  N   UNL A   1      42.274  32.390  30.539  1.00  0.00    -0.354 N 
ATOM     65  N   UNL A   1      45.444  30.216  30.354  1.00  0.00    -0.248 NA
ATOM     66  C   UNL A   1      46.799  29.948  28.498  1.00  0.00     0.031 C 
ATOM     67  C   UNL A   1      43.457  31.771  32.283  1.00  0.00     0.029 A 
ATOM     68  C   UNL A   1      43.575  32.232  30.982  1.00  0.00     0.049 A 
ATOM     69  H   UNL A   1      42.041  32.716  29.640  1.00  0.00     0.167 HD
ATOM     70  C   UNL A   1      45.444  31.412  29.688  1.00  0.00     0.074 A 
ATOM     71  C   UNL A   1      46.326  31.197  28.544  1.00  0.00     0.031 C 
ATOM     72  C   UNL A   1      44.659  32.477  30.037  1.00  0.00     0.034 A 
BRANCH  59  73
ATOM     73  C   UNL A   1      38.855  32.790  31.822  1.00  0.00     0.023 A 
ATOM     74  C   UNL A   1      38.696  32.649  33.226  1.00  0.00     0.031 A 
ATOM     75  C   UNL A   1      37.922  33.656  31.210  1.00  0.00     0.131 A 
ATOM     76  C   UNL A   1      37.688  33.344  33.937  1.00  0.00     0.055 A 
ATOM     77  C   UNL A   1      36.959  34.389  31.926  1.00  0.00     0.041 A 
ATOM     78  F   UNL A   1      37.846  33.796  29.882  1.00  0.00    -0.206 F 
ATOM     79  C   UNL A   1      36.834  34.233  33.295  1.00  0.00     0.022 A 
BRANCH  76  80
ATOM     80  S   UNL A   1      37.460  33.042  35.718  1.00  0.00     0.124 S 
ATOM     81  O   UNL A   1      38.528  33.845  36.305  1.00  0.00    -0.237 OA
ATOM     82  O   UNL A   1      36.096  33.507  35.941  1.00  0.00    -0.237 OA
ATOM     83  O   UNL A   1      37.644  31.595  35.844  1.00  0.00    -0.744 OA
ENDBRANCH  76  80
ENDBRANCH  59  73
BRANCH  60  84
ATOM     84  C   UNL A   1      46.591  26.909  28.780  1.00  0.00     0.023 A 
ATOM     85  C   UNL A   1      46.341  27.038  27.385  1.00  0.00     0.031 A 
ATOM     86  C   UNL A   1      47.875  26.637  29.238  1.00  0.00     0.131 A 
ATOM     87  C   UNL A   1      47.417  27.345  26.567  1.00  0.00     0.055 A 
ATOM     88  C   UNL A   1      48.901  27.123  28.481  1.00  0.00     0.041 A 
ATOM     89  F   UNL A   1      48.125  26.370  30.529  1.00  0.00    -0.206 F 
ATOM     90  C   UNL A   1      48.646  27.511  27.172  1.00  0.00     0.022 A 
BRANCH  87  91
ATOM     91  S   UNL A   1      47.280  27.744  24.793  1.00  0.00     0.124 S 
ATOM     92  O   UNL A   1      46.572  29.022  24.824  1.00  0.00    -0.237 OA
ATOM     93  O   UNL A   1      48.665  27.800  24.334  1.00  0.00    -0.237 OA
ATOM     94  O   UNL A   1      46.485  26.652  24.232  1.00  0.00    -0.744 OA
ENDBRANCH  87  91
ENDBRANCH  60  84
BRANCH  72  95
ATOM     95  C   UNL A   1      44.877  33.821  29.388  1.00  0.00     0.023 A 
ATOM     96  C   UNL A   1      44.067  34.206  28.310  1.00  0.00     0.031 A 
ATOM     97  C   UNL A   1      45.885  34.735  29.746  1.00  0.00     0.131 A 
ATOM     98  C   UNL A   1      44.091  35.507  27.810  1.00  0.00     0.055 A 
ATOM     99  C   UNL A   1      46.014  35.986  29.133  1.00  0.00     0.041 A 
ATOM    100  F   UNL A   1      46.771  34.478  30.718  1.00  0.00    -0.206 F 
ATOM    101  C   UNL A   1      45.084  36.399  28.189  1.00  0.00     0.022 A 
BRANCH  98 102
ATOM    102  S   UNL A   1      42.697  36.026  26.784  1.00  0.00     0.124 S 
ATOM    103  O   UNL A   1      41.545  35.755  27.639  1.00  0.00    -0.237 OA
ATOM    104  O   UNL A   1      43.005  37.439  26.571  1.00  0.00    -0.237 OA
ATOM    105  O   UNL A   1      42.811  35.178  25.601  1.00  0.00    -0.744 OA
ENDBRANCH  98 102
ENDBRANCH  72  95
ENDBRANCH  46  47
ENDBRANCH  39  41
ENDBRANCH  38  39
ENDBRANCH  37  38
ENDBRANCH  36  37
ENDBRANCH  35  36
ENDBRANCH   1  35
TORSDOF 23
ENDMDL
