MODEL 1
REMARK VINA RESULT:     -10.6      0.000      0.000
REMARK SMILES Cc1cc(F)c([C@](C)(NC=O)C(=O)OCCOCCOC(=O)c2ccc(-c3c4nc(c(-c5cc(S(=O)(=O)[O-])ccc5F)c5ccc([nH]5)c(-c5cc(S(=O)(=O)[O-])ccc5F)c5nc(c(-c6cc(S(=O)(=O)[O-])ccc6F)c6ccc3[nH]6)C=C5)C=C4)cc2)cc1F
REMARK SMILES IDX 18 1 17 2 16 3 15 4 14 5 12 6 13 7 7 8 8 9 6 10 1 11 2 12
REMARK SMILES IDX 3 13 87 14 4 15 86 16 88 17 5 18 9 19 10 20 11 22 19 23
REMARK SMILES IDX 20 24 21 25 22 26 23 27 24 28 85 29 25 30 84 31 26 32 27 33
REMARK SMILES IDX 28 34 78 35 29 36 83 37 77 38 79 39 30 40 82 41 76 42 75 43
REMARK SMILES IDX 31 45 63 46 43 47 62 48 44 49 47 50 61 51 80 52 45 53 46 54
REMARK SMILES IDX 60 56 81 57 48 58 32 59 33 60 41 61 34 62 40 63 42 64 39 65
REMARK SMILES IDX 35 66 36 67 37 68 38 69 64 70 65 71 73 72 66 73 72 74 74 75
REMARK SMILES IDX 71 76 67 77 68 78 69 79 70 80 49 81 50 82 58 83 51 84 57 85
REMARK SMILES IDX 59 86 56 87 52 88 53 89 54 90 55 91
REMARK H PARENT 9 21 79 44 47 55
REMARK Flexibility Score: inf
ROOT
ATOM      1  C   UNL A   1      31.369  31.772  26.350  1.00  0.00     0.202 C 
ENDROOT
BRANCH   1   2
ATOM      2  O   UNL A   1      31.872  30.634  27.053  1.00  0.00    -0.374 OA
BRANCH   2   3
ATOM      3  C   UNL A   1      33.033  29.977  26.546  1.00  0.00     0.202 C 
BRANCH   3   4
ATOM      4  C   UNL A   1      33.266  28.545  27.017  1.00  0.00     0.261 C 
BRANCH   4   5
ATOM      5  O   UNL A   1      33.020  27.626  25.947  1.00  0.00    -0.461 OA
BRANCH   5   6
ATOM      6  C   UNL A   1      31.748  27.164  25.860  1.00  0.00     0.336 C 
ATOM      7  O   UNL A   1      30.995  27.033  26.823  1.00  0.00    -0.249 OA
BRANCH   6   8
ATOM      8  C   UNL A   1      31.362  26.691  24.409  1.00  0.00     0.163 C 
ATOM      9  C   UNL A   1      32.742  26.593  23.685  1.00  0.00     0.053 C 
BRANCH   8  10
ATOM     10  C   UNL A   1      30.449  27.804  23.881  1.00  0.00     0.027 A 
ATOM     11  C   UNL A   1      28.159  30.491  21.381  1.00  0.00     0.047 C 
ATOM     12  C   UNL A   1      28.920  29.637  22.345  1.00  0.00    -0.012 A 
ATOM     13  C   UNL A   1      30.287  29.841  22.528  1.00  0.00     0.046 A 
ATOM     14  C   UNL A   1      28.320  28.548  22.977  1.00  0.00     0.126 A 
ATOM     15  C   UNL A   1      31.029  28.936  23.282  1.00  0.00     0.129 A 
ATOM     16  C   UNL A   1      29.061  27.646  23.742  1.00  0.00     0.049 A 
ATOM     17  F   UNL A   1      27.010  28.313  22.804  1.00  0.00    -0.207 F 
ATOM     18  F   UNL A   1      32.353  29.122  23.327  1.00  0.00    -0.207 F 
ENDBRANCH   8  10
BRANCH   8  19
ATOM     19  N   UNL A   1      30.777  25.347  24.172  1.00  0.00    -0.339 N 
ATOM     20  C   UNL A   1      31.095  24.383  23.272  1.00  0.00     0.338 C 
ATOM     21  H   UNL A   1      30.030  25.116  24.772  1.00  0.00     0.164 HD
ATOM     22  O   UNL A   1      30.578  23.274  23.333  1.00  0.00    -0.279 OA
ENDBRANCH   8  19
ENDBRANCH   6   8
ENDBRANCH   5   6
ENDBRANCH   4   5
ENDBRANCH   3   4
ENDBRANCH   2   3
ENDBRANCH   1   2
BRANCH   1  23
ATOM     23  C   UNL A   1      31.857  33.163  26.772  1.00  0.00     0.261 C 
BRANCH  23  24
ATOM     24  O   UNL A   1      32.575  33.138  28.018  1.00  0.00    -0.460 OA
BRANCH  24  25
ATOM     25  C   UNL A   1      33.647  33.965  28.080  1.00  0.00     0.338 C 
ATOM     26  O   UNL A   1      33.630  35.187  28.036  1.00  0.00    -0.246 OA
BRANCH  25  27
ATOM     27  C   UNL A   1      34.846  33.188  28.457  1.00  0.00     0.060 A 
ATOM     28  C   UNL A   1      36.132  33.711  28.319  1.00  0.00     0.016 A 
ATOM     29  C   UNL A   1      34.655  31.909  28.997  1.00  0.00     0.016 A 
ATOM     30  C   UNL A   1      37.226  32.962  28.768  1.00  0.00     0.010 A 
ATOM     31  C   UNL A   1      35.748  31.164  29.441  1.00  0.00     0.010 A 
ATOM     32  C   UNL A   1      37.041  31.695  29.356  1.00  0.00    -0.014 A 
BRANCH  32  33
ATOM     33  C   UNL A   1      38.172  31.001  30.027  1.00  0.00     0.031 A 
ATOM     34  C   UNL A   1      38.957  29.919  29.347  1.00  0.00     0.074 A 
ATOM     35  C   UNL A   1      38.452  31.330  31.303  1.00  0.00     0.049 A 
ATOM     36  N   UNL A   1      39.990  29.254  29.795  1.00  0.00    -0.248 NA
ATOM     37  C   UNL A   1      38.526  29.522  27.997  1.00  0.00     0.031 C 
ATOM     38  C   UNL A   1      37.714  32.323  32.086  1.00  0.00     0.029 A 
ATOM     39  N   UNL A   1      39.415  30.873  32.169  1.00  0.00    -0.354 N 
ATOM     40  C   UNL A   1      40.349  28.371  28.783  1.00  0.00     0.074 A 
ATOM     41  C   UNL A   1      39.388  28.552  27.714  1.00  0.00     0.031 C 
ATOM     42  C   UNL A   1      38.266  32.421  33.303  1.00  0.00     0.029 A 
ATOM     43  C   UNL A   1      39.370  31.469  33.409  1.00  0.00     0.049 A 
ATOM     44  H   UNL A   1      40.076  30.185  31.926  1.00  0.00     0.167 HD
ATOM     45  C   UNL A   1      41.396  27.513  28.747  1.00  0.00     0.034 A 
ATOM     46  C   UNL A   1      40.126  31.276  34.511  1.00  0.00     0.034 A 
ATOM     47  C   UNL A   1      42.342  27.347  29.826  1.00  0.00     0.049 A 
ATOM     48  C   UNL A   1      41.275  30.302  34.448  1.00  0.00     0.074 A 
ATOM     49  C   UNL A   1      43.471  26.545  29.851  1.00  0.00     0.029 A 
ATOM     50  N   UNL A   1      42.275  27.972  31.062  1.00  0.00    -0.354 N 
ATOM     51  N   UNL A   1      41.680  29.571  33.436  1.00  0.00    -0.248 NA
ATOM     52  C   UNL A   1      42.085  30.135  35.663  1.00  0.00     0.031 C 
ATOM     53  C   UNL A   1      44.034  26.619  31.123  1.00  0.00     0.029 A 
ATOM     54  C   UNL A   1      43.320  27.543  31.868  1.00  0.00     0.049 A 
ATOM     55  H   UNL A   1      41.588  28.624  31.330  1.00  0.00     0.167 HD
ATOM     56  C   UNL A   1      42.807  28.884  33.883  1.00  0.00     0.074 A 
ATOM     57  C   UNL A   1      43.035  29.308  35.247  1.00  0.00     0.031 C 
ATOM     58  C   UNL A   1      43.572  27.981  33.221  1.00  0.00     0.034 A 
BRANCH  45  59
ATOM     59  C   UNL A   1      41.636  26.693  27.501  1.00  0.00     0.023 A 
ATOM     60  C   UNL A   1      41.349  25.314  27.499  1.00  0.00     0.031 A 
ATOM     61  C   UNL A   1      42.334  27.228  26.404  1.00  0.00     0.131 A 
ATOM     62  C   UNL A   1      41.812  24.508  26.451  1.00  0.00     0.055 A 
ATOM     63  C   UNL A   1      42.751  26.428  25.339  1.00  0.00     0.041 A 
ATOM     64  F   UNL A   1      42.639  28.535  26.362  1.00  0.00    -0.206 F 
ATOM     65  C   UNL A   1      42.507  25.058  25.369  1.00  0.00     0.022 A 
BRANCH  62  66
ATOM     66  S   UNL A   1      41.619  22.705  26.497  1.00  0.00     0.124 S 
ATOM     67  O   UNL A   1      40.167  22.557  26.434  1.00  0.00    -0.237 OA
ATOM     68  O   UNL A   1      42.341  22.290  25.298  1.00  0.00    -0.237 OA
ATOM     69  O   UNL A   1      42.226  22.320  27.767  1.00  0.00    -0.744 OA
ENDBRANCH  62  66
ENDBRANCH  45  59
BRANCH  46  70
ATOM     70  C   UNL A   1      39.841  32.078  35.739  1.00  0.00     0.023 A 
ATOM     71  C   UNL A   1      38.884  31.646  36.676  1.00  0.00     0.031 A 
ATOM     72  C   UNL A   1      40.446  33.328  35.945  1.00  0.00     0.131 A 
ATOM     73  C   UNL A   1      38.513  32.486  37.732  1.00  0.00     0.055 A 
ATOM     74  C   UNL A   1      40.133  34.128  37.045  1.00  0.00     0.041 A 
ATOM     75  F   UNL A   1      41.353  33.793  35.071  1.00  0.00    -0.206 F 
ATOM     76  C   UNL A   1      39.147  33.715  37.937  1.00  0.00     0.022 A 
BRANCH  73  77
ATOM     77  S   UNL A   1      37.099  32.076  38.793  1.00  0.00     0.124 S 
ATOM     78  O   UNL A   1      36.031  32.874  38.201  1.00  0.00    -0.237 OA
ATOM     79  O   UNL A   1      36.990  30.633  38.598  1.00  0.00    -0.237 OA
ATOM     80  O   UNL A   1      37.534  32.490  40.122  1.00  0.00    -0.744 OA
ENDBRANCH  73  77
ENDBRANCH  46  70
BRANCH  58  81
ATOM     81  C   UNL A   1      44.764  27.370  33.925  1.00  0.00     0.023 A 
ATOM     82  C   UNL A   1      44.602  26.196  34.687  1.00  0.00     0.031 A 
ATOM     83  C   UNL A   1      46.002  28.032  33.986  1.00  0.00     0.131 A 
ATOM     84  C   UNL A   1      45.638  25.753  35.520  1.00  0.00     0.055 A 
ATOM     85  C   UNL A   1      47.054  27.552  34.771  1.00  0.00     0.041 A 
ATOM     86  F   UNL A   1      46.208  29.163  33.292  1.00  0.00    -0.206 F 
ATOM     87  C   UNL A   1      46.867  26.418  35.557  1.00  0.00     0.022 A 
BRANCH  84  88
ATOM     88  S   UNL A   1      45.393  24.366  36.665  1.00  0.00     0.124 S 
ATOM     89  O   UNL A   1      44.632  24.995  37.743  1.00  0.00    -0.237 OA
ATOM     90  O   UNL A   1      44.643  23.420  35.844  1.00  0.00    -0.237 OA
ATOM     91  O   UNL A   1      46.747  23.956  37.018  1.00  0.00    -0.744 OA
ENDBRANCH  84  88
ENDBRANCH  58  81
ENDBRANCH  32  33
ENDBRANCH  25  27
ENDBRANCH  24  25
ENDBRANCH  23  24
ENDBRANCH   1  23
TORSDOF 19
ENDMDL
MODEL 2
REMARK VINA RESULT:     -10.6      2.089      8.221
REMARK SMILES Cc1cc(F)c([C@](C)(NC=O)C(=O)OCCOCCOC(=O)c2ccc(-c3c4nc(c(-c5cc(S(=O)(=O)[O-])ccc5F)c5ccc([nH]5)c(-c5cc(S(=O)(=O)[O-])ccc5F)c5nc(c(-c6cc(S(=O)(=O)[O-])ccc6F)c6ccc3[nH]6)C=C5)C=C4)cc2)cc1F
REMARK SMILES IDX 18 1 17 2 16 3 15 4 14 5 12 6 13 7 7 8 8 9 6 10 1 11 2 12
REMARK SMILES IDX 3 13 87 14 4 15 86 16 88 17 5 18 9 19 10 20 11 22 19 23
REMARK SMILES IDX 20 24 21 25 22 26 23 27 24 28 85 29 25 30 84 31 26 32 27 33
REMARK SMILES IDX 28 34 78 35 29 36 83 37 77 38 79 39 30 40 82 41 76 42 75 43
REMARK SMILES IDX 31 45 63 46 43 47 62 48 44 49 47 50 61 51 80 52 45 53 46 54
REMARK SMILES IDX 60 56 81 57 48 58 32 59 33 60 41 61 34 62 40 63 42 64 39 65
REMARK SMILES IDX 35 66 36 67 37 68 38 69 64 70 65 71 73 72 66 73 72 74 74 75
REMARK SMILES IDX 71 76 67 77 68 78 69 79 70 80 49 81 50 82 58 83 51 84 57 85
REMARK SMILES IDX 59 86 56 87 52 88 53 89 54 90 55 91
REMARK H PARENT 9 21 79 44 47 55
REMARK Flexibility Score: inf
ROOT
ATOM      1  C   UNL A   1      32.048  29.585  25.280  1.00  0.00     0.202 C 
ENDROOT
BRANCH   1   2
ATOM      2  O   UNL A   1      33.327  29.500  24.647  1.00  0.00    -0.374 OA
BRANCH   2   3
ATOM      3  C   UNL A   1      33.424  28.823  23.395  1.00  0.00     0.202 C 
BRANCH   3   4
ATOM      4  C   UNL A   1      32.567  27.572  23.229  1.00  0.00     0.261 C 
BRANCH   4   5
ATOM      5  O   UNL A   1      33.281  26.419  23.690  1.00  0.00    -0.461 OA
BRANCH   5   6
ATOM      6  C   UNL A   1      32.582  25.257  23.669  1.00  0.00     0.336 C 
ATOM      7  O   UNL A   1      31.852  24.909  22.743  1.00  0.00    -0.249 OA
BRANCH   6   8
ATOM      8  C   UNL A   1      32.701  24.442  25.010  1.00  0.00     0.163 C 
ATOM      9  C   UNL A   1      32.519  25.535  26.111  1.00  0.00     0.053 C 
BRANCH   8  10
ATOM     10  C   UNL A   1      34.105  23.828  24.955  1.00  0.00     0.027 A 
ATOM     11  C   UNL A   1      37.470  21.117  24.763  1.00  0.00     0.047 C 
ATOM     12  C   UNL A   1      36.391  22.150  24.849  1.00  0.00    -0.012 A 
ATOM     13  C   UNL A   1      35.744  22.382  26.062  1.00  0.00     0.046 A 
ATOM     14  C   UNL A   1      35.921  22.801  23.709  1.00  0.00     0.126 A 
ATOM     15  C   UNL A   1      34.623  23.206  26.103  1.00  0.00     0.129 A 
ATOM     16  C   UNL A   1      34.802  23.635  23.751  1.00  0.00     0.049 A 
ATOM     17  F   UNL A   1      36.508  22.582  22.522  1.00  0.00    -0.207 F 
ATOM     18  F   UNL A   1      33.980  23.300  27.273  1.00  0.00    -0.207 F 
ENDBRANCH   8  10
BRANCH   8  19
ATOM     19  N   UNL A   1      31.678  23.433  25.386  1.00  0.00    -0.339 N 
ATOM     20  C   UNL A   1      30.853  23.359  26.461  1.00  0.00     0.338 C 
ATOM     21  H   UNL A   1      31.583  22.692  24.745  1.00  0.00     0.164 HD
ATOM     22  O   UNL A   1      29.970  22.510  26.515  1.00  0.00    -0.279 OA
ENDBRANCH   8  19
ENDBRANCH   6   8
ENDBRANCH   5   6
ENDBRANCH   4   5
ENDBRANCH   3   4
ENDBRANCH   2   3
ENDBRANCH   1   2
BRANCH   1  23
ATOM     23  C   UNL A   1      31.716  30.848  26.082  1.00  0.00     0.261 C 
BRANCH  23  24
ATOM     24  O   UNL A   1      32.418  30.902  27.337  1.00  0.00    -0.460 OA
BRANCH  24  25
ATOM     25  C   UNL A   1      33.226  31.979  27.496  1.00  0.00     0.338 C 
ATOM     26  O   UNL A   1      32.889  33.154  27.475  1.00  0.00    -0.246 OA
BRANCH  25  27
ATOM     27  C   UNL A   1      34.559  31.531  27.949  1.00  0.00     0.060 A 
ATOM     28  C   UNL A   1      35.611  32.429  28.135  1.00  0.00     0.016 A 
ATOM     29  C   UNL A   1      34.733  30.168  28.225  1.00  0.00     0.016 A 
ATOM     30  C   UNL A   1      36.828  31.959  28.643  1.00  0.00     0.010 A 
ATOM     31  C   UNL A   1      35.948  29.703  28.728  1.00  0.00     0.010 A 
ATOM     32  C   UNL A   1      36.998  30.599  28.968  1.00  0.00    -0.014 A 
BRANCH  32  33
ATOM     33  C   UNL A   1      38.206  30.145  29.708  1.00  0.00     0.031 A 
ATOM     34  C   UNL A   1      38.557  30.685  31.063  1.00  0.00     0.074 A 
ATOM     35  C   UNL A   1      39.025  29.261  29.106  1.00  0.00     0.049 A 
ATOM     36  N   UNL A   1      39.555  30.354  31.840  1.00  0.00    -0.248 NA
ATOM     37  C   UNL A   1      37.687  31.735  31.615  1.00  0.00     0.031 C 
ATOM     38  C   UNL A   1      38.817  28.716  27.764  1.00  0.00     0.029 A 
ATOM     39  N   UNL A   1      40.190  28.669  29.528  1.00  0.00    -0.354 N 
ATOM     40  C   UNL A   1      39.431  31.138  32.981  1.00  0.00     0.074 A 
ATOM     41  C   UNL A   1      38.285  31.999  32.772  1.00  0.00     0.031 C 
ATOM     42  C   UNL A   1      39.802  27.852  27.483  1.00  0.00     0.029 A 
ATOM     43  C   UNL A   1      40.738  27.809  28.604  1.00  0.00     0.049 A 
ATOM     44  H   UNL A   1      40.595  28.842  30.409  1.00  0.00     0.167 HD
ATOM     45  C   UNL A   1      40.190  31.118  34.103  1.00  0.00     0.034 A 
ATOM     46  C   UNL A   1      41.867  27.068  28.646  1.00  0.00     0.034 A 
ATOM     47  C   UNL A   1      41.331  30.252  34.291  1.00  0.00     0.049 A 
ATOM     48  C   UNL A   1      42.702  27.078  29.901  1.00  0.00     0.074 A 
ATOM     49  C   UNL A   1      42.120  30.120  35.421  1.00  0.00     0.029 A 
ATOM     50  N   UNL A   1      41.852  29.386  33.342  1.00  0.00    -0.354 N 
ATOM     51  N   UNL A   1      42.495  27.728  31.022  1.00  0.00    -0.248 NA
ATOM     52  C   UNL A   1      43.911  26.243  29.912  1.00  0.00     0.031 C 
ATOM     53  C   UNL A   1      43.164  29.244  35.128  1.00  0.00     0.029 A 
ATOM     54  C   UNL A   1      42.975  28.748  33.849  1.00  0.00     0.049 A 
ATOM     55  H   UNL A   1      41.482  29.244  32.440  1.00  0.00     0.167 HD
ATOM     56  C   UNL A   1      43.529  27.356  31.879  1.00  0.00     0.074 A 
ATOM     57  C   UNL A   1      44.343  26.403  31.156  1.00  0.00     0.031 C 
ATOM     58  C   UNL A   1      43.778  27.775  33.144  1.00  0.00     0.034 A 
BRANCH  45  59
ATOM     59  C   UNL A   1      39.823  32.019  35.259  1.00  0.00     0.023 A 
ATOM     60  C   UNL A   1      39.062  31.515  36.331  1.00  0.00     0.031 A 
ATOM     61  C   UNL A   1      40.047  33.406  35.197  1.00  0.00     0.131 A 
ATOM     62  C   UNL A   1      38.500  32.398  37.262  1.00  0.00     0.055 A 
ATOM     63  C   UNL A   1      39.524  34.277  36.155  1.00  0.00     0.041 A 
ATOM     64  F   UNL A   1      40.760  33.938  34.191  1.00  0.00    -0.206 F 
ATOM     65  C   UNL A   1      38.731  33.775  37.182  1.00  0.00     0.022 A 
BRANCH  62  66
ATOM     66  S   UNL A   1      37.368  31.808  38.551  1.00  0.00     0.124 S 
ATOM     67  O   UNL A   1      37.116  30.434  38.123  1.00  0.00    -0.237 OA
ATOM     68  O   UNL A   1      38.179  31.947  39.756  1.00  0.00    -0.237 OA
ATOM     69  O   UNL A   1      36.223  32.708  38.450  1.00  0.00    -0.744 OA
ENDBRANCH  62  66
ENDBRANCH  45  59
BRANCH  46  70
ATOM     70  C   UNL A   1      42.221  26.214  27.472  1.00  0.00     0.023 A 
ATOM     71  C   UNL A   1      41.819  24.867  27.413  1.00  0.00     0.031 A 
ATOM     72  C   UNL A   1      43.044  26.701  26.443  1.00  0.00     0.131 A 
ATOM     73  C   UNL A   1      42.296  24.040  26.389  1.00  0.00     0.055 A 
ATOM     74  C   UNL A   1      43.452  25.894  25.380  1.00  0.00     0.041 A 
ATOM     75  F   UNL A   1      43.469  27.974  26.462  1.00  0.00    -0.206 F 
ATOM     76  C   UNL A   1      43.092  24.549  25.359  1.00  0.00     0.022 A 
BRANCH  73  77
ATOM     77  S   UNL A   1      42.017  22.247  26.437  1.00  0.00     0.124 S 
ATOM     78  O   UNL A   1      40.591  22.153  26.145  1.00  0.00    -0.237 OA
ATOM     79  O   UNL A   1      42.910  21.779  25.380  1.00  0.00    -0.237 OA
ATOM     80  O   UNL A   1      42.412  21.874  27.791  1.00  0.00    -0.744 OA
ENDBRANCH  73  77
ENDBRANCH  46  70
BRANCH  58  81
ATOM     81  C   UNL A   1      44.974  27.213  33.883  1.00  0.00     0.023 A 
ATOM     82  C   UNL A   1      44.837  26.034  34.643  1.00  0.00     0.031 A 
ATOM     83  C   UNL A   1      46.182  27.924  33.978  1.00  0.00     0.131 A 
ATOM     84  C   UNL A   1      45.865  25.633  35.506  1.00  0.00     0.055 A 
ATOM     85  C   UNL A   1      47.229  27.487  34.793  1.00  0.00     0.041 A 
ATOM     86  F   UNL A   1      46.361  29.062  33.288  1.00  0.00    -0.206 F 
ATOM     87  C   UNL A   1      47.065  26.347  35.576  1.00  0.00     0.022 A 
BRANCH  84  88
ATOM     88  S   UNL A   1      45.644  24.239  36.645  1.00  0.00     0.124 S 
ATOM     89  O   UNL A   1      44.700  23.397  35.912  1.00  0.00    -0.237 OA
ATOM     90  O   UNL A   1      47.000  23.708  36.749  1.00  0.00    -0.237 OA
ATOM     91  O   UNL A   1      45.114  24.854  37.857  1.00  0.00    -0.744 OA
ENDBRANCH  84  88
ENDBRANCH  58  81
ENDBRANCH  32  33
ENDBRANCH  25  27
ENDBRANCH  24  25
ENDBRANCH  23  24
ENDBRANCH   1  23
TORSDOF 19
ENDMDL
MODEL 3
REMARK VINA RESULT:     -10.4      5.307     10.596
REMARK SMILES Cc1cc(F)c([C@](C)(NC=O)C(=O)OCCOCCOC(=O)c2ccc(-c3c4nc(c(-c5cc(S(=O)(=O)[O-])ccc5F)c5ccc([nH]5)c(-c5cc(S(=O)(=O)[O-])ccc5F)c5nc(c(-c6cc(S(=O)(=O)[O-])ccc6F)c6ccc3[nH]6)C=C5)C=C4)cc2)cc1F
REMARK SMILES IDX 18 1 17 2 16 3 15 4 14 5 12 6 13 7 7 8 8 9 6 10 1 11 2 12
REMARK SMILES IDX 3 13 87 14 4 15 86 16 88 17 5 18 9 19 10 20 11 22 19 23
REMARK SMILES IDX 20 24 21 25 22 26 23 27 24 28 85 29 25 30 84 31 26 32 27 33
REMARK SMILES IDX 28 34 78 35 29 36 83 37 77 38 79 39 30 40 82 41 76 42 75 43
REMARK SMILES IDX 31 45 63 46 43 47 62 48 44 49 47 50 61 51 80 52 45 53 46 54
REMARK SMILES IDX 60 56 81 57 48 58 32 59 33 60 41 61 34 62 40 63 42 64 39 65
REMARK SMILES IDX 35 66 36 67 37 68 38 69 64 70 65 71 73 72 66 73 72 74 74 75
REMARK SMILES IDX 71 76 67 77 68 78 69 79 70 80 49 81 50 82 58 83 51 84 57 85
REMARK SMILES IDX 59 86 56 87 52 88 53 89 54 90 55 91
REMARK H PARENT 9 21 79 44 47 55
REMARK Flexibility Score: inf
ROOT
ATOM      1  C   UNL A   1      37.435  20.170  24.890  1.00  0.00     0.202 C 
ENDROOT
BRANCH   1   2
ATOM      2  O   UNL A   1      37.692  21.454  24.316  1.00  0.00    -0.374 OA
BRANCH   2   3
ATOM      3  C   UNL A   1      36.587  22.321  24.062  1.00  0.00     0.202 C 
BRANCH   3   4
ATOM      4  C   UNL A   1      35.854  22.864  25.285  1.00  0.00     0.261 C 
BRANCH   4   5
ATOM      5  O   UNL A   1      34.601  22.190  25.450  1.00  0.00    -0.461 OA
BRANCH   5   6
ATOM      6  C   UNL A   1      33.798  22.688  26.423  1.00  0.00     0.336 C 
ATOM      7  O   UNL A   1      34.165  22.898  27.578  1.00  0.00    -0.249 OA
BRANCH   6   8
ATOM      8  C   UNL A   1      32.303  22.858  25.962  1.00  0.00     0.163 C 
ATOM      9  C   UNL A   1      31.951  21.461  25.362  1.00  0.00     0.053 C 
BRANCH   8  10
ATOM     10  C   UNL A   1      32.354  23.994  24.933  1.00  0.00     0.027 A 
ATOM     11  C   UNL A   1      33.622  27.113  22.218  1.00  0.00     0.047 C 
ATOM     12  C   UNL A   1      33.062  26.071  23.134  1.00  0.00    -0.012 A 
ATOM     13  C   UNL A   1      32.956  26.329  24.500  1.00  0.00     0.046 A 
ATOM     14  C   UNL A   1      32.760  24.790  22.673  1.00  0.00     0.126 A 
ATOM     15  C   UNL A   1      32.609  25.304  25.374  1.00  0.00     0.129 A 
ATOM     16  C   UNL A   1      32.402  23.763  23.549  1.00  0.00     0.049 A 
ATOM     17  F   UNL A   1      32.873  24.504  21.367  1.00  0.00    -0.207 F 
ATOM     18  F   UNL A   1      32.634  25.584  26.682  1.00  0.00    -0.207 F 
ENDBRANCH   8  10
BRANCH   8  19
ATOM     19  N   UNL A   1      31.216  23.067  26.952  1.00  0.00    -0.339 N 
ATOM     20  C   UNL A   1      29.904  22.719  26.921  1.00  0.00     0.338 C 
ATOM     21  H   UNL A   1      31.495  23.538  27.771  1.00  0.00     0.164 HD
ATOM     22  O   UNL A   1      29.196  22.858  27.912  1.00  0.00    -0.279 OA
ENDBRANCH   8  19
ENDBRANCH   6   8
ENDBRANCH   5   6
ENDBRANCH   4   5
ENDBRANCH   3   4
ENDBRANCH   2   3
ENDBRANCH   1   2
BRANCH   1  23
ATOM     23  C   UNL A   1      38.616  19.378  25.461  1.00  0.00     0.261 C 
BRANCH  23  24
ATOM     24  O   UNL A   1      39.853  20.108  25.388  1.00  0.00    -0.460 OA
BRANCH  24  25
ATOM     25  C   UNL A   1      40.600  20.088  26.520  1.00  0.00     0.338 C 
ATOM     26  O   UNL A   1      41.177  19.121  26.996  1.00  0.00    -0.246 OA
BRANCH  25  27
ATOM     27  C   UNL A   1      40.828  21.472  26.983  1.00  0.00     0.060 A 
ATOM     28  C   UNL A   1      41.597  21.750  28.114  1.00  0.00     0.016 A 
ATOM     29  C   UNL A   1      40.275  22.516  26.228  1.00  0.00     0.016 A 
ATOM     30  C   UNL A   1      41.846  23.083  28.459  1.00  0.00     0.010 A 
ATOM     31  C   UNL A   1      40.523  23.843  26.577  1.00  0.00     0.010 A 
ATOM     32  C   UNL A   1      41.334  24.139  27.681  1.00  0.00    -0.014 A 
BRANCH  32  33
ATOM     33  C   UNL A   1      41.779  25.538  27.918  1.00  0.00     0.031 A 
ATOM     34  C   UNL A   1      40.883  26.559  28.554  1.00  0.00     0.074 A 
ATOM     35  C   UNL A   1      43.007  25.896  27.494  1.00  0.00     0.049 A 
ATOM     36  N   UNL A   1      41.148  27.804  28.857  1.00  0.00    -0.248 NA
ATOM     37  C   UNL A   1      39.513  26.139  28.887  1.00  0.00     0.031 C 
ATOM     38  C   UNL A   1      43.940  25.003  26.805  1.00  0.00     0.029 A 
ATOM     39  N   UNL A   1      43.682  27.089  27.569  1.00  0.00    -0.354 N 
ATOM     40  C   UNL A   1      39.991  28.316  29.431  1.00  0.00     0.074 A 
ATOM     41  C   UNL A   1      39.002  27.259  29.387  1.00  0.00     0.031 C 
ATOM     42  C   UNL A   1      45.073  25.669  26.545  1.00  0.00     0.029 A 
ATOM     43  C   UNL A   1      44.938  27.049  27.007  1.00  0.00     0.049 A 
ATOM     44  H   UNL A   1      43.304  27.897  27.985  1.00  0.00     0.167 HD
ATOM     45  C   UNL A   1      39.788  29.546  29.963  1.00  0.00     0.034 A 
ATOM     46  C   UNL A   1      45.878  28.008  26.874  1.00  0.00     0.034 A 
ATOM     47  C   UNL A   1      40.788  30.587  29.994  1.00  0.00     0.049 A 
ATOM     48  C   UNL A   1      45.619  29.373  27.461  1.00  0.00     0.074 A 
ATOM     49  C   UNL A   1      40.690  31.842  30.570  1.00  0.00     0.029 A 
ATOM     50  N   UNL A   1      42.052  30.511  29.428  1.00  0.00    -0.354 N 
ATOM     51  N   UNL A   1      44.566  29.800  28.117  1.00  0.00    -0.248 NA
ATOM     52  C   UNL A   1      46.676  30.382  27.311  1.00  0.00     0.031 C 
ATOM     53  C   UNL A   1      41.853  32.552  30.279  1.00  0.00     0.029 A 
ATOM     54  C   UNL A   1      42.725  31.710  29.608  1.00  0.00     0.049 A 
ATOM     55  H   UNL A   1      42.418  29.722  28.965  1.00  0.00     0.167 HD
ATOM     56  C   UNL A   1      44.848  31.114  28.484  1.00  0.00     0.074 A 
ATOM     57  C   UNL A   1      46.181  31.402  28.001  1.00  0.00     0.031 C 
ATOM     58  C   UNL A   1      44.066  31.997  29.153  1.00  0.00     0.034 A 
BRANCH  45  59
ATOM     59  C   UNL A   1      38.457  29.863  30.602  1.00  0.00     0.023 A 
ATOM     60  C   UNL A   1      37.518  30.659  29.918  1.00  0.00     0.031 A 
ATOM     61  C   UNL A   1      38.209  29.555  31.952  1.00  0.00     0.131 A 
ATOM     62  C   UNL A   1      36.408  31.171  30.602  1.00  0.00     0.055 A 
ATOM     63  C   UNL A   1      37.076  30.029  32.616  1.00  0.00     0.041 A 
ATOM     64  F   UNL A   1      39.077  28.806  32.651  1.00  0.00    -0.206 F 
ATOM     65  C   UNL A   1      36.179  30.856  31.946  1.00  0.00     0.022 A 
BRANCH  62  66
ATOM     66  S   UNL A   1      35.273  32.343  29.809  1.00  0.00     0.124 S 
ATOM     67  O   UNL A   1      34.658  31.511  28.777  1.00  0.00    -0.237 OA
ATOM     68  O   UNL A   1      34.396  32.715  30.914  1.00  0.00    -0.237 OA
ATOM     69  O   UNL A   1      36.150  33.398  29.312  1.00  0.00    -0.744 OA
ENDBRANCH  62  66
ENDBRANCH  45  59
BRANCH  46  70
ATOM     70  C   UNL A   1      47.172  27.672  26.205  1.00  0.00     0.023 A 
ATOM     71  C   UNL A   1      47.361  27.927  24.834  1.00  0.00     0.031 A 
ATOM     72  C   UNL A   1      48.195  27.006  26.899  1.00  0.00     0.131 A 
ATOM     73  C   UNL A   1      48.513  27.458  24.190  1.00  0.00     0.055 A 
ATOM     74  C   UNL A   1      49.378  26.613  26.271  1.00  0.00     0.041 A 
ATOM     75  F   UNL A   1      48.055  26.725  28.204  1.00  0.00    -0.206 F 
ATOM     76  C   UNL A   1      49.533  26.823  24.904  1.00  0.00     0.022 A 
BRANCH  73  77
ATOM     77  S   UNL A   1      48.662  27.532  22.383  1.00  0.00     0.124 S 
ATOM     78  O   UNL A   1      48.676  26.119  22.020  1.00  0.00    -0.237 OA
ATOM     79  O   UNL A   1      47.454  28.266  22.015  1.00  0.00    -0.237 OA
ATOM     80  O   UNL A   1      49.913  28.252  22.170  1.00  0.00    -0.744 OA
ENDBRANCH  73  77
ENDBRANCH  46  70
BRANCH  58  81
ATOM     81  C   UNL A   1      44.604  33.382  29.444  1.00  0.00     0.023 A 
ATOM     82  C   UNL A   1      44.497  34.394  28.469  1.00  0.00     0.031 A 
ATOM     83  C   UNL A   1      45.363  33.650  30.595  1.00  0.00     0.131 A 
ATOM     84  C   UNL A   1      45.186  35.603  28.636  1.00  0.00     0.055 A 
ATOM     85  C   UNL A   1      45.998  34.880  30.786  1.00  0.00     0.041 A 
ATOM     86  F   UNL A   1      45.510  32.717  31.550  1.00  0.00    -0.206 F 
ATOM     87  C   UNL A   1      45.926  35.855  29.795  1.00  0.00     0.022 A 
BRANCH  84  88
ATOM     88  S   UNL A   1      45.237  36.844  27.314  1.00  0.00     0.124 S 
ATOM     89  O   UNL A   1      43.818  37.012  27.002  1.00  0.00    -0.237 OA
ATOM     90  O   UNL A   1      45.865  37.980  27.982  1.00  0.00    -0.237 OA
ATOM     91  O   UNL A   1      46.031  36.213  26.266  1.00  0.00    -0.744 OA
ENDBRANCH  84  88
ENDBRANCH  58  81
ENDBRANCH  32  33
ENDBRANCH  25  27
ENDBRANCH  24  25
ENDBRANCH  23  24
ENDBRANCH   1  23
TORSDOF 19
ENDMDL
