MODEL 1
REMARK VINA RESULT:     -10.7      0.000      0.000
REMARK SMILES C[C@@H](NC(=O)C(C)(C)C)C(=O)N[C@H](C)C(=O)OCCOCCOC(=O)c1ccc(-c2c3nc(c(-c4cc(S(=O)(=O)[O-])ccc4F)c4ccc([nH]4)c(-c4cc(S(=O)(=O)[O-])ccc4F)c4nc(c(-c5cc(S(=O)(=O)[O-])ccc5F)c5ccc2[nH]5)C=C4)C=C3)cc1
REMARK SMILES IDX 19 1 18 2 17 3 15 4 16 5 13 6 14 7 12 8 10 9 11 10 2 12 1 13
REMARK SMILES IDX 3 14 4 15 5 17 6 18 7 19 8 20 9 21 20 22 21 23 22 24 23 25
REMARK SMILES IDX 24 26 25 27 26 28 27 29 88 30 28 31 87 32 29 33 30 34 31 35
REMARK SMILES IDX 81 36 32 37 86 38 80 39 82 40 33 41 85 42 79 43 78 44 34 46
REMARK SMILES IDX 66 47 46 48 65 49 47 50 50 51 64 52 83 53 48 54 49 55 63 57
REMARK SMILES IDX 84 58 51 59 35 60 36 61 44 62 37 63 43 64 45 65 42 66 38 67
REMARK SMILES IDX 39 68 40 69 41 70 67 71 68 72 76 73 69 74 75 75 77 76 74 77
REMARK SMILES IDX 70 78 71 79 72 80 73 81 52 82 53 83 61 84 54 85 60 86 62 87
REMARK SMILES IDX 59 88 55 89 56 90 57 91 58 92
REMARK H PARENT 12 11 3 16 82 45 50 56
REMARK Flexibility Score: inf
ROOT
ATOM      1  C   UNL A   1      31.146  29.933  24.651  1.00  0.00     0.202 C 
ENDROOT
BRANCH   1   2
ATOM      2  C   UNL A   1      31.779  28.846  23.771  1.00  0.00     0.261 C 
BRANCH   2   3
ATOM      3  O   UNL A   1      30.862  27.738  23.676  1.00  0.00    -0.462 OA
BRANCH   3   4
ATOM      4  C   UNL A   1      30.813  26.855  24.703  1.00  0.00     0.328 C 
ATOM      5  O   UNL A   1      31.618  26.815  25.627  1.00  0.00    -0.250 OA
BRANCH   4   6
ATOM      6  C   UNL A   1      29.680  25.815  24.525  1.00  0.00     0.189 C 
ATOM      7  C   UNL A   1      28.375  26.393  24.009  1.00  0.00     0.043 C 
BRANCH   6   8
ATOM      8  N   UNL A   1      30.275  24.647  23.866  1.00  0.00    -0.341 N 
ATOM      9  C   UNL A   1      31.014  23.563  24.194  1.00  0.00     0.242 C 
ATOM     10  O   UNL A   1      31.260  22.792  23.256  1.00  0.00    -0.273 OA
ATOM     11  H   UNL A   1      30.079  24.655  22.901  1.00  0.00     0.164 HD
BRANCH   9  12
ATOM     12  C   UNL A   1      31.725  23.335  25.542  1.00  0.00     0.168 C 
ATOM     13  C   UNL A   1      30.626  22.983  26.561  1.00  0.00     0.041 C 
BRANCH  12  14
ATOM     14  N   UNL A   1      32.842  22.395  25.649  1.00  0.00    -0.344 N 
ATOM     15  C   UNL A   1      34.196  22.542  25.631  1.00  0.00     0.226 C 
ATOM     16  H   UNL A   1      32.555  21.459  25.756  1.00  0.00     0.164 HD
ATOM     17  O   UNL A   1      34.806  21.650  26.233  1.00  0.00    -0.275 OA
BRANCH  15  18
ATOM     18  C   UNL A   1      34.956  23.645  24.861  1.00  0.00     0.041 C 
ATOM     19  C   UNL A   1      36.457  23.542  25.137  1.00  0.00     0.021 C 
ATOM     20  C   UNL A   1      34.673  23.639  23.357  1.00  0.00     0.021 C 
ATOM     21  C   UNL A   1      34.530  25.028  25.415  1.00  0.00     0.021 C 
ENDBRANCH  15  18
ENDBRANCH  12  14
ENDBRANCH   9  12
ENDBRANCH   6   8
ENDBRANCH   4   6
ENDBRANCH   3   4
ENDBRANCH   2   3
ENDBRANCH   1   2
BRANCH   1  22
ATOM     22  O   UNL A   1      32.003  30.408  25.700  1.00  0.00    -0.374 OA
BRANCH  22  23
ATOM     23  C   UNL A   1      31.501  31.502  26.464  1.00  0.00     0.202 C 
BRANCH  23  24
ATOM     24  C   UNL A   1      32.460  32.137  27.473  1.00  0.00     0.261 C 
BRANCH  24  25
ATOM     25  O   UNL A   1      32.445  33.570  27.414  1.00  0.00    -0.460 OA
BRANCH  25  26
ATOM     26  C   UNL A   1      33.278  34.150  28.314  1.00  0.00     0.338 C 
ATOM     27  O   UNL A   1      33.050  35.150  28.973  1.00  0.00    -0.246 OA
BRANCH  26  28
ATOM     28  C   UNL A   1      34.491  33.335  28.514  1.00  0.00     0.060 A 
ATOM     29  C   UNL A   1      34.315  32.093  29.135  1.00  0.00     0.016 A 
ATOM     30  C   UNL A   1      35.774  33.805  28.221  1.00  0.00     0.016 A 
ATOM     31  C   UNL A   1      35.420  31.351  29.536  1.00  0.00     0.010 A 
ATOM     32  C   UNL A   1      36.886  33.055  28.626  1.00  0.00     0.010 A 
ATOM     33  C   UNL A   1      36.713  31.848  29.326  1.00  0.00    -0.014 A 
BRANCH  33  34
ATOM     34  C   UNL A   1      37.858  31.164  29.981  1.00  0.00     0.031 A 
ATOM     35  C   UNL A   1      38.146  31.445  31.433  1.00  0.00     0.074 A 
ATOM     36  C   UNL A   1      38.580  30.245  29.314  1.00  0.00     0.049 A 
ATOM     37  N   UNL A   1      39.091  30.966  32.201  1.00  0.00    -0.248 NA
ATOM     38  C   UNL A   1      37.244  32.390  32.110  1.00  0.00     0.031 C 
ATOM     39  C   UNL A   1      38.357  29.847  27.924  1.00  0.00     0.029 A 
ATOM     40  N   UNL A   1      39.643  29.476  29.716  1.00  0.00    -0.354 N 
ATOM     41  C   UNL A   1      38.894  31.542  33.452  1.00  0.00     0.074 A 
ATOM     42  C   UNL A   1      37.765  32.440  33.326  1.00  0.00     0.031 C 
ATOM     43  C   UNL A   1      39.262  28.913  27.588  1.00  0.00     0.029 A 
ATOM     44  C   UNL A   1      40.154  28.677  28.721  1.00  0.00     0.049 A 
ATOM     45  H   UNL A   1      40.006  29.496  30.631  1.00  0.00     0.167 HD
ATOM     46  C   UNL A   1      39.581  31.331  34.601  1.00  0.00     0.034 A 
ATOM     47  C   UNL A   1      41.236  27.870  28.716  1.00  0.00     0.034 A 
ATOM     48  C   UNL A   1      40.714  30.443  34.709  1.00  0.00     0.049 A 
ATOM     49  C   UNL A   1      42.046  27.728  29.985  1.00  0.00     0.074 A 
ATOM     50  C   UNL A   1      41.492  30.171  35.821  1.00  0.00     0.029 A 
ATOM     51  N   UNL A   1      41.234  29.688  33.667  1.00  0.00    -0.354 N 
ATOM     52  N   UNL A   1      41.854  28.287  31.158  1.00  0.00    -0.248 NA
ATOM     53  C   UNL A   1      43.213  26.837  29.931  1.00  0.00     0.031 C 
ATOM     54  C   UNL A   1      42.519  29.302  35.436  1.00  0.00     0.029 A 
ATOM     55  C   UNL A   1      42.338  28.970  34.104  1.00  0.00     0.049 A 
ATOM     56  H   UNL A   1      40.873  29.665  32.752  1.00  0.00     0.167 HD
ATOM     57  C   UNL A   1      42.856  27.786  31.987  1.00  0.00     0.074 A 
ATOM     58  C   UNL A   1      43.636  26.869  31.186  1.00  0.00     0.031 C 
ATOM     59  C   UNL A   1      43.108  28.058  33.292  1.00  0.00     0.034 A 
BRANCH  46  60
ATOM     60  C   UNL A   1      39.151  32.106  35.823  1.00  0.00     0.023 A 
ATOM     61  C   UNL A   1      38.424  31.501  36.863  1.00  0.00     0.031 A 
ATOM     62  C   UNL A   1      39.474  33.469  35.950  1.00  0.00     0.131 A 
ATOM     63  C   UNL A   1      37.999  32.269  37.959  1.00  0.00     0.055 A 
ATOM     64  C   UNL A   1      39.111  34.210  37.076  1.00  0.00     0.041 A 
ATOM     65  F   UNL A   1      40.148  34.105  34.978  1.00  0.00    -0.206 F 
ATOM     66  C   UNL A   1      38.360  33.614  38.084  1.00  0.00     0.022 A 
BRANCH  63  67
ATOM     67  S   UNL A   1      36.875  31.517  39.166  1.00  0.00     0.124 S 
ATOM     68  O   UNL A   1      35.736  32.430  39.119  1.00  0.00    -0.237 OA
ATOM     69  O   UNL A   1      36.653  30.188  38.607  1.00  0.00    -0.237 OA
ATOM     70  O   UNL A   1      37.639  31.548  40.412  1.00  0.00    -0.744 OA
ENDBRANCH  63  67
ENDBRANCH  46  60
BRANCH  47  71
ATOM     71  C   UNL A   1      41.662  27.176  27.466  1.00  0.00     0.023 A 
ATOM     72  C   UNL A   1      41.599  25.779  27.347  1.00  0.00     0.031 A 
ATOM     73  C   UNL A   1      42.221  27.902  26.399  1.00  0.00     0.131 A 
ATOM     74  C   UNL A   1      42.146  25.147  26.219  1.00  0.00     0.055 A 
ATOM     75  C   UNL A   1      42.706  27.274  25.250  1.00  0.00     0.041 A 
ATOM     76  F   UNL A   1      42.310  29.240  26.459  1.00  0.00    -0.206 F 
ATOM     77  C   UNL A   1      42.687  25.886  25.164  1.00  0.00     0.022 A 
BRANCH  74  78
ATOM     78  S   UNL A   1      42.257  23.337  26.206  1.00  0.00     0.124 S 
ATOM     79  O   UNL A   1      43.270  23.094  27.226  1.00  0.00    -0.237 OA
ATOM     80  O   UNL A   1      40.893  22.950  26.549  1.00  0.00    -0.237 OA
ATOM     81  O   UNL A   1      42.664  23.031  24.835  1.00  0.00    -0.744 OA
ENDBRANCH  74  78
ENDBRANCH  47  71
BRANCH  59  82
ATOM     82  C   UNL A   1      44.244  27.307  33.945  1.00  0.00     0.023 A 
ATOM     83  C   UNL A   1      44.093  25.989  34.408  1.00  0.00     0.031 A 
ATOM     84  C   UNL A   1      45.495  27.928  34.113  1.00  0.00     0.131 A 
ATOM     85  C   UNL A   1      45.155  25.354  35.070  1.00  0.00     0.055 A 
ATOM     86  C   UNL A   1      46.567  27.269  34.717  1.00  0.00     0.041 A 
ATOM     87  F   UNL A   1      45.697  29.186  33.690  1.00  0.00    -0.206 F 
ATOM     88  C   UNL A   1      46.396  25.980  35.212  1.00  0.00     0.022 A 
BRANCH  85  89
ATOM     89  S   UNL A   1      44.867  23.730  35.825  1.00  0.00     0.124 S 
ATOM     90  O   UNL A   1      43.456  23.504  35.530  1.00  0.00    -0.237 OA
ATOM     91  O   UNL A   1      45.812  22.880  35.107  1.00  0.00    -0.237 OA
ATOM     92  O   UNL A   1      45.179  23.947  37.236  1.00  0.00    -0.744 OA
ENDBRANCH  85  89
ENDBRANCH  59  82
ENDBRANCH  33  34
ENDBRANCH  26  28
ENDBRANCH  25  26
ENDBRANCH  24  25
ENDBRANCH  23  24
ENDBRANCH  22  23
ENDBRANCH   1  22
TORSDOF 21
ENDMDL
MODEL 2
REMARK VINA RESULT:     -10.4      2.625      8.093
REMARK SMILES C[C@@H](NC(=O)C(C)(C)C)C(=O)N[C@H](C)C(=O)OCCOCCOC(=O)c1ccc(-c2c3nc(c(-c4cc(S(=O)(=O)[O-])ccc4F)c4ccc([nH]4)c(-c4cc(S(=O)(=O)[O-])ccc4F)c4nc(c(-c5cc(S(=O)(=O)[O-])ccc5F)c5ccc2[nH]5)C=C4)C=C3)cc1
REMARK SMILES IDX 19 1 18 2 17 3 15 4 16 5 13 6 14 7 12 8 10 9 11 10 2 12 1 13
REMARK SMILES IDX 3 14 4 15 5 17 6 18 7 19 8 20 9 21 20 22 21 23 22 24 23 25
REMARK SMILES IDX 24 26 25 27 26 28 27 29 88 30 28 31 87 32 29 33 30 34 31 35
REMARK SMILES IDX 81 36 32 37 86 38 80 39 82 40 33 41 85 42 79 43 78 44 34 46
REMARK SMILES IDX 66 47 46 48 65 49 47 50 50 51 64 52 83 53 48 54 49 55 63 57
REMARK SMILES IDX 84 58 51 59 35 60 36 61 44 62 37 63 43 64 45 65 42 66 38 67
REMARK SMILES IDX 39 68 40 69 41 70 67 71 68 72 76 73 69 74 75 75 77 76 74 77
REMARK SMILES IDX 70 78 71 79 72 80 73 81 52 82 53 83 61 84 54 85 60 86 62 87
REMARK SMILES IDX 59 88 55 89 56 90 57 91 58 92
REMARK H PARENT 12 11 3 16 82 45 50 56
REMARK Flexibility Score: inf
ROOT
ATOM      1  C   UNL A   1      31.737  30.548  26.093  1.00  0.00     0.202 C 
ENDROOT
BRANCH   1   2
ATOM      2  C   UNL A   1      31.899  29.671  24.842  1.00  0.00     0.261 C 
BRANCH   2   3
ATOM      3  O   UNL A   1      30.628  29.591  24.168  1.00  0.00    -0.462 OA
BRANCH   3   4
ATOM      4  C   UNL A   1      30.555  28.876  23.020  1.00  0.00     0.328 C 
ATOM      5  O   UNL A   1      30.232  29.336  21.930  1.00  0.00    -0.250 OA
BRANCH   4   6
ATOM      6  C   UNL A   1      30.821  27.368  23.252  1.00  0.00     0.189 C 
ATOM      7  C   UNL A   1      29.575  26.549  23.539  1.00  0.00     0.043 C 
BRANCH   6   8
ATOM      8  N   UNL A   1      31.757  26.936  22.207  1.00  0.00    -0.341 N 
ATOM      9  C   UNL A   1      32.834  26.128  22.081  1.00  0.00     0.242 C 
ATOM     10  O   UNL A   1      33.296  26.046  20.934  1.00  0.00    -0.273 OA
ATOM     11  H   UNL A   1      31.537  27.359  21.346  1.00  0.00     0.164 HD
BRANCH   9  12
ATOM     12  C   UNL A   1      33.627  25.499  23.242  1.00  0.00     0.168 C 
ATOM     13  C   UNL A   1      33.986  26.650  24.199  1.00  0.00     0.041 C 
BRANCH  12  14
ATOM     14  N   UNL A   1      33.087  24.362  23.989  1.00  0.00    -0.344 N 
ATOM     15  C   UNL A   1      33.641  23.442  24.827  1.00  0.00     0.226 C 
ATOM     16  H   UNL A   1      32.119  24.235  23.858  1.00  0.00     0.164 HD
ATOM     17  O   UNL A   1      32.845  22.964  25.645  1.00  0.00    -0.275 OA
BRANCH  15  18
ATOM     18  C   UNL A   1      35.096  22.932  24.743  1.00  0.00     0.041 C 
ATOM     19  C   UNL A   1      36.029  23.872  25.507  1.00  0.00     0.021 C 
ATOM     20  C   UNL A   1      35.261  21.488  25.222  1.00  0.00     0.021 C 
ATOM     21  C   UNL A   1      35.565  22.996  23.267  1.00  0.00     0.021 C 
ENDBRANCH  15  18
ENDBRANCH  12  14
ENDBRANCH   9  12
ENDBRANCH   6   8
ENDBRANCH   4   6
ENDBRANCH   3   4
ENDBRANCH   2   3
ENDBRANCH   1   2
BRANCH   1  22
ATOM     22  O   UNL A   1      32.494  30.096  27.226  1.00  0.00    -0.374 OA
BRANCH  22  23
ATOM     23  C   UNL A   1      33.595  30.917  27.603  1.00  0.00     0.202 C 
BRANCH  23  24
ATOM     24  C   UNL A   1      33.517  32.397  27.219  1.00  0.00     0.261 C 
BRANCH  24  25
ATOM     25  O   UNL A   1      32.709  33.156  28.129  1.00  0.00    -0.460 OA
BRANCH  25  26
ATOM     26  C   UNL A   1      33.314  34.290  28.561  1.00  0.00     0.338 C 
ATOM     27  O   UNL A   1      32.995  35.433  28.283  1.00  0.00    -0.246 OA
BRANCH  26  28
ATOM     28  C   UNL A   1      34.366  33.986  29.549  1.00  0.00     0.060 A 
ATOM     29  C   UNL A   1      35.682  34.272  29.170  1.00  0.00     0.016 A 
ATOM     30  C   UNL A   1      34.103  33.335  30.758  1.00  0.00     0.016 A 
ATOM     31  C   UNL A   1      36.744  33.840  29.957  1.00  0.00     0.010 A 
ATOM     32  C   UNL A   1      35.175  32.901  31.549  1.00  0.00     0.010 A 
ATOM     33  C   UNL A   1      36.500  33.112  31.129  1.00  0.00    -0.014 A 
BRANCH  33  34
ATOM     34  C   UNL A   1      37.642  32.451  31.811  1.00  0.00     0.031 A 
ATOM     35  C   UNL A   1      38.346  31.310  31.125  1.00  0.00     0.074 A 
ATOM     36  C   UNL A   1      38.096  32.915  32.991  1.00  0.00     0.049 A 
ATOM     37  N   UNL A   1      39.357  30.589  31.536  1.00  0.00    -0.248 NA
ATOM     38  C   UNL A   1      37.844  30.935  29.794  1.00  0.00     0.031 C 
ATOM     39  C   UNL A   1      37.532  34.049  33.722  1.00  0.00     0.029 A 
ATOM     40  N   UNL A   1      39.136  32.492  33.779  1.00  0.00    -0.354 N 
ATOM     41  C   UNL A   1      39.620  29.683  30.514  1.00  0.00     0.074 A 
ATOM     42  C   UNL A   1      38.631  29.916  29.483  1.00  0.00     0.031 C 
ATOM     43  C   UNL A   1      38.229  34.226  34.856  1.00  0.00     0.029 A 
ATOM     44  C   UNL A   1      39.261  33.196  34.954  1.00  0.00     0.049 A 
ATOM     45  H   UNL A   1      39.738  31.754  33.527  1.00  0.00     0.167 HD
ATOM     46  C   UNL A   1      40.602  28.751  30.437  1.00  0.00     0.034 A 
ATOM     47  C   UNL A   1      40.092  33.010  36.001  1.00  0.00     0.034 A 
ATOM     48  C   UNL A   1      41.573  28.519  31.479  1.00  0.00     0.049 A 
ATOM     49  C   UNL A   1      41.115  31.899  35.933  1.00  0.00     0.074 A 
ATOM     50  C   UNL A   1      42.598  27.588  31.510  1.00  0.00     0.029 A 
ATOM     51  N   UNL A   1      41.637  29.218  32.677  1.00  0.00    -0.354 N 
ATOM     52  N   UNL A   1      41.345  31.042  34.963  1.00  0.00    -0.248 NA
ATOM     53  C   UNL A   1      41.998  31.737  37.096  1.00  0.00     0.031 C 
ATOM     54  C   UNL A   1      43.239  27.682  32.750  1.00  0.00     0.029 A 
ATOM     55  C   UNL A   1      42.667  28.722  33.463  1.00  0.00     0.049 A 
ATOM     56  H   UNL A   1      41.039  29.957  32.932  1.00  0.00     0.167 HD
ATOM     57  C   UNL A   1      42.420  30.266  35.389  1.00  0.00     0.074 A 
ATOM     58  C   UNL A   1      42.804  30.767  36.691  1.00  0.00     0.031 C 
ATOM     59  C   UNL A   1      43.038  29.232  34.762  1.00  0.00     0.034 A 
BRANCH  46  60
ATOM     60  C   UNL A   1      40.647  27.887  29.201  1.00  0.00     0.023 A 
ATOM     61  C   UNL A   1      41.569  28.126  28.166  1.00  0.00     0.031 A 
ATOM     62  C   UNL A   1      39.757  26.808  29.055  1.00  0.00     0.131 A 
ATOM     63  C   UNL A   1      41.546  27.330  27.010  1.00  0.00     0.055 A 
ATOM     64  C   UNL A   1      39.787  25.976  27.934  1.00  0.00     0.041 A 
ATOM     65  F   UNL A   1      38.841  26.546  30.000  1.00  0.00    -0.206 F 
ATOM     66  C   UNL A   1      40.677  26.240  26.899  1.00  0.00     0.022 A 
BRANCH  63  67
ATOM     67  S   UNL A   1      42.590  27.803  25.606  1.00  0.00     0.124 S 
ATOM     68  O   UNL A   1      42.601  26.573  24.817  1.00  0.00    -0.237 OA
ATOM     69  O   UNL A   1      41.857  28.924  25.030  1.00  0.00    -0.237 OA
ATOM     70  O   UNL A   1      43.867  28.147  26.228  1.00  0.00    -0.744 OA
ENDBRANCH  63  67
ENDBRANCH  46  60
BRANCH  47  71
ATOM     71  C   UNL A   1      39.965  33.846  37.230  1.00  0.00     0.023 A 
ATOM     72  C   UNL A   1      40.778  34.971  37.436  1.00  0.00     0.031 A 
ATOM     73  C   UNL A   1      39.081  33.477  38.260  1.00  0.00     0.131 A 
ATOM     74  C   UNL A   1      40.740  35.646  38.667  1.00  0.00     0.055 A 
ATOM     75  C   UNL A   1      38.999  34.190  39.457  1.00  0.00     0.041 A 
ATOM     76  F   UNL A   1      38.281  32.407  38.119  1.00  0.00    -0.206 F 
ATOM     77  C   UNL A   1      39.846  35.272  39.673  1.00  0.00     0.022 A 
BRANCH  74  78
ATOM     78  S   UNL A   1      41.965  36.946  38.982  1.00  0.00     0.124 S 
ATOM     79  O   UNL A   1      41.125  38.035  39.467  1.00  0.00    -0.237 OA
ATOM     80  O   UNL A   1      42.829  36.311  39.972  1.00  0.00    -0.237 OA
ATOM     81  O   UNL A   1      42.575  37.163  37.671  1.00  0.00    -0.744 OA
ENDBRANCH  74  78
ENDBRANCH  47  71
BRANCH  59  82
ATOM     82  C   UNL A   1      44.229  28.616  35.457  1.00  0.00     0.023 A 
ATOM     83  C   UNL A   1      44.086  27.581  36.397  1.00  0.00     0.031 A 
ATOM     84  C   UNL A   1      45.526  29.083  35.178  1.00  0.00     0.131 A 
ATOM     85  C   UNL A   1      45.215  27.086  37.068  1.00  0.00     0.055 A 
ATOM     86  C   UNL A   1      46.651  28.544  35.804  1.00  0.00     0.041 A 
ATOM     87  F   UNL A   1      45.722  30.069  34.289  1.00  0.00    -0.206 F 
ATOM     88  C   UNL A   1      46.497  27.550  36.765  1.00  0.00     0.022 A 
BRANCH  85  89
ATOM     89  S   UNL A   1      44.976  25.890  38.411  1.00  0.00     0.124 S 
ATOM     90  O   UNL A   1      46.350  25.525  38.740  1.00  0.00    -0.237 OA
ATOM     91  O   UNL A   1      44.270  26.683  39.412  1.00  0.00    -0.237 OA
ATOM     92  O   UNL A   1      44.184  24.830  37.790  1.00  0.00    -0.744 OA
ENDBRANCH  85  89
ENDBRANCH  59  82
ENDBRANCH  33  34
ENDBRANCH  26  28
ENDBRANCH  25  26
ENDBRANCH  24  25
ENDBRANCH  23  24
ENDBRANCH  22  23
ENDBRANCH   1  22
TORSDOF 21
ENDMDL
MODEL 3
REMARK VINA RESULT:     -10.1      1.964      7.923
REMARK SMILES C[C@@H](NC(=O)C(C)(C)C)C(=O)N[C@H](C)C(=O)OCCOCCOC(=O)c1ccc(-c2c3nc(c(-c4cc(S(=O)(=O)[O-])ccc4F)c4ccc([nH]4)c(-c4cc(S(=O)(=O)[O-])ccc4F)c4nc(c(-c5cc(S(=O)(=O)[O-])ccc5F)c5ccc2[nH]5)C=C4)C=C3)cc1
REMARK SMILES IDX 19 1 18 2 17 3 15 4 16 5 13 6 14 7 12 8 10 9 11 10 2 12 1 13
REMARK SMILES IDX 3 14 4 15 5 17 6 18 7 19 8 20 9 21 20 22 21 23 22 24 23 25
REMARK SMILES IDX 24 26 25 27 26 28 27 29 88 30 28 31 87 32 29 33 30 34 31 35
REMARK SMILES IDX 81 36 32 37 86 38 80 39 82 40 33 41 85 42 79 43 78 44 34 46
REMARK SMILES IDX 66 47 46 48 65 49 47 50 50 51 64 52 83 53 48 54 49 55 63 57
REMARK SMILES IDX 84 58 51 59 35 60 36 61 44 62 37 63 43 64 45 65 42 66 38 67
REMARK SMILES IDX 39 68 40 69 41 70 67 71 68 72 76 73 69 74 75 75 77 76 74 77
REMARK SMILES IDX 70 78 71 79 72 80 73 81 52 82 53 83 61 84 54 85 60 86 62 87
REMARK SMILES IDX 59 88 55 89 56 90 57 91 58 92
REMARK H PARENT 12 11 3 16 82 45 50 56
REMARK Flexibility Score: inf
ROOT
ATOM      1  C   UNL A   1      31.375  30.838  25.580  1.00  0.00     0.202 C 
ENDROOT
BRANCH   1   2
ATOM      2  C   UNL A   1      31.951  29.418  25.492  1.00  0.00     0.261 C 
BRANCH   2   3
ATOM      3  O   UNL A   1      31.665  28.886  24.183  1.00  0.00    -0.462 OA
BRANCH   3   4
ATOM      4  C   UNL A   1      32.140  27.655  23.873  1.00  0.00     0.328 C 
ATOM      5  O   UNL A   1      33.327  27.347  23.861  1.00  0.00    -0.250 OA
BRANCH   4   6
ATOM      6  C   UNL A   1      31.014  26.691  23.423  1.00  0.00     0.189 C 
ATOM      7  C   UNL A   1      31.421  25.721  22.330  1.00  0.00     0.043 C 
BRANCH   6   8
ATOM      8  N   UNL A   1      30.369  26.192  24.644  1.00  0.00    -0.341 N 
ATOM      9  C   UNL A   1      30.624  25.312  25.638  1.00  0.00     0.242 C 
ATOM     10  O   UNL A   1      29.756  25.250  26.520  1.00  0.00    -0.273 OA
ATOM     11  H   UNL A   1      29.495  26.625  24.778  1.00  0.00     0.164 HD
BRANCH   9  12
ATOM     12  C   UNL A   1      31.757  24.268  25.646  1.00  0.00     0.168 C 
ATOM     13  C   UNL A   1      31.321  23.143  24.689  1.00  0.00     0.041 C 
BRANCH  12  14
ATOM     14  N   UNL A   1      33.141  24.662  25.376  1.00  0.00    -0.344 N 
ATOM     15  C   UNL A   1      34.308  23.969  25.266  1.00  0.00     0.226 C 
ATOM     16  H   UNL A   1      33.251  25.632  25.246  1.00  0.00     0.164 HD
ATOM     17  O   UNL A   1      35.157  24.525  24.558  1.00  0.00    -0.275 OA
BRANCH  15  18
ATOM     18  C   UNL A   1      34.633  22.659  26.016  1.00  0.00     0.041 C 
ATOM     19  C   UNL A   1      36.147  22.475  26.126  1.00  0.00     0.021 C 
ATOM     20  C   UNL A   1      33.969  22.567  27.392  1.00  0.00     0.021 C 
ATOM     21  C   UNL A   1      34.133  21.460  25.170  1.00  0.00     0.021 C 
ENDBRANCH  15  18
ENDBRANCH  12  14
ENDBRANCH   9  12
ENDBRANCH   6   8
ENDBRANCH   4   6
ENDBRANCH   3   4
ENDBRANCH   2   3
ENDBRANCH   1   2
BRANCH   1  22
ATOM     22  O   UNL A   1      31.514  31.446  26.873  1.00  0.00    -0.374 OA
BRANCH  22  23
ATOM     23  C   UNL A   1      31.801  32.842  26.876  1.00  0.00     0.202 C 
BRANCH  23  24
ATOM     24  C   UNL A   1      32.904  33.318  27.825  1.00  0.00     0.261 C 
BRANCH  24  25
ATOM     25  O   UNL A   1      32.780  34.709  28.151  1.00  0.00    -0.460 OA
BRANCH  25  26
ATOM     26  C   UNL A   1      33.292  35.019  29.367  1.00  0.00     0.338 C 
ATOM     27  O   UNL A   1      32.837  35.825  30.162  1.00  0.00    -0.246 OA
BRANCH  26  28
ATOM     28  C   UNL A   1      34.436  34.149  29.698  1.00  0.00     0.060 A 
ATOM     29  C   UNL A   1      34.204  33.141  30.640  1.00  0.00     0.016 A 
ATOM     30  C   UNL A   1      35.725  34.373  29.204  1.00  0.00     0.016 A 
ATOM     31  C   UNL A   1      35.267  32.405  31.151  1.00  0.00     0.010 A 
ATOM     32  C   UNL A   1      36.794  33.630  29.720  1.00  0.00     0.010 A 
ATOM     33  C   UNL A   1      36.576  32.675  30.729  1.00  0.00    -0.014 A 
BRANCH  33  34
ATOM     34  C   UNL A   1      37.707  32.056  31.466  1.00  0.00     0.031 A 
ATOM     35  C   UNL A   1      38.500  30.958  30.805  1.00  0.00     0.074 A 
ATOM     36  C   UNL A   1      38.073  32.521  32.675  1.00  0.00     0.049 A 
ATOM     37  N   UNL A   1      39.519  30.278  31.263  1.00  0.00    -0.248 NA
ATOM     38  C   UNL A   1      38.090  30.582  29.443  1.00  0.00     0.031 C 
ATOM     39  C   UNL A   1      37.418  33.618  33.388  1.00  0.00     0.029 A 
ATOM     40  N   UNL A   1      39.086  32.134  33.515  1.00  0.00    -0.354 N 
ATOM     41  C   UNL A   1      39.879  29.400  30.246  1.00  0.00     0.074 A 
ATOM     42  C   UNL A   1      38.940  29.605  29.164  1.00  0.00     0.031 C 
ATOM     43  C   UNL A   1      38.043  33.809  34.561  1.00  0.00     0.029 A 
ATOM     44  C   UNL A   1      39.114  32.825  34.704  1.00  0.00     0.049 A 
ATOM     45  H   UNL A   1      39.734  31.428  33.287  1.00  0.00     0.167 HD
ATOM     46  C   UNL A   1      40.906  28.516  30.212  1.00  0.00     0.034 A 
ATOM     47  C   UNL A   1      39.893  32.660  35.793  1.00  0.00     0.034 A 
ATOM     48  C   UNL A   1      41.827  28.311  31.304  1.00  0.00     0.049 A 
ATOM     49  C   UNL A   1      40.968  31.598  35.768  1.00  0.00     0.074 A 
ATOM     50  C   UNL A   1      42.891  27.428  31.380  1.00  0.00     0.029 A 
ATOM     51  N   UNL A   1      41.793  28.994  32.512  1.00  0.00    -0.354 N 
ATOM     52  N   UNL A   1      41.290  30.768  34.802  1.00  0.00    -0.248 NA
ATOM     53  C   UNL A   1      41.792  31.459  36.976  1.00  0.00     0.031 C 
ATOM     54  C   UNL A   1      43.457  27.532  32.655  1.00  0.00     0.029 A 
ATOM     55  C   UNL A   1      42.799  28.534  33.349  1.00  0.00     0.049 A 
ATOM     56  H   UNL A   1      41.148  29.701  32.743  1.00  0.00     0.167 HD
ATOM     57  C   UNL A   1      42.376  30.035  35.278  1.00  0.00     0.074 A 
ATOM     58  C   UNL A   1      42.663  30.533  36.605  1.00  0.00     0.031 C 
ATOM     59  C   UNL A   1      43.074  29.040  34.673  1.00  0.00     0.034 A 
BRANCH  46  60
ATOM     60  C   UNL A   1      41.060  27.673  28.969  1.00  0.00     0.023 A 
ATOM     61  C   UNL A   1      42.078  27.920  28.032  1.00  0.00     0.031 A 
ATOM     62  C   UNL A   1      40.176  26.608  28.719  1.00  0.00     0.131 A 
ATOM     63  C   UNL A   1      42.156  27.145  26.864  1.00  0.00     0.055 A 
ATOM     64  C   UNL A   1      40.303  25.796  27.591  1.00  0.00     0.041 A 
ATOM     65  F   UNL A   1      39.171  26.340  29.569  1.00  0.00    -0.206 F 
ATOM     66  C   UNL A   1      41.290  26.069  26.649  1.00  0.00     0.022 A 
BRANCH  63  67
ATOM     67  S   UNL A   1      43.334  27.631  25.574  1.00  0.00     0.124 S 
ATOM     68  O   UNL A   1      43.905  28.850  26.139  1.00  0.00    -0.237 OA
ATOM     69  O   UNL A   1      44.225  26.478  25.508  1.00  0.00    -0.237 OA
ATOM     70  O   UNL A   1      42.490  27.833  24.397  1.00  0.00    -0.744 OA
ENDBRANCH  63  67
ENDBRANCH  46  60
BRANCH  47  71
ATOM     71  C   UNL A   1      39.660  33.471  37.023  1.00  0.00     0.023 A 
ATOM     72  C   UNL A   1      38.993  32.936  38.136  1.00  0.00     0.031 A 
ATOM     73  C   UNL A   1      40.030  34.828  37.068  1.00  0.00     0.131 A 
ATOM     74  C   UNL A   1      38.656  33.768  39.217  1.00  0.00     0.055 A 
ATOM     75  C   UNL A   1      39.750  35.635  38.173  1.00  0.00     0.041 A 
ATOM     76  F   UNL A   1      40.667  35.394  36.032  1.00  0.00    -0.206 F 
ATOM     77  C   UNL A   1      39.042  35.110  39.248  1.00  0.00     0.022 A 
BRANCH  74  78
ATOM     78  S   UNL A   1      37.594  33.100  40.528  1.00  0.00     0.124 S 
ATOM     79  O   UNL A   1      38.549  32.337  41.323  1.00  0.00    -0.237 OA
ATOM     80  O   UNL A   1      37.074  34.317  41.142  1.00  0.00    -0.237 OA
ATOM     81  O   UNL A   1      36.612  32.303  39.795  1.00  0.00    -0.744 OA
ENDBRANCH  74  78
ENDBRANCH  47  71
BRANCH  59  82
ATOM     82  C   UNL A   1      44.251  28.468  35.425  1.00  0.00     0.023 A 
ATOM     83  C   UNL A   1      44.096  27.456  36.388  1.00  0.00     0.031 A 
ATOM     84  C   UNL A   1      45.548  28.953  35.178  1.00  0.00     0.131 A 
ATOM     85  C   UNL A   1      45.210  27.003  37.112  1.00  0.00     0.055 A 
ATOM     86  C   UNL A   1      46.661  28.455  35.857  1.00  0.00     0.041 A 
ATOM     87  F   UNL A   1      45.756  29.919  34.269  1.00  0.00    -0.206 F 
ATOM     88  C   UNL A   1      46.493  27.485  36.841  1.00  0.00     0.022 A 
BRANCH  85  89
ATOM     89  S   UNL A   1      44.948  25.840  38.479  1.00  0.00     0.124 S 
ATOM     90  O   UNL A   1      44.056  26.594  39.353  1.00  0.00    -0.237 OA
ATOM     91  O   UNL A   1      44.356  24.691  37.801  1.00  0.00    -0.237 OA
ATOM     92  O   UNL A   1      46.294  25.621  39.006  1.00  0.00    -0.744 OA
ENDBRANCH  85  89
ENDBRANCH  59  82
ENDBRANCH  33  34
ENDBRANCH  26  28
ENDBRANCH  25  26
ENDBRANCH  24  25
ENDBRANCH  23  24
ENDBRANCH  22  23
ENDBRANCH   1  22
TORSDOF 21
ENDMDL
