MODEL 1
REMARK VINA RESULT:     -12.0      0.000      0.000
REMARK SMILES CC(=O)Nc1cc(NC(C)=O)cc(C(=O)Nc2ccc(Br)cc2C(=O)OCCOCCOC(=O)c2ccc(-c3c4nc(c(-c5cc(S(=O)(=O)[O-])ccc5F)c5ccc([nH]5)c(-c5cc(S(=O)(=O)[O-])ccc5F)c5nc(c(-c6cc(S(=O)(=O)[O-])ccc6F)c6ccc3[nH]6)C=C5)C=C4)cc2)c1
REMARK SMILES IDX 29 1 28 2 27 3 26 4 24 5 25 6 23 7 17 8 18 9 19 10 22 11
REMARK SMILES IDX 20 12 21 13 16 14 14 15 15 16 13 18 5 19 6 20 98 21 7 22
REMARK SMILES IDX 12 23 4 24 1 25 2 26 3 27 8 29 9 30 10 32 11 33 30 34 31 35
REMARK SMILES IDX 32 36 33 37 34 38 35 39 36 40 97 41 37 42 96 43 38 44 39 45
REMARK SMILES IDX 40 46 90 47 41 48 95 49 89 50 91 51 42 52 94 53 88 54 87 55
REMARK SMILES IDX 43 57 75 58 55 59 74 60 56 61 59 62 73 63 92 64 57 65 58 66
REMARK SMILES IDX 72 68 93 69 60 70 44 71 45 72 53 73 46 74 52 75 54 76 51 77
REMARK SMILES IDX 47 78 48 79 49 80 50 81 76 82 77 83 85 84 78 85 84 86 86 87
REMARK SMILES IDX 83 88 79 89 80 90 81 91 82 92 61 93 62 94 70 95 63 96 69 97
REMARK SMILES IDX 71 98 68 99 64 100 65 101 66 102 67 103
REMARK H PARENT 16 17 4 28 8 31 91 56 59 67
REMARK Flexibility Score: inf
ROOT
ATOM      1  O   UNL A   1      36.204  21.701  26.112  1.00  0.00    -0.374 OA
ENDROOT
BRANCH   1   2
ATOM      2  C   UNL A   1      34.952  21.867  26.767  1.00  0.00     0.202 C 
BRANCH   2   3
ATOM      3  C   UNL A   1      34.163  23.154  26.516  1.00  0.00     0.261 C 
BRANCH   3   4
ATOM      4  O   UNL A   1      34.977  24.308  26.232  1.00  0.00    -0.460 OA
BRANCH   4   5
ATOM      5  C   UNL A   1      35.015  24.648  24.922  1.00  0.00     0.340 C 
ATOM      6  O   UNL A   1      35.593  24.033  24.036  1.00  0.00    -0.246 OA
BRANCH   5   7
ATOM      7  C   UNL A   1      34.127  25.793  24.606  1.00  0.00     0.084 A 
ATOM      8  C   UNL A   1      33.562  26.112  23.358  1.00  0.00     0.056 A 
ATOM      9  C   UNL A   1      32.853  27.327  23.246  1.00  0.00     0.028 A 
ATOM     10  C   UNL A   1      32.608  28.140  24.356  1.00  0.00     0.018 A 
ATOM     11  C   UNL A   1      33.871  26.621  25.723  1.00  0.00     0.033 A 
ATOM     12  C   UNL A   1      33.103  27.772  25.597  1.00  0.00     0.018 A 
ATOM     13  Br  UNL A   1      32.724  28.823  27.119  1.00  0.00    -0.051 Br
BRANCH   8  14
ATOM     14  N   UNL A   1      33.542  25.339  22.175  1.00  0.00    -0.321 N 
ATOM     15  C   UNL A   1      33.160  24.047  21.883  1.00  0.00     0.255 C 
ATOM     16  O   UNL A   1      33.390  23.595  20.763  1.00  0.00    -0.269 OA
ATOM     17  H   UNL A   1      33.872  25.830  21.388  1.00  0.00     0.170 HD
BRANCH  15  18
ATOM     18  C   UNL A   1      32.419  23.202  22.844  1.00  0.00     0.044 A 
ATOM     19  C   UNL A   1      30.893  23.015  24.695  1.00  0.00     0.044 A 
ATOM     20  C   UNL A   1      31.445  21.751  24.980  1.00  0.00     0.052 A 
ATOM     21  C   UNL A   1      31.327  23.694  23.562  1.00  0.00     0.040 A 
ATOM     22  C   UNL A   1      32.431  21.180  24.167  1.00  0.00     0.044 A 
ATOM     23  C   UNL A   1      32.916  21.918  23.088  1.00  0.00     0.040 A 
BRANCH  19  24
ATOM     24  N   UNL A   1      30.085  23.588  25.699  1.00  0.00    -0.326 N 
ATOM     25  C   UNL A   1      29.820  25.970  24.991  1.00  0.00     0.114 C 
ATOM     26  C   UNL A   1      29.717  24.865  26.001  1.00  0.00     0.221 C 
ATOM     27  O   UNL A   1      29.254  25.100  27.121  1.00  0.00    -0.275 OA
ATOM     28  H   UNL A   1      29.703  22.920  26.314  1.00  0.00     0.169 HD
ENDBRANCH  19  24
BRANCH  22  29
ATOM     29  N   UNL A   1      33.039  19.930  24.409  1.00  0.00    -0.326 N 
ATOM     30  C   UNL A   1      32.835  18.749  23.721  1.00  0.00     0.221 C 
ATOM     31  H   UNL A   1      33.685  19.896  25.151  1.00  0.00     0.169 HD
ATOM     32  C   UNL A   1      33.642  17.597  24.269  1.00  0.00     0.114 C 
ATOM     33  O   UNL A   1      32.088  18.580  22.762  1.00  0.00    -0.275 OA
ENDBRANCH  22  29
ENDBRANCH  15  18
ENDBRANCH   8  14
ENDBRANCH   5   7
ENDBRANCH   4   5
ENDBRANCH   3   4
ENDBRANCH   2   3
ENDBRANCH   1   2
BRANCH   1  34
ATOM     34  C   UNL A   1      36.364  20.620  25.202  1.00  0.00     0.202 C 
BRANCH  34  35
ATOM     35  C   UNL A   1      37.758  20.010  25.003  1.00  0.00     0.261 C 
BRANCH  35  36
ATOM     36  O   UNL A   1      38.840  20.957  25.051  1.00  0.00    -0.460 OA
BRANCH  36  37
ATOM     37  C   UNL A   1      39.712  20.741  26.069  1.00  0.00     0.338 C 
ATOM     38  O   UNL A   1      40.347  19.717  26.281  1.00  0.00    -0.246 OA
BRANCH  37  39
ATOM     39  C   UNL A   1      39.939  21.965  26.855  1.00  0.00     0.060 A 
ATOM     40  C   UNL A   1      39.193  23.102  26.518  1.00  0.00     0.016 A 
ATOM     41  C   UNL A   1      40.999  22.051  27.760  1.00  0.00     0.016 A 
ATOM     42  C   UNL A   1      39.554  24.348  27.026  1.00  0.00     0.010 A 
ATOM     43  C   UNL A   1      41.366  23.306  28.262  1.00  0.00     0.010 A 
ATOM     44  C   UNL A   1      40.679  24.465  27.853  1.00  0.00    -0.014 A 
BRANCH  44  45
ATOM     45  C   UNL A   1      41.256  25.811  28.099  1.00  0.00     0.031 A 
ATOM     46  C   UNL A   1      42.652  26.096  27.605  1.00  0.00     0.074 A 
ATOM     47  C   UNL A   1      40.537  26.778  28.695  1.00  0.00     0.049 A 
ATOM     48  N   UNL A   1      43.374  27.181  27.727  1.00  0.00    -0.248 NA
ATOM     49  C   UNL A   1      43.321  25.007  26.875  1.00  0.00     0.031 C 
ATOM     50  C   UNL A   1      39.159  26.638  29.161  1.00  0.00     0.029 A 
ATOM     51  N   UNL A   1      40.870  28.072  29.008  1.00  0.00    -0.354 N 
ATOM     52  C   UNL A   1      44.581  26.906  27.090  1.00  0.00     0.074 A 
ATOM     53  C   UNL A   1      44.506  25.539  26.619  1.00  0.00     0.031 C 
ATOM     54  C   UNL A   1      38.765  27.802  29.709  1.00  0.00     0.029 A 
ATOM     55  C   UNL A   1      39.873  28.755  29.663  1.00  0.00     0.049 A 
ATOM     56  H   UNL A   1      41.741  28.473  28.786  1.00  0.00     0.167 HD
ATOM     57  C   UNL A   1      45.650  27.720  26.908  1.00  0.00     0.034 A 
ATOM     58  C   UNL A   1      39.866  29.998  30.185  1.00  0.00     0.034 A 
ATOM     59  C   UNL A   1      45.718  29.076  27.395  1.00  0.00     0.049 A 
ATOM     60  C   UNL A   1      41.101  30.858  30.046  1.00  0.00     0.074 A 
ATOM     61  C   UNL A   1      46.758  29.983  27.287  1.00  0.00     0.029 A 
ATOM     62  N   UNL A   1      44.703  29.720  28.090  1.00  0.00    -0.354 N 
ATOM     63  N   UNL A   1      42.243  30.580  29.460  1.00  0.00    -0.248 NA
ATOM     64  C   UNL A   1      41.039  32.204  30.632  1.00  0.00     0.031 C 
ATOM     65  C   UNL A   1      46.395  31.153  27.964  1.00  0.00     0.029 A 
ATOM     66  C   UNL A   1      45.100  31.003  28.433  1.00  0.00     0.049 A 
ATOM     67  H   UNL A   1      43.829  29.324  28.306  1.00  0.00     0.167 HD
ATOM     68  C   UNL A   1      43.019  31.731  29.574  1.00  0.00     0.074 A 
ATOM     69  C   UNL A   1      42.213  32.707  30.278  1.00  0.00     0.031 C 
ATOM     70  C   UNL A   1      44.281  31.965  29.133  1.00  0.00     0.034 A 
BRANCH  57  71
ATOM     71  C   UNL A   1      46.847  27.140  26.195  1.00  0.00     0.023 A 
ATOM     72  C   UNL A   1      47.855  26.445  26.887  1.00  0.00     0.031 A 
ATOM     73  C   UNL A   1      46.999  27.311  24.808  1.00  0.00     0.131 A 
ATOM     74  C   UNL A   1      49.000  26.007  26.203  1.00  0.00     0.055 A 
ATOM     75  C   UNL A   1      48.105  26.808  24.120  1.00  0.00     0.041 A 
ATOM     76  F   UNL A   1      46.081  27.986  24.099  1.00  0.00    -0.206 F 
ATOM     77  C   UNL A   1      49.120  26.162  24.820  1.00  0.00     0.022 A 
BRANCH  74  78
ATOM     78  S   UNL A   1      50.388  25.348  27.165  1.00  0.00     0.124 S 
ATOM     79  O   UNL A   1      50.750  26.500  27.987  1.00  0.00    -0.237 OA
ATOM     80  O   UNL A   1      49.780  24.226  27.871  1.00  0.00    -0.237 OA
ATOM     81  O   UNL A   1      51.370  24.985  26.146  1.00  0.00    -0.744 OA
ENDBRANCH  74  78
ENDBRANCH  57  71
BRANCH  58  82
ATOM     82  C   UNL A   1      38.673  30.505  30.923  1.00  0.00     0.023 A 
ATOM     83  C   UNL A   1      37.601  31.106  30.246  1.00  0.00     0.031 A 
ATOM     84  C   UNL A   1      38.623  30.458  32.328  1.00  0.00     0.131 A 
ATOM     85  C   UNL A   1      36.548  31.681  30.974  1.00  0.00     0.055 A 
ATOM     86  C   UNL A   1      37.549  30.985  33.045  1.00  0.00     0.041 A 
ATOM     87  F   UNL A   1      39.624  29.898  33.025  1.00  0.00    -0.206 F 
ATOM     88  C   UNL A   1      36.509  31.614  32.369  1.00  0.00     0.022 A 
BRANCH  85  89
ATOM     89  S   UNL A   1      35.272  32.604  30.073  1.00  0.00     0.124 S 
ATOM     90  O   UNL A   1      34.847  31.628  29.077  1.00  0.00    -0.237 OA
ATOM     91  O   UNL A   1      34.313  32.903  31.131  1.00  0.00    -0.237 OA
ATOM     92  O   UNL A   1      35.997  33.760  29.547  1.00  0.00    -0.744 OA
ENDBRANCH  85  89
ENDBRANCH  58  82
BRANCH  70  93
ATOM     93  C   UNL A   1      44.837  33.352  29.345  1.00  0.00     0.023 A 
ATOM     94  C   UNL A   1      44.597  34.396  28.434  1.00  0.00     0.031 A 
ATOM     95  C   UNL A   1      45.629  33.626  30.473  1.00  0.00     0.131 A 
ATOM     96  C   UNL A   1      45.192  35.651  28.638  1.00  0.00     0.055 A 
ATOM     97  C   UNL A   1      46.171  34.892  30.701  1.00  0.00     0.041 A 
ATOM     98  F   UNL A   1      45.888  32.667  31.375  1.00  0.00    -0.206 F 
ATOM     99  C   UNL A   1      45.965  35.909  29.773  1.00  0.00     0.022 A 
BRANCH  96 100
ATOM    100  S   UNL A   1      45.015  36.919  27.354  1.00  0.00     0.124 S 
ATOM    101  O   UNL A   1      45.113  38.153  28.129  1.00  0.00    -0.237 OA
ATOM    102  O   UNL A   1      46.140  36.631  26.472  1.00  0.00    -0.237 OA
ATOM    103  O   UNL A   1      43.696  36.649  26.783  1.00  0.00    -0.744 OA
ENDBRANCH  96 100
ENDBRANCH  70  93
ENDBRANCH  44  45
ENDBRANCH  37  39
ENDBRANCH  36  37
ENDBRANCH  35  36
ENDBRANCH  34  35
ENDBRANCH   1  34
TORSDOF 21
ENDMDL
MODEL 2
REMARK VINA RESULT:     -12.0      4.587     10.023
REMARK SMILES CC(=O)Nc1cc(NC(C)=O)cc(C(=O)Nc2ccc(Br)cc2C(=O)OCCOCCOC(=O)c2ccc(-c3c4nc(c(-c5cc(S(=O)(=O)[O-])ccc5F)c5ccc([nH]5)c(-c5cc(S(=O)(=O)[O-])ccc5F)c5nc(c(-c6cc(S(=O)(=O)[O-])ccc6F)c6ccc3[nH]6)C=C5)C=C4)cc2)c1
REMARK SMILES IDX 29 1 28 2 27 3 26 4 24 5 25 6 23 7 17 8 18 9 19 10 22 11
REMARK SMILES IDX 20 12 21 13 16 14 14 15 15 16 13 18 5 19 6 20 98 21 7 22
REMARK SMILES IDX 12 23 4 24 1 25 2 26 3 27 8 29 9 30 10 32 11 33 30 34 31 35
REMARK SMILES IDX 32 36 33 37 34 38 35 39 36 40 97 41 37 42 96 43 38 44 39 45
REMARK SMILES IDX 40 46 90 47 41 48 95 49 89 50 91 51 42 52 94 53 88 54 87 55
REMARK SMILES IDX 43 57 75 58 55 59 74 60 56 61 59 62 73 63 92 64 57 65 58 66
REMARK SMILES IDX 72 68 93 69 60 70 44 71 45 72 53 73 46 74 52 75 54 76 51 77
REMARK SMILES IDX 47 78 48 79 49 80 50 81 76 82 77 83 85 84 78 85 84 86 86 87
REMARK SMILES IDX 83 88 79 89 80 90 81 91 82 92 61 93 62 94 70 95 63 96 69 97
REMARK SMILES IDX 71 98 68 99 64 100 65 101 66 102 67 103
REMARK H PARENT 16 17 4 28 8 31 91 56 59 67
REMARK Flexibility Score: inf
ROOT
ATOM      1  O   UNL A   1      32.202  30.826  27.218  1.00  0.00    -0.374 OA
ENDROOT
BRANCH   1   2
ATOM      2  C   UNL A   1      33.388  30.282  26.653  1.00  0.00     0.202 C 
BRANCH   2   3
ATOM      3  C   UNL A   1      33.255  29.211  25.568  1.00  0.00     0.261 C 
BRANCH   3   4
ATOM      4  O   UNL A   1      33.223  27.859  26.065  1.00  0.00    -0.460 OA
BRANCH   4   5
ATOM      5  C   UNL A   1      32.043  27.503  26.624  1.00  0.00     0.340 C 
ATOM      6  O   UNL A   1      31.776  27.530  27.818  1.00  0.00    -0.246 OA
BRANCH   5   7
ATOM      7  C   UNL A   1      30.998  27.215  25.612  1.00  0.00     0.084 A 
ATOM      8  C   UNL A   1      30.170  26.080  25.544  1.00  0.00     0.056 A 
ATOM      9  C   UNL A   1      29.333  25.940  24.417  1.00  0.00     0.028 A 
ATOM     10  C   UNL A   1      29.228  26.945  23.451  1.00  0.00     0.018 A 
ATOM     11  C   UNL A   1      30.882  28.226  24.632  1.00  0.00     0.033 A 
ATOM     12  C   UNL A   1      29.991  28.096  23.574  1.00  0.00     0.018 A 
ATOM     13  Br  UNL A   1      29.811  29.491  22.315  1.00  0.00    -0.051 Br
BRANCH   8  14
ATOM     14  N   UNL A   1      29.999  25.054  26.502  1.00  0.00    -0.321 N 
ATOM     15  C   UNL A   1      30.498  23.777  26.634  1.00  0.00     0.255 C 
ATOM     16  O   UNL A   1      30.053  23.051  27.521  1.00  0.00    -0.269 OA
ATOM     17  H   UNL A   1      29.390  25.308  27.234  1.00  0.00     0.170 HD
BRANCH  15  18
ATOM     18  C   UNL A   1      31.602  23.264  25.794  1.00  0.00     0.044 A 
ATOM     19  C   UNL A   1      32.435  21.633  24.234  1.00  0.00     0.044 A 
ATOM     20  C   UNL A   1      33.742  21.958  24.642  1.00  0.00     0.052 A 
ATOM     21  C   UNL A   1      31.372  22.363  24.752  1.00  0.00     0.040 A 
ATOM     22  C   UNL A   1      33.990  22.975  25.572  1.00  0.00     0.044 A 
ATOM     23  C   UNL A   1      32.904  23.632  26.147  1.00  0.00     0.040 A 
BRANCH  19  24
ATOM     24  N   UNL A   1      32.288  20.451  23.479  1.00  0.00    -0.326 N 
ATOM     25  C   UNL A   1      32.655  18.615  25.136  1.00  0.00     0.114 C 
ATOM     26  C   UNL A   1      32.527  19.133  23.733  1.00  0.00     0.221 C 
ATOM     27  O   UNL A   1      32.603  18.350  22.781  1.00  0.00    -0.275 OA
ATOM     28  H   UNL A   1      31.937  20.612  22.574  1.00  0.00     0.169 HD
ENDBRANCH  19  24
BRANCH  22  29
ATOM     29  N   UNL A   1      35.272  23.334  26.038  1.00  0.00    -0.326 N 
ATOM     30  C   UNL A   1      36.419  23.515  25.289  1.00  0.00     0.221 C 
ATOM     31  H   UNL A   1      35.360  23.474  27.009  1.00  0.00     0.169 HD
ATOM     32  C   UNL A   1      37.623  23.878  26.125  1.00  0.00     0.114 C 
ATOM     33  O   UNL A   1      36.523  23.405  24.071  1.00  0.00    -0.275 OA
ENDBRANCH  22  29
ENDBRANCH  15  18
ENDBRANCH   8  14
ENDBRANCH   5   7
ENDBRANCH   4   5
ENDBRANCH   3   4
ENDBRANCH   2   3
ENDBRANCH   1   2
BRANCH   1  34
ATOM     34  C   UNL A   1      31.598  31.952  26.594  1.00  0.00     0.202 C 
BRANCH  34  35
ATOM     35  C   UNL A   1      32.112  33.358  26.929  1.00  0.00     0.261 C 
BRANCH  35  36
ATOM     36  O   UNL A   1      32.527  33.537  28.295  1.00  0.00    -0.460 OA
BRANCH  36  37
ATOM     37  C   UNL A   1      33.716  34.178  28.426  1.00  0.00     0.338 C 
ATOM     38  O   UNL A   1      33.884  35.379  28.591  1.00  0.00    -0.246 OA
BRANCH  37  39
ATOM     39  C   UNL A   1      34.839  33.228  28.496  1.00  0.00     0.060 A 
ATOM     40  C   UNL A   1      34.614  32.002  29.134  1.00  0.00     0.016 A 
ATOM     41  C   UNL A   1      36.130  33.613  28.129  1.00  0.00     0.016 A 
ATOM     42  C   UNL A   1      35.690  31.187  29.478  1.00  0.00     0.010 A 
ATOM     43  C   UNL A   1      37.211  32.797  28.485  1.00  0.00     0.010 A 
ATOM     44  C   UNL A   1      36.999  31.609  29.209  1.00  0.00    -0.014 A 
BRANCH  44  45
ATOM     45  C   UNL A   1      38.131  30.921  29.879  1.00  0.00     0.031 A 
ATOM     46  C   UNL A   1      38.413  31.241  31.325  1.00  0.00     0.074 A 
ATOM     47  C   UNL A   1      38.857  29.989  29.237  1.00  0.00     0.049 A 
ATOM     48  N   UNL A   1      39.359  30.792  32.110  1.00  0.00    -0.248 NA
ATOM     49  C   UNL A   1      37.501  32.200  31.971  1.00  0.00     0.031 C 
ATOM     50  C   UNL A   1      38.640  29.553  27.859  1.00  0.00     0.029 A 
ATOM     51  N   UNL A   1      39.924  29.239  29.665  1.00  0.00    -0.354 N 
ATOM     52  C   UNL A   1      39.158  31.411  33.340  1.00  0.00     0.074 A 
ATOM     53  C   UNL A   1      38.023  32.297  33.184  1.00  0.00     0.031 C 
ATOM     54  C   UNL A   1      39.553  28.614  27.552  1.00  0.00     0.029 A 
ATOM     55  C   UNL A   1      40.439  28.409  28.697  1.00  0.00     0.049 A 
ATOM     56  H   UNL A   1      40.287  29.291  30.578  1.00  0.00     0.167 HD
ATOM     57  C   UNL A   1      39.849  31.251  34.495  1.00  0.00     0.034 A 
ATOM     58  C   UNL A   1      41.514  27.597  28.728  1.00  0.00     0.034 A 
ATOM     59  C   UNL A   1      40.987  30.376  34.635  1.00  0.00     0.049 A 
ATOM     60  C   UNL A   1      42.323  27.500  30.001  1.00  0.00     0.074 A 
ATOM     61  C   UNL A   1      41.775  30.152  35.750  1.00  0.00     0.029 A 
ATOM     62  N   UNL A   1      41.505  29.581  33.619  1.00  0.00    -0.354 N 
ATOM     63  N   UNL A   1      42.135  28.106  31.151  1.00  0.00    -0.248 NA
ATOM     64  C   UNL A   1      43.484  26.600  29.980  1.00  0.00     0.031 C 
ATOM     65  C   UNL A   1      42.801  29.268  35.395  1.00  0.00     0.029 A 
ATOM     66  C   UNL A   1      42.611  28.883  34.077  1.00  0.00     0.049 A 
ATOM     67  H   UNL A   1      41.138  29.522  32.708  1.00  0.00     0.167 HD
ATOM     68  C   UNL A   1      43.131  27.629  32.000  1.00  0.00     0.074 A 
ATOM     69  C   UNL A   1      43.912  26.681  31.232  1.00  0.00     0.031 C 
ATOM     70  C   UNL A   1      43.377  27.940  33.298  1.00  0.00     0.034 A 
BRANCH  57  71
ATOM     71  C   UNL A   1      39.418  32.082  35.680  1.00  0.00     0.023 A 
ATOM     72  C   UNL A   1      38.648  31.537  36.723  1.00  0.00     0.031 A 
ATOM     73  C   UNL A   1      39.753  33.445  35.750  1.00  0.00     0.131 A 
ATOM     74  C   UNL A   1      38.184  32.366  37.756  1.00  0.00     0.055 A 
ATOM     75  C   UNL A   1      39.351  34.248  36.820  1.00  0.00     0.041 A 
ATOM     76  F   UNL A   1      40.466  34.025  34.772  1.00  0.00    -0.206 F 
ATOM     77  C   UNL A   1      38.550  33.712  37.825  1.00  0.00     0.022 A 
BRANCH  74  78
ATOM     78  S   UNL A   1      36.987  31.692  38.940  1.00  0.00     0.124 S 
ATOM     79  O   UNL A   1      37.701  31.851  40.205  1.00  0.00    -0.237 OA
ATOM     80  O   UNL A   1      35.829  32.557  38.747  1.00  0.00    -0.237 OA
ATOM     81  O   UNL A   1      36.813  30.309  38.501  1.00  0.00    -0.744 OA
ENDBRANCH  74  78
ENDBRANCH  57  71
BRANCH  58  82
ATOM     82  C   UNL A   1      41.926  26.835  27.514  1.00  0.00     0.023 A 
ATOM     83  C   UNL A   1      41.775  25.442  27.446  1.00  0.00     0.031 A 
ATOM     84  C   UNL A   1      42.541  27.486  26.430  1.00  0.00     0.131 A 
ATOM     85  C   UNL A   1      42.280  24.737  26.341  1.00  0.00     0.055 A 
ATOM     86  C   UNL A   1      42.994  26.788  25.310  1.00  0.00     0.041 A 
ATOM     87  F   UNL A   1      42.712  28.818  26.446  1.00  0.00    -0.206 F 
ATOM     88  C   UNL A   1      42.878  25.402  25.268  1.00  0.00     0.022 A 
BRANCH  85  89
ATOM     89  S   UNL A   1      42.228  22.924  26.371  1.00  0.00     0.124 S 
ATOM     90  O   UNL A   1      42.601  22.593  25.000  1.00  0.00    -0.237 OA
ATOM     91  O   UNL A   1      43.214  22.611  27.399  1.00  0.00    -0.237 OA
ATOM     92  O   UNL A   1      40.841  22.630  26.729  1.00  0.00    -0.744 OA
ENDBRANCH  85  89
ENDBRANCH  58  82
BRANCH  70  93
ATOM     93  C   UNL A   1      44.498  27.196  33.982  1.00  0.00     0.023 A 
ATOM     94  C   UNL A   1      44.317  25.910  34.520  1.00  0.00     0.031 A 
ATOM     95  C   UNL A   1      45.765  27.794  34.105  1.00  0.00     0.131 A 
ATOM     96  C   UNL A   1      45.370  25.287  35.208  1.00  0.00     0.055 A 
ATOM     97  C   UNL A   1      46.825  27.145  34.740  1.00  0.00     0.041 A 
ATOM     98  F   UNL A   1      45.992  29.020  33.607  1.00  0.00    -0.206 F 
ATOM     99  C   UNL A   1      46.627  25.890  35.308  1.00  0.00     0.022 A 
BRANCH  96 100
ATOM    100  S   UNL A   1      45.052  23.711  36.048  1.00  0.00     0.124 S 
ATOM    101  O   UNL A   1      45.416  24.022  37.427  1.00  0.00    -0.237 OA
ATOM    102  O   UNL A   1      43.630  23.505  35.797  1.00  0.00    -0.237 OA
ATOM    103  O   UNL A   1      45.943  22.772  35.367  1.00  0.00    -0.744 OA
ENDBRANCH  96 100
ENDBRANCH  70  93
ENDBRANCH  44  45
ENDBRANCH  37  39
ENDBRANCH  36  37
ENDBRANCH  35  36
ENDBRANCH  34  35
ENDBRANCH   1  34
TORSDOF 21
ENDMDL
MODEL 3
REMARK VINA RESULT:     -11.8      4.349      9.843
REMARK SMILES CC(=O)Nc1cc(NC(C)=O)cc(C(=O)Nc2ccc(Br)cc2C(=O)OCCOCCOC(=O)c2ccc(-c3c4nc(c(-c5cc(S(=O)(=O)[O-])ccc5F)c5ccc([nH]5)c(-c5cc(S(=O)(=O)[O-])ccc5F)c5nc(c(-c6cc(S(=O)(=O)[O-])ccc6F)c6ccc3[nH]6)C=C5)C=C4)cc2)c1
REMARK SMILES IDX 29 1 28 2 27 3 26 4 24 5 25 6 23 7 17 8 18 9 19 10 22 11
REMARK SMILES IDX 20 12 21 13 16 14 14 15 15 16 13 18 5 19 6 20 98 21 7 22
REMARK SMILES IDX 12 23 4 24 1 25 2 26 3 27 8 29 9 30 10 32 11 33 30 34 31 35
REMARK SMILES IDX 32 36 33 37 34 38 35 39 36 40 97 41 37 42 96 43 38 44 39 45
REMARK SMILES IDX 40 46 90 47 41 48 95 49 89 50 91 51 42 52 94 53 88 54 87 55
REMARK SMILES IDX 43 57 75 58 55 59 74 60 56 61 59 62 73 63 92 64 57 65 58 66
REMARK SMILES IDX 72 68 93 69 60 70 44 71 45 72 53 73 46 74 52 75 54 76 51 77
REMARK SMILES IDX 47 78 48 79 49 80 50 81 76 82 77 83 85 84 78 85 84 86 86 87
REMARK SMILES IDX 83 88 79 89 80 90 81 91 82 92 61 93 62 94 70 95 63 96 69 97
REMARK SMILES IDX 71 98 68 99 64 100 65 101 66 102 67 103
REMARK H PARENT 16 17 4 28 8 31 91 56 59 67
REMARK Flexibility Score: inf
ROOT
ATOM      1  O   UNL A   1      31.851  30.789  26.820  1.00  0.00    -0.374 OA
ENDROOT
BRANCH   1   2
ATOM      2  C   UNL A   1      33.172  30.371  26.500  1.00  0.00     0.202 C 
BRANCH   2   3
ATOM      3  C   UNL A   1      33.689  29.063  27.103  1.00  0.00     0.261 C 
BRANCH   3   4
ATOM      4  O   UNL A   1      33.189  27.873  26.465  1.00  0.00    -0.460 OA
BRANCH   4   5
ATOM      5  C   UNL A   1      31.946  27.513  26.865  1.00  0.00     0.340 C 
ATOM      6  O   UNL A   1      31.502  27.602  28.001  1.00  0.00    -0.246 OA
BRANCH   5   7
ATOM      7  C   UNL A   1      31.072  27.133  25.728  1.00  0.00     0.084 A 
ATOM      8  C   UNL A   1      30.342  25.939  25.579  1.00  0.00     0.056 A 
ATOM      9  C   UNL A   1      29.679  25.720  24.353  1.00  0.00     0.028 A 
ATOM     10  C   UNL A   1      29.638  26.698  23.355  1.00  0.00     0.018 A 
ATOM     11  C   UNL A   1      31.021  28.116  24.714  1.00  0.00     0.033 A 
ATOM     12  C   UNL A   1      30.295  27.903  23.549  1.00  0.00     0.018 A 
ATOM     13  Br  UNL A   1      30.192  29.260  22.241  1.00  0.00    -0.051 Br
BRANCH   8  14
ATOM     14  N   UNL A   1      30.113  24.920  26.532  1.00  0.00    -0.321 N 
ATOM     15  C   UNL A   1      30.590  23.638  26.693  1.00  0.00     0.255 C 
ATOM     16  O   UNL A   1      30.095  22.921  27.561  1.00  0.00    -0.269 OA
ATOM     17  H   UNL A   1      29.475  25.185  27.233  1.00  0.00     0.170 HD
BRANCH  15  18
ATOM     18  C   UNL A   1      31.726  23.107  25.907  1.00  0.00     0.044 A 
ATOM     19  C   UNL A   1      32.628  21.423  24.445  1.00  0.00     0.044 A 
ATOM     20  C   UNL A   1      33.918  21.788  24.874  1.00  0.00     0.052 A 
ATOM     21  C   UNL A   1      31.539  22.157  24.900  1.00  0.00     0.040 A 
ATOM     22  C   UNL A   1      34.123  22.850  25.764  1.00  0.00     0.044 A 
ATOM     23  C   UNL A   1      33.011  23.513  26.279  1.00  0.00     0.040 A 
BRANCH  19  24
ATOM     24  N   UNL A   1      32.522  20.206  23.740  1.00  0.00    -0.326 N 
ATOM     25  C   UNL A   1      32.669  18.453  25.515  1.00  0.00     0.114 C 
ATOM     26  C   UNL A   1      32.696  18.898  24.082  1.00  0.00     0.221 C 
ATOM     27  O   UNL A   1      32.842  18.064  23.184  1.00  0.00    -0.275 OA
ATOM     28  H   UNL A   1      32.267  20.328  22.797  1.00  0.00     0.169 HD
ENDBRANCH  19  24
BRANCH  22  29
ATOM     29  N   UNL A   1      35.385  23.251  26.250  1.00  0.00    -0.326 N 
ATOM     30  C   UNL A   1      36.491  23.624  25.510  1.00  0.00     0.221 C 
ATOM     31  H   UNL A   1      35.491  23.270  27.229  1.00  0.00     0.169 HD
ATOM     32  C   UNL A   1      37.686  23.974  26.363  1.00  0.00     0.114 C 
ATOM     33  O   UNL A   1      36.567  23.682  24.286  1.00  0.00    -0.275 OA
ENDBRANCH  22  29
ENDBRANCH  15  18
ENDBRANCH   8  14
ENDBRANCH   5   7
ENDBRANCH   4   5
ENDBRANCH   3   4
ENDBRANCH   2   3
ENDBRANCH   1   2
BRANCH   1  34
ATOM     34  C   UNL A   1      31.448  32.111  26.485  1.00  0.00     0.202 C 
BRANCH  34  35
ATOM     35  C   UNL A   1      31.786  33.261  27.443  1.00  0.00     0.261 C 
BRANCH  35  36
ATOM     36  O   UNL A   1      33.075  33.863  27.228  1.00  0.00    -0.460 OA
BRANCH  36  37
ATOM     37  C   UNL A   1      33.763  34.109  28.372  1.00  0.00     0.338 C 
ATOM     38  O   UNL A   1      33.433  34.868  29.273  1.00  0.00    -0.246 OA
BRANCH  37  39
ATOM     39  C   UNL A   1      34.935  33.226  28.499  1.00  0.00     0.060 A 
ATOM     40  C   UNL A   1      34.733  31.954  29.048  1.00  0.00     0.016 A 
ATOM     41  C   UNL A   1      36.226  33.710  28.277  1.00  0.00     0.016 A 
ATOM     42  C   UNL A   1      35.825  31.187  29.449  1.00  0.00     0.010 A 
ATOM     43  C   UNL A   1      37.321  32.942  28.691  1.00  0.00     0.010 A 
ATOM     44  C   UNL A   1      37.122  31.704  29.328  1.00  0.00    -0.014 A 
BRANCH  44  45
ATOM     45  C   UNL A   1      38.231  31.048  30.067  1.00  0.00     0.031 A 
ATOM     46  C   UNL A   1      38.462  31.431  31.507  1.00  0.00     0.074 A 
ATOM     47  C   UNL A   1      38.980  30.091  29.491  1.00  0.00     0.049 A 
ATOM     48  N   UNL A   1      39.381  31.018  32.343  1.00  0.00    -0.248 NA
ATOM     49  C   UNL A   1      37.527  32.413  32.079  1.00  0.00     0.031 C 
ATOM     50  C   UNL A   1      38.812  29.595  28.126  1.00  0.00     0.029 A 
ATOM     51  N   UNL A   1      40.033  29.363  29.988  1.00  0.00    -0.354 N 
ATOM     52  C   UNL A   1      39.136  31.689  33.537  1.00  0.00     0.074 A 
ATOM     53  C   UNL A   1      38.006  32.564  33.303  1.00  0.00     0.031 C 
ATOM     54  C   UNL A   1      39.737  28.647  27.891  1.00  0.00     0.029 A 
ATOM     55  C   UNL A   1      40.582  28.494  29.075  1.00  0.00     0.049 A 
ATOM     56  H   UNL A   1      40.364  29.456  30.910  1.00  0.00     0.167 HD
ATOM     57  C   UNL A   1      39.787  31.580  34.721  1.00  0.00     0.034 A 
ATOM     58  C   UNL A   1      41.657  27.687  29.178  1.00  0.00     0.034 A 
ATOM     59  C   UNL A   1      40.920  30.715  34.938  1.00  0.00     0.049 A 
ATOM     60  C   UNL A   1      42.421  27.647  30.481  1.00  0.00     0.074 A 
ATOM     61  C   UNL A   1      41.669  30.541  36.089  1.00  0.00     0.029 A 
ATOM     62  N   UNL A   1      41.474  29.879  33.976  1.00  0.00    -0.354 N 
ATOM     63  N   UNL A   1      42.191  28.301  31.597  1.00  0.00    -0.248 NA
ATOM     64  C   UNL A   1      43.583  26.750  30.540  1.00  0.00     0.031 C 
ATOM     65  C   UNL A   1      42.708  29.646  35.808  1.00  0.00     0.029 A 
ATOM     66  C   UNL A   1      42.564  29.205  34.502  1.00  0.00     0.049 A 
ATOM     67  H   UNL A   1      41.139  29.779  33.056  1.00  0.00     0.167 HD
ATOM     68  C   UNL A   1      43.158  27.864  32.500  1.00  0.00     0.074 A 
ATOM     69  C   UNL A   1      43.967  26.886  31.801  1.00  0.00     0.031 C 
ATOM     70  C   UNL A   1      43.358  28.230  33.791  1.00  0.00     0.034 A 
BRANCH  57  71
ATOM     71  C   UNL A   1      39.313  32.460  35.853  1.00  0.00     0.023 A 
ATOM     72  C   UNL A   1      39.730  33.798  35.974  1.00  0.00     0.031 A 
ATOM     73  C   UNL A   1      38.459  31.944  36.843  1.00  0.00     0.131 A 
ATOM     74  C   UNL A   1      39.347  34.552  37.094  1.00  0.00     0.055 A 
ATOM     75  C   UNL A   1      38.021  32.723  37.916  1.00  0.00     0.041 A 
ATOM     76  F   UNL A   1      38.047  30.668  36.793  1.00  0.00    -0.206 F 
ATOM     77  C   UNL A   1      38.475  34.032  38.053  1.00  0.00     0.022 A 
BRANCH  74  78
ATOM     78  S   UNL A   1      40.107  36.178  37.348  1.00  0.00     0.124 S 
ATOM     79  O   UNL A   1      40.065  36.737  35.999  1.00  0.00    -0.237 OA
ATOM     80  O   UNL A   1      39.216  36.796  38.324  1.00  0.00    -0.237 OA
ATOM     81  O   UNL A   1      41.446  35.858  37.840  1.00  0.00    -0.744 OA
ENDBRANCH  74  78
ENDBRANCH  57  71
BRANCH  58  82
ATOM     82  C   UNL A   1      42.111  26.875  28.012  1.00  0.00     0.023 A 
ATOM     83  C   UNL A   1      41.861  25.495  27.947  1.00  0.00     0.031 A 
ATOM     84  C   UNL A   1      42.865  27.458  26.979  1.00  0.00     0.131 A 
ATOM     85  C   UNL A   1      42.404  24.736  26.899  1.00  0.00     0.055 A 
ATOM     86  C   UNL A   1      43.358  26.708  25.911  1.00  0.00     0.041 A 
ATOM     87  F   UNL A   1      43.135  28.773  26.994  1.00  0.00    -0.206 F 
ATOM     88  C   UNL A   1      43.140  25.335  25.874  1.00  0.00     0.022 A 
BRANCH  85  89
ATOM     89  S   UNL A   1      42.211  22.932  26.944  1.00  0.00     0.124 S 
ATOM     90  O   UNL A   1      43.311  22.494  26.093  1.00  0.00    -0.237 OA
ATOM     91  O   UNL A   1      42.350  22.650  28.369  1.00  0.00    -0.237 OA
ATOM     92  O   UNL A   1      40.873  22.720  26.396  1.00  0.00    -0.744 OA
ENDBRANCH  85  89
ENDBRANCH  58  82
BRANCH  70  93
ATOM     93  C   UNL A   1      44.456  27.520  34.545  1.00  0.00     0.023 A 
ATOM     94  C   UNL A   1      45.768  28.022  34.597  1.00  0.00     0.031 A 
ATOM     95  C   UNL A   1      44.181  26.313  35.212  1.00  0.00     0.131 A 
ATOM     96  C   UNL A   1      46.770  27.290  35.252  1.00  0.00     0.055 A 
ATOM     97  C   UNL A   1      45.170  25.618  35.911  1.00  0.00     0.041 A 
ATOM     98  F   UNL A   1      42.945  25.789  35.196  1.00  0.00    -0.206 F 
ATOM     99  C   UNL A   1      46.475  26.099  35.922  1.00  0.00     0.022 A 
BRANCH  96 100
ATOM    100  S   UNL A   1      48.485  27.870  35.146  1.00  0.00     0.124 S 
ATOM    101  O   UNL A   1      48.338  29.302  35.393  1.00  0.00    -0.237 OA
ATOM    102  O   UNL A   1      49.139  27.107  36.203  1.00  0.00    -0.237 OA
ATOM    103  O   UNL A   1      48.885  27.513  33.786  1.00  0.00    -0.744 OA
ENDBRANCH  96 100
ENDBRANCH  70  93
ENDBRANCH  44  45
ENDBRANCH  37  39
ENDBRANCH  36  37
ENDBRANCH  35  36
ENDBRANCH  34  35
ENDBRANCH   1  34
TORSDOF 21
ENDMDL
