MODEL 1
REMARK VINA RESULT:     -10.3      0.000      0.000
REMARK SMILES CN(C)c1nccnc1N1CCC(Oc2ccc3ccccc3c2)(C(=O)OCCOCCOC(=O)c2ccc(-c3c4nc(c(-c5cc(S(=O)(=O)[O-])ccc5F)c5ccc([nH]5)c(-c5cc(S(=O)(=O)[O-])ccc5F)c5nc(c(-c6cc(S(=O)(=O)[O-])ccc6F)c6ccc3[nH]6)C=C5)C=C4)cc2)CC1
REMARK SMILES IDX 31 1 30 2 29 3 28 4 27 5 25 6 26 7 13 8 10 9 11 10 100 11
REMARK SMILES IDX 12 12 99 13 9 14 4 15 5 16 6 17 8 18 7 19 2 20 1 21 3 22
REMARK SMILES IDX 14 23 15 24 16 25 24 26 17 27 23 28 18 29 22 30 19 31 21 32
REMARK SMILES IDX 20 33 32 34 33 35 34 36 35 37 36 38 37 39 98 40 38 41 97 42
REMARK SMILES IDX 39 43 40 44 41 45 91 46 42 47 96 48 90 49 92 50 43 51 95 52
REMARK SMILES IDX 89 53 88 54 44 56 76 57 56 58 75 59 57 60 60 61 74 62 93 63
REMARK SMILES IDX 58 64 59 65 73 67 94 68 61 69 45 70 46 71 54 72 47 73 53 74
REMARK SMILES IDX 55 75 52 76 48 77 49 78 50 79 51 80 77 81 78 82 86 83 79 84
REMARK SMILES IDX 85 85 87 86 84 87 80 88 81 89 82 90 83 91 62 92 63 93 71 94
REMARK SMILES IDX 64 95 70 96 72 97 69 98 65 99 66 100 67 101 68 102
REMARK H PARENT 92 55 60 66
REMARK Flexibility Score: inf
ROOT
ATOM      1  C   UNL A   1      45.951  30.011  26.080  1.00  0.00     0.202 C 
ENDROOT
BRANCH   1   2
ATOM      2  O   UNL A   1      46.731  29.098  26.835  1.00  0.00    -0.374 OA
BRANCH   2   3
ATOM      3  C   UNL A   1      47.530  28.147  26.129  1.00  0.00     0.202 C 
BRANCH   3   4
ATOM      4  C   UNL A   1      47.042  27.659  24.761  1.00  0.00     0.261 C 
BRANCH   4   5
ATOM      5  O   UNL A   1      45.755  27.008  24.813  1.00  0.00    -0.460 OA
BRANCH   5   6
ATOM      6  C   UNL A   1      45.753  25.655  25.007  1.00  0.00     0.350 C 
ATOM      7  O   UNL A   1      46.506  24.885  24.417  1.00  0.00    -0.247 OA
BRANCH   6   8
ATOM      8  C   UNL A   1      44.681  25.190  26.025  1.00  0.00     0.209 C 
ATOM      9  N   UNL A   1      44.084  22.316  25.837  1.00  0.00    -0.353 N 
ATOM     10  C   UNL A   1      44.514  22.848  27.128  1.00  0.00     0.123 C 
ATOM     11  C   UNL A   1      43.832  23.210  24.712  1.00  0.00     0.123 C 
ATOM     12  C   UNL A   1      45.256  24.182  27.041  1.00  0.00     0.082 C 
ATOM     13  C   UNL A   1      43.497  24.607  25.225  1.00  0.00     0.082 C 
BRANCH   9  14
ATOM     14  C   UNL A   1      43.271  21.166  25.898  1.00  0.00     0.171 A 
ATOM     15  C   UNL A   1      43.642  19.906  25.309  1.00  0.00     0.171 A 
ATOM     16  N   UNL A   1      42.771  18.856  25.300  1.00  0.00    -0.234 NA
ATOM     17  C   UNL A   1      41.586  19.041  25.911  1.00  0.00     0.134 A 
ATOM     18  N   UNL A   1      42.065  21.302  26.516  1.00  0.00    -0.234 NA
ATOM     19  C   UNL A   1      41.244  20.233  26.510  1.00  0.00     0.134 A 
BRANCH  15  20
ATOM     20  N   UNL A   1      44.934  19.661  24.800  1.00  0.00    -0.360 N 
ATOM     21  C   UNL A   1      45.009  19.490  23.357  1.00  0.00     0.145 C 
ATOM     22  C   UNL A   1      45.658  18.669  25.585  1.00  0.00     0.145 C 
ENDBRANCH  15  20
ENDBRANCH   9  14
BRANCH   8  23
ATOM     23  O   UNL A   1      44.425  26.484  26.645  1.00  0.00    -0.475 OA
BRANCH  23  24
ATOM     24  C   UNL A   1      43.189  26.686  27.183  1.00  0.00     0.121 A 
ATOM     25  C   UNL A   1      42.788  26.005  28.325  1.00  0.00     0.047 A 
ATOM     26  C   UNL A   1      42.387  27.697  26.648  1.00  0.00     0.055 A 
ATOM     27  C   UNL A   1      41.550  26.286  28.901  1.00  0.00     0.012 A 
ATOM     28  C   UNL A   1      41.142  28.001  27.226  1.00  0.00    -0.015 A 
ATOM     29  C   UNL A   1      40.714  27.277  28.363  1.00  0.00    -0.018 A 
ATOM     30  C   UNL A   1      40.316  29.016  26.715  1.00  0.00     0.009 A 
ATOM     31  C   UNL A   1      39.473  27.575  28.947  1.00  0.00     0.009 A 
ATOM     32  C   UNL A   1      39.087  29.307  27.313  1.00  0.00     0.001 A 
ATOM     33  C   UNL A   1      38.665  28.585  28.425  1.00  0.00     0.001 A 
ENDBRANCH  23  24
ENDBRANCH   8  23
ENDBRANCH   6   8
ENDBRANCH   5   6
ENDBRANCH   4   5
ENDBRANCH   3   4
ENDBRANCH   2   3
ENDBRANCH   1   2
BRANCH   1  34
ATOM     34  C   UNL A   1      46.105  31.514  26.356  1.00  0.00     0.261 C 
BRANCH  34  35
ATOM     35  O   UNL A   1      45.024  32.327  25.898  1.00  0.00    -0.460 OA
BRANCH  35  36
ATOM     36  C   UNL A   1      45.012  33.574  26.429  1.00  0.00     0.338 C 
ATOM     37  O   UNL A   1      45.508  34.583  25.962  1.00  0.00    -0.246 OA
BRANCH  36  38
ATOM     38  C   UNL A   1      44.169  33.572  27.633  1.00  0.00     0.060 A 
ATOM     39  C   UNL A   1      43.896  34.806  28.229  1.00  0.00     0.016 A 
ATOM     40  C   UNL A   1      43.715  32.380  28.201  1.00  0.00     0.016 A 
ATOM     41  C   UNL A   1      43.198  34.851  29.431  1.00  0.00     0.010 A 
ATOM     42  C   UNL A   1      43.018  32.427  29.413  1.00  0.00     0.010 A 
ATOM     43  C   UNL A   1      42.787  33.660  30.047  1.00  0.00    -0.014 A 
BRANCH  43  44
ATOM     44  C   UNL A   1      42.246  33.717  31.425  1.00  0.00     0.031 A 
ATOM     45  C   UNL A   1      40.760  33.834  31.617  1.00  0.00     0.074 A 
ATOM     46  C   UNL A   1      43.068  33.608  32.483  1.00  0.00     0.049 A 
ATOM     47  N   UNL A   1      40.065  33.870  32.724  1.00  0.00    -0.248 NA
ATOM     48  C   UNL A   1      39.949  33.925  30.393  1.00  0.00     0.031 C 
ATOM     49  C   UNL A   1      44.521  33.459  32.407  1.00  0.00     0.029 A 
ATOM     50  N   UNL A   1      42.798  33.604  33.827  1.00  0.00    -0.354 N 
ATOM     51  C   UNL A   1      38.736  33.985  32.333  1.00  0.00     0.074 A 
ATOM     52  C   UNL A   1      38.728  34.058  30.887  1.00  0.00     0.031 C 
ATOM     53  C   UNL A   1      45.016  33.379  33.654  1.00  0.00     0.029 A 
ATOM     54  C   UNL A   1      43.921  33.505  34.614  1.00  0.00     0.049 A 
ATOM     55  H   UNL A   1      41.887  33.668  34.195  1.00  0.00     0.167 HD
ATOM     56  C   UNL A   1      37.624  34.015  33.110  1.00  0.00     0.034 A 
ATOM     57  C   UNL A   1      44.049  33.530  35.956  1.00  0.00     0.034 A 
ATOM     58  C   UNL A   1      37.657  33.958  34.551  1.00  0.00     0.049 A 
ATOM     59  C   UNL A   1      42.805  33.638  36.803  1.00  0.00     0.074 A 
ATOM     60  C   UNL A   1      36.597  33.961  35.441  1.00  0.00     0.029 A 
ATOM     61  N   UNL A   1      38.816  33.906  35.318  1.00  0.00    -0.354 N 
ATOM     62  N   UNL A   1      41.550  33.721  36.422  1.00  0.00    -0.248 NA
ATOM     63  C   UNL A   1      42.994  33.646  38.258  1.00  0.00     0.031 C 
ATOM     64  C   UNL A   1      37.114  33.988  36.740  1.00  0.00     0.029 A 
ATOM     65  C   UNL A   1      38.497  33.916  36.668  1.00  0.00     0.049 A 
ATOM     66  H   UNL A   1      39.730  33.866  34.956  1.00  0.00     0.167 HD
ATOM     67  C   UNL A   1      40.799  33.763  37.594  1.00  0.00     0.074 A 
ATOM     68  C   UNL A   1      41.742  33.682  38.692  1.00  0.00     0.031 C 
ATOM     69  C   UNL A   1      39.452  33.855  37.750  1.00  0.00     0.034 A 
BRANCH  56  70
ATOM     70  C   UNL A   1      36.295  34.176  32.410  1.00  0.00     0.023 A 
ATOM     71  C   UNL A   1      35.570  35.381  32.459  1.00  0.00     0.031 A 
ATOM     72  C   UNL A   1      35.722  33.093  31.720  1.00  0.00     0.131 A 
ATOM     73  C   UNL A   1      34.284  35.449  31.899  1.00  0.00     0.055 A 
ATOM     74  C   UNL A   1      34.477  33.193  31.095  1.00  0.00     0.041 A 
ATOM     75  F   UNL A   1      36.354  31.911  31.659  1.00  0.00    -0.206 F 
ATOM     76  C   UNL A   1      33.743  34.371  31.197  1.00  0.00     0.022 A 
BRANCH  73  77
ATOM     77  S   UNL A   1      33.267  36.913  32.236  1.00  0.00     0.124 S 
ATOM     78  O   UNL A   1      34.034  37.569  33.293  1.00  0.00    -0.237 OA
ATOM     79  O   UNL A   1      33.250  37.590  30.945  1.00  0.00    -0.237 OA
ATOM     80  O   UNL A   1      31.987  36.350  32.663  1.00  0.00    -0.744 OA
ENDBRANCH  73  77
ENDBRANCH  56  70
BRANCH  57  81
ATOM     81  C   UNL A   1      45.402  33.487  36.581  1.00  0.00     0.023 A 
ATOM     82  C   UNL A   1      46.141  34.659  36.810  1.00  0.00     0.031 A 
ATOM     83  C   UNL A   1      45.991  32.258  36.928  1.00  0.00     0.131 A 
ATOM     84  C   UNL A   1      47.441  34.573  37.334  1.00  0.00     0.055 A 
ATOM     85  C   UNL A   1      47.264  32.181  37.495  1.00  0.00     0.041 A 
ATOM     86  F   UNL A   1      45.327  31.108  36.731  1.00  0.00    -0.206 F 
ATOM     87  C   UNL A   1      48.002  33.344  37.691  1.00  0.00     0.022 A 
BRANCH  84  88
ATOM     88  S   UNL A   1      48.422  36.092  37.480  1.00  0.00     0.124 S 
ATOM     89  O   UNL A   1      48.363  36.616  36.120  1.00  0.00    -0.237 OA
ATOM     90  O   UNL A   1      47.677  36.838  38.489  1.00  0.00    -0.237 OA
ATOM     91  O   UNL A   1      49.735  35.609  37.907  1.00  0.00    -0.744 OA
ENDBRANCH  84  88
ENDBRANCH  57  81
BRANCH  69  92
ATOM     92  C   UNL A   1      38.925  33.834  39.165  1.00  0.00     0.023 A 
ATOM     93  C   UNL A   1      38.554  32.636  39.800  1.00  0.00     0.031 A 
ATOM     94  C   UNL A   1      38.784  35.035  39.884  1.00  0.00     0.131 A 
ATOM     95  C   UNL A   1      38.008  32.671  41.092  1.00  0.00     0.055 A 
ATOM     96  C   UNL A   1      38.298  35.056  41.192  1.00  0.00     0.041 A 
ATOM     97  F   UNL A   1      39.121  36.209  39.327  1.00  0.00    -0.206 F 
ATOM     98  C   UNL A   1      37.894  33.871  41.799  1.00  0.00     0.022 A 
BRANCH  95  99
ATOM     99  S   UNL A   1      37.359  31.134  41.806  1.00  0.00     0.124 S 
ATOM    100  O   UNL A   1      35.919  31.363  41.760  1.00  0.00    -0.237 OA
ATOM    101  O   UNL A   1      37.872  30.122  40.888  1.00  0.00    -0.237 OA
ATOM    102  O   UNL A   1      37.940  31.106  43.147  1.00  0.00    -0.744 OA
ENDBRANCH  95  99
ENDBRANCH  69  92
ENDBRANCH  43  44
ENDBRANCH  36  38
ENDBRANCH  35  36
ENDBRANCH  34  35
ENDBRANCH   1  34
TORSDOF 21
ENDMDL
MODEL 2
REMARK VINA RESULT:     -10.2      5.600      9.778
REMARK SMILES CN(C)c1nccnc1N1CCC(Oc2ccc3ccccc3c2)(C(=O)OCCOCCOC(=O)c2ccc(-c3c4nc(c(-c5cc(S(=O)(=O)[O-])ccc5F)c5ccc([nH]5)c(-c5cc(S(=O)(=O)[O-])ccc5F)c5nc(c(-c6cc(S(=O)(=O)[O-])ccc6F)c6ccc3[nH]6)C=C5)C=C4)cc2)CC1
REMARK SMILES IDX 31 1 30 2 29 3 28 4 27 5 25 6 26 7 13 8 10 9 11 10 100 11
REMARK SMILES IDX 12 12 99 13 9 14 4 15 5 16 6 17 8 18 7 19 2 20 1 21 3 22
REMARK SMILES IDX 14 23 15 24 16 25 24 26 17 27 23 28 18 29 22 30 19 31 21 32
REMARK SMILES IDX 20 33 32 34 33 35 34 36 35 37 36 38 37 39 98 40 38 41 97 42
REMARK SMILES IDX 39 43 40 44 41 45 91 46 42 47 96 48 90 49 92 50 43 51 95 52
REMARK SMILES IDX 89 53 88 54 44 56 76 57 56 58 75 59 57 60 60 61 74 62 93 63
REMARK SMILES IDX 58 64 59 65 73 67 94 68 61 69 45 70 46 71 54 72 47 73 53 74
REMARK SMILES IDX 55 75 52 76 48 77 49 78 50 79 51 80 77 81 78 82 86 83 79 84
REMARK SMILES IDX 85 85 87 86 84 87 80 88 81 89 82 90 83 91 62 92 63 93 71 94
REMARK SMILES IDX 64 95 70 96 72 97 69 98 65 99 66 100 67 101 68 102
REMARK H PARENT 92 55 60 66
REMARK Flexibility Score: inf
ROOT
ATOM      1  C   UNL A   1      42.587  20.192  26.286  1.00  0.00     0.202 C 
ENDROOT
BRANCH   1   2
ATOM      2  O   UNL A   1      41.485  20.735  26.994  1.00  0.00    -0.374 OA
BRANCH   2   3
ATOM      3  C   UNL A   1      40.185  20.618  26.414  1.00  0.00     0.202 C 
BRANCH   3   4
ATOM      4  C   UNL A   1      39.396  21.901  26.130  1.00  0.00     0.261 C 
BRANCH   4   5
ATOM      5  O   UNL A   1      38.057  21.654  25.652  1.00  0.00    -0.460 OA
BRANCH   5   6
ATOM      6  C   UNL A   1      37.290  22.747  25.365  1.00  0.00     0.350 C 
ATOM      7  O   UNL A   1      37.657  23.903  25.562  1.00  0.00    -0.247 OA
BRANCH   6   8
ATOM      8  C   UNL A   1      35.898  22.378  24.792  1.00  0.00     0.209 C 
ATOM      9  N   UNL A   1      33.966  24.591  24.944  1.00  0.00    -0.353 N 
ATOM     10  C   UNL A   1      34.227  23.991  23.638  1.00  0.00     0.123 C 
ATOM     11  C   UNL A   1      34.548  24.020  26.153  1.00  0.00     0.123 C 
ATOM     12  C   UNL A   1      35.547  23.224  23.552  1.00  0.00     0.082 C 
ATOM     13  C   UNL A   1      34.866  22.544  25.928  1.00  0.00     0.082 C 
BRANCH   9  14
ATOM     14  C   UNL A   1      32.693  25.177  25.097  1.00  0.00     0.171 A 
ATOM     15  C   UNL A   1      32.441  26.579  24.889  1.00  0.00     0.171 A 
ATOM     16  N   UNL A   1      31.216  27.116  25.158  1.00  0.00    -0.234 NA
ATOM     17  C   UNL A   1      30.255  26.267  25.567  1.00  0.00     0.134 A 
ATOM     18  N   UNL A   1      31.686  24.356  25.500  1.00  0.00    -0.234 NA
ATOM     19  C   UNL A   1      30.483  24.918  25.729  1.00  0.00     0.134 A 
BRANCH  15  20
ATOM     20  N   UNL A   1      33.399  27.444  24.320  1.00  0.00    -0.360 N 
ATOM     21  C   UNL A   1      33.624  28.684  25.048  1.00  0.00     0.145 C 
ATOM     22  C   UNL A   1      33.229  27.586  22.880  1.00  0.00     0.145 C 
ENDBRANCH  15  20
ENDBRANCH   9  14
BRANCH   8  23
ATOM     23  O   UNL A   1      36.194  20.998  24.429  1.00  0.00    -0.475 OA
BRANCH  23  24
ATOM     24  C   UNL A   1      35.229  20.066  24.672  1.00  0.00     0.121 A 
ATOM     25  C   UNL A   1      33.886  20.419  24.685  1.00  0.00     0.047 A 
ATOM     26  C   UNL A   1      35.607  18.725  24.764  1.00  0.00     0.055 A 
ATOM     27  C   UNL A   1      32.913  19.434  24.856  1.00  0.00     0.012 A 
ATOM     28  C   UNL A   1      34.636  17.720  24.925  1.00  0.00    -0.015 A 
ATOM     29  C   UNL A   1      33.271  18.083  24.982  1.00  0.00    -0.018 A 
ATOM     30  C   UNL A   1      34.984  16.362  25.015  1.00  0.00     0.009 A 
ATOM     31  C   UNL A   1      32.295  17.087  25.141  1.00  0.00     0.009 A 
ATOM     32  C   UNL A   1      34.001  15.380  25.164  1.00  0.00     0.001 A 
ATOM     33  C   UNL A   1      32.658  15.743  25.231  1.00  0.00     0.001 A 
ENDBRANCH  23  24
ENDBRANCH   8  23
ENDBRANCH   6   8
ENDBRANCH   5   6
ENDBRANCH   4   5
ENDBRANCH   3   4
ENDBRANCH   2   3
ENDBRANCH   1   2
BRANCH   1  34
ATOM     34  C   UNL A   1      43.577  21.153  25.611  1.00  0.00     0.261 C 
BRANCH  34  35
ATOM     35  O   UNL A   1      42.998  22.350  25.090  1.00  0.00    -0.460 OA
BRANCH  35  36
ATOM     36  C   UNL A   1      43.908  23.287  24.731  1.00  0.00     0.338 C 
ATOM     37  O   UNL A   1      44.706  23.233  23.812  1.00  0.00    -0.246 OA
BRANCH  36  38
ATOM     38  C   UNL A   1      43.705  24.489  25.552  1.00  0.00     0.060 A 
ATOM     39  C   UNL A   1      43.269  25.647  24.902  1.00  0.00     0.016 A 
ATOM     40  C   UNL A   1      44.002  24.496  26.917  1.00  0.00     0.016 A 
ATOM     41  C   UNL A   1      43.168  26.839  25.611  1.00  0.00     0.010 A 
ATOM     42  C   UNL A   1      43.906  25.697  27.626  1.00  0.00     0.010 A 
ATOM     43  C   UNL A   1      43.521  26.878  26.968  1.00  0.00    -0.014 A 
BRANCH  43  44
ATOM     44  C   UNL A   1      43.620  28.193  27.644  1.00  0.00     0.031 A 
ATOM     45  C   UNL A   1      42.381  28.793  28.248  1.00  0.00     0.074 A 
ATOM     46  C   UNL A   1      44.809  28.808  27.763  1.00  0.00     0.049 A 
ATOM     47  N   UNL A   1      42.237  29.912  28.909  1.00  0.00    -0.248 NA
ATOM     48  C   UNL A   1      41.136  28.027  28.079  1.00  0.00     0.031 C 
ATOM     49  C   UNL A   1      46.076  28.297  27.242  1.00  0.00     0.029 A 
ATOM     50  N   UNL A   1      45.144  29.995  28.362  1.00  0.00    -0.354 N 
ATOM     51  C   UNL A   1      40.888  29.985  29.240  1.00  0.00     0.074 A 
ATOM     52  C   UNL A   1      40.251  28.819  28.665  1.00  0.00     0.031 C 
ATOM     53  C   UNL A   1      47.053  29.168  27.543  1.00  0.00     0.029 A 
ATOM     54  C   UNL A   1      46.477  30.311  28.248  1.00  0.00     0.049 A 
ATOM     55  H   UNL A   1      44.493  30.568  28.828  1.00  0.00     0.167 HD
ATOM     56  C   UNL A   1      40.245  30.933  29.966  1.00  0.00     0.034 A 
ATOM     57  C   UNL A   1      47.149  31.408  28.653  1.00  0.00     0.034 A 
ATOM     58  C   UNL A   1      40.898  32.097  30.515  1.00  0.00     0.049 A 
ATOM     59  C   UNL A   1      46.400  32.487  29.395  1.00  0.00     0.074 A 
ATOM     60  C   UNL A   1      40.355  33.112  31.282  1.00  0.00     0.029 A 
ATOM     61  N   UNL A   1      42.242  32.411  30.340  1.00  0.00    -0.354 N 
ATOM     62  N   UNL A   1      45.128  32.535  29.724  1.00  0.00    -0.248 NA
ATOM     63  C   UNL A   1      47.177  33.654  29.829  1.00  0.00     0.031 C 
ATOM     64  C   UNL A   1      41.346  34.074  31.504  1.00  0.00     0.029 A 
ATOM     65  C   UNL A   1      42.533  33.622  30.949  1.00  0.00     0.049 A 
ATOM     66  H   UNL A   1      42.892  31.854  29.854  1.00  0.00     0.167 HD
ATOM     67  C   UNL A   1      44.962  33.724  30.428  1.00  0.00     0.074 A 
ATOM     68  C   UNL A   1      46.265  34.356  30.487  1.00  0.00     0.031 C 
ATOM     69  C   UNL A   1      43.836  34.247  30.981  1.00  0.00     0.034 A 
BRANCH  56  70
ATOM     70  C   UNL A   1      38.754  30.772  30.147  1.00  0.00     0.023 A 
ATOM     71  C   UNL A   1      37.831  31.321  29.238  1.00  0.00     0.031 A 
ATOM     72  C   UNL A   1      38.246  30.098  31.272  1.00  0.00     0.131 A 
ATOM     73  C   UNL A   1      36.455  31.253  29.509  1.00  0.00     0.055 A 
ATOM     74  C   UNL A   1      36.874  29.964  31.494  1.00  0.00     0.041 A 
ATOM     75  F   UNL A   1      39.076  29.575  32.187  1.00  0.00    -0.206 F 
ATOM     76  C   UNL A   1      35.969  30.558  30.619  1.00  0.00     0.022 A 
BRANCH  73  77
ATOM     77  S   UNL A   1      35.318  32.220  28.477  1.00  0.00     0.124 S 
ATOM     78  O   UNL A   1      36.217  33.218  27.903  1.00  0.00    -0.237 OA
ATOM     79  O   UNL A   1      34.801  31.218  27.553  1.00  0.00    -0.237 OA
ATOM     80  O   UNL A   1      34.347  32.745  29.436  1.00  0.00    -0.744 OA
ENDBRANCH  73  77
ENDBRANCH  56  70
BRANCH  57  81
ATOM     81  C   UNL A   1      48.598  31.559  28.336  1.00  0.00     0.023 A 
ATOM     82  C   UNL A   1      49.037  32.376  27.282  1.00  0.00     0.031 A 
ATOM     83  C   UNL A   1      49.567  30.851  29.069  1.00  0.00     0.131 A 
ATOM     84  C   UNL A   1      50.404  32.437  26.969  1.00  0.00     0.055 A 
ATOM     85  C   UNL A   1      50.930  30.954  28.786  1.00  0.00     0.041 A 
ATOM     86  F   UNL A   1      49.202  30.057  30.088  1.00  0.00    -0.206 F 
ATOM     87  C   UNL A   1      51.355  31.742  27.721  1.00  0.00     0.022 A 
BRANCH  84  88
ATOM     88  S   UNL A   1      50.922  33.386  25.512  1.00  0.00     0.124 S 
ATOM     89  O   UNL A   1      51.333  32.327  24.597  1.00  0.00    -0.237 OA
ATOM     90  O   UNL A   1      49.696  34.097  25.163  1.00  0.00    -0.237 OA
ATOM     91  O   UNL A   1      52.004  34.227  26.020  1.00  0.00    -0.744 OA
ENDBRANCH  84  88
ENDBRANCH  57  81
BRANCH  69  92
ATOM     92  C   UNL A   1      43.982  35.551  31.729  1.00  0.00     0.023 A 
ATOM     93  C   UNL A   1      44.212  35.587  33.115  1.00  0.00     0.031 A 
ATOM     94  C   UNL A   1      43.880  36.774  31.042  1.00  0.00     0.131 A 
ATOM     95  C   UNL A   1      44.277  36.822  33.779  1.00  0.00     0.055 A 
ATOM     96  C   UNL A   1      44.008  37.999  31.699  1.00  0.00     0.041 A 
ATOM     97  F   UNL A   1      43.659  36.798  29.718  1.00  0.00    -0.206 F 
ATOM     98  C   UNL A   1      44.194  38.028  33.077  1.00  0.00     0.022 A 
BRANCH  95  99
ATOM     99  S   UNL A   1      44.378  36.833  35.591  1.00  0.00     0.124 S 
ATOM    100  O   UNL A   1      43.484  35.738  35.951  1.00  0.00    -0.237 OA
ATOM    101  O   UNL A   1      45.799  36.598  35.826  1.00  0.00    -0.237 OA
ATOM    102  O   UNL A   1      43.903  38.168  35.953  1.00  0.00    -0.744 OA
ENDBRANCH  95  99
ENDBRANCH  69  92
ENDBRANCH  43  44
ENDBRANCH  36  38
ENDBRANCH  35  36
ENDBRANCH  34  35
ENDBRANCH   1  34
TORSDOF 21
ENDMDL
MODEL 3
REMARK VINA RESULT:     -10.2      8.106     16.181
REMARK SMILES CN(C)c1nccnc1N1CCC(Oc2ccc3ccccc3c2)(C(=O)OCCOCCOC(=O)c2ccc(-c3c4nc(c(-c5cc(S(=O)(=O)[O-])ccc5F)c5ccc([nH]5)c(-c5cc(S(=O)(=O)[O-])ccc5F)c5nc(c(-c6cc(S(=O)(=O)[O-])ccc6F)c6ccc3[nH]6)C=C5)C=C4)cc2)CC1
REMARK SMILES IDX 31 1 30 2 29 3 28 4 27 5 25 6 26 7 13 8 10 9 11 10 100 11
REMARK SMILES IDX 12 12 99 13 9 14 4 15 5 16 6 17 8 18 7 19 2 20 1 21 3 22
REMARK SMILES IDX 14 23 15 24 16 25 24 26 17 27 23 28 18 29 22 30 19 31 21 32
REMARK SMILES IDX 20 33 32 34 33 35 34 36 35 37 36 38 37 39 98 40 38 41 97 42
REMARK SMILES IDX 39 43 40 44 41 45 91 46 42 47 96 48 90 49 92 50 43 51 95 52
REMARK SMILES IDX 89 53 88 54 44 56 76 57 56 58 75 59 57 60 60 61 74 62 93 63
REMARK SMILES IDX 58 64 59 65 73 67 94 68 61 69 45 70 46 71 54 72 47 73 53 74
REMARK SMILES IDX 55 75 52 76 48 77 49 78 50 79 51 80 77 81 78 82 86 83 79 84
REMARK SMILES IDX 85 85 87 86 84 87 80 88 81 89 82 90 83 91 62 92 63 93 71 94
REMARK SMILES IDX 64 95 70 96 72 97 69 98 65 99 66 100 67 101 68 102
REMARK H PARENT 92 55 60 66
REMARK Flexibility Score: inf
ROOT
ATOM      1  C   UNL A   1      46.869  39.823  27.785  1.00  0.00     0.202 C 
ENDROOT
BRANCH   1   2
ATOM      2  O   UNL A   1      45.765  39.915  26.899  1.00  0.00    -0.374 OA
BRANCH   2   3
ATOM      3  C   UNL A   1      44.586  40.581  27.355  1.00  0.00     0.202 C 
BRANCH   3   4
ATOM      4  C   UNL A   1      43.935  41.620  26.435  1.00  0.00     0.261 C 
BRANCH   4   5
ATOM      5  O   UNL A   1      44.092  41.318  25.032  1.00  0.00    -0.460 OA
BRANCH   5   6
ATOM      6  C   UNL A   1      43.617  42.240  24.143  1.00  0.00     0.350 C 
ATOM      7  O   UNL A   1      42.451  42.628  24.127  1.00  0.00    -0.247 OA
BRANCH   6   8
ATOM      8  C   UNL A   1      44.693  42.725  23.139  1.00  0.00     0.209 C 
ATOM      9  N   UNL A   1      46.852  44.260  24.416  1.00  0.00    -0.353 N 
ATOM     10  C   UNL A   1      47.214  43.083  23.631  1.00  0.00     0.123 C 
ATOM     11  C   UNL A   1      45.474  44.733  24.453  1.00  0.00     0.123 C 
ATOM     12  C   UNL A   1      46.069  42.091  23.423  1.00  0.00     0.082 C 
ATOM     13  C   UNL A   1      44.732  44.267  23.204  1.00  0.00     0.082 C 
BRANCH   9  14
ATOM     14  C   UNL A   1      47.844  45.259  24.498  1.00  0.00     0.171 A 
ATOM     15  C   UNL A   1      48.433  45.883  23.342  1.00  0.00     0.171 A 
ATOM     16  N   UNL A   1      49.466  46.763  23.473  1.00  0.00    -0.234 NA
ATOM     17  C   UNL A   1      49.862  47.055  24.726  1.00  0.00     0.134 A 
ATOM     18  N   UNL A   1      48.270  45.596  25.746  1.00  0.00    -0.234 NA
ATOM     19  C   UNL A   1      49.274  46.490  25.835  1.00  0.00     0.134 A 
BRANCH  15  20
ATOM     20  N   UNL A   1      47.925  45.693  22.040  1.00  0.00    -0.360 N 
ATOM     21  C   UNL A   1      48.908  45.296  21.043  1.00  0.00     0.145 C 
ATOM     22  C   UNL A   1      47.025  46.766  21.637  1.00  0.00     0.145 C 
ENDBRANCH  15  20
ENDBRANCH   9  14
BRANCH   8  23
ATOM     23  O   UNL A   1      44.093  42.177  21.929  1.00  0.00    -0.475 OA
BRANCH  23  24
ATOM     24  C   UNL A   1      44.023  42.994  20.840  1.00  0.00     0.121 A 
ATOM     25  C   UNL A   1      45.176  43.428  20.200  1.00  0.00     0.047 A 
ATOM     26  C   UNL A   1      42.767  43.269  20.293  1.00  0.00     0.055 A 
ATOM     27  C   UNL A   1      45.078  44.198  19.041  1.00  0.00     0.012 A 
ATOM     28  C   UNL A   1      42.653  44.034  19.119  1.00  0.00    -0.015 A 
ATOM     29  C   UNL A   1      43.826  44.513  18.490  1.00  0.00    -0.018 A 
ATOM     30  C   UNL A   1      41.405  44.322  18.541  1.00  0.00     0.009 A 
ATOM     31  C   UNL A   1      43.720  45.276  17.317  1.00  0.00     0.009 A 
ATOM     32  C   UNL A   1      41.317  45.075  17.368  1.00  0.00     0.001 A 
ATOM     33  C   UNL A   1      42.473  45.555  16.759  1.00  0.00     0.001 A 
ENDBRANCH  23  24
ENDBRANCH   8  23
ENDBRANCH   6   8
ENDBRANCH   5   6
ENDBRANCH   4   5
ENDBRANCH   3   4
ENDBRANCH   2   3
ENDBRANCH   1   2
BRANCH   1  34
ATOM     34  C   UNL A   1      46.908  38.669  28.797  1.00  0.00     0.261 C 
BRANCH  34  35
ATOM     35  O   UNL A   1      46.963  37.363  28.224  1.00  0.00    -0.460 OA
BRANCH  35  36
ATOM     36  C   UNL A   1      47.366  36.400  29.089  1.00  0.00     0.338 C 
ATOM     37  O   UNL A   1      48.265  36.468  29.908  1.00  0.00    -0.246 OA
BRANCH  36  38
ATOM     38  C   UNL A   1      46.444  35.259  28.995  1.00  0.00     0.060 A 
ATOM     39  C   UNL A   1      46.644  34.197  29.882  1.00  0.00     0.016 A 
ATOM     40  C   UNL A   1      45.452  35.204  28.014  1.00  0.00     0.016 A 
ATOM     41  C   UNL A   1      45.872  33.046  29.762  1.00  0.00     0.010 A 
ATOM     42  C   UNL A   1      44.681  34.044  27.892  1.00  0.00     0.010 A 
ATOM     43  C   UNL A   1      44.912  32.949  28.744  1.00  0.00    -0.014 A 
BRANCH  43  44
ATOM     44  C   UNL A   1      44.262  31.641  28.496  1.00  0.00     0.031 A 
ATOM     45  C   UNL A   1      45.000  30.606  27.693  1.00  0.00     0.074 A 
ATOM     46  C   UNL A   1      43.058  31.368  29.028  1.00  0.00     0.049 A 
ATOM     47  N   UNL A   1      44.641  29.389  27.378  1.00  0.00    -0.248 NA
ATOM     48  C   UNL A   1      46.319  31.000  27.175  1.00  0.00     0.031 C 
ATOM     49  C   UNL A   1      42.273  32.289  29.847  1.00  0.00     0.029 A 
ATOM     50  N   UNL A   1      42.288  30.236  28.959  1.00  0.00    -0.354 N 
ATOM     51  C   UNL A   1      45.690  28.868  26.627  1.00  0.00     0.074 A 
ATOM     52  C   UNL A   1      46.677  29.920  26.497  1.00  0.00     0.031 C 
ATOM     53  C   UNL A   1      41.128  31.684  30.206  1.00  0.00     0.029 A 
ATOM     54  C   UNL A   1      41.086  30.348  29.615  1.00  0.00     0.049 A 
ATOM     55  H   UNL A   1      42.569  29.420  28.485  1.00  0.00     0.167 HD
ATOM     56  C   UNL A   1      45.820  27.624  26.104  1.00  0.00     0.034 A 
ATOM     57  C   UNL A   1      40.061  29.476  29.711  1.00  0.00     0.034 A 
ATOM     58  C   UNL A   1      44.815  26.596  26.231  1.00  0.00     0.049 A 
ATOM     59  C   UNL A   1      40.196  28.123  29.060  1.00  0.00     0.074 A 
ATOM     60  C   UNL A   1      44.846  25.295  25.761  1.00  0.00     0.029 A 
ATOM     61  N   UNL A   1      43.587  26.759  26.861  1.00  0.00    -0.354 N 
ATOM     62  N   UNL A   1      41.203  27.631  28.373  1.00  0.00    -0.248 NA
ATOM     63  C   UNL A   1      39.061  27.203  29.204  1.00  0.00     0.031 C 
ATOM     64  C   UNL A   1      43.611  24.698  26.039  1.00  0.00     0.029 A 
ATOM     65  C   UNL A   1      42.838  25.597  26.757  1.00  0.00     0.049 A 
ATOM     66  H   UNL A   1      43.292  27.581  27.316  1.00  0.00     0.167 HD
ATOM     67  C   UNL A   1      40.832  26.334  28.028  1.00  0.00     0.074 A 
ATOM     68  C   UNL A   1      39.516  26.117  28.595  1.00  0.00     0.031 C 
ATOM     69  C   UNL A   1      41.517  25.405  27.313  1.00  0.00     0.034 A 
BRANCH  56  70
ATOM     70  C   UNL A   1      47.067  27.338  25.300  1.00  0.00     0.023 A 
ATOM     71  C   UNL A   1      47.220  27.797  23.978  1.00  0.00     0.031 A 
ATOM     72  C   UNL A   1      48.100  26.557  25.848  1.00  0.00     0.131 A 
ATOM     73  C   UNL A   1      48.340  27.406  23.226  1.00  0.00     0.055 A 
ATOM     74  C   UNL A   1      49.249  26.240  25.121  1.00  0.00     0.041 A 
ATOM     75  F   UNL A   1      48.001  26.071  27.094  1.00  0.00    -0.206 F 
ATOM     76  C   UNL A   1      49.367  26.650  23.796  1.00  0.00     0.022 A 
BRANCH  73  77
ATOM     77  S   UNL A   1      48.360  27.767  21.448  1.00  0.00     0.124 S 
ATOM     78  O   UNL A   1      46.978  28.182  21.215  1.00  0.00    -0.237 OA
ATOM     79  O   UNL A   1      49.368  28.816  21.350  1.00  0.00    -0.237 OA
ATOM     80  O   UNL A   1      48.729  26.488  20.842  1.00  0.00    -0.744 OA
ENDBRANCH  73  77
ENDBRANCH  56  70
BRANCH  57  81
ATOM     81  C   UNL A   1      38.808  29.867  30.419  1.00  0.00     0.023 A 
ATOM     82  C   UNL A   1      37.951  30.852  29.904  1.00  0.00     0.031 A 
ATOM     83  C   UNL A   1      38.470  29.276  31.650  1.00  0.00     0.131 A 
ATOM     84  C   UNL A   1      36.818  31.243  30.635  1.00  0.00     0.055 A 
ATOM     85  C   UNL A   1      37.316  29.634  32.349  1.00  0.00     0.041 A 
ATOM     86  F   UNL A   1      39.255  28.329  32.187  1.00  0.00    -0.206 F 
ATOM     87  C   UNL A   1      36.488  30.632  31.847  1.00  0.00     0.022 A 
BRANCH  84  88
ATOM     88  S   UNL A   1      35.813  32.619  30.012  1.00  0.00     0.124 S 
ATOM     89  O   UNL A   1      36.540  32.996  28.806  1.00  0.00    -0.237 OA
ATOM     90  O   UNL A   1      34.517  31.979  29.809  1.00  0.00    -0.237 OA
ATOM     91  O   UNL A   1      35.860  33.594  31.101  1.00  0.00    -0.744 OA
ENDBRANCH  84  88
ENDBRANCH  57  81
BRANCH  69  92
ATOM     92  C   UNL A   1      40.862  24.055  27.140  1.00  0.00     0.023 A 
ATOM     93  C   UNL A   1      39.727  23.881  26.330  1.00  0.00     0.031 A 
ATOM     94  C   UNL A   1      41.380  22.929  27.805  1.00  0.00     0.131 A 
ATOM     95  C   UNL A   1      39.113  22.621  26.250  1.00  0.00     0.055 A 
ATOM     96  C   UNL A   1      40.802  21.665  27.672  1.00  0.00     0.041 A 
ATOM     97  F   UNL A   1      42.461  23.037  28.593  1.00  0.00    -0.206 F 
ATOM     98  C   UNL A   1      39.653  21.508  26.902  1.00  0.00     0.022 A 
BRANCH  95  99
ATOM     99  S   UNL A   1      37.541  22.473  25.356  1.00  0.00     0.124 S 
ATOM    100  O   UNL A   1      37.532  23.691  24.554  1.00  0.00    -0.237 OA
ATOM    101  O   UNL A   1      37.717  21.226  24.618  1.00  0.00    -0.237 OA
ATOM    102  O   UNL A   1      36.542  22.425  26.424  1.00  0.00    -0.744 OA
ENDBRANCH  95  99
ENDBRANCH  69  92
ENDBRANCH  43  44
ENDBRANCH  36  38
ENDBRANCH  35  36
ENDBRANCH  34  35
ENDBRANCH   1  34
TORSDOF 21
ENDMDL
