MODEL 1
REMARK VINA RESULT:     -11.0      0.000      0.000
REMARK SMILES O=C(/C=C/c1ccc(O)c(O)c1)OCCOCCOC(=O)c1ccc(-c2c3nc(c(-c4cc(S(=O)(=O)[O-])ccc4F)c4ccc([nH]4)c(-c4cc(S(=O)(=O)[O-])ccc4F)c4nc(c(-c5cc(S(=O)(=O)[O-])ccc5F)c5ccc2[nH]5)C=C4)C=C3)cc1
REMARK SMILES IDX 17 1 16 2 15 3 14 4 13 5 2 6 1 7 3 8 4 9 5 10 6 11 12 12
REMARK SMILES IDX 7 13 10 14 8 15 11 16 9 18 18 20 19 21 20 22 21 23 22 24
REMARK SMILES IDX 23 25 84 26 24 27 83 28 25 29 26 30 27 31 77 32 28 33 82 34
REMARK SMILES IDX 76 35 78 36 29 37 81 38 75 39 74 40 30 42 62 43 42 44 61 45
REMARK SMILES IDX 43 46 46 47 60 48 79 49 44 50 45 51 59 53 80 54 47 55 31 56
REMARK SMILES IDX 32 57 40 58 33 59 39 60 41 61 38 62 34 63 35 64 36 65 37 66
REMARK SMILES IDX 63 67 64 68 72 69 65 70 71 71 73 72 70 73 66 74 67 75 68 76
REMARK SMILES IDX 69 77 48 78 49 79 57 80 50 81 56 82 58 83 55 84 51 85 52 86
REMARK SMILES IDX 53 87 54 88
REMARK H PARENT 11 17 9 19 78 41 46 52
REMARK Flexibility Score: inf
ROOT
ATOM      1  C   UNL A   1      35.791  21.372  25.418  1.00  0.00     0.202 C 
ENDROOT
BRANCH   1   2
ATOM      2  O   UNL A   1      35.736  22.515  24.556  1.00  0.00    -0.374 OA
BRANCH   2   3
ATOM      3  C   UNL A   1      35.397  23.737  25.207  1.00  0.00     0.202 C 
BRANCH   3   4
ATOM      4  C   UNL A   1      34.426  23.636  26.380  1.00  0.00     0.261 C 
BRANCH   4   5
ATOM      5  O   UNL A   1      33.065  24.005  26.087  1.00  0.00    -0.460 OA
BRANCH   5   6
ATOM      6  C   UNL A   1      31.976  23.209  26.045  1.00  0.00     0.330 C 
ATOM      7  O   UNL A   1      30.888  23.634  26.427  1.00  0.00    -0.247 OA
BRANCH   6   8
ATOM      8  C   UNL A   1      32.064  21.787  25.675  1.00  0.00     0.094 C 
ATOM      9  C   UNL A   1      32.305  21.266  24.467  1.00  0.00     0.016 C 
BRANCH   9  10
ATOM     10  C   UNL A   1      32.469  19.834  24.229  1.00  0.00    -0.021 A 
ATOM     11  C   UNL A   1      32.339  19.302  22.940  1.00  0.00     0.012 A 
ATOM     12  C   UNL A   1      32.862  19.010  25.292  1.00  0.00     0.058 A 
ATOM     13  C   UNL A   1      32.654  17.964  22.698  1.00  0.00     0.051 A 
ATOM     14  C   UNL A   1      33.175  17.683  25.039  1.00  0.00     0.157 A 
ATOM     15  C   UNL A   1      33.091  17.167  23.750  1.00  0.00     0.157 A 
BRANCH  14  16
ATOM     16  O   UNL A   1      33.604  16.893  26.067  1.00  0.00    -0.504 OA
ATOM     17  H   UNL A   1      33.092  16.822  26.849  1.00  0.00     0.293 HD
ENDBRANCH  14  16
BRANCH  15  18
ATOM     18  O   UNL A   1      33.478  15.870  23.554  1.00  0.00    -0.504 OA
ATOM     19  H   UNL A   1      33.799  15.597  22.718  1.00  0.00     0.293 HD
ENDBRANCH  15  18
ENDBRANCH   9  10
ENDBRANCH   6   8
ENDBRANCH   5   6
ENDBRANCH   4   5
ENDBRANCH   3   4
ENDBRANCH   2   3
ENDBRANCH   1   2
BRANCH   1  20
ATOM     20  C   UNL A   1      36.974  20.427  25.169  1.00  0.00     0.261 C 
BRANCH  20  21
ATOM     21  O   UNL A   1      38.192  21.158  24.971  1.00  0.00    -0.460 OA
BRANCH  21  22
ATOM     22  C   UNL A   1      39.165  20.868  25.870  1.00  0.00     0.338 C 
ATOM     23  O   UNL A   1      39.717  19.790  26.028  1.00  0.00    -0.246 OA
BRANCH  22  24
ATOM     24  C   UNL A   1      39.640  22.119  26.498  1.00  0.00     0.060 A 
ATOM     25  C   UNL A   1      38.981  23.303  26.144  1.00  0.00     0.016 A 
ATOM     26  C   UNL A   1      40.701  22.142  27.409  1.00  0.00     0.016 A 
ATOM     27  C   UNL A   1      39.435  24.525  26.627  1.00  0.00     0.010 A 
ATOM     28  C   UNL A   1      41.161  23.371  27.890  1.00  0.00     0.010 A 
ATOM     29  C   UNL A   1      40.568  24.567  27.448  1.00  0.00    -0.014 A 
BRANCH  29  30
ATOM     30  C   UNL A   1      41.277  25.859  27.602  1.00  0.00     0.031 A 
ATOM     31  C   UNL A   1      40.607  26.931  28.422  1.00  0.00     0.074 A 
ATOM     32  C   UNL A   1      42.510  26.044  27.100  1.00  0.00     0.049 A 
ATOM     33  N   UNL A   1      41.023  28.133  28.724  1.00  0.00    -0.248 NA
ATOM     34  C   UNL A   1      39.282  26.599  28.972  1.00  0.00     0.031 C 
ATOM     35  C   UNL A   1      43.271  25.052  26.342  1.00  0.00     0.029 A 
ATOM     36  N   UNL A   1      43.344  27.130  27.167  1.00  0.00    -0.354 N 
ATOM     37  C   UNL A   1      40.008  28.702  29.489  1.00  0.00     0.074 A 
ATOM     38  C   UNL A   1      38.938  27.733  29.561  1.00  0.00     0.031 C 
ATOM     39  C   UNL A   1      44.466  25.576  26.018  1.00  0.00     0.029 A 
ATOM     40  C   UNL A   1      44.541  26.948  26.515  1.00  0.00     0.049 A 
ATOM     41  H   UNL A   1      43.108  27.962  27.638  1.00  0.00     0.167 HD
ATOM     42  C   UNL A   1      39.979  29.918  30.086  1.00  0.00     0.034 A 
ATOM     43  C   UNL A   1      45.568  27.802  26.334  1.00  0.00     0.034 A 
ATOM     44  C   UNL A   1      41.058  30.869  29.996  1.00  0.00     0.049 A 
ATOM     45  C   UNL A   1      45.480  29.181  26.946  1.00  0.00     0.074 A 
ATOM     46  C   UNL A   1      41.147  32.127  30.566  1.00  0.00     0.029 A 
ATOM     47  N   UNL A   1      42.234  30.673  29.282  1.00  0.00    -0.354 N 
ATOM     48  N   UNL A   1      44.519  29.709  27.670  1.00  0.00    -0.248 NA
ATOM     49  C   UNL A   1      46.625  30.073  26.728  1.00  0.00     0.031 C 
ATOM     50  C   UNL A   1      42.335  32.721  30.127  1.00  0.00     0.029 A 
ATOM     51  C   UNL A   1      43.038  31.798  29.368  1.00  0.00     0.049 A 
ATOM     52  H   UNL A   1      42.463  29.852  28.788  1.00  0.00     0.167 HD
ATOM     53  C   UNL A   1      44.968  30.977  28.033  1.00  0.00     0.074 A 
ATOM     54  C   UNL A   1      46.289  31.126  27.457  1.00  0.00     0.031 C 
ATOM     55  C   UNL A   1      44.353  31.931  28.782  1.00  0.00     0.034 A 
BRANCH  42  56
ATOM     56  C   UNL A   1      38.716  30.300  30.824  1.00  0.00     0.023 A 
ATOM     57  C   UNL A   1      37.669  31.004  30.201  1.00  0.00     0.031 A 
ATOM     58  C   UNL A   1      38.577  29.991  32.188  1.00  0.00     0.131 A 
ATOM     59  C   UNL A   1      36.572  31.442  30.959  1.00  0.00     0.055 A 
ATOM     60  C   UNL A   1      37.441  30.350  32.915  1.00  0.00     0.041 A 
ATOM     61  F   UNL A   1      39.555  29.348  32.846  1.00  0.00    -0.206 F 
ATOM     62  C   UNL A   1      36.436  31.094  32.304  1.00  0.00     0.022 A 
BRANCH  59  63
ATOM     63  S   UNL A   1      35.401  32.605  30.203  1.00  0.00     0.124 S 
ATOM     64  O   UNL A   1      35.063  31.915  28.960  1.00  0.00    -0.237 OA
ATOM     65  O   UNL A   1      34.342  32.680  31.202  1.00  0.00    -0.237 OA
ATOM     66  O   UNL A   1      36.190  33.824  30.035  1.00  0.00    -0.744 OA
ENDBRANCH  59  63
ENDBRANCH  42  56
BRANCH  43  67
ATOM     67  C   UNL A   1      46.759  27.399  25.530  1.00  0.00     0.023 A 
ATOM     68  C   UNL A   1      46.944  27.868  24.220  1.00  0.00     0.031 A 
ATOM     69  C   UNL A   1      47.697  26.483  26.040  1.00  0.00     0.131 A 
ATOM     70  C   UNL A   1      48.010  27.380  23.446  1.00  0.00     0.055 A 
ATOM     71  C   UNL A   1      48.790  26.048  25.287  1.00  0.00     0.041 A 
ATOM     72  F   UNL A   1      47.567  25.999  27.285  1.00  0.00    -0.206 F 
ATOM     73  C   UNL A   1      48.942  26.486  23.976  1.00  0.00     0.022 A 
BRANCH  70  74
ATOM     74  S   UNL A   1      48.102  27.856  21.697  1.00  0.00     0.124 S 
ATOM     75  O   UNL A   1      46.803  28.486  21.493  1.00  0.00    -0.237 OA
ATOM     76  O   UNL A   1      49.257  28.747  21.687  1.00  0.00    -0.237 OA
ATOM     77  O   UNL A   1      48.296  26.582  21.008  1.00  0.00    -0.744 OA
ENDBRANCH  70  74
ENDBRANCH  43  67
BRANCH  55  78
ATOM     78  C   UNL A   1      45.138  33.189  29.077  1.00  0.00     0.023 A 
ATOM     79  C   UNL A   1      45.015  34.348  28.291  1.00  0.00     0.031 A 
ATOM     80  C   UNL A   1      46.047  33.214  30.150  1.00  0.00     0.131 A 
ATOM     81  C   UNL A   1      45.845  35.451  28.538  1.00  0.00     0.055 A 
ATOM     82  C   UNL A   1      46.812  34.344  30.442  1.00  0.00     0.041 A 
ATOM     83  F   UNL A   1      46.210  32.137  30.935  1.00  0.00    -0.206 F 
ATOM     84  C   UNL A   1      46.729  35.465  29.621  1.00  0.00     0.022 A 
BRANCH  81  85
ATOM     85  S   UNL A   1      45.856  36.816  27.342  1.00  0.00     0.124 S 
ATOM     86  O   UNL A   1      44.450  36.894  26.960  1.00  0.00    -0.237 OA
ATOM     87  O   UNL A   1      46.363  37.926  28.142  1.00  0.00    -0.237 OA
ATOM     88  O   UNL A   1      46.758  36.343  26.293  1.00  0.00    -0.744 OA
ENDBRANCH  81  85
ENDBRANCH  55  78
ENDBRANCH  29  30
ENDBRANCH  22  24
ENDBRANCH  21  22
ENDBRANCH  20  21
ENDBRANCH   1  20
TORSDOF 20
ENDMDL
MODEL 2
REMARK VINA RESULT:     -10.8      1.753      7.902
REMARK SMILES O=C(/C=C/c1ccc(O)c(O)c1)OCCOCCOC(=O)c1ccc(-c2c3nc(c(-c4cc(S(=O)(=O)[O-])ccc4F)c4ccc([nH]4)c(-c4cc(S(=O)(=O)[O-])ccc4F)c4nc(c(-c5cc(S(=O)(=O)[O-])ccc5F)c5ccc2[nH]5)C=C4)C=C3)cc1
REMARK SMILES IDX 17 1 16 2 15 3 14 4 13 5 2 6 1 7 3 8 4 9 5 10 6 11 12 12
REMARK SMILES IDX 7 13 10 14 8 15 11 16 9 18 18 20 19 21 20 22 21 23 22 24
REMARK SMILES IDX 23 25 84 26 24 27 83 28 25 29 26 30 27 31 77 32 28 33 82 34
REMARK SMILES IDX 76 35 78 36 29 37 81 38 75 39 74 40 30 42 62 43 42 44 61 45
REMARK SMILES IDX 43 46 46 47 60 48 79 49 44 50 45 51 59 53 80 54 47 55 31 56
REMARK SMILES IDX 32 57 40 58 33 59 39 60 41 61 38 62 34 63 35 64 36 65 37 66
REMARK SMILES IDX 63 67 64 68 72 69 65 70 71 71 73 72 70 73 66 74 67 75 68 76
REMARK SMILES IDX 69 77 48 78 49 79 57 80 50 81 56 82 58 83 55 84 51 85 52 86
REMARK SMILES IDX 53 87 54 88
REMARK H PARENT 11 17 9 19 78 41 46 52
REMARK Flexibility Score: inf
ROOT
ATOM      1  C   UNL A   1      36.374  21.261  24.642  1.00  0.00     0.202 C 
ENDROOT
BRANCH   1   2
ATOM      2  O   UNL A   1      35.708  21.943  25.713  1.00  0.00    -0.374 OA
BRANCH   2   3
ATOM      3  C   UNL A   1      35.122  23.191  25.351  1.00  0.00     0.202 C 
BRANCH   3   4
ATOM      4  C   UNL A   1      33.799  23.542  26.025  1.00  0.00     0.261 C 
BRANCH   4   5
ATOM      5  O   UNL A   1      32.617  23.147  25.304  1.00  0.00    -0.460 OA
BRANCH   5   6
ATOM      6  C   UNL A   1      31.806  22.094  25.544  1.00  0.00     0.330 C 
ATOM      7  O   UNL A   1      30.647  22.280  25.908  1.00  0.00    -0.247 OA
BRANCH   6   8
ATOM      8  C   UNL A   1      32.299  20.708  25.512  1.00  0.00     0.094 C 
ATOM      9  C   UNL A   1      32.484  19.927  24.442  1.00  0.00     0.016 C 
BRANCH   9  10
ATOM     10  C   UNL A   1      33.074  18.593  24.515  1.00  0.00    -0.021 A 
ATOM     11  C   UNL A   1      34.458  18.413  24.393  1.00  0.00     0.012 A 
ATOM     12  C   UNL A   1      32.249  17.500  24.811  1.00  0.00     0.058 A 
ATOM     13  C   UNL A   1      35.027  17.159  24.623  1.00  0.00     0.051 A 
ATOM     14  C   UNL A   1      32.824  16.259  25.040  1.00  0.00     0.157 A 
ATOM     15  C   UNL A   1      34.204  16.092  24.967  1.00  0.00     0.157 A 
BRANCH  14  16
ATOM     16  O   UNL A   1      32.024  15.206  25.377  1.00  0.00    -0.504 OA
ATOM     17  H   UNL A   1      31.109  15.229  25.175  1.00  0.00     0.293 HD
ENDBRANCH  14  16
BRANCH  15  18
ATOM     18  O   UNL A   1      34.715  14.860  25.270  1.00  0.00    -0.504 OA
ATOM     19  H   UNL A   1      34.879  14.628  26.162  1.00  0.00     0.293 HD
ENDBRANCH  15  18
ENDBRANCH   9  10
ENDBRANCH   6   8
ENDBRANCH   5   6
ENDBRANCH   4   5
ENDBRANCH   3   4
ENDBRANCH   2   3
ENDBRANCH   1   2
BRANCH   1  20
ATOM     20  C   UNL A   1      37.568  20.397  25.066  1.00  0.00     0.261 C 
BRANCH  20  21
ATOM     21  O   UNL A   1      38.785  21.156  25.074  1.00  0.00    -0.460 OA
BRANCH  21  22
ATOM     22  C   UNL A   1      39.619  20.859  26.101  1.00  0.00     0.338 C 
ATOM     23  O   UNL A   1      40.176  19.792  26.305  1.00  0.00    -0.246 OA
BRANCH  22  24
ATOM     24  C   UNL A   1      39.949  22.097  26.837  1.00  0.00     0.060 A 
ATOM     25  C   UNL A   1      39.230  23.252  26.503  1.00  0.00     0.016 A 
ATOM     26  C   UNL A   1      40.936  22.137  27.827  1.00  0.00     0.016 A 
ATOM     27  C   UNL A   1      39.553  24.469  27.091  1.00  0.00     0.010 A 
ATOM     28  C   UNL A   1      41.264  23.362  28.415  1.00  0.00     0.010 A 
ATOM     29  C   UNL A   1      40.616  24.539  27.999  1.00  0.00    -0.014 A 
BRANCH  29  30
ATOM     30  C   UNL A   1      41.211  25.865  28.284  1.00  0.00     0.031 A 
ATOM     31  C   UNL A   1      42.593  26.142  27.751  1.00  0.00     0.074 A 
ATOM     32  C   UNL A   1      40.515  26.821  28.924  1.00  0.00     0.049 A 
ATOM     33  N   UNL A   1      43.323  27.222  27.844  1.00  0.00    -0.248 NA
ATOM     34  C   UNL A   1      43.240  25.042  27.015  1.00  0.00     0.031 C 
ATOM     35  C   UNL A   1      39.151  26.677  29.430  1.00  0.00     0.029 A 
ATOM     36  N   UNL A   1      40.860  28.108  29.245  1.00  0.00    -0.354 N 
ATOM     37  C   UNL A   1      44.516  26.928  27.189  1.00  0.00     0.074 A 
ATOM     38  C   UNL A   1      44.430  25.554  26.748  1.00  0.00     0.031 C 
ATOM     39  C   UNL A   1      38.772  27.837  29.993  1.00  0.00     0.029 A 
ATOM     40  C   UNL A   1      39.875  28.792  29.919  1.00  0.00     0.049 A 
ATOM     41  H   UNL A   1      41.730  28.507  29.013  1.00  0.00     0.167 HD
ATOM     42  C   UNL A   1      45.580  27.737  26.965  1.00  0.00     0.034 A 
ATOM     43  C   UNL A   1      39.879  30.041  30.427  1.00  0.00     0.034 A 
ATOM     44  C   UNL A   1      45.643  29.104  27.418  1.00  0.00     0.049 A 
ATOM     45  C   UNL A   1      41.107  30.899  30.231  1.00  0.00     0.074 A 
ATOM     46  C   UNL A   1      46.663  30.023  27.243  1.00  0.00     0.029 A 
ATOM     47  N   UNL A   1      44.649  29.747  28.146  1.00  0.00    -0.354 N 
ATOM     48  N   UNL A   1      42.229  30.615  29.608  1.00  0.00    -0.248 NA
ATOM     49  C   UNL A   1      41.062  32.253  30.795  1.00  0.00     0.031 C 
ATOM     50  C   UNL A   1      46.322  31.189  27.937  1.00  0.00     0.029 A 
ATOM     51  C   UNL A   1      45.046  31.038  28.457  1.00  0.00     0.049 A 
ATOM     52  H   UNL A   1      43.788  29.345  28.402  1.00  0.00     0.167 HD
ATOM     53  C   UNL A   1      43.001  31.773  29.664  1.00  0.00     0.074 A 
ATOM     54  C   UNL A   1      42.210  32.759  30.372  1.00  0.00     0.031 C 
ATOM     55  C   UNL A   1      44.245  32.008  29.169  1.00  0.00     0.034 A 
BRANCH  42  56
ATOM     56  C   UNL A   1      46.774  27.136  26.260  1.00  0.00     0.023 A 
ATOM     57  C   UNL A   1      47.769  26.419  26.951  1.00  0.00     0.031 A 
ATOM     58  C   UNL A   1      46.942  27.320  24.877  1.00  0.00     0.131 A 
ATOM     59  C   UNL A   1      48.918  25.985  26.273  1.00  0.00     0.055 A 
ATOM     60  C   UNL A   1      48.044  26.808  24.192  1.00  0.00     0.041 A 
ATOM     61  F   UNL A   1      46.043  28.022  24.167  1.00  0.00    -0.206 F 
ATOM     62  C   UNL A   1      49.049  26.148  24.893  1.00  0.00     0.022 A 
BRANCH  59  63
ATOM     63  S   UNL A   1      50.312  25.345  27.244  1.00  0.00     0.124 S 
ATOM     64  O   UNL A   1      50.655  26.505  28.065  1.00  0.00    -0.237 OA
ATOM     65  O   UNL A   1      49.714  24.216  27.947  1.00  0.00    -0.237 OA
ATOM     66  O   UNL A   1      51.304  24.995  26.230  1.00  0.00    -0.744 OA
ENDBRANCH  59  63
ENDBRANCH  42  56
BRANCH  43  67
ATOM     67  C   UNL A   1      38.700  30.557  31.182  1.00  0.00     0.023 A 
ATOM     68  C   UNL A   1      37.637  31.196  30.523  1.00  0.00     0.031 A 
ATOM     69  C   UNL A   1      38.650  30.476  32.585  1.00  0.00     0.131 A 
ATOM     70  C   UNL A   1      36.598  31.775  31.269  1.00  0.00     0.055 A 
ATOM     71  C   UNL A   1      37.583  31.000  33.319  1.00  0.00     0.041 A 
ATOM     72  F   UNL A   1      39.640  29.880  33.268  1.00  0.00    -0.206 F 
ATOM     73  C   UNL A   1      36.556  31.668  32.661  1.00  0.00     0.022 A 
BRANCH  70  74
ATOM     74  S   UNL A   1      35.349  32.762  30.398  1.00  0.00     0.124 S 
ATOM     75  O   UNL A   1      36.156  33.849  29.858  1.00  0.00    -0.237 OA
ATOM     76  O   UNL A   1      34.830  31.804  29.429  1.00  0.00    -0.237 OA
ATOM     77  O   UNL A   1      34.416  33.141  31.457  1.00  0.00    -0.744 OA
ENDBRANCH  70  74
ENDBRANCH  43  67
BRANCH  55  78
ATOM     78  C   UNL A   1      44.793  33.410  29.318  1.00  0.00     0.023 A 
ATOM     79  C   UNL A   1      44.528  34.419  28.376  1.00  0.00     0.031 A 
ATOM     80  C   UNL A   1      45.620  33.728  30.410  1.00  0.00     0.131 A 
ATOM     81  C   UNL A   1      45.150  35.671  28.501  1.00  0.00     0.055 A 
ATOM     82  C   UNL A   1      46.170  35.000  30.573  1.00  0.00     0.041 A 
ATOM     83  F   UNL A   1      45.911  32.805  31.341  1.00  0.00    -0.206 F 
ATOM     84  C   UNL A   1      45.953  35.974  29.604  1.00  0.00     0.022 A 
BRANCH  81  85
ATOM     85  S   UNL A   1      45.008  36.852  27.130  1.00  0.00     0.124 S 
ATOM     86  O   UNL A   1      43.636  36.631  26.682  1.00  0.00    -0.237 OA
ATOM     87  O   UNL A   1      45.266  38.127  27.791  1.00  0.00    -0.237 OA
ATOM     88  O   UNL A   1      46.044  36.416  26.195  1.00  0.00    -0.744 OA
ENDBRANCH  81  85
ENDBRANCH  55  78
ENDBRANCH  29  30
ENDBRANCH  22  24
ENDBRANCH  21  22
ENDBRANCH  20  21
ENDBRANCH   1  20
TORSDOF 20
ENDMDL
MODEL 3
REMARK VINA RESULT:     -10.7      6.154      9.278
REMARK SMILES O=C(/C=C/c1ccc(O)c(O)c1)OCCOCCOC(=O)c1ccc(-c2c3nc(c(-c4cc(S(=O)(=O)[O-])ccc4F)c4ccc([nH]4)c(-c4cc(S(=O)(=O)[O-])ccc4F)c4nc(c(-c5cc(S(=O)(=O)[O-])ccc5F)c5ccc2[nH]5)C=C4)C=C3)cc1
REMARK SMILES IDX 17 1 16 2 15 3 14 4 13 5 2 6 1 7 3 8 4 9 5 10 6 11 12 12
REMARK SMILES IDX 7 13 10 14 8 15 11 16 9 18 18 20 19 21 20 22 21 23 22 24
REMARK SMILES IDX 23 25 84 26 24 27 83 28 25 29 26 30 27 31 77 32 28 33 82 34
REMARK SMILES IDX 76 35 78 36 29 37 81 38 75 39 74 40 30 42 62 43 42 44 61 45
REMARK SMILES IDX 43 46 46 47 60 48 79 49 44 50 45 51 59 53 80 54 47 55 31 56
REMARK SMILES IDX 32 57 40 58 33 59 39 60 41 61 38 62 34 63 35 64 36 65 37 66
REMARK SMILES IDX 63 67 64 68 72 69 65 70 71 71 73 72 70 73 66 74 67 75 68 76
REMARK SMILES IDX 69 77 48 78 49 79 57 80 50 81 56 82 58 83 55 84 51 85 52 86
REMARK SMILES IDX 53 87 54 88
REMARK H PARENT 11 17 9 19 78 41 46 52
REMARK Flexibility Score: inf
ROOT
ATOM      1  C   UNL A   1      31.770  31.441  26.848  1.00  0.00     0.202 C 
ENDROOT
BRANCH   1   2
ATOM      2  O   UNL A   1      32.895  30.591  26.594  1.00  0.00    -0.374 OA
BRANCH   2   3
ATOM      3  C   UNL A   1      32.878  29.352  27.298  1.00  0.00     0.202 C 
BRANCH   3   4
ATOM      4  C   UNL A   1      32.656  28.096  26.460  1.00  0.00     0.261 C 
BRANCH   4   5
ATOM      5  O   UNL A   1      31.469  28.103  25.643  1.00  0.00    -0.460 OA
BRANCH   5   6
ATOM      6  C   UNL A   1      31.377  27.950  24.305  1.00  0.00     0.330 C 
ATOM      7  O   UNL A   1      31.905  26.983  23.759  1.00  0.00    -0.247 OA
BRANCH   6   8
ATOM      8  C   UNL A   1      30.772  28.978  23.443  1.00  0.00     0.094 C 
ATOM      9  C   UNL A   1      29.563  29.538  23.558  1.00  0.00     0.016 C 
BRANCH   9  10
ATOM     10  C   UNL A   1      29.097  30.625  22.701  1.00  0.00    -0.021 A 
ATOM     11  C   UNL A   1      28.554  30.360  21.438  1.00  0.00     0.012 A 
ATOM     12  C   UNL A   1      29.106  31.934  23.200  1.00  0.00     0.058 A 
ATOM     13  C   UNL A   1      27.967  31.387  20.696  1.00  0.00     0.051 A 
ATOM     14  C   UNL A   1      28.519  32.947  22.456  1.00  0.00     0.157 A 
ATOM     15  C   UNL A   1      27.936  32.674  21.222  1.00  0.00     0.157 A 
BRANCH  14  16
ATOM     16  O   UNL A   1      28.485  34.213  22.964  1.00  0.00    -0.504 OA
ATOM     17  H   UNL A   1      27.982  34.877  22.535  1.00  0.00     0.293 HD
ENDBRANCH  14  16
BRANCH  15  18
ATOM     18  O   UNL A   1      27.314  33.701  20.568  1.00  0.00    -0.504 OA
ATOM     19  H   UNL A   1      27.543  33.900  19.682  1.00  0.00     0.293 HD
ENDBRANCH  15  18
ENDBRANCH   9  10
ENDBRANCH   6   8
ENDBRANCH   5   6
ENDBRANCH   4   5
ENDBRANCH   3   4
ENDBRANCH   2   3
ENDBRANCH   1   2
BRANCH   1  20
ATOM     20  C   UNL A   1      32.120  32.885  27.229  1.00  0.00     0.261 C 
BRANCH  20  21
ATOM     21  O   UNL A   1      33.540  33.091  27.246  1.00  0.00    -0.460 OA
BRANCH  21  22
ATOM     22  C   UNL A   1      34.054  33.308  28.481  1.00  0.00     0.338 C 
ATOM     23  O   UNL A   1      33.493  33.847  29.423  1.00  0.00    -0.246 OA
BRANCH  22  24
ATOM     24  C   UNL A   1      35.339  32.588  28.611  1.00  0.00     0.060 A 
ATOM     25  C   UNL A   1      35.279  31.220  28.905  1.00  0.00     0.016 A 
ATOM     26  C   UNL A   1      36.572  33.226  28.452  1.00  0.00     0.016 A 
ATOM     27  C   UNL A   1      36.448  30.504  29.131  1.00  0.00     0.010 A 
ATOM     28  C   UNL A   1      37.748  32.508  28.684  1.00  0.00     0.010 A 
ATOM     29  C   UNL A   1      37.682  31.161  29.086  1.00  0.00    -0.014 A 
BRANCH  29  30
ATOM     30  C   UNL A   1      38.849  30.511  29.728  1.00  0.00     0.031 A 
ATOM     31  C   UNL A   1      39.176  30.902  31.146  1.00  0.00     0.074 A 
ATOM     32  C   UNL A   1      39.544  29.547  29.101  1.00  0.00     0.049 A 
ATOM     33  N   UNL A   1      40.124  30.468  31.934  1.00  0.00    -0.248 NA
ATOM     34  C   UNL A   1      38.312  31.928  31.755  1.00  0.00     0.031 C 
ATOM     35  C   UNL A   1      39.276  29.054  27.751  1.00  0.00     0.029 A 
ATOM     36  N   UNL A   1      40.613  28.801  29.526  1.00  0.00    -0.354 N 
ATOM     37  C   UNL A   1      39.977  31.175  33.125  1.00  0.00     0.074 A 
ATOM     38  C   UNL A   1      38.881  32.098  32.937  1.00  0.00     0.031 C 
ATOM     39  C   UNL A   1      40.156  28.080  27.461  1.00  0.00     0.029 A 
ATOM     40  C   UNL A   1      41.069  27.905  28.588  1.00  0.00     0.049 A 
ATOM     41  H   UNL A   1      41.016  28.897  30.420  1.00  0.00     0.167 HD
ATOM     42  C   UNL A   1      40.686  31.053  34.273  1.00  0.00     0.034 A 
ATOM     43  C   UNL A   1      42.114  27.054  28.638  1.00  0.00     0.034 A 
ATOM     44  C   UNL A   1      41.778  30.127  34.435  1.00  0.00     0.049 A 
ATOM     45  C   UNL A   1      42.937  26.991  29.904  1.00  0.00     0.074 A 
ATOM     46  C   UNL A   1      42.563  29.907  35.553  1.00  0.00     0.029 A 
ATOM     47  N   UNL A   1      42.248  29.271  33.446  1.00  0.00    -0.354 N 
ATOM     48  N   UNL A   1      42.789  27.659  31.026  1.00  0.00    -0.248 NA
ATOM     49  C   UNL A   1      44.058  26.044  29.914  1.00  0.00     0.031 C 
ATOM     50  C   UNL A   1      43.557  28.984  35.213  1.00  0.00     0.029 A 
ATOM     51  C   UNL A   1      43.332  28.549  33.916  1.00  0.00     0.049 A 
ATOM     52  H   UNL A   1      41.865  29.190  32.542  1.00  0.00     0.167 HD
ATOM     53  C   UNL A   1      43.770  27.177  31.889  1.00  0.00     0.074 A 
ATOM     54  C   UNL A   1      44.493  26.155  31.160  1.00  0.00     0.031 C 
ATOM     55  C   UNL A   1      44.045  27.535  33.171  1.00  0.00     0.034 A 
BRANCH  42  56
ATOM     56  C   UNL A   1      40.338  31.991  35.407  1.00  0.00     0.023 A 
ATOM     57  C   UNL A   1      39.282  31.727  36.299  1.00  0.00     0.031 A 
ATOM     58  C   UNL A   1      41.049  33.192  35.571  1.00  0.00     0.131 A 
ATOM     59  C   UNL A   1      38.921  32.685  37.260  1.00  0.00     0.055 A 
ATOM     60  C   UNL A   1      40.742  34.099  36.586  1.00  0.00     0.041 A 
ATOM     61  F   UNL A   1      42.047  33.515  34.732  1.00  0.00    -0.206 F 
ATOM     62  C   UNL A   1      39.662  33.856  37.429  1.00  0.00     0.022 A 
BRANCH  59  63
ATOM     63  S   UNL A   1      37.374  32.453  38.180  1.00  0.00     0.124 S 
ATOM     64  O   UNL A   1      37.707  33.055  39.470  1.00  0.00    -0.237 OA
ATOM     65  O   UNL A   1      36.410  33.181  37.364  1.00  0.00    -0.237 OA
ATOM     66  O   UNL A   1      37.203  31.002  38.204  1.00  0.00    -0.744 OA
ENDBRANCH  59  63
ENDBRANCH  42  56
BRANCH  43  67
ATOM     67  C   UNL A   1      42.459  26.206  27.460  1.00  0.00     0.023 A 
ATOM     68  C   UNL A   1      42.017  24.876  27.367  1.00  0.00     0.031 A 
ATOM     69  C   UNL A   1      43.293  26.695  26.439  1.00  0.00     0.131 A 
ATOM     70  C   UNL A   1      42.454  24.066  26.306  1.00  0.00     0.055 A 
ATOM     71  C   UNL A   1      43.675  25.903  25.353  1.00  0.00     0.041 A 
ATOM     72  F   UNL A   1      43.748  27.957  26.479  1.00  0.00    -0.206 F 
ATOM     73  C   UNL A   1      43.267  24.575  25.291  1.00  0.00     0.022 A 
BRANCH  70  74
ATOM     74  S   UNL A   1      42.025  22.303  26.326  1.00  0.00     0.124 S 
ATOM     75  O   UNL A   1      40.577  22.349  26.167  1.00  0.00    -0.237 OA
ATOM     76  O   UNL A   1      42.781  21.796  25.186  1.00  0.00    -0.237 OA
ATOM     77  O   UNL A   1      42.498  21.853  27.633  1.00  0.00    -0.744 OA
ENDBRANCH  70  74
ENDBRANCH  43  67
BRANCH  55  78
ATOM     78  C   UNL A   1      45.132  26.762  33.885  1.00  0.00     0.023 A 
ATOM     79  C   UNL A   1      44.846  25.667  34.718  1.00  0.00     0.031 A 
ATOM     80  C   UNL A   1      46.476  27.154  33.749  1.00  0.00     0.131 A 
ATOM     81  C   UNL A   1      45.878  25.054  35.444  1.00  0.00     0.055 A 
ATOM     82  C   UNL A   1      47.509  26.488  34.410  1.00  0.00     0.041 A 
ATOM     83  F   UNL A   1      46.811  28.194  32.970  1.00  0.00    -0.206 F 
ATOM     84  C   UNL A   1      47.210  25.443  35.280  1.00  0.00     0.022 A 
BRANCH  81  85
ATOM     85  S   UNL A   1      45.441  23.831  36.711  1.00  0.00     0.124 S 
ATOM     86  O   UNL A   1      44.388  24.523  37.448  1.00  0.00    -0.237 OA
ATOM     87  O   UNL A   1      45.015  22.690  35.909  1.00  0.00    -0.237 OA
ATOM     88  O   UNL A   1      46.690  23.640  37.448  1.00  0.00    -0.744 OA
ENDBRANCH  81  85
ENDBRANCH  55  78
ENDBRANCH  29  30
ENDBRANCH  22  24
ENDBRANCH  21  22
ENDBRANCH  20  21
ENDBRANCH   1  20
TORSDOF 20
ENDMDL
