MODEL 1
REMARK VINA RESULT:      -9.7      0.000      0.000
REMARK SMILES C[C@H](C(=O)OCCOCCOC(=O)c1ccc(-c2c3nc(c(-c4cc(S(=O)(=O)[O-])ccc4F)c4ccc([nH]4)c(-c4cc(S(=O)(=O)[O-])ccc4F)c4nc(c(-c5cc(S(=O)(=O)[O-])ccc5F)c5ccc2[nH]5)C=C4)C=C3)cc1)c1ccc2c(c1)[nH]c1ccc(Cl)cc12
REMARK SMILES IDX 9 1 8 2 7 3 6 4 5 5 3 6 4 7 2 8 1 9 77 10 78 11 82 12 79 13
REMARK SMILES IDX 81 14 80 15 83 16 90 17 84 18 89 20 85 21 87 22 86 23 88 24
REMARK SMILES IDX 10 25 11 26 12 27 13 28 14 29 15 30 76 31 16 32 75 33 17 34
REMARK SMILES IDX 18 35 19 36 69 37 20 38 74 39 68 40 70 41 21 42 73 43 67 44
REMARK SMILES IDX 66 45 22 47 54 48 34 49 53 50 35 51 38 52 52 53 71 54 36 55
REMARK SMILES IDX 37 56 51 58 72 59 39 60 23 61 24 62 32 63 25 64 31 65 33 66
REMARK SMILES IDX 30 67 26 68 27 69 28 70 29 71 55 72 56 73 64 74 57 75 63 76
REMARK SMILES IDX 65 77 62 78 58 79 59 80 60 81 61 82 40 83 41 84 49 85 42 86
REMARK SMILES IDX 48 87 50 88 47 89 43 90 44 91 45 92 46 93
REMARK H PARENT 83 19 70 46 38 57
REMARK Flexibility Score: inf
ROOT
ATOM      1  C   UNL A   1      33.425  35.160  28.733  1.00  0.00     0.202 C 
ENDROOT
BRANCH   1   2
ATOM      2  O   UNL A   1      32.882  34.876  30.019  1.00  0.00    -0.374 OA
BRANCH   2   3
ATOM      3  C   UNL A   1      32.978  35.903  31.009  1.00  0.00     0.202 C 
BRANCH   3   4
ATOM      4  C   UNL A   1      32.749  35.476  32.463  1.00  0.00     0.261 C 
BRANCH   4   5
ATOM      5  O   UNL A   1      33.546  34.327  32.815  1.00  0.00    -0.463 OA
BRANCH   5   6
ATOM      6  C   UNL A   1      34.815  34.586  33.222  1.00  0.00     0.313 C 
ATOM      7  O   UNL A   1      35.135  35.533  33.937  1.00  0.00    -0.252 OA
BRANCH   6   8
ATOM      8  C   UNL A   1      35.835  33.540  32.808  1.00  0.00     0.126 C 
ATOM      9  C   UNL A   1      35.152  32.329  32.163  1.00  0.00     0.025 C 
BRANCH   8  10
ATOM     10  C   UNL A   1      37.055  33.986  32.014  1.00  0.00    -0.032 A 
ATOM     11  C   UNL A   1      37.110  33.989  30.613  1.00  0.00     0.005 A 
ATOM     12  C   UNL A   1      38.219  34.275  32.745  1.00  0.00     0.031 A 
ATOM     13  C   UNL A   1      38.323  34.210  29.930  1.00  0.00     0.011 A 
ATOM     14  C   UNL A   1      39.422  34.423  32.054  1.00  0.00     0.047 A 
ATOM     15  C   UNL A   1      39.515  34.390  30.666  1.00  0.00     0.007 A 
ATOM     16  N   UNL A   1      40.691  34.577  32.549  1.00  0.00    -0.355 N 
ATOM     17  C   UNL A   1      40.908  34.518  30.335  1.00  0.00     0.009 A 
ATOM     18  C   UNL A   1      41.616  34.550  31.538  1.00  0.00     0.047 A 
ATOM     19  H   UNL A   1      40.908  34.693  33.502  1.00  0.00     0.167 HD
ATOM     20  C   UNL A   1      41.642  34.559  29.131  1.00  0.00     0.031 A 
ATOM     21  C   UNL A   1      43.013  34.555  31.611  1.00  0.00     0.028 A 
ATOM     22  C   UNL A   1      43.042  34.585  29.190  1.00  0.00     0.041 A 
ATOM     23  C   UNL A   1      43.718  34.563  30.408  1.00  0.00     0.022 A 
ATOM     24  Cl  UNL A   1      43.952  34.623  27.727  1.00  0.00    -0.084 Cl
ENDBRANCH   8  10
ENDBRANCH   6   8
ENDBRANCH   5   6
ENDBRANCH   4   5
ENDBRANCH   3   4
ENDBRANCH   2   3
ENDBRANCH   1   2
BRANCH   1  25
ATOM     25  C   UNL A   1      34.245  34.054  28.058  1.00  0.00     0.261 C 
BRANCH  25  26
ATOM     26  O   UNL A   1      34.430  32.904  28.901  1.00  0.00    -0.460 OA
BRANCH  26  27
ATOM     27  C   UNL A   1      34.380  31.720  28.241  1.00  0.00     0.338 C 
ATOM     28  O   UNL A   1      33.490  31.339  27.491  1.00  0.00    -0.246 OA
BRANCH  27  29
ATOM     29  C   UNL A   1      35.651  30.988  28.390  1.00  0.00     0.060 A 
ATOM     30  C   UNL A   1      35.606  29.765  29.070  1.00  0.00     0.016 A 
ATOM     31  C   UNL A   1      36.870  31.511  27.952  1.00  0.00     0.016 A 
ATOM     32  C   UNL A   1      36.784  29.086  29.368  1.00  0.00     0.010 A 
ATOM     33  C   UNL A   1      38.056  30.830  28.261  1.00  0.00     0.010 A 
ATOM     34  C   UNL A   1      38.020  29.635  29.003  1.00  0.00    -0.014 A 
BRANCH  34  35
ATOM     35  C   UNL A   1      39.263  29.032  29.547  1.00  0.00     0.031 A 
ATOM     36  C   UNL A   1      39.830  29.569  30.834  1.00  0.00     0.074 A 
ATOM     37  C   UNL A   1      39.844  27.981  28.940  1.00  0.00     0.049 A 
ATOM     38  N   UNL A   1      40.896  29.197  31.494  1.00  0.00    -0.248 NA
ATOM     39  C   UNL A   1      39.089  30.676  31.461  1.00  0.00     0.031 C 
ATOM     40  C   UNL A   1      39.356  27.338  27.720  1.00  0.00     0.029 A 
ATOM     41  N   UNL A   1      40.968  27.266  29.270  1.00  0.00    -0.354 N 
ATOM     42  C   UNL A   1      40.958  30.023  32.612  1.00  0.00     0.074 A 
ATOM     43  C   UNL A   1      39.841  30.939  32.519  1.00  0.00     0.031 C 
ATOM     44  C   UNL A   1      40.181  26.325  27.403  1.00  0.00     0.029 A 
ATOM     45  C   UNL A   1      41.273  26.270  28.374  1.00  0.00     0.049 A 
ATOM     46  H   UNL A   1      41.507  27.451  30.074  1.00  0.00     0.167 HD
ATOM     47  C   UNL A   1      41.859  30.012  33.626  1.00  0.00     0.034 A 
ATOM     48  C   UNL A   1      42.324  25.426  28.329  1.00  0.00     0.034 A 
ATOM     49  C   UNL A   1      42.972  29.098  33.702  1.00  0.00     0.049 A 
ATOM     50  C   UNL A   1      43.368  25.497  29.419  1.00  0.00     0.074 A 
ATOM     51  C   UNL A   1      43.933  28.990  34.692  1.00  0.00     0.029 A 
ATOM     52  N   UNL A   1      43.287  28.144  32.740  1.00  0.00    -0.354 N 
ATOM     53  N   UNL A   1      43.411  26.276  30.475  1.00  0.00    -0.248 NA
ATOM     54  C   UNL A   1      44.501  24.569  29.313  1.00  0.00     0.031 C 
ATOM     55  C   UNL A   1      44.867  28.026  34.296  1.00  0.00     0.029 A 
ATOM     56  C   UNL A   1      44.447  27.473  33.097  1.00  0.00     0.049 A 
ATOM     57  H   UNL A   1      42.763  27.972  31.925  1.00  0.00     0.167 HD
ATOM     58  C   UNL A   1      44.558  25.906  31.175  1.00  0.00     0.074 A 
ATOM     59  C   UNL A   1      45.170  24.828  30.426  1.00  0.00     0.031 C 
ATOM     60  C   UNL A   1      45.056  26.406  32.335  1.00  0.00     0.034 A 
BRANCH  47  61
ATOM     61  C   UNL A   1      41.705  31.059  34.702  1.00  0.00     0.023 A 
ATOM     62  C   UNL A   1      42.297  32.330  34.597  1.00  0.00     0.031 A 
ATOM     63  C   UNL A   1      40.974  30.770  35.868  1.00  0.00     0.131 A 
ATOM     64  C   UNL A   1      42.204  33.238  35.663  1.00  0.00     0.055 A 
ATOM     65  C   UNL A   1      40.820  31.705  36.893  1.00  0.00     0.041 A 
ATOM     66  F   UNL A   1      40.406  29.565  36.037  1.00  0.00    -0.206 F 
ATOM     67  C   UNL A   1      41.448  32.943  36.801  1.00  0.00     0.022 A 
BRANCH  64  68
ATOM     68  S   UNL A   1      43.196  34.755  35.603  1.00  0.00     0.124 S 
ATOM     69  O   UNL A   1      44.401  34.294  34.918  1.00  0.00    -0.237 OA
ATOM     70  O   UNL A   1      42.339  35.663  34.849  1.00  0.00    -0.237 OA
ATOM     71  O   UNL A   1      43.383  35.098  37.012  1.00  0.00    -0.744 OA
ENDBRANCH  64  68
ENDBRANCH  47  61
BRANCH  48  72
ATOM     72  C   UNL A   1      42.479  24.467  27.197  1.00  0.00     0.023 A 
ATOM     73  C   UNL A   1      41.918  23.182  27.247  1.00  0.00     0.031 A 
ATOM     74  C   UNL A   1      43.251  24.805  26.070  1.00  0.00     0.131 A 
ATOM     75  C   UNL A   1      42.174  22.266  26.215  1.00  0.00     0.055 A 
ATOM     76  C   UNL A   1      43.458  23.909  25.021  1.00  0.00     0.041 A 
ATOM     77  F   UNL A   1      43.815  26.019  25.972  1.00  0.00    -0.206 F 
ATOM     78  C   UNL A   1      42.929  22.625  25.096  1.00  0.00     0.022 A 
BRANCH  75  79
ATOM     79  S   UNL A   1      41.579  20.561  26.397  1.00  0.00     0.124 S 
ATOM     80  O   UNL A   1      42.354  19.866  25.376  1.00  0.00    -0.237 OA
ATOM     81  O   UNL A   1      41.928  20.265  27.783  1.00  0.00    -0.237 OA
ATOM     82  O   UNL A   1      40.146  20.671  26.128  1.00  0.00    -0.744 OA
ENDBRANCH  75  79
ENDBRANCH  48  72
BRANCH  60  83
ATOM     83  C   UNL A   1      46.301  25.755  32.888  1.00  0.00     0.023 A 
ATOM     84  C   UNL A   1      46.239  24.674  33.785  1.00  0.00     0.031 A 
ATOM     85  C   UNL A   1      47.572  26.231  32.516  1.00  0.00     0.131 A 
ATOM     86  C   UNL A   1      47.421  24.142  34.323  1.00  0.00     0.055 A 
ATOM     87  C   UNL A   1      48.745  25.658  33.007  1.00  0.00     0.041 A 
ATOM     88  F   UNL A   1      47.693  27.262  31.665  1.00  0.00    -0.206 F 
ATOM     89  C   UNL A   1      48.674  24.616  33.926  1.00  0.00     0.022 A 
BRANCH  86  90
ATOM     90  S   UNL A   1      47.300  22.879  35.620  1.00  0.00     0.124 S 
ATOM     91  O   UNL A   1      48.499  23.141  36.410  1.00  0.00    -0.237 OA
ATOM     92  O   UNL A   1      46.031  23.208  36.260  1.00  0.00    -0.237 OA
ATOM     93  O   UNL A   1      47.311  21.620  34.877  1.00  0.00    -0.744 OA
ENDBRANCH  86  90
ENDBRANCH  60  83
ENDBRANCH  34  35
ENDBRANCH  27  29
ENDBRANCH  26  27
ENDBRANCH  25  26
ENDBRANCH   1  25
TORSDOF 18
ENDMDL
MODEL 2
REMARK VINA RESULT:      -9.7      4.916      8.151
REMARK SMILES C[C@H](C(=O)OCCOCCOC(=O)c1ccc(-c2c3nc(c(-c4cc(S(=O)(=O)[O-])ccc4F)c4ccc([nH]4)c(-c4cc(S(=O)(=O)[O-])ccc4F)c4nc(c(-c5cc(S(=O)(=O)[O-])ccc5F)c5ccc2[nH]5)C=C4)C=C3)cc1)c1ccc2c(c1)[nH]c1ccc(Cl)cc12
REMARK SMILES IDX 9 1 8 2 7 3 6 4 5 5 3 6 4 7 2 8 1 9 77 10 78 11 82 12 79 13
REMARK SMILES IDX 81 14 80 15 83 16 90 17 84 18 89 20 85 21 87 22 86 23 88 24
REMARK SMILES IDX 10 25 11 26 12 27 13 28 14 29 15 30 76 31 16 32 75 33 17 34
REMARK SMILES IDX 18 35 19 36 69 37 20 38 74 39 68 40 70 41 21 42 73 43 67 44
REMARK SMILES IDX 66 45 22 47 54 48 34 49 53 50 35 51 38 52 52 53 71 54 36 55
REMARK SMILES IDX 37 56 51 58 72 59 39 60 23 61 24 62 32 63 25 64 31 65 33 66
REMARK SMILES IDX 30 67 26 68 27 69 28 70 29 71 55 72 56 73 64 74 57 75 63 76
REMARK SMILES IDX 65 77 62 78 58 79 59 80 60 81 61 82 40 83 41 84 49 85 42 86
REMARK SMILES IDX 48 87 50 88 47 89 43 90 44 91 45 92 46 93
REMARK H PARENT 83 19 70 46 38 57
REMARK Flexibility Score: inf
ROOT
ATOM      1  C   UNL A   1      31.506  29.452  25.614  1.00  0.00     0.202 C 
ENDROOT
BRANCH   1   2
ATOM      2  O   UNL A   1      31.276  29.367  24.212  1.00  0.00    -0.374 OA
BRANCH   2   3
ATOM      3  C   UNL A   1      32.318  28.801  23.413  1.00  0.00     0.202 C 
BRANCH   3   4
ATOM      4  C   UNL A   1      31.954  27.560  22.591  1.00  0.00     0.261 C 
BRANCH   4   5
ATOM      5  O   UNL A   1      32.255  26.341  23.302  1.00  0.00    -0.463 OA
BRANCH   5   6
ATOM      6  C   UNL A   1      33.455  25.772  23.023  1.00  0.00     0.313 C 
ATOM      7  O   UNL A   1      33.948  25.706  21.899  1.00  0.00    -0.252 OA
BRANCH   6   8
ATOM      8  C   UNL A   1      34.225  25.296  24.243  1.00  0.00     0.126 C 
ATOM      9  C   UNL A   1      33.894  26.150  25.471  1.00  0.00     0.025 C 
BRANCH   8  10
ATOM     10  C   UNL A   1      34.218  23.810  24.574  1.00  0.00    -0.032 A 
ATOM     11  C   UNL A   1      35.275  23.153  25.219  1.00  0.00     0.005 A 
ATOM     12  C   UNL A   1      33.145  23.053  24.074  1.00  0.00     0.031 A 
ATOM     13  C   UNL A   1      35.312  21.748  25.317  1.00  0.00     0.011 A 
ATOM     14  C   UNL A   1      33.233  21.661  24.119  1.00  0.00     0.047 A 
ATOM     15  C   UNL A   1      34.289  20.980  24.718  1.00  0.00     0.007 A 
ATOM     16  N   UNL A   1      32.386  20.723  23.587  1.00  0.00    -0.355 N 
ATOM     17  C   UNL A   1      34.054  19.577  24.512  1.00  0.00     0.009 A 
ATOM     18  C   UNL A   1      32.901  19.461  23.733  1.00  0.00     0.047 A 
ATOM     19  H   UNL A   1      31.524  20.928  23.159  1.00  0.00     0.167 HD
ATOM     20  C   UNL A   1      34.737  18.395  24.868  1.00  0.00     0.031 A 
ATOM     21  C   UNL A   1      32.426  18.244  23.236  1.00  0.00     0.028 A 
ATOM     22  C   UNL A   1      34.259  17.166  24.393  1.00  0.00     0.041 A 
ATOM     23  C   UNL A   1      33.135  17.092  23.574  1.00  0.00     0.022 A 
ATOM     24  Cl  UNL A   1      35.088  15.714  24.811  1.00  0.00    -0.084 Cl
ENDBRANCH   8  10
ENDBRANCH   6   8
ENDBRANCH   5   6
ENDBRANCH   4   5
ENDBRANCH   3   4
ENDBRANCH   2   3
ENDBRANCH   1   2
BRANCH   1  25
ATOM     25  C   UNL A   1      32.049  30.780  26.157  1.00  0.00     0.261 C 
BRANCH  25  26
ATOM     26  O   UNL A   1      32.870  30.611  27.326  1.00  0.00    -0.460 OA
BRANCH  26  27
ATOM     27  C   UNL A   1      33.650  31.682  27.613  1.00  0.00     0.338 C 
ATOM     28  O   UNL A   1      33.279  32.841  27.754  1.00  0.00    -0.246 OA
BRANCH  27  29
ATOM     29  C   UNL A   1      35.026  31.253  27.925  1.00  0.00     0.060 A 
ATOM     30  C   UNL A   1      35.254  29.876  28.037  1.00  0.00     0.016 A 
ATOM     31  C   UNL A   1      36.052  32.165  28.183  1.00  0.00     0.016 A 
ATOM     32  C   UNL A   1      36.493  29.405  28.462  1.00  0.00     0.010 A 
ATOM     33  C   UNL A   1      37.296  31.688  28.621  1.00  0.00     0.010 A 
ATOM     34  C   UNL A   1      37.509  30.308  28.799  1.00  0.00    -0.014 A 
BRANCH  34  35
ATOM     35  C   UNL A   1      38.723  29.802  29.486  1.00  0.00     0.031 A 
ATOM     36  C   UNL A   1      39.055  30.327  30.858  1.00  0.00     0.074 A 
ATOM     37  C   UNL A   1      39.485  28.844  28.928  1.00  0.00     0.049 A 
ATOM     38  N   UNL A   1      40.055  30.028  31.645  1.00  0.00    -0.248 NA
ATOM     39  C   UNL A   1      38.128  31.326  31.416  1.00  0.00     0.031 C 
ATOM     40  C   UNL A   1      39.232  28.217  27.631  1.00  0.00     0.029 A 
ATOM     41  N   UNL A   1      40.622  28.225  29.385  1.00  0.00    -0.354 N 
ATOM     42  C   UNL A   1      39.883  30.800  32.790  1.00  0.00     0.074 A 
ATOM     43  C   UNL A   1      38.701  31.608  32.576  1.00  0.00     0.031 C 
ATOM     44  C   UNL A   1      40.191  27.305  27.395  1.00  0.00     0.029 A 
ATOM     45  C   UNL A   1      41.143  27.308  28.504  1.00  0.00     0.049 A 
ATOM     46  H   UNL A   1      41.026  28.421  30.261  1.00  0.00     0.167 HD
ATOM     47  C   UNL A   1      40.637  30.827  33.917  1.00  0.00     0.034 A 
ATOM     48  C   UNL A   1      42.272  26.573  28.575  1.00  0.00     0.034 A 
ATOM     49  C   UNL A   1      41.818  30.021  34.113  1.00  0.00     0.049 A 
ATOM     50  C   UNL A   1      43.148  26.690  29.800  1.00  0.00     0.074 A 
ATOM     51  C   UNL A   1      42.643  29.958  35.222  1.00  0.00     0.029 A 
ATOM     52  N   UNL A   1      42.354  29.151  33.171  1.00  0.00    -0.354 N 
ATOM     53  N   UNL A   1      42.969  27.417  30.879  1.00  0.00    -0.248 NA
ATOM     54  C   UNL A   1      44.374  25.882  29.818  1.00  0.00     0.031 C 
ATOM     55  C   UNL A   1      43.716  29.109  34.924  1.00  0.00     0.029 A 
ATOM     56  C   UNL A   1      43.519  28.578  33.659  1.00  0.00     0.049 A 
ATOM     57  H   UNL A   1      41.963  28.969  32.285  1.00  0.00     0.167 HD
ATOM     58  C   UNL A   1      44.044  27.125  31.717  1.00  0.00     0.074 A 
ATOM     59  C   UNL A   1      44.858  26.150  31.022  1.00  0.00     0.031 C 
ATOM     60  C   UNL A   1      44.330  27.614  32.951  1.00  0.00     0.034 A 
BRANCH  47  61
ATOM     61  C   UNL A   1      40.234  31.800  34.998  1.00  0.00     0.023 A 
ATOM     62  C   UNL A   1      39.353  31.441  36.034  1.00  0.00     0.031 A 
ATOM     63  C   UNL A   1      40.719  33.119  34.977  1.00  0.00     0.131 A 
ATOM     64  C   UNL A   1      38.935  32.404  36.964  1.00  0.00     0.055 A 
ATOM     65  C   UNL A   1      40.359  34.053  35.950  1.00  0.00     0.041 A 
ATOM     66  F   UNL A   1      41.544  33.527  33.999  1.00  0.00    -0.206 F 
ATOM     67  C   UNL A   1      39.452  33.702  36.944  1.00  0.00     0.022 A 
BRANCH  64  68
ATOM     68  S   UNL A   1      37.601  31.979  38.119  1.00  0.00     0.124 S 
ATOM     69  O   UNL A   1      37.340  30.585  37.767  1.00  0.00    -0.237 OA
ATOM     70  O   UNL A   1      38.225  32.205  39.418  1.00  0.00    -0.237 OA
ATOM     71  O   UNL A   1      36.533  32.913  37.768  1.00  0.00    -0.744 OA
ENDBRANCH  64  68
ENDBRANCH  47  61
BRANCH  48  72
ATOM     72  C   UNL A   1      42.674  25.690  27.442  1.00  0.00     0.023 A 
ATOM     73  C   UNL A   1      42.192  24.377  27.333  1.00  0.00     0.031 A 
ATOM     74  C   UNL A   1      43.602  26.132  26.481  1.00  0.00     0.131 A 
ATOM     75  C   UNL A   1      42.674  23.537  26.317  1.00  0.00     0.055 A 
ATOM     76  C   UNL A   1      44.038  25.311  25.441  1.00  0.00     0.041 A 
ATOM     77  F   UNL A   1      44.099  27.378  26.539  1.00  0.00    -0.206 F 
ATOM     78  C   UNL A   1      43.583  23.998  25.363  1.00  0.00     0.022 A 
BRANCH  75  79
ATOM     79  S   UNL A   1      42.163  21.795  26.313  1.00  0.00     0.124 S 
ATOM     80  O   UNL A   1      40.735  21.906  26.040  1.00  0.00    -0.237 OA
ATOM     81  O   UNL A   1      42.982  21.242  25.239  1.00  0.00    -0.237 OA
ATOM     82  O   UNL A   1      42.509  21.336  27.657  1.00  0.00    -0.744 OA
ENDBRANCH  75  79
ENDBRANCH  48  72
BRANCH  60  83
ATOM     83  C   UNL A   1      45.550  27.059  33.647  1.00  0.00     0.023 A 
ATOM     84  C   UNL A   1      45.485  25.915  34.463  1.00  0.00     0.031 A 
ATOM     85  C   UNL A   1      46.797  27.693  33.497  1.00  0.00     0.131 A 
ATOM     86  C   UNL A   1      46.631  25.473  35.141  1.00  0.00     0.055 A 
ATOM     87  C   UNL A   1      47.947  27.213  34.125  1.00  0.00     0.041 A 
ATOM     88  F   UNL A   1      46.918  28.790  32.733  1.00  0.00    -0.206 F 
ATOM     89  C   UNL A   1      47.865  26.105  34.964  1.00  0.00     0.022 A 
BRANCH  86  90
ATOM     90  S   UNL A   1      46.473  24.115  36.332  1.00  0.00     0.124 S 
ATOM     91  O   UNL A   1      45.621  24.708  37.358  1.00  0.00    -0.237 OA
ATOM     92  O   UNL A   1      45.862  23.063  35.527  1.00  0.00    -0.237 OA
ATOM     93  O   UNL A   1      47.851  23.856  36.745  1.00  0.00    -0.744 OA
ENDBRANCH  86  90
ENDBRANCH  60  83
ENDBRANCH  34  35
ENDBRANCH  27  29
ENDBRANCH  26  27
ENDBRANCH  25  26
ENDBRANCH   1  25
TORSDOF 18
ENDMDL
MODEL 3
REMARK VINA RESULT:      -9.6      4.242     12.042
REMARK SMILES C[C@H](C(=O)OCCOCCOC(=O)c1ccc(-c2c3nc(c(-c4cc(S(=O)(=O)[O-])ccc4F)c4ccc([nH]4)c(-c4cc(S(=O)(=O)[O-])ccc4F)c4nc(c(-c5cc(S(=O)(=O)[O-])ccc5F)c5ccc2[nH]5)C=C4)C=C3)cc1)c1ccc2c(c1)[nH]c1ccc(Cl)cc12
REMARK SMILES IDX 9 1 8 2 7 3 6 4 5 5 3 6 4 7 2 8 1 9 77 10 78 11 82 12 79 13
REMARK SMILES IDX 81 14 80 15 83 16 90 17 84 18 89 20 85 21 87 22 86 23 88 24
REMARK SMILES IDX 10 25 11 26 12 27 13 28 14 29 15 30 76 31 16 32 75 33 17 34
REMARK SMILES IDX 18 35 19 36 69 37 20 38 74 39 68 40 70 41 21 42 73 43 67 44
REMARK SMILES IDX 66 45 22 47 54 48 34 49 53 50 35 51 38 52 52 53 71 54 36 55
REMARK SMILES IDX 37 56 51 58 72 59 39 60 23 61 24 62 32 63 25 64 31 65 33 66
REMARK SMILES IDX 30 67 26 68 27 69 28 70 29 71 55 72 56 73 64 74 57 75 63 76
REMARK SMILES IDX 65 77 62 78 58 79 59 80 60 81 61 82 40 83 41 84 49 85 42 86
REMARK SMILES IDX 48 87 50 88 47 89 43 90 44 91 45 92 46 93
REMARK H PARENT 83 19 70 46 38 57
REMARK Flexibility Score: inf
ROOT
ATOM      1  C   UNL A   1      42.171  19.151  26.300  1.00  0.00     0.202 C 
ENDROOT
BRANCH   1   2
ATOM      2  O   UNL A   1      43.581  18.950  26.275  1.00  0.00    -0.374 OA
BRANCH   2   3
ATOM      3  C   UNL A   1      44.176  18.659  25.007  1.00  0.00     0.202 C 
BRANCH   3   4
ATOM      4  C   UNL A   1      44.822  19.835  24.268  1.00  0.00     0.261 C 
BRANCH   4   5
ATOM      5  O   UNL A   1      45.244  20.872  25.179  1.00  0.00    -0.463 OA
BRANCH   5   6
ATOM      6  C   UNL A   1      44.880  22.137  24.848  1.00  0.00     0.313 C 
ATOM      7  O   UNL A   1      43.924  22.419  24.129  1.00  0.00    -0.252 OA
BRANCH   6   8
ATOM      8  C   UNL A   1      45.692  23.225  25.529  1.00  0.00     0.126 C 
ATOM      9  C   UNL A   1      45.585  24.551  24.768  1.00  0.00     0.025 C 
BRANCH   8  10
ATOM     10  C   UNL A   1      45.530  23.424  27.029  1.00  0.00    -0.032 A 
ATOM     11  C   UNL A   1      44.439  22.937  27.764  1.00  0.00     0.005 A 
ATOM     12  C   UNL A   1      46.464  24.259  27.664  1.00  0.00     0.031 A 
ATOM     13  C   UNL A   1      44.229  23.323  29.103  1.00  0.00     0.011 A 
ATOM     14  C   UNL A   1      46.202  24.684  28.967  1.00  0.00     0.047 A 
ATOM     15  C   UNL A   1      45.106  24.249  29.707  1.00  0.00     0.007 A 
ATOM     16  N   UNL A   1      46.887  25.588  29.737  1.00  0.00    -0.355 N 
ATOM     17  C   UNL A   1      45.147  24.945  30.965  1.00  0.00     0.009 A 
ATOM     18  C   UNL A   1      46.226  25.831  30.912  1.00  0.00     0.047 A 
ATOM     19  H   UNL A   1      47.741  26.007  29.480  1.00  0.00     0.167 HD
ATOM     20  C   UNL A   1      44.342  24.946  32.124  1.00  0.00     0.031 A 
ATOM     21  C   UNL A   1      46.510  26.760  31.918  1.00  0.00     0.028 A 
ATOM     22  C   UNL A   1      44.629  25.859  33.148  1.00  0.00     0.041 A 
ATOM     23  C   UNL A   1      45.682  26.765  33.040  1.00  0.00     0.022 A 
ATOM     24  Cl  UNL A   1      43.648  25.880  34.565  1.00  0.00    -0.084 Cl
ENDBRANCH   8  10
ENDBRANCH   6   8
ENDBRANCH   5   6
ENDBRANCH   4   5
ENDBRANCH   3   4
ENDBRANCH   2   3
ENDBRANCH   1   2
BRANCH   1  25
ATOM     25  C   UNL A   1      41.662  20.580  26.077  1.00  0.00     0.261 C 
BRANCH  25  26
ATOM     26  O   UNL A   1      40.541  20.910  26.916  1.00  0.00    -0.460 OA
BRANCH  26  27
ATOM     27  C   UNL A   1      39.707  21.838  26.385  1.00  0.00     0.338 C 
ATOM     28  O   UNL A   1      38.794  21.633  25.595  1.00  0.00    -0.246 OA
BRANCH  27  29
ATOM     29  C   UNL A   1      39.915  23.150  27.025  1.00  0.00     0.060 A 
ATOM     30  C   UNL A   1      39.335  24.262  26.402  1.00  0.00     0.016 A 
ATOM     31  C   UNL A   1      40.718  23.310  28.157  1.00  0.00     0.016 A 
ATOM     32  C   UNL A   1      39.601  25.545  26.872  1.00  0.00     0.010 A 
ATOM     33  C   UNL A   1      40.992  24.604  28.622  1.00  0.00     0.010 A 
ATOM     34  C   UNL A   1      40.466  25.728  27.959  1.00  0.00    -0.014 A 
BRANCH  34  35
ATOM     35  C   UNL A   1      40.935  27.098  28.282  1.00  0.00     0.031 A 
ATOM     36  C   UNL A   1      42.356  27.477  27.954  1.00  0.00     0.074 A 
ATOM     37  C   UNL A   1      40.095  28.013  28.799  1.00  0.00     0.049 A 
ATOM     38  N   UNL A   1      42.979  28.612  28.141  1.00  0.00    -0.248 NA
ATOM     39  C   UNL A   1      43.182  26.432  27.329  1.00  0.00     0.031 C 
ATOM     40  C   UNL A   1      38.684  27.781  29.106  1.00  0.00     0.029 A 
ATOM     41  N   UNL A   1      40.305  29.322  29.153  1.00  0.00    -0.354 N 
ATOM     42  C   UNL A   1      44.270  28.418  27.660  1.00  0.00     0.074 A 
ATOM     43  C   UNL A   1      44.349  27.046  27.208  1.00  0.00     0.031 C 
ATOM     44  C   UNL A   1      38.156  28.911  29.606  1.00  0.00     0.029 A 
ATOM     45  C   UNL A   1      39.197  29.934  29.689  1.00  0.00     0.049 A 
ATOM     46  H   UNL A   1      41.169  29.780  29.034  1.00  0.00     0.167 HD
ATOM     47  C   UNL A   1      45.293  29.307  27.596  1.00  0.00     0.034 A 
ATOM     48  C   UNL A   1      39.047  31.170  30.209  1.00  0.00     0.034 A 
ATOM     49  C   UNL A   1      45.203  30.671  28.058  1.00  0.00     0.049 A 
ATOM     50  C   UNL A   1      40.229  32.111  30.214  1.00  0.00     0.074 A 
ATOM     51  C   UNL A   1      46.172  31.659  28.023  1.00  0.00     0.029 A 
ATOM     52  N   UNL A   1      44.084  31.237  28.657  1.00  0.00    -0.354 N 
ATOM     53  N   UNL A   1      41.442  31.920  29.749  1.00  0.00    -0.248 NA
ATOM     54  C   UNL A   1      40.017  33.437  30.809  1.00  0.00     0.031 C 
ATOM     55  C   UNL A   1      45.666  32.794  28.666  1.00  0.00     0.029 A 
ATOM     56  C   UNL A   1      44.353  32.545  29.030  1.00  0.00     0.049 A 
ATOM     57  H   UNL A   1      43.225  30.775  28.797  1.00  0.00     0.167 HD
ATOM     58  C   UNL A   1      42.125  33.115  29.965  1.00  0.00     0.074 A 
ATOM     59  C   UNL A   1      41.186  34.022  30.592  1.00  0.00     0.031 C 
ATOM     60  C   UNL A   1      43.410  33.437  29.667  1.00  0.00     0.034 A 
BRANCH  47  61
ATOM     61  C   UNL A   1      46.612  28.810  27.055  1.00  0.00     0.023 A 
ATOM     62  C   UNL A   1      46.820  28.591  25.682  1.00  0.00     0.031 A 
ATOM     63  C   UNL A   1      47.671  28.522  27.934  1.00  0.00     0.131 A 
ATOM     64  C   UNL A   1      48.031  28.040  25.235  1.00  0.00     0.055 A 
ATOM     65  C   UNL A   1      48.901  28.047  27.476  1.00  0.00     0.041 A 
ATOM     66  F   UNL A   1      47.524  28.688  29.259  1.00  0.00    -0.206 F 
ATOM     67  C   UNL A   1      49.082  27.790  26.121  1.00  0.00     0.022 A 
BRANCH  64  68
ATOM     68  S   UNL A   1      48.167  27.526  23.501  1.00  0.00     0.124 S 
ATOM     69  O   UNL A   1      49.469  28.075  23.131  1.00  0.00    -0.237 OA
ATOM     70  O   UNL A   1      48.089  26.073  23.596  1.00  0.00    -0.237 OA
ATOM     71  O   UNL A   1      47.022  28.173  22.861  1.00  0.00    -0.744 OA
ENDBRANCH  64  68
ENDBRANCH  47  61
BRANCH  48  72
ATOM     72  C   UNL A   1      37.748  31.586  30.812  1.00  0.00     0.023 A 
ATOM     73  C   UNL A   1      36.766  32.238  30.051  1.00  0.00     0.031 A 
ATOM     74  C   UNL A   1      37.497  31.392  32.183  1.00  0.00     0.131 A 
ATOM     75  C   UNL A   1      35.601  32.714  30.672  1.00  0.00     0.055 A 
ATOM     76  C   UNL A   1      36.313  31.820  32.785  1.00  0.00     0.041 A 
ATOM     77  F   UNL A   1      38.404  30.778  32.960  1.00  0.00    -0.206 F 
ATOM     78  C   UNL A   1      35.362  32.498  32.031  1.00  0.00     0.022 A 
BRANCH  75  79
ATOM     79  S   UNL A   1      34.437  33.705  29.694  1.00  0.00     0.124 S 
ATOM     80  O   UNL A   1      33.574  34.258  30.731  1.00  0.00    -0.237 OA
ATOM     81  O   UNL A   1      35.328  34.649  29.027  1.00  0.00    -0.237 OA
ATOM     82  O   UNL A   1      33.807  32.720  28.816  1.00  0.00    -0.744 OA
ENDBRANCH  75  79
ENDBRANCH  48  72
BRANCH  60  83
ATOM     83  C   UNL A   1      43.856  34.848  29.971  1.00  0.00     0.023 A 
ATOM     84  C   UNL A   1      43.626  35.909  29.078  1.00  0.00     0.031 A 
ATOM     85  C   UNL A   1      44.530  35.131  31.173  1.00  0.00     0.131 A 
ATOM     86  C   UNL A   1      44.116  37.191  29.374  1.00  0.00     0.055 A 
ATOM     87  C   UNL A   1      44.960  36.420  31.491  1.00  0.00     0.041 A 
ATOM     88  F   UNL A   1      44.778  34.156  32.063  1.00  0.00    -0.206 F 
ATOM     89  C   UNL A   1      44.766  37.456  30.582  1.00  0.00     0.022 A 
BRANCH  86  90
ATOM     90  S   UNL A   1      43.973  38.493  28.119  1.00  0.00     0.124 S 
ATOM     91  O   UNL A   1      43.368  39.582  28.879  1.00  0.00    -0.237 OA
ATOM     92  O   UNL A   1      45.360  38.692  27.716  1.00  0.00    -0.237 OA
ATOM     93  O   UNL A   1      43.111  37.896  27.100  1.00  0.00    -0.744 OA
ENDBRANCH  86  90
ENDBRANCH  60  83
ENDBRANCH  34  35
ENDBRANCH  27  29
ENDBRANCH  26  27
ENDBRANCH  25  26
ENDBRANCH   1  25
TORSDOF 18
ENDMDL
