MODEL 1
REMARK VINA RESULT:     -12.6      0.000      0.000
REMARK SMILES NS(=O)(=O)c1ccc(-n2nc(C(F)F)cc2-c2ccc(C(=O)OCCOCCOC(=O)c3ccc(-c4c5nc(c(-c6cc(S(=O)(=O)[O-])ccc6F)c6ccc([nH]6)c(-c6cc(S(=O)(=O)[O-])ccc6F)c6nc(c(-c7cc(S(=O)(=O)[O-])ccc7F)c7ccc4[nH]7)C=C6)C=C5)cc3)cc2)cc1
REMARK SMILES IDX 25 1 24 2 23 3 21 4 22 5 20 6 17 7 18 8 96 9 19 10 95 11
REMARK SMILES IDX 16 12 9 13 10 14 11 15 15 16 8 17 5 18 6 19 98 20 7 21 97 22
REMARK SMILES IDX 2 23 3 24 4 25 1 26 12 29 13 30 14 31 26 32 27 33 28 34
REMARK SMILES IDX 29 35 30 36 31 37 32 38 33 39 94 40 34 41 93 42 35 43 36 44
REMARK SMILES IDX 37 45 87 46 38 47 92 48 86 49 88 50 39 51 91 52 85 53 84 54
REMARK SMILES IDX 40 56 72 57 52 58 71 59 53 60 56 61 70 62 89 63 54 64 55 65
REMARK SMILES IDX 69 67 90 68 57 69 41 70 42 71 50 72 43 73 49 74 51 75 48 76
REMARK SMILES IDX 44 77 45 78 46 79 47 80 73 81 74 82 82 83 75 84 81 85 83 86
REMARK SMILES IDX 80 87 76 88 77 89 78 90 79 91 58 92 59 93 67 94 60 95 66 96
REMARK SMILES IDX 68 97 65 98 61 99 62 100 63 101 64 102
REMARK H PARENT 1 27 1 28 88 55 56 66
REMARK Flexibility Score: inf
ROOT
ATOM      1  C   UNL A   1      34.186  33.658  29.428  1.00  0.00     0.202 C 
ENDROOT
BRANCH   1   2
ATOM      2  C   UNL A   1      33.648  33.209  28.069  1.00  0.00     0.261 C 
BRANCH   2   3
ATOM      3  O   UNL A   1      33.288  31.820  28.042  1.00  0.00    -0.460 OA
BRANCH   3   4
ATOM      4  C   UNL A   1      34.211  31.026  27.454  1.00  0.00     0.338 C 
ATOM      5  O   UNL A   1      35.386  31.288  27.248  1.00  0.00    -0.246 OA
BRANCH   4   6
ATOM      6  C   UNL A   1      33.657  29.680  27.208  1.00  0.00     0.060 A 
ATOM      7  C   UNL A   1      32.664  27.206  26.385  1.00  0.00     0.000 A 
ATOM      8  C   UNL A   1      34.028  27.497  26.246  1.00  0.00     0.011 A 
ATOM      9  C   UNL A   1      31.817  28.132  27.010  1.00  0.00     0.011 A 
ATOM     10  C   UNL A   1      34.521  28.733  26.648  1.00  0.00     0.016 A 
ATOM     11  C   UNL A   1      32.315  29.367  27.438  1.00  0.00     0.016 A 
BRANCH   7  12
ATOM     12  C   UNL A   1      32.123  26.007  25.752  1.00  0.00     0.075 A 
ATOM     13  N   UNL A   1      31.000  25.950  24.936  1.00  0.00    -0.233 N 
ATOM     14  N   UNL A   1      30.504  24.687  24.857  1.00  0.00    -0.166 NA
ATOM     15  C   UNL A   1      31.451  23.911  25.413  1.00  0.00     0.129 A 
ATOM     16  C   UNL A   1      32.464  24.695  26.008  1.00  0.00     0.060 A 
BRANCH  13  17
ATOM     17  C   UNL A   1      30.376  27.023  24.249  1.00  0.00     0.065 A 
ATOM     18  C   UNL A   1      29.137  29.172  22.984  1.00  0.00     0.082 A 
ATOM     19  C   UNL A   1      30.490  29.259  23.318  1.00  0.00     0.024 A 
ATOM     20  C   UNL A   1      28.405  28.010  23.260  1.00  0.00     0.024 A 
ATOM     21  C   UNL A   1      31.107  28.188  23.966  1.00  0.00     0.030 A 
ATOM     22  C   UNL A   1      29.034  26.918  23.865  1.00  0.00     0.030 A 
BRANCH  18  23
ATOM     23  S   UNL A   1      28.323  30.552  22.233  1.00  0.00     0.238 S 
ATOM     24  O   UNL A   1      27.357  31.076  23.185  1.00  0.00    -0.207 OA
ATOM     25  O   UNL A   1      27.976  30.198  20.888  1.00  0.00    -0.207 OA
BRANCH  23  26
ATOM     26  N   UNL A   1      29.524  31.724  22.144  1.00  0.00    -0.225 NA
ATOM     27  H   UNL A   1      30.077  31.581  21.299  1.00  0.00     0.137 HD
ATOM     28  H   UNL A   1      30.130  31.653  22.962  1.00  0.00     0.137 HD
ENDBRANCH  23  26
ENDBRANCH  18  23
ENDBRANCH  13  17
BRANCH  15  29
ATOM     29  C   UNL A   1      31.380  22.413  25.425  1.00  0.00     0.393 C 
ATOM     30  F   UNL A   1      31.933  21.849  24.317  1.00  0.00    -0.203 F 
ATOM     31  F   UNL A   1      32.027  21.885  26.499  1.00  0.00    -0.203 F 
ENDBRANCH  15  29
ENDBRANCH   7  12
ENDBRANCH   4   6
ENDBRANCH   3   4
ENDBRANCH   2   3
ENDBRANCH   1   2
BRANCH   1  32
ATOM     32  O   UNL A   1      34.209  32.720  30.503  1.00  0.00    -0.374 OA
BRANCH  32  33
ATOM     33  C   UNL A   1      35.377  32.555  31.301  1.00  0.00     0.202 C 
BRANCH  33  34
ATOM     34  C   UNL A   1      36.631  31.959  30.677  1.00  0.00     0.261 C 
BRANCH  34  35
ATOM     35  O   UNL A   1      36.384  30.684  30.113  1.00  0.00    -0.460 OA
BRANCH  35  36
ATOM     36  C   UNL A   1      36.802  29.659  30.892  1.00  0.00     0.338 C 
ATOM     37  O   UNL A   1      36.608  29.517  32.087  1.00  0.00    -0.246 OA
BRANCH  36  38
ATOM     38  C   UNL A   1      37.646  28.779  30.082  1.00  0.00     0.060 A 
ATOM     39  C   UNL A   1      38.291  27.760  30.782  1.00  0.00     0.016 A 
ATOM     40  C   UNL A   1      38.072  29.214  28.819  1.00  0.00     0.016 A 
ATOM     41  C   UNL A   1      39.554  27.414  30.371  1.00  0.00     0.010 A 
ATOM     42  C   UNL A   1      39.335  28.875  28.419  1.00  0.00     0.010 A 
ATOM     43  C   UNL A   1      40.098  28.081  29.268  1.00  0.00    -0.014 A 
BRANCH  43  44
ATOM     44  C   UNL A   1      41.483  27.842  28.940  1.00  0.00     0.031 A 
ATOM     45  C   UNL A   1      41.633  26.554  28.237  1.00  0.00     0.074 A 
ATOM     46  C   UNL A   1      42.450  28.754  29.157  1.00  0.00     0.049 A 
ATOM     47  N   UNL A   1      42.037  25.433  28.733  1.00  0.00    -0.248 NA
ATOM     48  C   UNL A   1      40.973  26.423  26.924  1.00  0.00     0.031 C 
ATOM     49  C   UNL A   1      42.325  30.142  29.609  1.00  0.00     0.029 A 
ATOM     50  N   UNL A   1      43.783  28.637  28.932  1.00  0.00    -0.354 N 
ATOM     51  C   UNL A   1      41.954  24.533  27.679  1.00  0.00     0.074 A 
ATOM     52  C   UNL A   1      41.024  25.104  26.749  1.00  0.00     0.031 C 
ATOM     53  C   UNL A   1      43.497  30.792  29.398  1.00  0.00     0.029 A 
ATOM     54  C   UNL A   1      44.490  29.838  28.931  1.00  0.00     0.049 A 
ATOM     55  H   UNL A   1      44.218  27.767  28.781  1.00  0.00     0.167 HD
ATOM     56  C   UNL A   1      42.920  23.595  27.494  1.00  0.00     0.034 A 
ATOM     57  C   UNL A   1      45.774  30.010  28.499  1.00  0.00     0.034 A 
ATOM     58  C   UNL A   1      43.679  23.398  28.712  1.00  0.00     0.049 A 
ATOM     59  C   UNL A   1      46.402  28.658  28.537  1.00  0.00     0.074 A 
ATOM     60  C   UNL A   1      43.356  23.015  30.000  1.00  0.00     0.029 A 
ATOM     61  N   UNL A   1      44.906  24.019  28.809  1.00  0.00    -0.354 N 
ATOM     62  N   UNL A   1      46.584  27.989  29.646  1.00  0.00    -0.248 NA
ATOM     63  C   UNL A   1      46.319  27.844  27.331  1.00  0.00     0.031 C 
ATOM     64  C   UNL A   1      44.146  23.851  30.844  1.00  0.00     0.029 A 
ATOM     65  C   UNL A   1      44.980  24.630  30.037  1.00  0.00     0.049 A 
ATOM     66  H   UNL A   1      45.609  24.023  28.118  1.00  0.00     0.167 HD
ATOM     67  C   UNL A   1      46.225  26.681  29.346  1.00  0.00     0.074 A 
ATOM     68  C   UNL A   1      46.122  26.644  27.887  1.00  0.00     0.031 C 
ATOM     69  C   UNL A   1      45.750  25.833  30.309  1.00  0.00     0.034 A 
BRANCH  56  70
ATOM     70  C   UNL A   1      43.444  23.194  26.130  1.00  0.00     0.023 A 
ATOM     71  C   UNL A   1      43.405  21.825  25.818  1.00  0.00     0.031 A 
ATOM     72  C   UNL A   1      44.213  23.998  25.251  1.00  0.00     0.131 A 
ATOM     73  C   UNL A   1      44.180  21.303  24.769  1.00  0.00     0.055 A 
ATOM     74  C   UNL A   1      44.929  23.481  24.171  1.00  0.00     0.041 A 
ATOM     75  F   UNL A   1      44.399  25.310  25.420  1.00  0.00    -0.206 F 
ATOM     76  C   UNL A   1      44.944  22.121  23.943  1.00  0.00     0.022 A 
BRANCH  73  77
ATOM     77  S   UNL A   1      44.304  19.506  24.613  1.00  0.00     0.124 S 
ATOM     78  O   UNL A   1      42.954  19.087  24.975  1.00  0.00    -0.237 OA
ATOM     79  O   UNL A   1      44.673  19.355  23.210  1.00  0.00    -0.237 OA
ATOM     80  O   UNL A   1      45.346  19.155  25.575  1.00  0.00    -0.744 OA
ENDBRANCH  73  77
ENDBRANCH  56  70
BRANCH  57  81
ATOM     81  C   UNL A   1      46.283  31.124  27.634  1.00  0.00     0.023 A 
ATOM     82  C   UNL A   1      45.441  32.059  26.981  1.00  0.00     0.031 A 
ATOM     83  C   UNL A   1      47.664  31.432  27.643  1.00  0.00     0.131 A 
ATOM     84  C   UNL A   1      45.989  33.222  26.378  1.00  0.00     0.055 A 
ATOM     85  C   UNL A   1      48.195  32.582  27.055  1.00  0.00     0.041 A 
ATOM     86  F   UNL A   1      48.542  30.661  28.305  1.00  0.00    -0.206 F 
ATOM     87  C   UNL A   1      47.359  33.487  26.425  1.00  0.00     0.022 A 
BRANCH  84  88
ATOM     88  S   UNL A   1      44.918  34.461  25.564  1.00  0.00     0.124 S 
ATOM     89  O   UNL A   1      45.387  35.711  26.150  1.00  0.00    -0.237 OA
ATOM     90  O   UNL A   1      45.216  34.253  24.152  1.00  0.00    -0.237 OA
ATOM     91  O   UNL A   1      43.567  34.065  25.967  1.00  0.00    -0.744 OA
ENDBRANCH  84  88
ENDBRANCH  57  81
BRANCH  69  92
ATOM     92  C   UNL A   1      45.888  26.235  31.768  1.00  0.00     0.023 A 
ATOM     93  C   UNL A   1      44.867  26.791  32.576  1.00  0.00     0.031 A 
ATOM     94  C   UNL A   1      47.099  25.890  32.393  1.00  0.00     0.131 A 
ATOM     95  C   UNL A   1      45.090  26.973  33.961  1.00  0.00     0.055 A 
ATOM     96  C   UNL A   1      47.304  26.050  33.761  1.00  0.00     0.041 A 
ATOM     97  F   UNL A   1      48.097  25.341  31.681  1.00  0.00    -0.206 F 
ATOM     98  C   UNL A   1      46.300  26.593  34.552  1.00  0.00     0.022 A 
BRANCH  95  99
ATOM     99  S   UNL A   1      43.811  27.715  35.033  1.00  0.00     0.124 S 
ATOM    100  O   UNL A   1      42.596  27.005  34.651  1.00  0.00    -0.237 OA
ATOM    101  O   UNL A   1      44.318  27.437  36.374  1.00  0.00    -0.237 OA
ATOM    102  O   UNL A   1      43.830  29.131  34.659  1.00  0.00    -0.744 OA
ENDBRANCH  95  99
ENDBRANCH  69  92
ENDBRANCH  43  44
ENDBRANCH  36  38
ENDBRANCH  35  36
ENDBRANCH  34  35
ENDBRANCH  33  34
ENDBRANCH  32  33
ENDBRANCH   1  32
TORSDOF 22
ENDMDL
MODEL 2
REMARK VINA RESULT:     -11.9      2.330      6.373
REMARK SMILES NS(=O)(=O)c1ccc(-n2nc(C(F)F)cc2-c2ccc(C(=O)OCCOCCOC(=O)c3ccc(-c4c5nc(c(-c6cc(S(=O)(=O)[O-])ccc6F)c6ccc([nH]6)c(-c6cc(S(=O)(=O)[O-])ccc6F)c6nc(c(-c7cc(S(=O)(=O)[O-])ccc7F)c7ccc4[nH]7)C=C6)C=C5)cc3)cc2)cc1
REMARK SMILES IDX 25 1 24 2 23 3 21 4 22 5 20 6 17 7 18 8 96 9 19 10 95 11
REMARK SMILES IDX 16 12 9 13 10 14 11 15 15 16 8 17 5 18 6 19 98 20 7 21 97 22
REMARK SMILES IDX 2 23 3 24 4 25 1 26 12 29 13 30 14 31 26 32 27 33 28 34
REMARK SMILES IDX 29 35 30 36 31 37 32 38 33 39 94 40 34 41 93 42 35 43 36 44
REMARK SMILES IDX 37 45 87 46 38 47 92 48 86 49 88 50 39 51 91 52 85 53 84 54
REMARK SMILES IDX 40 56 72 57 52 58 71 59 53 60 56 61 70 62 89 63 54 64 55 65
REMARK SMILES IDX 69 67 90 68 57 69 41 70 42 71 50 72 43 73 49 74 51 75 48 76
REMARK SMILES IDX 44 77 45 78 46 79 47 80 73 81 74 82 82 83 75 84 81 85 83 86
REMARK SMILES IDX 80 87 76 88 77 89 78 90 79 91 58 92 59 93 67 94 60 95 66 96
REMARK SMILES IDX 68 97 65 98 61 99 62 100 63 101 64 102
REMARK H PARENT 1 27 1 28 88 55 56 66
REMARK Flexibility Score: inf
ROOT
ATOM      1  C   UNL A   1      32.746  34.604  28.693  1.00  0.00     0.202 C 
ENDROOT
BRANCH   1   2
ATOM      2  C   UNL A   1      33.775  33.745  27.957  1.00  0.00     0.261 C 
BRANCH   2   3
ATOM      3  O   UNL A   1      33.352  32.383  27.796  1.00  0.00    -0.460 OA
BRANCH   3   4
ATOM      4  C   UNL A   1      34.358  31.529  27.502  1.00  0.00     0.338 C 
ATOM      5  O   UNL A   1      35.556  31.760  27.535  1.00  0.00    -0.246 OA
BRANCH   4   6
ATOM      6  C   UNL A   1      33.832  30.169  27.268  1.00  0.00     0.060 A 
ATOM      7  C   UNL A   1      32.920  27.655  26.472  1.00  0.00     0.000 A 
ATOM      8  C   UNL A   1      34.289  27.952  26.429  1.00  0.00     0.011 A 
ATOM      9  C   UNL A   1      32.022  28.599  26.990  1.00  0.00     0.011 A 
ATOM     10  C   UNL A   1      34.742  29.207  26.818  1.00  0.00     0.016 A 
ATOM     11  C   UNL A   1      32.477  29.854  27.404  1.00  0.00     0.016 A 
BRANCH   7  12
ATOM     12  C   UNL A   1      32.438  26.427  25.848  1.00  0.00     0.075 A 
ATOM     13  N   UNL A   1      31.307  26.306  25.050  1.00  0.00    -0.233 N 
ATOM     14  N   UNL A   1      30.883  25.017  24.979  1.00  0.00    -0.166 NA
ATOM     15  C   UNL A   1      31.880  24.296  25.520  1.00  0.00     0.129 A 
ATOM     16  C   UNL A   1      32.856  25.136  26.099  1.00  0.00     0.060 A 
BRANCH  13  17
ATOM     17  C   UNL A   1      30.614  27.341  24.372  1.00  0.00     0.065 A 
ATOM     18  C   UNL A   1      29.226  29.408  23.126  1.00  0.00     0.082 A 
ATOM     19  C   UNL A   1      30.530  29.630  23.575  1.00  0.00     0.024 A 
ATOM     20  C   UNL A   1      28.620  28.155  23.276  1.00  0.00     0.024 A 
ATOM     21  C   UNL A   1      31.219  28.599  24.215  1.00  0.00     0.030 A 
ATOM     22  C   UNL A   1      29.328  27.107  23.871  1.00  0.00     0.030 A 
BRANCH  18  23
ATOM     23  S   UNL A   1      28.312  30.730  22.384  1.00  0.00     0.238 S 
ATOM     24  O   UNL A   1      29.259  31.755  21.973  1.00  0.00    -0.207 OA
ATOM     25  O   UNL A   1      27.170  31.009  23.205  1.00  0.00    -0.207 OA
BRANCH  23  26
ATOM     26  N   UNL A   1      27.742  30.066  20.950  1.00  0.00    -0.225 NA
ATOM     27  H   UNL A   1      27.351  29.142  21.135  1.00  0.00     0.137 HD
ATOM     28  H   UNL A   1      28.510  29.982  20.285  1.00  0.00     0.137 HD
ENDBRANCH  23  26
ENDBRANCH  18  23
ENDBRANCH  13  17
BRANCH  15  29
ATOM     29  C   UNL A   1      31.893  22.796  25.534  1.00  0.00     0.393 C 
ATOM     30  F   UNL A   1      31.622  22.255  24.316  1.00  0.00    -0.203 F 
ATOM     31  F   UNL A   1      33.102  22.305  25.923  1.00  0.00    -0.203 F 
ENDBRANCH  15  29
ENDBRANCH   7  12
ENDBRANCH   4   6
ENDBRANCH   3   4
ENDBRANCH   2   3
ENDBRANCH   1   2
BRANCH   1  32
ATOM     32  O   UNL A   1      32.981  34.940  30.059  1.00  0.00    -0.374 OA
BRANCH  32  33
ATOM     33  C   UNL A   1      34.232  34.653  30.674  1.00  0.00     0.202 C 
BRANCH  33  34
ATOM     34  C   UNL A   1      34.382  33.390  31.511  1.00  0.00     0.261 C 
BRANCH  34  35
ATOM     35  O   UNL A   1      35.071  32.371  30.809  1.00  0.00    -0.460 OA
BRANCH  35  36
ATOM     36  C   UNL A   1      36.033  31.766  31.543  1.00  0.00     0.338 C 
ATOM     37  O   UNL A   1      36.110  31.719  32.759  1.00  0.00    -0.246 OA
BRANCH  36  38
ATOM     38  C   UNL A   1      37.060  31.260  30.630  1.00  0.00     0.060 A 
ATOM     39  C   UNL A   1      36.910  29.928  30.243  1.00  0.00     0.016 A 
ATOM     40  C   UNL A   1      38.279  31.944  30.527  1.00  0.00     0.016 A 
ATOM     41  C   UNL A   1      38.054  29.189  30.072  1.00  0.00     0.010 A 
ATOM     42  C   UNL A   1      39.417  31.201  30.368  1.00  0.00     0.010 A 
ATOM     43  C   UNL A   1      39.286  29.820  30.270  1.00  0.00    -0.014 A 
BRANCH  43  44
ATOM     44  C   UNL A   1      40.480  29.008  30.260  1.00  0.00     0.031 A 
ATOM     45  C   UNL A   1      40.864  28.636  31.634  1.00  0.00     0.074 A 
ATOM     46  C   UNL A   1      41.056  28.576  29.122  1.00  0.00     0.049 A 
ATOM     47  N   UNL A   1      41.789  29.168  32.361  1.00  0.00    -0.248 NA
ATOM     48  C   UNL A   1      39.920  27.794  32.392  1.00  0.00     0.031 C 
ATOM     49  C   UNL A   1      40.577  28.695  27.742  1.00  0.00     0.029 A 
ATOM     50  N   UNL A   1      42.192  27.849  28.977  1.00  0.00    -0.354 N 
ATOM     51  C   UNL A   1      41.714  28.494  33.572  1.00  0.00     0.074 A 
ATOM     52  C   UNL A   1      40.396  27.933  33.628  1.00  0.00     0.031 C 
ATOM     53  C   UNL A   1      41.293  27.864  26.943  1.00  0.00     0.029 A 
ATOM     54  C   UNL A   1      42.365  27.266  27.723  1.00  0.00     0.049 A 
ATOM     55  H   UNL A   1      42.846  27.741  29.705  1.00  0.00     0.167 HD
ATOM     56  C   UNL A   1      42.846  28.150  34.241  1.00  0.00     0.034 A 
ATOM     57  C   UNL A   1      43.286  26.308  27.406  1.00  0.00     0.034 A 
ATOM     58  C   UNL A   1      43.969  28.946  33.788  1.00  0.00     0.049 A 
ATOM     59  C   UNL A   1      44.346  26.400  28.451  1.00  0.00     0.074 A 
ATOM     60  C   UNL A   1      44.237  30.301  33.745  1.00  0.00     0.029 A 
ATOM     61  N   UNL A   1      44.841  28.369  32.890  1.00  0.00    -0.354 N 
ATOM     62  N   UNL A   1      45.104  27.454  28.604  1.00  0.00    -0.248 NA
ATOM     63  C   UNL A   1      44.192  25.572  29.640  1.00  0.00     0.031 C 
ATOM     64  C   UNL A   1      44.885  30.510  32.491  1.00  0.00     0.029 A 
ATOM     65  C   UNL A   1      45.069  29.269  31.878  1.00  0.00     0.049 A 
ATOM     66  H   UNL A   1      45.234  27.469  32.963  1.00  0.00     0.167 HD
ATOM     67  C   UNL A   1      45.179  27.654  29.977  1.00  0.00     0.074 A 
ATOM     68  C   UNL A   1      44.640  26.427  30.565  1.00  0.00     0.031 C 
ATOM     69  C   UNL A   1      45.383  28.898  30.507  1.00  0.00     0.034 A 
BRANCH  56  70
ATOM     70  C   UNL A   1      43.019  26.831  34.966  1.00  0.00     0.023 A 
ATOM     71  C   UNL A   1      43.828  25.868  34.339  1.00  0.00     0.031 A 
ATOM     72  C   UNL A   1      42.245  26.359  36.057  1.00  0.00     0.131 A 
ATOM     73  C   UNL A   1      43.765  24.517  34.717  1.00  0.00     0.055 A 
ATOM     74  C   UNL A   1      42.236  25.026  36.469  1.00  0.00     0.041 A 
ATOM     75  F   UNL A   1      41.386  27.122  36.739  1.00  0.00    -0.206 F 
ATOM     76  C   UNL A   1      42.973  24.088  35.777  1.00  0.00     0.022 A 
BRANCH  73  77
ATOM     77  S   UNL A   1      44.611  23.302  33.680  1.00  0.00     0.124 S 
ATOM     78  O   UNL A   1      45.918  23.926  33.505  1.00  0.00    -0.237 OA
ATOM     79  O   UNL A   1      44.571  22.113  34.524  1.00  0.00    -0.237 OA
ATOM     80  O   UNL A   1      43.780  23.245  32.480  1.00  0.00    -0.744 OA
ENDBRANCH  73  77
ENDBRANCH  56  70
BRANCH  57  81
ATOM     81  C   UNL A   1      43.043  25.071  26.593  1.00  0.00     0.023 A 
ATOM     82  C   UNL A   1      43.989  24.528  25.689  1.00  0.00     0.031 A 
ATOM     83  C   UNL A   1      41.932  24.251  26.899  1.00  0.00     0.131 A 
ATOM     84  C   UNL A   1      43.795  23.234  25.136  1.00  0.00     0.055 A 
ATOM     85  C   UNL A   1      41.751  22.976  26.358  1.00  0.00     0.041 A 
ATOM     86  F   UNL A   1      41.019  24.629  27.807  1.00  0.00    -0.206 F 
ATOM     87  C   UNL A   1      42.685  22.458  25.478  1.00  0.00     0.022 A 
BRANCH  84  88
ATOM     88  S   UNL A   1      45.020  22.497  23.995  1.00  0.00     0.124 S 
ATOM     89  O   UNL A   1      45.495  21.345  24.752  1.00  0.00    -0.237 OA
ATOM     90  O   UNL A   1      44.216  22.212  22.813  1.00  0.00    -0.237 OA
ATOM     91  O   UNL A   1      46.008  23.563  23.819  1.00  0.00    -0.744 OA
ENDBRANCH  84  88
ENDBRANCH  57  81
BRANCH  69  92
ATOM     92  C   UNL A   1      45.818  30.022  29.583  1.00  0.00     0.023 A 
ATOM     93  C   UNL A   1      45.039  30.595  28.547  1.00  0.00     0.031 A 
ATOM     94  C   UNL A   1      47.049  30.631  29.883  1.00  0.00     0.131 A 
ATOM     95  C   UNL A   1      45.512  31.740  27.866  1.00  0.00     0.055 A 
ATOM     96  C   UNL A   1      47.498  31.772  29.225  1.00  0.00     0.041 A 
ATOM     97  F   UNL A   1      47.823  30.144  30.868  1.00  0.00    -0.206 F 
ATOM     98  C   UNL A   1      46.732  32.332  28.211  1.00  0.00     0.022 A 
BRANCH  95  99
ATOM     99  S   UNL A   1      44.552  32.490  26.504  1.00  0.00     0.124 S 
ATOM    100  O   UNL A   1      43.656  31.418  26.092  1.00  0.00    -0.237 OA
ATOM    101  O   UNL A   1      43.922  33.637  27.153  1.00  0.00    -0.237 OA
ATOM    102  O   UNL A   1      45.576  32.841  25.516  1.00  0.00    -0.744 OA
ENDBRANCH  95  99
ENDBRANCH  69  92
ENDBRANCH  43  44
ENDBRANCH  36  38
ENDBRANCH  35  36
ENDBRANCH  34  35
ENDBRANCH  33  34
ENDBRANCH  32  33
ENDBRANCH   1  32
TORSDOF 22
ENDMDL
MODEL 3
REMARK VINA RESULT:     -11.2      3.238      7.345
REMARK SMILES NS(=O)(=O)c1ccc(-n2nc(C(F)F)cc2-c2ccc(C(=O)OCCOCCOC(=O)c3ccc(-c4c5nc(c(-c6cc(S(=O)(=O)[O-])ccc6F)c6ccc([nH]6)c(-c6cc(S(=O)(=O)[O-])ccc6F)c6nc(c(-c7cc(S(=O)(=O)[O-])ccc7F)c7ccc4[nH]7)C=C6)C=C5)cc3)cc2)cc1
REMARK SMILES IDX 25 1 24 2 23 3 21 4 22 5 20 6 17 7 18 8 96 9 19 10 95 11
REMARK SMILES IDX 16 12 9 13 10 14 11 15 15 16 8 17 5 18 6 19 98 20 7 21 97 22
REMARK SMILES IDX 2 23 3 24 4 25 1 26 12 29 13 30 14 31 26 32 27 33 28 34
REMARK SMILES IDX 29 35 30 36 31 37 32 38 33 39 94 40 34 41 93 42 35 43 36 44
REMARK SMILES IDX 37 45 87 46 38 47 92 48 86 49 88 50 39 51 91 52 85 53 84 54
REMARK SMILES IDX 40 56 72 57 52 58 71 59 53 60 56 61 70 62 89 63 54 64 55 65
REMARK SMILES IDX 69 67 90 68 57 69 41 70 42 71 50 72 43 73 49 74 51 75 48 76
REMARK SMILES IDX 44 77 45 78 46 79 47 80 73 81 74 82 82 83 75 84 81 85 83 86
REMARK SMILES IDX 80 87 76 88 77 89 78 90 79 91 58 92 59 93 67 94 60 95 66 96
REMARK SMILES IDX 68 97 65 98 61 99 62 100 63 101 64 102
REMARK H PARENT 1 27 1 28 88 55 56 66
REMARK Flexibility Score: inf
ROOT
ATOM      1  C   UNL A   1      34.967  33.120  29.949  1.00  0.00     0.202 C 
ENDROOT
BRANCH   1   2
ATOM      2  C   UNL A   1      35.742  31.892  29.470  1.00  0.00     0.261 C 
BRANCH   2   3
ATOM      3  O   UNL A   1      35.436  31.532  28.115  1.00  0.00    -0.460 OA
BRANCH   3   4
ATOM      4  C   UNL A   1      35.141  30.223  27.950  1.00  0.00     0.338 C 
ATOM      5  O   UNL A   1      35.529  29.287  28.632  1.00  0.00    -0.246 OA
BRANCH   4   6
ATOM      6  C   UNL A   1      34.126  30.049  26.893  1.00  0.00     0.060 A 
ATOM      7  C   UNL A   1      31.999  29.567  25.152  1.00  0.00     0.000 A 
ATOM      8  C   UNL A   1      31.870  30.520  26.172  1.00  0.00     0.011 A 
ATOM      9  C   UNL A   1      33.225  28.916  24.963  1.00  0.00     0.011 A 
ATOM     10  C   UNL A   1      32.927  30.754  27.044  1.00  0.00     0.016 A 
ATOM     11  C   UNL A   1      34.299  29.166  25.823  1.00  0.00     0.016 A 
BRANCH   7  12
ATOM     12  C   UNL A   1      30.815  29.168  24.398  1.00  0.00     0.075 A 
ATOM     13  N   UNL A   1      30.491  27.873  24.011  1.00  0.00    -0.233 N 
ATOM     14  N   UNL A   1      29.599  27.867  22.985  1.00  0.00    -0.166 NA
ATOM     15  C   UNL A   1      29.172  29.139  22.894  1.00  0.00     0.129 A 
ATOM     16  C   UNL A   1      29.923  29.987  23.737  1.00  0.00     0.060 A 
BRANCH  13  17
ATOM     17  C   UNL A   1      30.991  26.660  24.550  1.00  0.00     0.065 A 
ATOM     18  C   UNL A   1      31.902  24.232  25.563  1.00  0.00     0.082 A 
ATOM     19  C   UNL A   1      32.318  24.647  24.296  1.00  0.00     0.024 A 
ATOM     20  C   UNL A   1      31.051  25.032  26.335  1.00  0.00     0.024 A 
ATOM     21  C   UNL A   1      31.848  25.856  23.782  1.00  0.00     0.030 A 
ATOM     22  C   UNL A   1      30.620  26.267  25.841  1.00  0.00     0.030 A 
BRANCH  18  23
ATOM     23  S   UNL A   1      32.427  22.664  26.194  1.00  0.00     0.238 S 
ATOM     24  O   UNL A   1      33.844  22.758  26.507  1.00  0.00    -0.207 OA
ATOM     25  O   UNL A   1      31.881  21.633  25.361  1.00  0.00    -0.207 OA
BRANCH  23  26
ATOM     26  N   UNL A   1      31.659  22.557  27.685  1.00  0.00    -0.225 NA
ATOM     27  H   UNL A   1      31.399  23.490  28.002  1.00  0.00     0.137 HD
ATOM     28  H   UNL A   1      32.292  22.132  28.363  1.00  0.00     0.137 HD
ENDBRANCH  23  26
ENDBRANCH  18  23
ENDBRANCH  13  17
BRANCH  15  29
ATOM     29  C   UNL A   1      28.074  29.571  21.968  1.00  0.00     0.393 C 
ATOM     30  F   UNL A   1      26.976  30.029  22.629  1.00  0.00    -0.203 F 
ATOM     31  F   UNL A   1      28.477  30.569  21.136  1.00  0.00    -0.203 F 
ENDBRANCH  15  29
ENDBRANCH   7  12
ENDBRANCH   4   6
ENDBRANCH   3   4
ENDBRANCH   2   3
ENDBRANCH   1   2
BRANCH   1  32
ATOM     32  O   UNL A   1      34.143  33.005  31.108  1.00  0.00    -0.374 OA
BRANCH  32  33
ATOM     33  C   UNL A   1      34.481  33.686  32.312  1.00  0.00     0.202 C 
BRANCH  33  34
ATOM     34  C   UNL A   1      35.406  33.013  33.316  1.00  0.00     0.261 C 
BRANCH  34  35
ATOM     35  O   UNL A   1      35.929  31.795  32.819  1.00  0.00    -0.460 OA
BRANCH  35  36
ATOM     36  C   UNL A   1      37.135  31.472  33.339  1.00  0.00     0.338 C 
ATOM     37  O   UNL A   1      37.524  31.677  34.476  1.00  0.00    -0.246 OA
BRANCH  36  38
ATOM     38  C   UNL A   1      37.969  30.926  32.267  1.00  0.00     0.060 A 
ATOM     39  C   UNL A   1      37.774  29.574  31.988  1.00  0.00     0.016 A 
ATOM     40  C   UNL A   1      39.129  31.616  31.885  1.00  0.00     0.016 A 
ATOM     41  C   UNL A   1      38.876  28.838  31.631  1.00  0.00     0.010 A 
ATOM     42  C   UNL A   1      40.227  30.878  31.541  1.00  0.00     0.010 A 
ATOM     43  C   UNL A   1      40.110  29.492  31.544  1.00  0.00    -0.014 A 
BRANCH  43  44
ATOM     44  C   UNL A   1      41.294  28.693  31.337  1.00  0.00     0.031 A 
ATOM     45  C   UNL A   1      41.967  28.425  32.622  1.00  0.00     0.074 A 
ATOM     46  C   UNL A   1      41.629  28.186  30.136  1.00  0.00     0.049 A 
ATOM     47  N   UNL A   1      43.011  29.016  33.099  1.00  0.00    -0.248 NA
ATOM     48  C   UNL A   1      41.225  27.630  33.618  1.00  0.00     0.031 C 
ATOM     49  C   UNL A   1      40.868  28.201  28.883  1.00  0.00     0.029 A 
ATOM     50  N   UNL A   1      42.727  27.462  29.805  1.00  0.00    -0.354 N 
ATOM     51  C   UNL A   1      43.209  28.431  34.342  1.00  0.00     0.074 A 
ATOM     52  C   UNL A   1      41.946  27.862  34.713  1.00  0.00     0.031 C 
ATOM     53  C   UNL A   1      41.421  27.321  28.010  1.00  0.00     0.029 A 
ATOM     54  C   UNL A   1      42.647  26.791  28.585  1.00  0.00     0.049 A 
ATOM     55  H   UNL A   1      43.522  27.412  30.384  1.00  0.00     0.167 HD
ATOM     56  C   UNL A   1      44.464  28.147  34.778  1.00  0.00     0.034 A 
ATOM     57  C   UNL A   1      43.505  25.823  28.146  1.00  0.00     0.034 A 
ATOM     58  C   UNL A   1      45.446  28.919  34.045  1.00  0.00     0.049 A 
ATOM     59  C   UNL A   1      44.757  26.000  28.935  1.00  0.00     0.074 A 
ATOM     60  C   UNL A   1      45.666  30.271  33.855  1.00  0.00     0.029 A 
ATOM     61  N   UNL A   1      46.125  28.288  33.025  1.00  0.00    -0.354 N 
ATOM     62  N   UNL A   1      45.505  27.070  28.853  1.00  0.00    -0.248 NA
ATOM     63  C   UNL A   1      44.877  25.258  30.184  1.00  0.00     0.031 C 
ATOM     64  C   UNL A   1      46.031  30.395  32.480  1.00  0.00     0.029 A 
ATOM     65  C   UNL A   1      46.113  29.115  31.928  1.00  0.00     0.049 A 
ATOM     66  H   UNL A   1      46.547  27.399  33.074  1.00  0.00     0.167 HD
ATOM     67  C   UNL A   1      45.861  27.369  30.162  1.00  0.00     0.074 A 
ATOM     68  C   UNL A   1      45.488  26.182  30.933  1.00  0.00     0.031 C 
ATOM     69  C   UNL A   1      46.141  28.649  30.551  1.00  0.00     0.034 A 
BRANCH  56  70
ATOM     70  C   UNL A   1      44.818  26.885  35.539  1.00  0.00     0.023 A 
ATOM     71  C   UNL A   1      44.752  25.678  34.822  1.00  0.00     0.031 A 
ATOM     72  C   UNL A   1      44.938  26.753  36.946  1.00  0.00     0.131 A 
ATOM     73  C   UNL A   1      44.696  24.445  35.491  1.00  0.00     0.055 A 
ATOM     74  C   UNL A   1      44.946  25.520  37.600  1.00  0.00     0.041 A 
ATOM     75  F   UNL A   1      44.966  27.790  37.787  1.00  0.00    -0.206 F 
ATOM     76  C   UNL A   1      44.790  24.356  36.876  1.00  0.00     0.022 A 
BRANCH  73  77
ATOM     77  S   UNL A   1      44.323  22.965  34.522  1.00  0.00     0.124 S 
ATOM     78  O   UNL A   1      42.868  23.038  34.427  1.00  0.00    -0.237 OA
ATOM     79  O   UNL A   1      45.064  23.221  33.292  1.00  0.00    -0.237 OA
ATOM     80  O   UNL A   1      44.841  21.880  35.350  1.00  0.00    -0.744 OA
ENDBRANCH  73  77
ENDBRANCH  56  70
BRANCH  57  81
ATOM     81  C   UNL A   1      43.128  24.528  27.490  1.00  0.00     0.023 A 
ATOM     82  C   UNL A   1      43.912  23.895  26.494  1.00  0.00     0.031 A 
ATOM     83  C   UNL A   1      42.075  23.757  28.036  1.00  0.00     0.131 A 
ATOM     84  C   UNL A   1      43.624  22.563  26.090  1.00  0.00     0.055 A 
ATOM     85  C   UNL A   1      41.802  22.445  27.640  1.00  0.00     0.041 A 
ATOM     86  F   UNL A   1      41.322  24.226  29.044  1.00  0.00    -0.206 F 
ATOM     87  C   UNL A   1      42.580  21.840  26.669  1.00  0.00     0.022 A 
BRANCH  84  88
ATOM     88  S   UNL A   1      44.646  21.712  24.835  1.00  0.00     0.124 S 
ATOM     89  O   UNL A   1      44.089  20.365  24.842  1.00  0.00    -0.237 OA
ATOM     90  O   UNL A   1      44.403  22.510  23.640  1.00  0.00    -0.237 OA
ATOM     91  O   UNL A   1      46.005  21.815  25.372  1.00  0.00    -0.744 OA
ENDBRANCH  84  88
ENDBRANCH  57  81
BRANCH  69  92
ATOM     92  C   UNL A   1      46.344  29.709  29.481  1.00  0.00     0.023 A 
ATOM     93  C   UNL A   1      45.346  30.573  28.967  1.00  0.00     0.031 A 
ATOM     94  C   UNL A   1      47.672  29.933  29.075  1.00  0.00     0.131 A 
ATOM     95  C   UNL A   1      45.709  31.617  28.085  1.00  0.00     0.055 A 
ATOM     96  C   UNL A   1      48.026  30.978  28.226  1.00  0.00     0.041 A 
ATOM     97  F   UNL A   1      48.664  29.158  29.545  1.00  0.00    -0.206 F 
ATOM     98  C   UNL A   1      47.045  31.824  27.725  1.00  0.00     0.022 A 
BRANCH  95  99
ATOM     99  S   UNL A   1      44.449  32.733  27.376  1.00  0.00     0.124 S 
ATOM    100  O   UNL A   1      45.185  33.969  27.144  1.00  0.00    -0.237 OA
ATOM    101  O   UNL A   1      44.018  32.011  26.182  1.00  0.00    -0.237 OA
ATOM    102  O   UNL A   1      43.435  32.819  28.431  1.00  0.00    -0.744 OA
ENDBRANCH  95  99
ENDBRANCH  69  92
ENDBRANCH  43  44
ENDBRANCH  36  38
ENDBRANCH  35  36
ENDBRANCH  34  35
ENDBRANCH  33  34
ENDBRANCH  32  33
ENDBRANCH   1  32
TORSDOF 22
ENDMDL
