MODEL 1
REMARK VINA RESULT:      -9.3      0.000      0.000
REMARK SMILES COc1ccc(-c2noc(C[N@H+]3CCCC[C@@H]3C(=O)OCCOCCOC(=O)c3ccc(-c4c5nc(c(-c6cc(S(=O)(=O)[O-])ccc6F)c6ccc([nH]6)c(-c6cc(S(=O)(=O)[O-])ccc6F)c6nc(c(-c7cc(S(=O)(=O)[O-])ccc7F)c7ccc4[nH]7)C=C6)C=C5)cc3)n2)cc1OC
REMARK SMILES IDX 22 1 21 2 20 3 18 4 19 5 17 6 12 7 13 8 14 10 16 11 15 12
REMARK SMILES IDX 11 13 10 14 7 15 8 16 92 17 9 18 6 19 3 20 4 21 94 22 5 23
REMARK SMILES IDX 93 24 2 25 1 26 95 27 96 28 23 29 24 30 25 31 26 32 27 33
REMARK SMILES IDX 28 34 29 35 30 36 91 37 31 38 90 39 32 40 33 41 34 42 84 43
REMARK SMILES IDX 35 44 89 45 83 46 85 47 36 48 88 49 82 50 81 51 37 53 69 54
REMARK SMILES IDX 49 55 68 56 50 57 53 58 67 59 86 60 51 61 52 62 66 64 87 65
REMARK SMILES IDX 54 66 38 67 39 68 47 69 40 70 46 71 48 72 45 73 41 74 42 75
REMARK SMILES IDX 43 76 44 77 70 78 71 79 79 80 72 81 78 82 80 83 77 84 73 85
REMARK SMILES IDX 74 86 75 87 76 88 55 89 56 90 64 91 57 92 63 93 65 94 62 95
REMARK SMILES IDX 58 96 59 97 60 98 61 99
REMARK H PARENT 12 9 85 52 53 63
REMARK Flexibility Score: inf
ROOT
ATOM      1  C   UNL A   1      44.559  43.087  30.775  1.00  0.00     0.202 C 
ENDROOT
BRANCH   1   2
ATOM      2  C   UNL A   1      45.499  42.471  29.733  1.00  0.00     0.261 C 
BRANCH   2   3
ATOM      3  O   UNL A   1      44.991  41.266  29.143  1.00  0.00    -0.459 OA
BRANCH   3   4
ATOM      4  C   UNL A   1      45.291  41.131  27.825  1.00  0.00     0.365 C 
ATOM      5  O   UNL A   1      46.393  41.383  27.343  1.00  0.00    -0.245 OA
BRANCH   4   6
ATOM      6  C   UNL A   1      44.120  40.614  26.966  1.00  0.00     0.295 C 
ATOM      7  N   UNL A   1      43.331  41.734  26.382  1.00  0.00    -0.315 N 
ATOM      8  C   UNL A   1      42.295  41.247  25.458  1.00  0.00     0.263 C 
ATOM      9  H   UNL A   1      42.878  42.180  27.181  1.00  0.00     0.349 HD
ATOM     10  C   UNL A   1      41.357  40.239  26.122  1.00  0.00     0.062 C 
ATOM     11  C   UNL A   1      43.196  39.626  27.697  1.00  0.00     0.078 C 
ATOM     12  C   UNL A   1      42.134  39.085  26.742  1.00  0.00     0.013 C 
BRANCH   7  13
ATOM     13  C   UNL A   1      44.155  42.790  25.738  1.00  0.00     0.364 C 
BRANCH  13  14
ATOM     14  C   UNL A   1      44.216  42.794  24.242  1.00  0.00     0.282 A 
ATOM     15  C   UNL A   1      43.939  43.026  22.183  1.00  0.00     0.202 A 
ATOM     16  N   UNL A   1      44.949  42.149  22.251  1.00  0.00    -0.057 NA
ATOM     17  N   UNL A   1      43.445  43.435  23.397  1.00  0.00    -0.186 NA
ATOM     18  O   UNL A   1      45.161  42.027  23.624  1.00  0.00    -0.333 OA
BRANCH  15  19
ATOM     19  C   UNL A   1      43.408  43.562  20.955  1.00  0.00     0.027 A 
ATOM     20  C   UNL A   1      42.409  44.790  18.659  1.00  0.00     0.160 A 
ATOM     21  C   UNL A   1      41.628  43.857  19.359  1.00  0.00     0.051 A 
ATOM     22  C   UNL A   1      43.697  45.112  19.103  1.00  0.00     0.161 A 
ATOM     23  C   UNL A   1      42.133  43.228  20.498  1.00  0.00     0.016 A 
ATOM     24  C   UNL A   1      44.181  44.494  20.254  1.00  0.00     0.062 A 
BRANCH  20  25
ATOM     25  O   UNL A   1      41.846  45.462  17.607  1.00  0.00    -0.493 OA
ATOM     26  C   UNL A   1      42.160  44.851  16.357  1.00  0.00     0.278 C 
ENDBRANCH  20  25
BRANCH  22  27
ATOM     27  O   UNL A   1      44.585  46.007  18.575  1.00  0.00    -0.493 OA
ATOM     28  C   UNL A   1      45.903  45.557  18.316  1.00  0.00     0.278 C 
ENDBRANCH  22  27
ENDBRANCH  15  19
ENDBRANCH  13  14
ENDBRANCH   7  13
ENDBRANCH   4   6
ENDBRANCH   3   4
ENDBRANCH   2   3
ENDBRANCH   1   2
BRANCH   1  29
ATOM     29  O   UNL A   1      43.202  42.658  30.794  1.00  0.00    -0.374 OA
BRANCH  29  30
ATOM     30  C   UNL A   1      42.358  43.091  31.859  1.00  0.00     0.202 C 
BRANCH  30  31
ATOM     31  C   UNL A   1      42.465  42.376  33.211  1.00  0.00     0.261 C 
BRANCH  31  32
ATOM     32  O   UNL A   1      42.496  40.943  33.074  1.00  0.00    -0.460 OA
BRANCH  32  33
ATOM     33  C   UNL A   1      43.571  40.348  33.645  1.00  0.00     0.338 C 
ATOM     34  O   UNL A   1      44.117  40.673  34.693  1.00  0.00    -0.246 OA
BRANCH  33  35
ATOM     35  C   UNL A   1      43.895  39.094  32.945  1.00  0.00     0.060 A 
ATOM     36  C   UNL A   1      43.577  39.010  31.581  1.00  0.00     0.016 A 
ATOM     37  C   UNL A   1      44.394  37.985  33.629  1.00  0.00     0.016 A 
ATOM     38  C   UNL A   1      43.698  37.796  30.909  1.00  0.00     0.010 A 
ATOM     39  C   UNL A   1      44.500  36.764  32.956  1.00  0.00     0.010 A 
ATOM     40  C   UNL A   1      44.109  36.655  31.607  1.00  0.00    -0.014 A 
BRANCH  40  41
ATOM     41  C   UNL A   1      43.915  35.316  31.000  1.00  0.00     0.031 A 
ATOM     42  C   UNL A   1      44.980  34.795  30.071  1.00  0.00     0.074 A 
ATOM     43  C   UNL A   1      42.839  34.564  31.289  1.00  0.00     0.049 A 
ATOM     44  N   UNL A   1      44.998  33.705  29.350  1.00  0.00    -0.248 NA
ATOM     45  C   UNL A   1      46.184  35.629  29.938  1.00  0.00     0.031 C 
ATOM     46  C   UNL A   1      41.786  34.926  32.236  1.00  0.00     0.029 A 
ATOM     47  N   UNL A   1      42.454  33.339  30.807  1.00  0.00    -0.354 N 
ATOM     48  C   UNL A   1      46.213  33.722  28.672  1.00  0.00     0.074 A 
ATOM     49  C   UNL A   1      46.880  34.954  29.037  1.00  0.00     0.031 C 
ATOM     50  C   UNL A   1      40.867  33.945  32.259  1.00  0.00     0.029 A 
ATOM     51  C   UNL A   1      41.243  32.911  31.295  1.00  0.00     0.049 A 
ATOM     52  H   UNL A   1      42.995  32.815  30.173  1.00  0.00     0.167 HD
ATOM     53  C   UNL A   1      46.728  32.792  27.829  1.00  0.00     0.034 A 
ATOM     54  C   UNL A   1      40.510  31.825  30.974  1.00  0.00     0.034 A 
ATOM     55  C   UNL A   1      46.037  31.582  27.461  1.00  0.00     0.049 A 
ATOM     56  C   UNL A   1      41.041  30.864  29.936  1.00  0.00     0.074 A 
ATOM     57  C   UNL A   1      46.447  30.578  26.600  1.00  0.00     0.029 A 
ATOM     58  N   UNL A   1      44.781  31.213  27.927  1.00  0.00    -0.354 N 
ATOM     59  N   UNL A   1      42.173  30.905  29.272  1.00  0.00    -0.248 NA
ATOM     60  C   UNL A   1      40.193  29.710  29.605  1.00  0.00     0.031 C 
ATOM     61  C   UNL A   1      45.413  29.642  26.493  1.00  0.00     0.029 A 
ATOM     62  C   UNL A   1      44.390  30.015  27.350  1.00  0.00     0.049 A 
ATOM     63  H   UNL A   1      44.246  31.728  28.573  1.00  0.00     0.167 HD
ATOM     64  C   UNL A   1      42.193  29.759  28.481  1.00  0.00     0.074 A 
ATOM     65  C   UNL A   1      40.956  29.052  28.744  1.00  0.00     0.031 C 
ATOM     66  C   UNL A   1      43.154  29.321  27.626  1.00  0.00     0.034 A 
BRANCH  53  67
ATOM     67  C   UNL A   1      48.072  33.097  27.210  1.00  0.00     0.023 A 
ATOM     68  C   UNL A   1      49.268  32.600  27.760  1.00  0.00     0.031 A 
ATOM     69  C   UNL A   1      48.165  33.948  26.096  1.00  0.00     0.131 A 
ATOM     70  C   UNL A   1      50.503  33.032  27.254  1.00  0.00     0.055 A 
ATOM     71  C   UNL A   1      49.397  34.302  25.540  1.00  0.00     0.041 A 
ATOM     72  F   UNL A   1      47.062  34.475  25.542  1.00  0.00    -0.206 F 
ATOM     73  C   UNL A   1      50.576  33.859  26.132  1.00  0.00     0.022 A 
BRANCH  70  74
ATOM     74  S   UNL A   1      52.006  32.641  28.192  1.00  0.00     0.124 S 
ATOM     75  O   UNL A   1      52.885  33.744  27.811  1.00  0.00    -0.237 OA
ATOM     76  O   UNL A   1      51.528  32.652  29.571  1.00  0.00    -0.237 OA
ATOM     77  O   UNL A   1      52.402  31.333  27.677  1.00  0.00    -0.744 OA
ENDBRANCH  70  74
ENDBRANCH  53  67
BRANCH  54  78
ATOM     78  C   UNL A   1      39.181  31.599  31.608  1.00  0.00     0.023 A 
ATOM     79  C   UNL A   1      38.002  32.060  31.001  1.00  0.00     0.031 A 
ATOM     80  C   UNL A   1      39.072  30.958  32.855  1.00  0.00     0.131 A 
ATOM     81  C   UNL A   1      36.770  31.907  31.657  1.00  0.00     0.055 A 
ATOM     82  C   UNL A   1      37.841  30.764  33.482  1.00  0.00     0.041 A 
ATOM     83  F   UNL A   1      40.169  30.501  33.482  1.00  0.00    -0.206 F 
ATOM     84  C   UNL A   1      36.680  31.251  32.887  1.00  0.00     0.022 A 
BRANCH  81  85
ATOM     85  S   UNL A   1      35.292  32.649  30.914  1.00  0.00     0.124 S 
ATOM     86  O   UNL A   1      35.705  34.039  30.758  1.00  0.00    -0.237 OA
ATOM     87  O   UNL A   1      35.154  31.879  29.683  1.00  0.00    -0.237 OA
ATOM     88  O   UNL A   1      34.254  32.413  31.914  1.00  0.00    -0.744 OA
ENDBRANCH  81  85
ENDBRANCH  54  78
BRANCH  66  89
ATOM     89  C   UNL A   1      42.941  27.977  26.973  1.00  0.00     0.023 A 
ATOM     90  C   UNL A   1      43.348  26.777  27.578  1.00  0.00     0.031 A 
ATOM     91  C   UNL A   1      42.296  27.906  25.724  1.00  0.00     0.131 A 
ATOM     92  C   UNL A   1      43.139  25.556  26.916  1.00  0.00     0.055 A 
ATOM     93  C   UNL A   1      42.046  26.686  25.095  1.00  0.00     0.041 A 
ATOM     94  F   UNL A   1      41.889  29.023  25.101  1.00  0.00    -0.206 F 
ATOM     95  C   UNL A   1      42.476  25.502  25.687  1.00  0.00     0.022 A 
BRANCH  92  96
ATOM     96  S   UNL A   1      43.801  24.037  27.652  1.00  0.00     0.124 S 
ATOM     97  O   UNL A   1      43.084  23.003  26.913  1.00  0.00    -0.237 OA
ATOM     98  O   UNL A   1      45.229  24.149  27.372  1.00  0.00    -0.237 OA
ATOM     99  O   UNL A   1      43.439  24.154  29.065  1.00  0.00    -0.744 OA
ENDBRANCH  92  96
ENDBRANCH  66  89
ENDBRANCH  40  41
ENDBRANCH  33  35
ENDBRANCH  32  33
ENDBRANCH  31  32
ENDBRANCH  30  31
ENDBRANCH  29  30
ENDBRANCH   1  29
TORSDOF 22
ENDMDL
MODEL 2
REMARK VINA RESULT:      -9.2      4.529      7.464
REMARK SMILES COc1ccc(-c2noc(C[N@H+]3CCCC[C@@H]3C(=O)OCCOCCOC(=O)c3ccc(-c4c5nc(c(-c6cc(S(=O)(=O)[O-])ccc6F)c6ccc([nH]6)c(-c6cc(S(=O)(=O)[O-])ccc6F)c6nc(c(-c7cc(S(=O)(=O)[O-])ccc7F)c7ccc4[nH]7)C=C6)C=C5)cc3)n2)cc1OC
REMARK SMILES IDX 22 1 21 2 20 3 18 4 19 5 17 6 12 7 13 8 14 10 16 11 15 12
REMARK SMILES IDX 11 13 10 14 7 15 8 16 92 17 9 18 6 19 3 20 4 21 94 22 5 23
REMARK SMILES IDX 93 24 2 25 1 26 95 27 96 28 23 29 24 30 25 31 26 32 27 33
REMARK SMILES IDX 28 34 29 35 30 36 91 37 31 38 90 39 32 40 33 41 34 42 84 43
REMARK SMILES IDX 35 44 89 45 83 46 85 47 36 48 88 49 82 50 81 51 37 53 69 54
REMARK SMILES IDX 49 55 68 56 50 57 53 58 67 59 86 60 51 61 52 62 66 64 87 65
REMARK SMILES IDX 54 66 38 67 39 68 47 69 40 70 46 71 48 72 45 73 41 74 42 75
REMARK SMILES IDX 43 76 44 77 70 78 71 79 79 80 72 81 78 82 80 83 77 84 73 85
REMARK SMILES IDX 74 86 75 87 76 88 55 89 56 90 64 91 57 92 63 93 65 94 62 95
REMARK SMILES IDX 58 96 59 97 60 98 61 99
REMARK H PARENT 12 9 85 52 53 63
REMARK Flexibility Score: inf
ROOT
ATOM      1  C   UNL A   1      48.720  39.519  30.234  1.00  0.00     0.202 C 
ENDROOT
BRANCH   1   2
ATOM      2  C   UNL A   1      47.765  39.907  29.101  1.00  0.00     0.261 C 
BRANCH   2   3
ATOM      3  O   UNL A   1      46.459  40.287  29.556  1.00  0.00    -0.459 OA
BRANCH   3   4
ATOM      4  C   UNL A   1      45.495  39.369  29.289  1.00  0.00     0.365 C 
ATOM      5  O   UNL A   1      45.682  38.351  28.626  1.00  0.00    -0.245 OA
BRANCH   4   6
ATOM      6  C   UNL A   1      44.123  39.703  29.907  1.00  0.00     0.295 C 
ATOM      7  N   UNL A   1      43.306  40.557  29.000  1.00  0.00    -0.315 N 
ATOM      8  C   UNL A   1      41.949  40.770  29.528  1.00  0.00     0.263 C 
ATOM      9  H   UNL A   1      43.795  41.453  28.975  1.00  0.00     0.349 HD
ATOM     10  C   UNL A   1      41.964  41.367  30.935  1.00  0.00     0.062 C 
ATOM     11  C   UNL A   1      44.203  40.326  31.310  1.00  0.00     0.078 C 
ATOM     12  C   UNL A   1      42.802  40.523  31.886  1.00  0.00     0.013 C 
BRANCH   7  13
ATOM     13  C   UNL A   1      43.254  40.079  27.594  1.00  0.00     0.364 C 
BRANCH  13  14
ATOM     14  C   UNL A   1      43.427  41.101  26.515  1.00  0.00     0.282 A 
ATOM     15  C   UNL A   1      43.497  42.231  24.757  1.00  0.00     0.202 A 
ATOM     16  N   UNL A   1      44.202  42.976  25.618  1.00  0.00    -0.057 NA
ATOM     17  N   UNL A   1      43.016  41.052  25.271  1.00  0.00    -0.186 NA
ATOM     18  O   UNL A   1      44.119  42.243  26.802  1.00  0.00    -0.333 OA
BRANCH  15  19
ATOM     19  C   UNL A   1      43.202  42.616  23.400  1.00  0.00     0.027 A 
ATOM     20  C   UNL A   1      42.747  43.532  20.805  1.00  0.00     0.160 A 
ATOM     21  C   UNL A   1      41.666  43.267  21.662  1.00  0.00     0.051 A 
ATOM     22  C   UNL A   1      44.062  43.335  21.242  1.00  0.00     0.161 A 
ATOM     23  C   UNL A   1      41.892  42.792  22.955  1.00  0.00     0.016 A 
ATOM     24  C   UNL A   1      44.274  42.883  22.542  1.00  0.00     0.062 A 
BRANCH  20  25
ATOM     25  O   UNL A   1      42.495  44.092  19.581  1.00  0.00    -0.493 OA
ATOM     26  C   UNL A   1      41.159  43.839  19.147  1.00  0.00     0.278 C 
ENDBRANCH  20  25
BRANCH  22  27
ATOM     27  O   UNL A   1      45.230  43.562  20.568  1.00  0.00    -0.493 OA
ATOM     28  C   UNL A   1      46.038  44.646  20.992  1.00  0.00     0.278 C 
ENDBRANCH  22  27
ENDBRANCH  15  19
ENDBRANCH  13  14
ENDBRANCH   7  13
ENDBRANCH   4   6
ENDBRANCH   3   4
ENDBRANCH   2   3
ENDBRANCH   1   2
BRANCH   1  29
ATOM     29  O   UNL A   1      50.065  39.979  30.167  1.00  0.00    -0.374 OA
BRANCH  29  30
ATOM     30  C   UNL A   1      51.029  39.419  31.059  1.00  0.00     0.202 C 
BRANCH  30  31
ATOM     31  C   UNL A   1      50.677  39.324  32.548  1.00  0.00     0.261 C 
BRANCH  31  32
ATOM     32  O   UNL A   1      50.379  37.976  32.956  1.00  0.00    -0.460 OA
BRANCH  32  33
ATOM     33  C   UNL A   1      50.173  37.826  34.287  1.00  0.00     0.338 C 
ATOM     34  O   UNL A   1      50.946  38.131  35.187  1.00  0.00    -0.246 OA
BRANCH  33  35
ATOM     35  C   UNL A   1      48.779  37.428  34.548  1.00  0.00     0.060 A 
ATOM     36  C   UNL A   1      48.511  36.061  34.704  1.00  0.00     0.016 A 
ATOM     37  C   UNL A   1      47.740  38.359  34.526  1.00  0.00     0.016 A 
ATOM     38  C   UNL A   1      47.196  35.610  34.778  1.00  0.00     0.010 A 
ATOM     39  C   UNL A   1      46.419  37.903  34.586  1.00  0.00     0.010 A 
ATOM     40  C   UNL A   1      46.143  36.524  34.665  1.00  0.00    -0.014 A 
BRANCH  40  41
ATOM     41  C   UNL A   1      44.769  36.029  34.401  1.00  0.00     0.031 A 
ATOM     42  C   UNL A   1      44.355  35.810  32.970  1.00  0.00     0.074 A 
ATOM     43  C   UNL A   1      43.920  35.750  35.404  1.00  0.00     0.049 A 
ATOM     44  N   UNL A   1      43.191  35.475  32.480  1.00  0.00    -0.248 NA
ATOM     45  C   UNL A   1      45.404  36.003  31.958  1.00  0.00     0.031 C 
ATOM     46  C   UNL A   1      44.236  35.844  36.828  1.00  0.00     0.029 A 
ATOM     47  N   UNL A   1      42.613  35.334  35.374  1.00  0.00    -0.354 N 
ATOM     48  C   UNL A   1      43.363  35.422  31.100  1.00  0.00     0.074 A 
ATOM     49  C   UNL A   1      44.735  35.802  30.834  1.00  0.00     0.031 C 
ATOM     50  C   UNL A   1      43.145  35.503  37.537  1.00  0.00     0.029 A 
ATOM     51  C   UNL A   1      42.045  35.214  36.619  1.00  0.00     0.049 A 
ATOM     52  H   UNL A   1      42.129  35.139  34.539  1.00  0.00     0.167 HD
ATOM     53  C   UNL A   1      42.464  35.078  30.145  1.00  0.00     0.034 A 
ATOM     54  C   UNL A   1      40.773  34.935  36.972  1.00  0.00     0.034 A 
ATOM     55  C   UNL A   1      41.096  34.724  30.430  1.00  0.00     0.049 A 
ATOM     56  C   UNL A   1      39.752  34.681  35.888  1.00  0.00     0.074 A 
ATOM     57  C   UNL A   1      40.088  34.381  29.545  1.00  0.00     0.029 A 
ATOM     58  N   UNL A   1      40.538  34.676  31.702  1.00  0.00    -0.354 N 
ATOM     59  N   UNL A   1      39.912  34.667  34.585  1.00  0.00    -0.248 NA
ATOM     60  C   UNL A   1      38.375  34.405  36.324  1.00  0.00     0.031 C 
ATOM     61  C   UNL A   1      38.908  34.195  30.273  1.00  0.00     0.029 A 
ATOM     62  C   UNL A   1      39.196  34.339  31.622  1.00  0.00     0.049 A 
ATOM     63  H   UNL A   1      41.025  34.856  32.538  1.00  0.00     0.167 HD
ATOM     64  C   UNL A   1      38.670  34.335  34.050  1.00  0.00     0.074 A 
ATOM     65  C   UNL A   1      37.768  34.166  35.170  1.00  0.00     0.031 C 
ATOM     66  C   UNL A   1      38.310  34.169  32.751  1.00  0.00     0.034 A 
BRANCH  53  67
ATOM     67  C   UNL A   1      42.930  35.140  28.709  1.00  0.00     0.023 A 
ATOM     68  C   UNL A   1      43.719  34.120  28.145  1.00  0.00     0.031 A 
ATOM     69  C   UNL A   1      42.640  36.262  27.914  1.00  0.00     0.131 A 
ATOM     70  C   UNL A   1      44.265  34.286  26.864  1.00  0.00     0.055 A 
ATOM     71  C   UNL A   1      43.113  36.379  26.605  1.00  0.00     0.041 A 
ATOM     72  F   UNL A   1      41.914  37.279  28.404  1.00  0.00    -0.206 F 
ATOM     73  C   UNL A   1      43.947  35.396  26.079  1.00  0.00     0.022 A 
BRANCH  70  74
ATOM     74  S   UNL A   1      45.538  33.119  26.308  1.00  0.00     0.124 S 
ATOM     75  O   UNL A   1      46.481  34.010  25.636  1.00  0.00    -0.237 OA
ATOM     76  O   UNL A   1      45.996  32.532  27.562  1.00  0.00    -0.237 OA
ATOM     77  O   UNL A   1      44.810  32.213  25.422  1.00  0.00    -0.744 OA
ENDBRANCH  70  74
ENDBRANCH  53  67
BRANCH  54  78
ATOM     78  C   UNL A   1      40.377  34.914  38.408  1.00  0.00     0.023 A 
ATOM     79  C   UNL A   1      40.654  33.801  39.218  1.00  0.00     0.031 A 
ATOM     80  C   UNL A   1      39.675  35.989  38.983  1.00  0.00     0.131 A 
ATOM     81  C   UNL A   1      40.198  33.771  40.546  1.00  0.00     0.055 A 
ATOM     82  C   UNL A   1      39.268  35.976  40.317  1.00  0.00     0.041 A 
ATOM     83  F   UNL A   1      39.382  37.077  38.251  1.00  0.00    -0.206 F 
ATOM     84  C   UNL A   1      39.519  34.856  41.105  1.00  0.00     0.022 A 
BRANCH  81  85
ATOM     85  S   UNL A   1      40.441  32.257  41.513  1.00  0.00     0.124 S 
ATOM     86  O   UNL A   1      40.652  32.793  42.853  1.00  0.00    -0.237 OA
ATOM     87  O   UNL A   1      39.182  31.553  41.294  1.00  0.00    -0.237 OA
ATOM     88  O   UNL A   1      41.612  31.642  40.894  1.00  0.00    -0.744 OA
ENDBRANCH  81  85
ENDBRANCH  54  78
BRANCH  66  89
ATOM     89  C   UNL A   1      36.900  33.708  32.474  1.00  0.00     0.023 A 
ATOM     90  C   UNL A   1      35.863  34.606  32.173  1.00  0.00     0.031 A 
ATOM     91  C   UNL A   1      36.602  32.333  32.496  1.00  0.00     0.131 A 
ATOM     92  C   UNL A   1      34.566  34.121  31.940  1.00  0.00     0.055 A 
ATOM     93  C   UNL A   1      35.323  31.853  32.213  1.00  0.00     0.041 A 
ATOM     94  F   UNL A   1      37.556  31.432  32.780  1.00  0.00    -0.206 F 
ATOM     95  C   UNL A   1      34.294  32.750  31.942  1.00  0.00     0.022 A 
BRANCH  92  96
ATOM     96  S   UNL A   1      33.219  35.309  31.695  1.00  0.00     0.124 S 
ATOM     97  O   UNL A   1      33.867  36.576  32.019  1.00  0.00    -0.237 OA
ATOM     98  O   UNL A   1      32.875  35.109  30.291  1.00  0.00    -0.237 OA
ATOM     99  O   UNL A   1      32.198  34.874  32.648  1.00  0.00    -0.744 OA
ENDBRANCH  92  96
ENDBRANCH  66  89
ENDBRANCH  40  41
ENDBRANCH  33  35
ENDBRANCH  32  33
ENDBRANCH  31  32
ENDBRANCH  30  31
ENDBRANCH  29  30
ENDBRANCH   1  29
TORSDOF 22
ENDMDL
MODEL 3
REMARK VINA RESULT:      -9.1      8.826     14.468
REMARK SMILES COc1ccc(-c2noc(C[N@H+]3CCCC[C@@H]3C(=O)OCCOCCOC(=O)c3ccc(-c4c5nc(c(-c6cc(S(=O)(=O)[O-])ccc6F)c6ccc([nH]6)c(-c6cc(S(=O)(=O)[O-])ccc6F)c6nc(c(-c7cc(S(=O)(=O)[O-])ccc7F)c7ccc4[nH]7)C=C6)C=C5)cc3)n2)cc1OC
REMARK SMILES IDX 22 1 21 2 20 3 18 4 19 5 17 6 12 7 13 8 14 10 16 11 15 12
REMARK SMILES IDX 11 13 10 14 7 15 8 16 92 17 9 18 6 19 3 20 4 21 94 22 5 23
REMARK SMILES IDX 93 24 2 25 1 26 95 27 96 28 23 29 24 30 25 31 26 32 27 33
REMARK SMILES IDX 28 34 29 35 30 36 91 37 31 38 90 39 32 40 33 41 34 42 84 43
REMARK SMILES IDX 35 44 89 45 83 46 85 47 36 48 88 49 82 50 81 51 37 53 69 54
REMARK SMILES IDX 49 55 68 56 50 57 53 58 67 59 86 60 51 61 52 62 66 64 87 65
REMARK SMILES IDX 54 66 38 67 39 68 47 69 40 70 46 71 48 72 45 73 41 74 42 75
REMARK SMILES IDX 43 76 44 77 70 78 71 79 79 80 72 81 78 82 80 83 77 84 73 85
REMARK SMILES IDX 74 86 75 87 76 88 55 89 56 90 64 91 57 92 63 93 65 94 62 95
REMARK SMILES IDX 58 96 59 97 60 98 61 99
REMARK H PARENT 12 9 85 52 53 63
REMARK Flexibility Score: inf
ROOT
ATOM      1  C   UNL A   1      33.590  29.725  25.728  1.00  0.00     0.202 C 
ENDROOT
BRANCH   1   2
ATOM      2  C   UNL A   1      33.268  28.280  26.123  1.00  0.00     0.261 C 
BRANCH   2   3
ATOM      3  O   UNL A   1      31.939  27.872  25.772  1.00  0.00    -0.459 OA
BRANCH   3   4
ATOM      4  C   UNL A   1      31.674  27.947  24.442  1.00  0.00     0.365 C 
ATOM      5  O   UNL A   1      32.494  27.688  23.564  1.00  0.00    -0.245 OA
BRANCH   4   6
ATOM      6  C   UNL A   1      30.231  28.379  24.113  1.00  0.00     0.295 C 
ATOM      7  N   UNL A   1      29.390  27.218  23.709  1.00  0.00    -0.315 N 
ATOM      8  C   UNL A   1      27.982  27.605  23.522  1.00  0.00     0.263 C 
ATOM      9  H   UNL A   1      29.772  26.917  22.812  1.00  0.00     0.349 HD
ATOM     10  C   UNL A   1      27.826  28.741  22.511  1.00  0.00     0.062 C 
ATOM     11  C   UNL A   1      30.137  29.504  23.070  1.00  0.00     0.078 C 
ATOM     12  C   UNL A   1      28.685  29.940  22.887  1.00  0.00     0.013 C 
BRANCH   7  13
ATOM     13  C   UNL A   1      29.496  26.044  24.614  1.00  0.00     0.364 C 
BRANCH  13  14
ATOM     14  C   UNL A   1      30.463  24.968  24.230  1.00  0.00     0.282 A 
ATOM     15  C   UNL A   1      32.053  23.629  24.008  1.00  0.00     0.202 A 
ATOM     16  N   UNL A   1      31.291  23.367  22.938  1.00  0.00    -0.057 NA
ATOM     17  N   UNL A   1      31.582  24.629  24.823  1.00  0.00    -0.186 NA
ATOM     18  O   UNL A   1      30.209  24.231  23.109  1.00  0.00    -0.333 OA
BRANCH  15  19
ATOM     19  C   UNL A   1      33.258  22.913  24.343  1.00  0.00     0.027 A 
ATOM     20  C   UNL A   1      35.501  21.479  25.176  1.00  0.00     0.160 A 
ATOM     21  C   UNL A   1      35.620  22.829  24.807  1.00  0.00     0.051 A 
ATOM     22  C   UNL A   1      34.257  20.838  25.126  1.00  0.00     0.161 A 
ATOM     23  C   UNL A   1      34.502  23.543  24.373  1.00  0.00     0.016 A 
ATOM     24  C   UNL A   1      33.145  21.569  24.714  1.00  0.00     0.062 A 
BRANCH  20  25
ATOM     25  O   UNL A   1      36.595  20.839  25.692  1.00  0.00    -0.493 OA
ATOM     26  C   UNL A   1      37.411  20.271  24.668  1.00  0.00     0.278 C 
ENDBRANCH  20  25
BRANCH  22  27
ATOM     27  O   UNL A   1      33.943  19.553  25.470  1.00  0.00    -0.493 OA
ATOM     28  C   UNL A   1      33.938  18.577  24.443  1.00  0.00     0.278 C 
ENDBRANCH  22  27
ENDBRANCH  15  19
ENDBRANCH  13  14
ENDBRANCH   7  13
ENDBRANCH   4   6
ENDBRANCH   3   4
ENDBRANCH   2   3
ENDBRANCH   1   2
BRANCH   1  29
ATOM     29  O   UNL A   1      34.659  30.383  26.398  1.00  0.00    -0.374 OA
BRANCH  29  30
ATOM     30  C   UNL A   1      34.561  30.600  27.806  1.00  0.00     0.202 C 
BRANCH  30  31
ATOM     31  C   UNL A   1      33.555  31.640  28.314  1.00  0.00     0.261 C 
BRANCH  31  32
ATOM     32  O   UNL A   1      33.674  32.899  27.628  1.00  0.00    -0.460 OA
BRANCH  32  33
ATOM     33  C   UNL A   1      33.702  33.982  28.443  1.00  0.00     0.338 C 
ATOM     34  O   UNL A   1      32.866  34.876  28.503  1.00  0.00    -0.246 OA
BRANCH  33  35
ATOM     35  C   UNL A   1      34.788  33.852  29.429  1.00  0.00     0.060 A 
ATOM     36  C   UNL A   1      36.086  34.183  29.014  1.00  0.00     0.016 A 
ATOM     37  C   UNL A   1      34.561  33.313  30.695  1.00  0.00     0.016 A 
ATOM     38  C   UNL A   1      37.173  33.916  29.842  1.00  0.00     0.010 A 
ATOM     39  C   UNL A   1      35.655  33.032  31.519  1.00  0.00     0.010 A 
ATOM     40  C   UNL A   1      36.968  33.290  31.076  1.00  0.00    -0.014 A 
BRANCH  40  41
ATOM     41  C   UNL A   1      38.121  32.701  31.800  1.00  0.00     0.031 A 
ATOM     42  C   UNL A   1      38.849  31.549  31.159  1.00  0.00     0.074 A 
ATOM     43  C   UNL A   1      38.535  33.194  32.979  1.00  0.00     0.049 A 
ATOM     44  N   UNL A   1      39.820  30.810  31.629  1.00  0.00    -0.248 NA
ATOM     45  C   UNL A   1      38.412  31.182  29.804  1.00  0.00     0.031 C 
ATOM     46  C   UNL A   1      37.962  34.356  33.656  1.00  0.00     0.029 A 
ATOM     47  N   UNL A   1      39.534  32.772  33.820  1.00  0.00    -0.354 N 
ATOM     48  C   UNL A   1      40.107  29.885  30.630  1.00  0.00     0.074 A 
ATOM     49  C   UNL A   1      39.177  30.133  29.549  1.00  0.00     0.031 C 
ATOM     50  C   UNL A   1      38.615  34.549  34.815  1.00  0.00     0.029 A 
ATOM     51  C   UNL A   1      39.617  33.497  34.983  1.00  0.00     0.049 A 
ATOM     52  H   UNL A   1      40.134  32.020  33.608  1.00  0.00     0.167 HD
ATOM     53  C   UNL A   1      41.065  28.925  30.612  1.00  0.00     0.034 A 
ATOM     54  C   UNL A   1      40.394  33.311  36.071  1.00  0.00     0.034 A 
ATOM     55  C   UNL A   1      41.968  28.681  31.708  1.00  0.00     0.049 A 
ATOM     56  C   UNL A   1      41.367  32.156  36.086  1.00  0.00     0.074 A 
ATOM     57  C   UNL A   1      42.962  27.723  31.815  1.00  0.00     0.029 A 
ATOM     58  N   UNL A   1      41.981  29.397  32.900  1.00  0.00    -0.354 N 
ATOM     59  N   UNL A   1      41.610  31.265  35.153  1.00  0.00    -0.248 NA
ATOM     60  C   UNL A   1      42.173  31.983  37.303  1.00  0.00     0.031 C 
ATOM     61  C   UNL A   1      43.526  27.815  33.092  1.00  0.00     0.029 A 
ATOM     62  C   UNL A   1      42.943  28.884  33.755  1.00  0.00     0.049 A 
ATOM     63  H   UNL A   1      41.391  30.157  33.106  1.00  0.00     0.167 HD
ATOM     64  C   UNL A   1      42.627  30.455  35.653  1.00  0.00     0.074 A 
ATOM     65  C   UNL A   1      42.946  30.958  36.973  1.00  0.00     0.031 C 
ATOM     66  C   UNL A   1      43.252  29.401  35.068  1.00  0.00     0.034 A 
BRANCH  53  67
ATOM     67  C   UNL A   1      41.125  28.039  29.390  1.00  0.00     0.023 A 
ATOM     68  C   UNL A   1      42.105  28.218  28.395  1.00  0.00     0.031 A 
ATOM     69  C   UNL A   1      40.153  27.046  29.183  1.00  0.00     0.131 A 
ATOM     70  C   UNL A   1      42.034  27.483  27.203  1.00  0.00     0.055 A 
ATOM     71  C   UNL A   1      40.142  26.254  28.032  1.00  0.00     0.041 A 
ATOM     72  F   UNL A   1      39.178  26.843  30.082  1.00  0.00    -0.206 F 
ATOM     73  C   UNL A   1      41.075  26.484  27.025  1.00  0.00     0.022 A 
BRANCH  70  74
ATOM     74  S   UNL A   1      43.099  27.974  25.819  1.00  0.00     0.124 S 
ATOM     75  O   UNL A   1      42.174  27.892  24.692  1.00  0.00    -0.237 OA
ATOM     76  O   UNL A   1      43.518  29.317  26.206  1.00  0.00    -0.237 OA
ATOM     77  O   UNL A   1      44.155  26.963  25.823  1.00  0.00    -0.744 OA
ENDBRANCH  70  74
ENDBRANCH  53  67
BRANCH  54  78
ATOM     78  C   UNL A   1      40.265  34.211  37.251  1.00  0.00     0.023 A 
ATOM     79  C   UNL A   1      41.233  35.191  37.522  1.00  0.00     0.031 A 
ATOM     80  C   UNL A   1      39.194  34.076  38.152  1.00  0.00     0.131 A 
ATOM     81  C   UNL A   1      41.132  35.972  38.685  1.00  0.00     0.055 A 
ATOM     82  C   UNL A   1      39.070  34.888  39.280  1.00  0.00     0.041 A 
ATOM     83  F   UNL A   1      38.242  33.152  37.941  1.00  0.00    -0.206 F 
ATOM     84  C   UNL A   1      40.050  35.836  39.559  1.00  0.00     0.022 A 
BRANCH  81  85
ATOM     85  S   UNL A   1      42.479  37.119  39.080  1.00  0.00     0.124 S 
ATOM     86  O   UNL A   1      43.426  36.242  39.758  1.00  0.00    -0.237 OA
ATOM     87  O   UNL A   1      42.873  37.590  37.757  1.00  0.00    -0.237 OA
ATOM     88  O   UNL A   1      41.835  38.120  39.929  1.00  0.00    -0.744 OA
ENDBRANCH  81  85
ENDBRANCH  54  78
BRANCH  66  89
ATOM     89  C   UNL A   1      44.399  28.770  35.819  1.00  0.00     0.023 A 
ATOM     90  C   UNL A   1      44.209  27.717  36.731  1.00  0.00     0.031 A 
ATOM     91  C   UNL A   1      45.711  29.225  35.596  1.00  0.00     0.131 A 
ATOM     92  C   UNL A   1      45.311  27.179  37.414  1.00  0.00     0.055 A 
ATOM     93  C   UNL A   1      46.808  28.652  36.239  1.00  0.00     0.041 A 
ATOM     94  F   UNL A   1      45.948  30.229  34.736  1.00  0.00    -0.206 F 
ATOM     95  C   UNL A   1      46.611  27.629  37.161  1.00  0.00     0.022 A 
BRANCH  92  96
ATOM     96  S   UNL A   1      45.022  25.922  38.688  1.00  0.00     0.124 S 
ATOM     97  O   UNL A   1      46.383  25.567  39.079  1.00  0.00    -0.237 OA
ATOM     98  O   UNL A   1      44.243  26.655  39.681  1.00  0.00    -0.237 OA
ATOM     99  O   UNL A   1      44.288  24.875  37.978  1.00  0.00    -0.744 OA
ENDBRANCH  92  96
ENDBRANCH  66  89
ENDBRANCH  40  41
ENDBRANCH  33  35
ENDBRANCH  32  33
ENDBRANCH  31  32
ENDBRANCH  30  31
ENDBRANCH  29  30
ENDBRANCH   1  29
TORSDOF 22
ENDMDL
