MODEL 1
REMARK VINA RESULT:     -12.2      0.000      0.000
REMARK SMILES Cc1ccc(-c2cncc(C#N)c2)cc1C(=O)OCCOCCOC(=O)c1ccc(-c2c3nc(c(-c4cc(S(=O)(=O)[O-])ccc4F)c4ccc([nH]4)c(-c4cc(S(=O)(=O)[O-])ccc4F)c4nc(c(-c5cc(S(=O)(=O)[O-])ccc5F)c5ccc2[nH]5)C=C4)C=C3)cc1
REMARK SMILES IDX 22 1 21 2 20 3 19 4 18 5 16 6 17 7 15 8 1 9 2 10 3 11 4 12
REMARK SMILES IDX 14 13 5 14 6 15 7 16 13 17 8 18 10 19 9 20 11 21 12 22 23 23
REMARK SMILES IDX 24 24 25 25 26 26 27 27 28 28 89 29 29 30 88 31 30 32 31 33
REMARK SMILES IDX 32 34 82 35 33 36 87 37 81 38 83 39 34 40 86 41 80 42 79 43
REMARK SMILES IDX 35 45 67 46 47 47 66 48 48 49 51 50 65 51 84 52 49 53 50 54
REMARK SMILES IDX 64 56 85 57 52 58 36 59 37 60 45 61 38 62 44 63 46 64 43 65
REMARK SMILES IDX 39 66 40 67 41 68 42 69 68 70 69 71 77 72 70 73 76 74 78 75
REMARK SMILES IDX 75 76 71 77 72 78 73 79 74 80 53 81 54 82 62 83 55 84 61 85
REMARK SMILES IDX 63 86 60 87 56 88 57 89 58 90 59 91
REMARK H PARENT 83 44 51 55
REMARK Flexibility Score: inf
ROOT
ATOM      1  C   UNL A   1      38.826  21.345  26.062  1.00  0.00     0.202 C 
ENDROOT
BRANCH   1   2
ATOM      2  O   UNL A   1      38.168  21.995  25.011  1.00  0.00    -0.374 OA
BRANCH   2   3
ATOM      3  C   UNL A   1      36.832  22.382  25.300  1.00  0.00     0.202 C 
BRANCH   3   4
ATOM      4  C   UNL A   1      36.666  23.595  24.485  1.00  0.00     0.261 C 
BRANCH   4   5
ATOM      5  O   UNL A   1      35.384  24.175  24.726  1.00  0.00    -0.460 OA
BRANCH   5   6
ATOM      6  C   UNL A   1      34.387  24.166  23.833  1.00  0.00     0.338 C 
ATOM      7  O   UNL A   1      34.354  24.678  22.727  1.00  0.00    -0.246 OA
BRANCH   6   8
ATOM      8  C   UNL A   1      33.378  23.219  24.367  1.00  0.00     0.063 A 
ATOM      9  C   UNL A   1      32.140  24.826  26.032  1.00  0.00     0.045 C 
ATOM     10  C   UNL A   1      32.467  23.485  25.418  1.00  0.00    -0.037 A 
ATOM     11  C   UNL A   1      31.744  22.407  25.948  1.00  0.00     0.005 A 
ATOM     12  C   UNL A   1      31.918  21.112  25.466  1.00  0.00     0.009 A 
ATOM     13  C   UNL A   1      33.506  21.918  23.856  1.00  0.00     0.024 A 
ATOM     14  C   UNL A   1      32.795  20.854  24.410  1.00  0.00    -0.016 A 
BRANCH  14  15
ATOM     15  C   UNL A   1      33.007  19.496  23.930  1.00  0.00     0.001 A 
ATOM     16  C   UNL A   1      32.370  19.028  22.782  1.00  0.00     0.119 A 
ATOM     17  C   UNL A   1      33.846  18.606  24.612  1.00  0.00     0.031 A 
ATOM     18  N   UNL A   1      32.489  17.765  22.308  1.00  0.00    -0.263 NA
ATOM     19  C   UNL A   1      33.999  17.304  24.142  1.00  0.00     0.071 A 
ATOM     20  C   UNL A   1      33.307  16.937  22.998  1.00  0.00     0.130 A 
BRANCH  19  21
ATOM     21  C   UNL A   1      34.825  16.355  24.827  1.00  0.00     0.101 C 
ATOM     22  N   UNL A   1      35.477  15.572  25.368  1.00  0.00    -0.192 NA
ENDBRANCH  19  21
ENDBRANCH  14  15
ENDBRANCH   6   8
ENDBRANCH   5   6
ENDBRANCH   4   5
ENDBRANCH   3   4
ENDBRANCH   2   3
ENDBRANCH   1   2
BRANCH   1  23
ATOM     23  C   UNL A   1      40.055  22.139  26.513  1.00  0.00     0.261 C 
BRANCH  23  24
ATOM     24  O   UNL A   1      39.634  23.326  27.238  1.00  0.00    -0.460 OA
BRANCH  24  25
ATOM     25  C   UNL A   1      40.612  24.153  27.720  1.00  0.00     0.338 C 
ATOM     26  O   UNL A   1      41.685  23.779  28.162  1.00  0.00    -0.246 OA
BRANCH  25  27
ATOM     27  C   UNL A   1      40.122  25.569  27.781  1.00  0.00     0.060 A 
ATOM     28  C   UNL A   1      40.544  26.534  26.838  1.00  0.00     0.016 A 
ATOM     29  C   UNL A   1      39.515  25.983  28.959  1.00  0.00     0.016 A 
ATOM     30  C   UNL A   1      40.530  27.904  27.167  1.00  0.00     0.010 A 
ATOM     31  C   UNL A   1      39.642  27.301  29.328  1.00  0.00     0.010 A 
ATOM     32  C   UNL A   1      40.181  28.271  28.460  1.00  0.00    -0.014 A 
BRANCH  32  33
ATOM     33  C   UNL A   1      40.389  29.574  29.111  1.00  0.00     0.031 A 
ATOM     34  C   UNL A   1      39.239  30.499  29.026  1.00  0.00     0.074 A 
ATOM     35  C   UNL A   1      41.396  29.776  30.010  1.00  0.00     0.049 A 
ATOM     36  N   UNL A   1      39.260  31.697  29.468  1.00  0.00    -0.248 NA
ATOM     37  C   UNL A   1      37.950  30.172  28.402  1.00  0.00     0.031 C 
ATOM     38  C   UNL A   1      41.488  30.697  31.151  1.00  0.00     0.029 A 
ATOM     39  N   UNL A   1      42.614  29.105  30.116  1.00  0.00    -0.354 N 
ATOM     40  C   UNL A   1      37.965  32.150  29.529  1.00  0.00     0.074 A 
ATOM     41  C   UNL A   1      37.210  31.235  28.725  1.00  0.00     0.031 C 
ATOM     42  C   UNL A   1      42.761  30.748  31.608  1.00  0.00     0.029 A 
ATOM     43  C   UNL A   1      43.574  29.915  30.732  1.00  0.00     0.049 A 
ATOM     44  H   UNL A   1      42.777  28.187  29.800  1.00  0.00     0.167 HD
ATOM     45  C   UNL A   1      37.711  33.180  30.378  1.00  0.00     0.034 A 
ATOM     46  C   UNL A   1      44.714  30.201  30.050  1.00  0.00     0.034 A 
ATOM     47  C   UNL A   1      38.981  33.683  30.929  1.00  0.00     0.049 A 
ATOM     48  C   UNL A   1      44.513  31.657  29.665  1.00  0.00     0.074 A 
ATOM     49  C   UNL A   1      39.598  33.593  32.163  1.00  0.00     0.029 A 
ATOM     50  N   UNL A   1      39.975  34.070  30.031  1.00  0.00    -0.354 N 
ATOM     51  N   UNL A   1      43.326  32.206  29.538  1.00  0.00    -0.248 NA
ATOM     52  C   UNL A   1      45.587  32.643  29.668  1.00  0.00     0.031 C 
ATOM     53  C   UNL A   1      41.000  33.816  31.959  1.00  0.00     0.029 A 
ATOM     54  C   UNL A   1      41.230  34.051  30.608  1.00  0.00     0.049 A 
ATOM     55  H   UNL A   1      39.803  34.328  29.096  1.00  0.00     0.167 HD
ATOM     56  C   UNL A   1      43.442  33.559  29.657  1.00  0.00     0.074 A 
ATOM     57  C   UNL A   1      44.883  33.789  29.661  1.00  0.00     0.031 C 
ATOM     58  C   UNL A   1      42.395  34.429  29.812  1.00  0.00     0.034 A 
BRANCH  45  59
ATOM     59  C   UNL A   1      36.355  33.650  30.848  1.00  0.00     0.023 A 
ATOM     60  C   UNL A   1      35.505  34.237  29.890  1.00  0.00     0.031 A 
ATOM     61  C   UNL A   1      35.845  33.631  32.166  1.00  0.00     0.131 A 
ATOM     62  C   UNL A   1      34.245  34.758  30.236  1.00  0.00     0.055 A 
ATOM     63  C   UNL A   1      34.573  34.116  32.505  1.00  0.00     0.041 A 
ATOM     64  F   UNL A   1      36.549  33.185  33.209  1.00  0.00    -0.206 F 
ATOM     65  C   UNL A   1      33.764  34.687  31.539  1.00  0.00     0.022 A 
BRANCH  62  66
ATOM     66  S   UNL A   1      33.254  35.554  28.948  1.00  0.00     0.124 S 
ATOM     67  O   UNL A   1      32.411  36.455  29.726  1.00  0.00    -0.237 OA
ATOM     68  O   UNL A   1      34.276  36.179  28.116  1.00  0.00    -0.237 OA
ATOM     69  O   UNL A   1      32.549  34.435  28.323  1.00  0.00    -0.744 OA
ENDBRANCH  62  66
ENDBRANCH  45  59
BRANCH  46  70
ATOM     70  C   UNL A   1      45.152  28.987  29.241  1.00  0.00     0.023 A 
ATOM     71  C   UNL A   1      45.274  29.114  27.815  1.00  0.00     0.031 A 
ATOM     72  C   UNL A   1      45.896  27.957  29.837  1.00  0.00     0.131 A 
ATOM     73  C   UNL A   1      46.197  28.322  27.080  1.00  0.00     0.055 A 
ATOM     74  C   UNL A   1      46.821  27.190  29.104  1.00  0.00     0.041 A 
ATOM     75  F   UNL A   1      45.868  27.780  31.166  1.00  0.00    -0.206 F 
ATOM     76  C   UNL A   1      47.004  27.395  27.738  1.00  0.00     0.022 A 
BRANCH  73  77
ATOM     77  S   UNL A   1      46.558  28.667  25.310  1.00  0.00     0.124 S 
ATOM     78  O   UNL A   1      46.338  30.105  25.222  1.00  0.00    -0.237 OA
ATOM     79  O   UNL A   1      47.939  28.227  25.157  1.00  0.00    -0.237 OA
ATOM     80  O   UNL A   1      45.593  27.838  24.590  1.00  0.00    -0.744 OA
ENDBRANCH  73  77
ENDBRANCH  46  70
BRANCH  58  81
ATOM     81  C   UNL A   1      42.447  35.791  29.178  1.00  0.00     0.023 A 
ATOM     82  C   UNL A   1      43.195  36.816  29.758  1.00  0.00     0.031 A 
ATOM     83  C   UNL A   1      41.870  36.084  27.923  1.00  0.00     0.131 A 
ATOM     84  C   UNL A   1      43.199  38.101  29.221  1.00  0.00     0.055 A 
ATOM     85  C   UNL A   1      42.010  37.328  27.306  1.00  0.00     0.041 A 
ATOM     86  F   UNL A   1      41.164  35.181  27.228  1.00  0.00    -0.206 F 
ATOM     87  C   UNL A   1      42.642  38.363  27.977  1.00  0.00     0.022 A 
BRANCH  84  88
ATOM     88  S   UNL A   1      43.802  39.416  30.297  1.00  0.00     0.124 S 
ATOM     89  O   UNL A   1      45.062  39.771  29.646  1.00  0.00    -0.237 OA
ATOM     90  O   UNL A   1      42.743  40.415  30.203  1.00  0.00    -0.237 OA
ATOM     91  O   UNL A   1      43.935  38.760  31.594  1.00  0.00    -0.744 OA
ENDBRANCH  84  88
ENDBRANCH  58  81
ENDBRANCH  32  33
ENDBRANCH  25  27
ENDBRANCH  24  25
ENDBRANCH  23  24
ENDBRANCH   1  23
TORSDOF 19
ENDMDL
MODEL 2
REMARK VINA RESULT:     -12.0      1.708      2.140
REMARK SMILES Cc1ccc(-c2cncc(C#N)c2)cc1C(=O)OCCOCCOC(=O)c1ccc(-c2c3nc(c(-c4cc(S(=O)(=O)[O-])ccc4F)c4ccc([nH]4)c(-c4cc(S(=O)(=O)[O-])ccc4F)c4nc(c(-c5cc(S(=O)(=O)[O-])ccc5F)c5ccc2[nH]5)C=C4)C=C3)cc1
REMARK SMILES IDX 22 1 21 2 20 3 19 4 18 5 16 6 17 7 15 8 1 9 2 10 3 11 4 12
REMARK SMILES IDX 14 13 5 14 6 15 7 16 13 17 8 18 10 19 9 20 11 21 12 22 23 23
REMARK SMILES IDX 24 24 25 25 26 26 27 27 28 28 89 29 29 30 88 31 30 32 31 33
REMARK SMILES IDX 32 34 82 35 33 36 87 37 81 38 83 39 34 40 86 41 80 42 79 43
REMARK SMILES IDX 35 45 67 46 47 47 66 48 48 49 51 50 65 51 84 52 49 53 50 54
REMARK SMILES IDX 64 56 85 57 52 58 36 59 37 60 45 61 38 62 44 63 46 64 43 65
REMARK SMILES IDX 39 66 40 67 41 68 42 69 68 70 69 71 77 72 70 73 76 74 78 75
REMARK SMILES IDX 75 76 71 77 72 78 73 79 74 80 53 81 54 82 62 83 55 84 61 85
REMARK SMILES IDX 63 86 60 87 56 88 57 89 58 90 59 91
REMARK H PARENT 83 44 51 55
REMARK Flexibility Score: inf
ROOT
ATOM      1  C   UNL A   1      37.523  21.410  25.297  1.00  0.00     0.202 C 
ENDROOT
BRANCH   1   2
ATOM      2  O   UNL A   1      37.395  22.177  24.133  1.00  0.00    -0.374 OA
BRANCH   2   3
ATOM      3  C   UNL A   1      36.679  23.393  24.302  1.00  0.00     0.202 C 
BRANCH   3   4
ATOM      4  C   UNL A   1      35.674  23.325  23.231  1.00  0.00     0.261 C 
BRANCH   4   5
ATOM      5  O   UNL A   1      34.698  24.352  23.410  1.00  0.00    -0.460 OA
BRANCH   5   6
ATOM      6  C   UNL A   1      33.393  24.184  23.166  1.00  0.00     0.338 C 
ATOM      7  O   UNL A   1      32.729  24.627  22.246  1.00  0.00    -0.246 OA
BRANCH   6   8
ATOM      8  C   UNL A   1      32.932  23.162  24.139  1.00  0.00     0.063 A 
ATOM      9  C   UNL A   1      32.365  24.736  26.160  1.00  0.00     0.045 C 
ATOM     10  C   UNL A   1      32.591  23.400  25.492  1.00  0.00    -0.037 A 
ATOM     11  C   UNL A   1      32.400  22.289  26.325  1.00  0.00     0.005 A 
ATOM     12  C   UNL A   1      32.547  20.990  25.846  1.00  0.00     0.009 A 
ATOM     13  C   UNL A   1      33.028  21.848  23.655  1.00  0.00     0.024 A 
ATOM     14  C   UNL A   1      32.856  20.754  24.504  1.00  0.00    -0.016 A 
BRANCH  14  15
ATOM     15  C   UNL A   1      33.047  19.398  24.008  1.00  0.00     0.001 A 
ATOM     16  C   UNL A   1      32.383  18.944  22.872  1.00  0.00     0.119 A 
ATOM     17  C   UNL A   1      33.895  18.497  24.666  1.00  0.00     0.031 A 
ATOM     18  N   UNL A   1      32.482  17.684  22.385  1.00  0.00    -0.263 NA
ATOM     19  C   UNL A   1      34.028  17.198  24.182  1.00  0.00     0.071 A 
ATOM     20  C   UNL A   1      33.309  16.845  23.051  1.00  0.00     0.130 A 
BRANCH  19  21
ATOM     21  C   UNL A   1      34.863  16.239  24.842  1.00  0.00     0.101 C 
ATOM     22  N   UNL A   1      35.519  15.447  25.364  1.00  0.00    -0.192 NA
ENDBRANCH  19  21
ENDBRANCH  14  15
ENDBRANCH   6   8
ENDBRANCH   5   6
ENDBRANCH   4   5
ENDBRANCH   3   4
ENDBRANCH   2   3
ENDBRANCH   1   2
BRANCH   1  23
ATOM     23  C   UNL A   1      38.987  21.328  25.741  1.00  0.00     0.261 C 
BRANCH  23  24
ATOM     24  O   UNL A   1      39.268  22.378  26.705  1.00  0.00    -0.460 OA
BRANCH  24  25
ATOM     25  C   UNL A   1      40.371  23.157  26.488  1.00  0.00     0.338 C 
ATOM     26  O   UNL A   1      41.490  22.732  26.253  1.00  0.00    -0.246 OA
BRANCH  25  27
ATOM     27  C   UNL A   1      40.054  24.602  26.739  1.00  0.00     0.060 A 
ATOM     28  C   UNL A   1      40.735  25.633  26.054  1.00  0.00     0.016 A 
ATOM     29  C   UNL A   1      39.324  24.904  27.881  1.00  0.00     0.016 A 
ATOM     30  C   UNL A   1      40.837  26.919  26.621  1.00  0.00     0.010 A 
ATOM     31  C   UNL A   1      39.551  26.111  28.497  1.00  0.00     0.010 A 
ATOM     32  C   UNL A   1      40.335  27.119  27.901  1.00  0.00    -0.014 A 
BRANCH  32  33
ATOM     33  C   UNL A   1      40.595  28.255  28.800  1.00  0.00     0.031 A 
ATOM     34  C   UNL A   1      39.540  29.291  28.809  1.00  0.00     0.074 A 
ATOM     35  C   UNL A   1      41.532  28.188  29.789  1.00  0.00     0.049 A 
ATOM     36  N   UNL A   1      39.625  30.380  29.470  1.00  0.00    -0.248 NA
ATOM     37  C   UNL A   1      38.289  29.213  28.045  1.00  0.00     0.031 C 
ATOM     38  C   UNL A   1      41.601  28.871  31.088  1.00  0.00     0.029 A 
ATOM     39  N   UNL A   1      42.674  27.389  29.853  1.00  0.00    -0.354 N 
ATOM     40  C   UNL A   1      38.373  30.942  29.524  1.00  0.00     0.074 A 
ATOM     41  C   UNL A   1      37.616  30.269  28.510  1.00  0.00     0.031 C 
ATOM     42  C   UNL A   1      42.828  28.710  31.636  1.00  0.00     0.029 A 
ATOM     43  C   UNL A   1      43.642  27.973  30.678  1.00  0.00     0.049 A 
ATOM     44  H   UNL A   1      42.785  26.532  29.381  1.00  0.00     0.167 HD
ATOM     45  C   UNL A   1      38.133  31.820  30.532  1.00  0.00     0.034 A 
ATOM     46  C   UNL A   1      44.857  28.262  30.146  1.00  0.00     0.034 A 
ATOM     47  C   UNL A   1      39.388  32.084  31.258  1.00  0.00     0.049 A 
ATOM     48  C   UNL A   1      44.816  29.777  30.030  1.00  0.00     0.074 A 
ATOM     49  C   UNL A   1      39.883  31.710  32.493  1.00  0.00     0.029 A 
ATOM     50  N   UNL A   1      40.487  32.527  30.522  1.00  0.00    -0.354 N 
ATOM     51  N   UNL A   1      43.697  30.456  29.925  1.00  0.00    -0.248 NA
ATOM     52  C   UNL A   1      45.967  30.632  30.296  1.00  0.00     0.031 C 
ATOM     53  C   UNL A   1      41.312  31.824  32.435  1.00  0.00     0.029 A 
ATOM     54  C   UNL A   1      41.680  32.277  31.173  1.00  0.00     0.049 A 
ATOM     55  H   UNL A   1      40.421  32.966  29.643  1.00  0.00     0.167 HD
ATOM     56  C   UNL A   1      43.917  31.746  30.306  1.00  0.00     0.074 A 
ATOM     57  C   UNL A   1      45.366  31.825  30.456  1.00  0.00     0.031 C 
ATOM     58  C   UNL A   1      42.939  32.674  30.548  1.00  0.00     0.034 A 
BRANCH  45  59
ATOM     59  C   UNL A   1      36.786  32.331  30.985  1.00  0.00     0.023 A 
ATOM     60  C   UNL A   1      35.981  32.974  30.025  1.00  0.00     0.031 A 
ATOM     61  C   UNL A   1      36.247  32.298  32.291  1.00  0.00     0.131 A 
ATOM     62  C   UNL A   1      34.735  33.535  30.357  1.00  0.00     0.055 A 
ATOM     63  C   UNL A   1      34.987  32.824  32.616  1.00  0.00     0.041 A 
ATOM     64  F   UNL A   1      36.910  31.799  33.337  1.00  0.00    -0.206 F 
ATOM     65  C   UNL A   1      34.222  33.450  31.647  1.00  0.00     0.022 A 
BRANCH  62  66
ATOM     66  S   UNL A   1      33.804  34.402  29.070  1.00  0.00     0.124 S 
ATOM     67  O   UNL A   1      33.508  33.326  28.131  1.00  0.00    -0.237 OA
ATOM     68  O   UNL A   1      32.673  34.940  29.817  1.00  0.00    -0.237 OA
ATOM     69  O   UNL A   1      34.753  35.403  28.582  1.00  0.00    -0.744 OA
ENDBRANCH  62  66
ENDBRANCH  45  59
BRANCH  46  70
ATOM     70  C   UNL A   1      45.260  27.178  29.154  1.00  0.00     0.023 A 
ATOM     71  C   UNL A   1      45.221  27.476  27.749  1.00  0.00     0.031 A 
ATOM     72  C   UNL A   1      46.111  26.131  29.542  1.00  0.00     0.131 A 
ATOM     73  C   UNL A   1      46.093  26.830  26.833  1.00  0.00     0.055 A 
ATOM     74  C   UNL A   1      46.985  25.510  28.630  1.00  0.00     0.041 A 
ATOM     75  F   UNL A   1      46.236  25.800  30.835  1.00  0.00    -0.206 F 
ATOM     76  C   UNL A   1      47.009  25.882  27.287  1.00  0.00     0.022 A 
BRANCH  73  77
ATOM     77  S   UNL A   1      46.244  27.399  25.090  1.00  0.00     0.124 S 
ATOM     78  O   UNL A   1      46.713  26.198  24.411  1.00  0.00    -0.237 OA
ATOM     79  O   UNL A   1      44.891  27.826  24.759  1.00  0.00    -0.237 OA
ATOM     80  O   UNL A   1      47.206  28.497  25.165  1.00  0.00    -0.744 OA
ENDBRANCH  73  77
ENDBRANCH  46  70
BRANCH  58  81
ATOM     81  C   UNL A   1      43.163  34.117  30.189  1.00  0.00     0.023 A 
ATOM     82  C   UNL A   1      42.988  34.555  28.875  1.00  0.00     0.031 A 
ATOM     83  C   UNL A   1      43.427  35.122  31.144  1.00  0.00     0.131 A 
ATOM     84  C   UNL A   1      43.257  35.873  28.512  1.00  0.00     0.055 A 
ATOM     85  C   UNL A   1      43.538  36.470  30.802  1.00  0.00     0.041 A 
ATOM     86  F   UNL A   1      43.573  34.853  32.449  1.00  0.00    -0.206 F 
ATOM     87  C   UNL A   1      43.496  36.849  29.469  1.00  0.00     0.022 A 
BRANCH  84  88
ATOM     88  S   UNL A   1      43.447  36.193  26.748  1.00  0.00     0.124 S 
ATOM     89  O   UNL A   1      44.897  36.099  26.589  1.00  0.00    -0.237 OA
ATOM     90  O   UNL A   1      42.676  35.112  26.142  1.00  0.00    -0.237 OA
ATOM     91  O   UNL A   1      42.888  37.532  26.583  1.00  0.00    -0.744 OA
ENDBRANCH  84  88
ENDBRANCH  58  81
ENDBRANCH  32  33
ENDBRANCH  25  27
ENDBRANCH  24  25
ENDBRANCH  23  24
ENDBRANCH   1  23
TORSDOF 19
ENDMDL
MODEL 3
REMARK VINA RESULT:     -11.8      2.991      4.568
REMARK SMILES Cc1ccc(-c2cncc(C#N)c2)cc1C(=O)OCCOCCOC(=O)c1ccc(-c2c3nc(c(-c4cc(S(=O)(=O)[O-])ccc4F)c4ccc([nH]4)c(-c4cc(S(=O)(=O)[O-])ccc4F)c4nc(c(-c5cc(S(=O)(=O)[O-])ccc5F)c5ccc2[nH]5)C=C4)C=C3)cc1
REMARK SMILES IDX 22 1 21 2 20 3 19 4 18 5 16 6 17 7 15 8 1 9 2 10 3 11 4 12
REMARK SMILES IDX 14 13 5 14 6 15 7 16 13 17 8 18 10 19 9 20 11 21 12 22 23 23
REMARK SMILES IDX 24 24 25 25 26 26 27 27 28 28 89 29 29 30 88 31 30 32 31 33
REMARK SMILES IDX 32 34 82 35 33 36 87 37 81 38 83 39 34 40 86 41 80 42 79 43
REMARK SMILES IDX 35 45 67 46 47 47 66 48 48 49 51 50 65 51 84 52 49 53 50 54
REMARK SMILES IDX 64 56 85 57 52 58 36 59 37 60 45 61 38 62 44 63 46 64 43 65
REMARK SMILES IDX 39 66 40 67 41 68 42 69 68 70 69 71 77 72 70 73 76 74 78 75
REMARK SMILES IDX 75 76 71 77 72 78 73 79 74 80 53 81 54 82 62 83 55 84 61 85
REMARK SMILES IDX 63 86 60 87 56 88 57 89 58 90 59 91
REMARK H PARENT 83 44 51 55
REMARK Flexibility Score: inf
ROOT
ATOM      1  C   UNL A   1      42.732  18.803  25.723  1.00  0.00     0.202 C 
ENDROOT
BRANCH   1   2
ATOM      2  O   UNL A   1      42.503  19.224  27.039  1.00  0.00    -0.374 OA
BRANCH   2   3
ATOM      3  C   UNL A   1      41.225  19.806  27.258  1.00  0.00     0.202 C 
BRANCH   3   4
ATOM      4  C   UNL A   1      40.499  19.456  26.028  1.00  0.00     0.261 C 
BRANCH   4   5
ATOM      5  O   UNL A   1      39.330  20.268  25.903  1.00  0.00    -0.460 OA
BRANCH   5   6
ATOM      6  C   UNL A   1      39.355  21.607  25.905  1.00  0.00     0.338 C 
ATOM      7  O   UNL A   1      40.322  22.348  25.925  1.00  0.00    -0.246 OA
BRANCH   6   8
ATOM      8  C   UNL A   1      37.954  22.033  25.668  1.00  0.00     0.063 A 
ATOM      9  C   UNL A   1      38.147  24.539  26.421  1.00  0.00     0.045 C 
ATOM     10  C   UNL A   1      37.402  23.292  26.005  1.00  0.00    -0.037 A 
ATOM     11  C   UNL A   1      36.011  23.443  25.920  1.00  0.00     0.005 A 
ATOM     12  C   UNL A   1      35.191  22.390  25.525  1.00  0.00     0.009 A 
ATOM     13  C   UNL A   1      37.122  20.994  25.222  1.00  0.00     0.024 A 
ATOM     14  C   UNL A   1      35.737  21.155  25.165  1.00  0.00    -0.016 A 
BRANCH  14  15
ATOM     15  C   UNL A   1      34.880  20.040  24.788  1.00  0.00     0.001 A 
ATOM     16  C   UNL A   1      33.625  20.253  24.222  1.00  0.00     0.119 A 
ATOM     17  C   UNL A   1      35.280  18.714  24.993  1.00  0.00     0.031 A 
ATOM     18  N   UNL A   1      32.763  19.263  23.890  1.00  0.00    -0.263 NA
ATOM     19  C   UNL A   1      34.421  17.673  24.650  1.00  0.00     0.071 A 
ATOM     20  C   UNL A   1      33.187  17.997  24.107  1.00  0.00     0.130 A 
BRANCH  19  21
ATOM     21  C   UNL A   1      34.781  16.305  24.870  1.00  0.00     0.101 C 
ATOM     22  N   UNL A   1      35.048  15.195  25.039  1.00  0.00    -0.192 NA
ENDBRANCH  19  21
ENDBRANCH  14  15
ENDBRANCH   6   8
ENDBRANCH   5   6
ENDBRANCH   4   5
ENDBRANCH   3   4
ENDBRANCH   2   3
ENDBRANCH   1   2
BRANCH   1  23
ATOM     23  C   UNL A   1      44.165  19.124  25.287  1.00  0.00     0.261 C 
BRANCH  23  24
ATOM     24  O   UNL A   1      44.211  20.441  24.678  1.00  0.00    -0.460 OA
BRANCH  24  25
ATOM     25  C   UNL A   1      44.986  21.392  25.284  1.00  0.00     0.338 C 
ATOM     26  O   UNL A   1      46.126  21.213  25.678  1.00  0.00    -0.246 OA
BRANCH  25  27
ATOM     27  C   UNL A   1      44.190  22.636  25.543  1.00  0.00     0.060 A 
ATOM     28  C   UNL A   1      44.219  23.727  24.646  1.00  0.00     0.016 A 
ATOM     29  C   UNL A   1      43.693  22.818  26.827  1.00  0.00     0.016 A 
ATOM     30  C   UNL A   1      43.932  25.030  25.099  1.00  0.00     0.010 A 
ATOM     31  C   UNL A   1      43.560  24.103  27.296  1.00  0.00     0.010 A 
ATOM     32  C   UNL A   1      43.711  25.225  26.457  1.00  0.00    -0.014 A 
BRANCH  32  33
ATOM     33  C   UNL A   1      43.703  26.500  27.192  1.00  0.00     0.031 A 
ATOM     34  C   UNL A   1      42.378  27.148  27.290  1.00  0.00     0.074 A 
ATOM     35  C   UNL A   1      44.734  26.866  28.006  1.00  0.00     0.049 A 
ATOM     36  N   UNL A   1      42.189  28.292  27.826  1.00  0.00    -0.248 NA
ATOM     37  C   UNL A   1      41.130  26.580  26.764  1.00  0.00     0.031 C 
ATOM     38  C   UNL A   1      44.750  27.714  29.207  1.00  0.00     0.029 A 
ATOM     39  N   UNL A   1      46.073  26.478  27.943  1.00  0.00    -0.354 N 
ATOM     40  C   UNL A   1      40.842  28.440  28.044  1.00  0.00     0.074 A 
ATOM     41  C   UNL A   1      40.218  27.431  27.241  1.00  0.00     0.031 C 
ATOM     42  C   UNL A   1      46.024  28.019  29.546  1.00  0.00     0.029 A 
ATOM     43  C   UNL A   1      46.897  27.443  28.532  1.00  0.00     0.049 A 
ATOM     44  H   UNL A   1      46.395  25.640  27.537  1.00  0.00     0.167 HD
ATOM     45  C   UNL A   1      40.465  29.334  28.996  1.00  0.00     0.034 A 
ATOM     46  C   UNL A   1      47.867  28.017  27.774  1.00  0.00     0.034 A 
ATOM     47  C   UNL A   1      41.649  30.073  29.467  1.00  0.00     0.049 A 
ATOM     48  C   UNL A   1      47.316  29.412  27.531  1.00  0.00     0.074 A 
ATOM     49  C   UNL A   1      42.401  30.048  30.627  1.00  0.00     0.029 A 
ATOM     50  N   UNL A   1      42.432  30.726  28.516  1.00  0.00    -0.354 N 
ATOM     51  N   UNL A   1      46.032  29.689  27.560  1.00  0.00    -0.248 NA
ATOM     52  C   UNL A   1      48.147  30.611  27.516  1.00  0.00     0.031 C 
ATOM     53  C   UNL A   1      43.692  30.590  30.313  1.00  0.00     0.029 A 
ATOM     54  C   UNL A   1      43.717  30.952  28.970  1.00  0.00     0.049 A 
ATOM     55  H   UNL A   1      42.108  30.995  27.626  1.00  0.00     0.167 HD
ATOM     56  C   UNL A   1      45.866  31.024  27.781  1.00  0.00     0.074 A 
ATOM     57  C   UNL A   1      47.215  31.569  27.670  1.00  0.00     0.031 C 
ATOM     58  C   UNL A   1      44.680  31.628  28.104  1.00  0.00     0.034 A 
BRANCH  45  59
ATOM     59  C   UNL A   1      39.099  29.461  29.627  1.00  0.00     0.023 A 
ATOM     60  C   UNL A   1      38.237  30.450  29.114  1.00  0.00     0.031 A 
ATOM     61  C   UNL A   1      38.589  28.739  30.730  1.00  0.00     0.131 A 
ATOM     62  C   UNL A   1      36.966  30.687  29.668  1.00  0.00     0.055 A 
ATOM     63  C   UNL A   1      37.306  28.948  31.259  1.00  0.00     0.041 A 
ATOM     64  F   UNL A   1      39.301  27.821  31.388  1.00  0.00    -0.206 F 
ATOM     65  C   UNL A   1      36.486  29.929  30.731  1.00  0.00     0.022 A 
BRANCH  62  66
ATOM     66  S   UNL A   1      35.959  32.026  28.984  1.00  0.00     0.124 S 
ATOM     67  O   UNL A   1      34.921  32.175  29.997  1.00  0.00    -0.237 OA
ATOM     68  O   UNL A   1      36.925  33.114  28.879  1.00  0.00    -0.237 OA
ATOM     69  O   UNL A   1      35.500  31.484  27.705  1.00  0.00    -0.744 OA
ENDBRANCH  62  66
ENDBRANCH  45  59
BRANCH  46  70
ATOM     70  C   UNL A   1      48.466  26.983  26.829  1.00  0.00     0.023 A 
ATOM     71  C   UNL A   1      48.255  27.132  25.415  1.00  0.00     0.031 A 
ATOM     72  C   UNL A   1      49.582  26.222  27.212  1.00  0.00     0.131 A 
ATOM     73  C   UNL A   1      49.199  26.644  24.473  1.00  0.00     0.055 A 
ATOM     74  C   UNL A   1      50.521  25.758  26.271  1.00  0.00     0.041 A 
ATOM     75  F   UNL A   1      49.876  26.051  28.508  1.00  0.00    -0.206 F 
ATOM     76  C   UNL A   1      50.357  26.001  24.909  1.00  0.00     0.022 A 
BRANCH  73  77
ATOM     77  S   UNL A   1      49.079  27.072  22.688  1.00  0.00     0.124 S 
ATOM     78  O   UNL A   1      50.473  27.294  22.327  1.00  0.00    -0.237 OA
ATOM     79  O   UNL A   1      48.452  25.894  22.102  1.00  0.00    -0.237 OA
ATOM     80  O   UNL A   1      48.227  28.260  22.672  1.00  0.00    -0.744 OA
ENDBRANCH  73  77
ENDBRANCH  46  70
BRANCH  58  81
ATOM     81  C   UNL A   1      44.367  33.003  27.582  1.00  0.00     0.023 A 
ATOM     82  C   UNL A   1      44.287  34.091  28.453  1.00  0.00     0.031 A 
ATOM     83  C   UNL A   1      44.266  33.306  26.208  1.00  0.00     0.131 A 
ATOM     84  C   UNL A   1      43.932  35.357  27.997  1.00  0.00     0.055 A 
ATOM     85  C   UNL A   1      44.070  34.606  25.739  1.00  0.00     0.041 A 
ATOM     86  F   UNL A   1      44.371  32.369  25.254  1.00  0.00    -0.206 F 
ATOM     87  C   UNL A   1      43.856  35.638  26.639  1.00  0.00     0.022 A 
BRANCH  84  88
ATOM     88  S   UNL A   1      43.412  36.543  29.251  1.00  0.00     0.124 S 
ATOM     89  O   UNL A   1      44.682  37.178  29.597  1.00  0.00    -0.237 OA
ATOM     90  O   UNL A   1      42.467  37.384  28.522  1.00  0.00    -0.237 OA
ATOM     91  O   UNL A   1      42.831  35.703  30.293  1.00  0.00    -0.744 OA
ENDBRANCH  84  88
ENDBRANCH  58  81
ENDBRANCH  32  33
ENDBRANCH  25  27
ENDBRANCH  24  25
ENDBRANCH  23  24
ENDBRANCH   1  23
TORSDOF 19
ENDMDL
