MODEL 1
REMARK VINA RESULT:     -11.9      0.000      0.000
REMARK SMILES Cc1cccc(Cn2c(=O)c3sccc3n(CC(=O)OCCOCCOC(=O)c3ccc(-c4c5nc(c(-c6cc(S(=O)(=O)[O-])ccc6F)c6ccc([nH]6)c(-c6cc(S(=O)(=O)[O-])ccc6F)c6nc(c(-c7cc(S(=O)(=O)[O-])ccc7F)c7ccc4[nH]7)C=C6)C=C5)cc3)c2=O)c1
REMARK SMILES IDX 23 1 22 2 21 3 20 4 18 5 19 6 17 7 16 8 8 9 9 10 92 11 10 12
REMARK SMILES IDX 11 13 93 14 12 15 15 16 13 17 14 18 7 19 6 20 1 21 2 22 3 23
REMARK SMILES IDX 94 24 4 25 5 26 24 27 25 28 26 29 27 30 28 31 29 32 30 33
REMARK SMILES IDX 91 34 31 35 90 36 32 37 33 38 34 39 84 40 35 41 89 42 83 43
REMARK SMILES IDX 85 44 36 45 88 46 82 47 81 48 37 50 69 51 49 52 68 53 50 54
REMARK SMILES IDX 53 55 67 56 86 57 51 58 52 59 66 61 87 62 54 63 38 64 39 65
REMARK SMILES IDX 47 66 40 67 46 68 48 69 45 70 41 71 42 72 43 73 44 74 70 75
REMARK SMILES IDX 71 76 79 77 72 78 78 79 80 80 77 81 73 82 74 83 75 84 76 85
REMARK SMILES IDX 55 86 56 87 64 88 57 89 63 90 65 91 62 92 58 93 59 94 60 95
REMARK SMILES IDX 61 96
REMARK H PARENT 85 49 53 60
REMARK Flexibility Score: inf
ROOT
ATOM      1  O   UNL A   1      33.393  30.010  26.449  1.00  0.00    -0.374 OA
ENDROOT
BRANCH   1   2
ATOM      2  C   UNL A   1      32.229  29.587  25.737  1.00  0.00     0.202 C 
BRANCH   2   3
ATOM      3  C   UNL A   1      32.379  28.108  25.630  1.00  0.00     0.261 C 
BRANCH   3   4
ATOM      4  O   UNL A   1      31.111  27.465  25.704  1.00  0.00    -0.462 OA
BRANCH   4   5
ATOM      5  C   UNL A   1      30.979  26.173  26.123  1.00  0.00     0.326 C 
ATOM      6  O   UNL A   1      29.984  25.657  26.574  1.00  0.00    -0.250 OA
BRANCH   5   7
ATOM      7  C   UNL A   1      32.327  25.461  25.984  1.00  0.00     0.250 C 
BRANCH   7   8
ATOM      8  N   UNL A   1      32.186  24.414  24.966  1.00  0.00    -0.281 N 
ATOM      9  N   UNL A   1      32.188  22.070  24.482  1.00  0.00    -0.254 N 
ATOM     10  C   UNL A   1      32.379  22.254  23.110  1.00  0.00     0.274 A 
ATOM     11  C   UNL A   1      32.193  23.093  25.435  1.00  0.00     0.332 A 
ATOM     12  O   UNL A   1      32.332  21.341  22.286  1.00  0.00    -0.268 OA
ATOM     13  C   UNL A   1      32.558  23.638  22.739  1.00  0.00     0.116 A 
ATOM     14  O   UNL A   1      32.201  22.887  26.653  1.00  0.00    -0.247 OA
ATOM     15  S   UNL A   1      32.972  24.155  21.174  1.00  0.00    -0.136 S 
ATOM     16  C   UNL A   1      32.433  24.676  23.620  1.00  0.00     0.070 A 
ATOM     17  C   UNL A   1      32.991  25.798  21.668  1.00  0.00     0.068 A 
ATOM     18  C   UNL A   1      32.675  25.937  23.002  1.00  0.00     0.039 A 
BRANCH   9  19
ATOM     19  C   UNL A   1      32.054  20.708  24.986  1.00  0.00     0.166 C 
BRANCH  19  20
ATOM     20  C   UNL A   1      33.418  20.033  25.009  1.00  0.00    -0.028 A 
ATOM     21  C   UNL A   1      37.109  20.960  25.131  1.00  0.00     0.044 C 
ATOM     22  C   UNL A   1      35.844  20.178  24.962  1.00  0.00    -0.051 A 
ATOM     23  C   UNL A   1      35.911  18.830  24.586  1.00  0.00     0.003 A 
ATOM     24  C   UNL A   1      34.593  20.783  25.145  1.00  0.00     0.009 A 
ATOM     25  C   UNL A   1      34.752  18.070  24.480  1.00  0.00     0.001 A 
ATOM     26  C   UNL A   1      33.520  18.660  24.733  1.00  0.00     0.005 A 
ENDBRANCH  19  20
ENDBRANCH   9  19
ENDBRANCH   7   8
ENDBRANCH   5   7
ENDBRANCH   4   5
ENDBRANCH   3   4
ENDBRANCH   2   3
ENDBRANCH   1   2
BRANCH   1  27
ATOM     27  C   UNL A   1      33.187  31.107  27.310  1.00  0.00     0.202 C 
BRANCH  27  28
ATOM     28  C   UNL A   1      34.467  31.641  27.960  1.00  0.00     0.261 C 
BRANCH  28  29
ATOM     29  O   UNL A   1      35.526  30.669  27.840  1.00  0.00    -0.460 OA
BRANCH  29  30
ATOM     30  C   UNL A   1      36.699  31.022  28.437  1.00  0.00     0.338 C 
ATOM     31  O   UNL A   1      37.005  32.160  28.755  1.00  0.00    -0.246 OA
BRANCH  30  32
ATOM     32  C   UNL A   1      37.613  29.846  28.496  1.00  0.00     0.060 A 
ATOM     33  C   UNL A   1      37.719  29.094  29.679  1.00  0.00     0.016 A 
ATOM     34  C   UNL A   1      38.549  29.680  27.478  1.00  0.00     0.016 A 
ATOM     35  C   UNL A   1      38.845  28.288  29.898  1.00  0.00     0.010 A 
ATOM     36  C   UNL A   1      39.704  28.979  27.746  1.00  0.00     0.010 A 
ATOM     37  C   UNL A   1      39.875  28.296  28.962  1.00  0.00    -0.014 A 
BRANCH  37  38
ATOM     38  C   UNL A   1      41.191  27.669  29.125  1.00  0.00     0.031 A 
ATOM     39  C   UNL A   1      41.306  26.245  28.746  1.00  0.00     0.074 A 
ATOM     40  C   UNL A   1      42.311  28.377  29.419  1.00  0.00     0.049 A 
ATOM     41  N   UNL A   1      42.275  25.485  29.113  1.00  0.00    -0.248 NA
ATOM     42  C   UNL A   1      40.295  25.521  27.974  1.00  0.00     0.031 C 
ATOM     43  C   UNL A   1      43.715  27.989  29.265  1.00  0.00     0.029 A 
ATOM     44  N   UNL A   1      42.419  29.646  29.998  1.00  0.00    -0.354 N 
ATOM     45  C   UNL A   1      42.222  24.352  28.339  1.00  0.00     0.074 A 
ATOM     46  C   UNL A   1      40.891  24.339  27.807  1.00  0.00     0.031 C 
ATOM     47  C   UNL A   1      44.484  28.804  30.015  1.00  0.00     0.029 A 
ATOM     48  C   UNL A   1      43.586  29.666  30.769  1.00  0.00     0.049 A 
ATOM     49  H   UNL A   1      41.787  30.392  29.883  1.00  0.00     0.167 HD
ATOM     50  C   UNL A   1      43.382  23.672  28.123  1.00  0.00     0.034 A 
ATOM     51  C   UNL A   1      43.513  29.851  32.114  1.00  0.00     0.034 A 
ATOM     52  C   UNL A   1      44.443  24.180  29.014  1.00  0.00     0.049 A 
ATOM     53  C   UNL A   1      44.021  28.594  32.780  1.00  0.00     0.074 A 
ATOM     54  C   UNL A   1      45.613  24.893  28.811  1.00  0.00     0.029 A 
ATOM     55  N   UNL A   1      44.195  24.244  30.390  1.00  0.00    -0.354 N 
ATOM     56  N   UNL A   1      44.102  27.447  32.158  1.00  0.00    -0.248 NA
ATOM     57  C   UNL A   1      44.558  28.532  34.131  1.00  0.00     0.031 C 
ATOM     58  C   UNL A   1      45.995  25.473  30.061  1.00  0.00     0.029 A 
ATOM     59  C   UNL A   1      45.092  25.074  31.036  1.00  0.00     0.049 A 
ATOM     60  H   UNL A   1      43.469  23.757  30.843  1.00  0.00     0.167 HD
ATOM     61  C   UNL A   1      44.745  26.534  32.934  1.00  0.00     0.074 A 
ATOM     62  C   UNL A   1      44.992  27.257  34.175  1.00  0.00     0.031 C 
ATOM     63  C   UNL A   1      45.016  25.268  32.487  1.00  0.00     0.034 A 
BRANCH  50  64
ATOM     64  C   UNL A   1      43.628  22.698  26.976  1.00  0.00     0.023 A 
ATOM     65  C   UNL A   1      42.985  21.441  27.008  1.00  0.00     0.031 A 
ATOM     66  C   UNL A   1      44.516  22.873  25.887  1.00  0.00     0.131 A 
ATOM     67  C   UNL A   1      43.233  20.457  26.025  1.00  0.00     0.055 A 
ATOM     68  C   UNL A   1      44.728  21.912  24.890  1.00  0.00     0.041 A 
ATOM     69  F   UNL A   1      45.277  23.958  25.728  1.00  0.00    -0.206 F 
ATOM     70  C   UNL A   1      44.089  20.692  24.955  1.00  0.00     0.022 A 
BRANCH  67  71
ATOM     71  S   UNL A   1      42.446  18.831  26.176  1.00  0.00     0.124 S 
ATOM     72  O   UNL A   1      41.081  19.111  25.742  1.00  0.00    -0.237 OA
ATOM     73  O   UNL A   1      43.255  18.009  25.284  1.00  0.00    -0.237 OA
ATOM     74  O   UNL A   1      42.587  18.516  27.597  1.00  0.00    -0.744 OA
ENDBRANCH  67  71
ENDBRANCH  50  64
BRANCH  51  75
ATOM     75  C   UNL A   1      42.362  30.739  32.506  1.00  0.00     0.023 A 
ATOM     76  C   UNL A   1      41.389  30.228  33.416  1.00  0.00     0.031 A 
ATOM     77  C   UNL A   1      42.433  32.132  32.369  1.00  0.00     0.131 A 
ATOM     78  C   UNL A   1      40.629  31.094  34.230  1.00  0.00     0.055 A 
ATOM     79  C   UNL A   1      41.661  32.990  33.170  1.00  0.00     0.041 A 
ATOM     80  F   UNL A   1      43.338  32.693  31.555  1.00  0.00    -0.206 F 
ATOM     81  C   UNL A   1      40.789  32.477  34.130  1.00  0.00     0.022 A 
BRANCH  78  82
ATOM     82  S   UNL A   1      39.621  30.419  35.602  1.00  0.00     0.124 S 
ATOM     83  O   UNL A   1      39.598  31.527  36.548  1.00  0.00    -0.237 OA
ATOM     84  O   UNL A   1      38.344  30.110  34.966  1.00  0.00    -0.237 OA
ATOM     85  O   UNL A   1      40.369  29.236  36.025  1.00  0.00    -0.744 OA
ENDBRANCH  78  82
ENDBRANCH  51  75
BRANCH  63  86
ATOM     86  C   UNL A   1      45.293  24.102  33.403  1.00  0.00     0.023 A 
ATOM     87  C   UNL A   1      46.518  23.939  34.060  1.00  0.00     0.031 A 
ATOM     88  C   UNL A   1      44.289  23.164  33.745  1.00  0.00     0.131 A 
ATOM     89  C   UNL A   1      46.757  22.845  34.901  1.00  0.00     0.055 A 
ATOM     90  C   UNL A   1      44.491  22.142  34.675  1.00  0.00     0.041 A 
ATOM     91  F   UNL A   1      43.061  23.207  33.210  1.00  0.00    -0.206 F 
ATOM     92  C   UNL A   1      45.742  21.960  35.243  1.00  0.00     0.022 A 
BRANCH  89  93
ATOM     93  S   UNL A   1      48.458  22.572  35.445  1.00  0.00     0.124 S 
ATOM     94  O   UNL A   1      48.690  23.738  36.295  1.00  0.00    -0.237 OA
ATOM     95  O   UNL A   1      48.366  21.294  36.143  1.00  0.00    -0.237 OA
ATOM     96  O   UNL A   1      49.219  22.550  34.199  1.00  0.00    -0.744 OA
ENDBRANCH  89  93
ENDBRANCH  63  86
ENDBRANCH  37  38
ENDBRANCH  30  32
ENDBRANCH  29  30
ENDBRANCH  28  29
ENDBRANCH  27  28
ENDBRANCH   1  27
TORSDOF 20
ENDMDL
MODEL 2
REMARK VINA RESULT:     -11.3      3.582      9.805
REMARK SMILES Cc1cccc(Cn2c(=O)c3sccc3n(CC(=O)OCCOCCOC(=O)c3ccc(-c4c5nc(c(-c6cc(S(=O)(=O)[O-])ccc6F)c6ccc([nH]6)c(-c6cc(S(=O)(=O)[O-])ccc6F)c6nc(c(-c7cc(S(=O)(=O)[O-])ccc7F)c7ccc4[nH]7)C=C6)C=C5)cc3)c2=O)c1
REMARK SMILES IDX 23 1 22 2 21 3 20 4 18 5 19 6 17 7 16 8 8 9 9 10 92 11 10 12
REMARK SMILES IDX 11 13 93 14 12 15 15 16 13 17 14 18 7 19 6 20 1 21 2 22 3 23
REMARK SMILES IDX 94 24 4 25 5 26 24 27 25 28 26 29 27 30 28 31 29 32 30 33
REMARK SMILES IDX 91 34 31 35 90 36 32 37 33 38 34 39 84 40 35 41 89 42 83 43
REMARK SMILES IDX 85 44 36 45 88 46 82 47 81 48 37 50 69 51 49 52 68 53 50 54
REMARK SMILES IDX 53 55 67 56 86 57 51 58 52 59 66 61 87 62 54 63 38 64 39 65
REMARK SMILES IDX 47 66 40 67 46 68 48 69 45 70 41 71 42 72 43 73 44 74 70 75
REMARK SMILES IDX 71 76 79 77 72 78 78 79 80 80 77 81 73 82 74 83 75 84 76 85
REMARK SMILES IDX 55 86 56 87 64 88 57 89 63 90 65 91 62 92 58 93 59 94 60 95
REMARK SMILES IDX 61 96
REMARK H PARENT 85 49 53 60
REMARK Flexibility Score: inf
ROOT
ATOM      1  O   UNL A   1      38.389  22.550  26.049  1.00  0.00    -0.374 OA
ENDROOT
BRANCH   1   2
ATOM      2  C   UNL A   1      37.283  22.054  25.293  1.00  0.00     0.202 C 
BRANCH   2   3
ATOM      3  C   UNL A   1      36.133  22.898  25.723  1.00  0.00     0.261 C 
BRANCH   3   4
ATOM      4  O   UNL A   1      34.968  22.103  25.921  1.00  0.00    -0.462 OA
BRANCH   4   5
ATOM      5  C   UNL A   1      33.989  22.461  26.801  1.00  0.00     0.326 C 
ATOM      6  O   UNL A   1      34.112  22.628  27.991  1.00  0.00    -0.250 OA
BRANCH   5   7
ATOM      7  C   UNL A   1      32.660  22.577  26.051  1.00  0.00     0.250 C 
BRANCH   7   8
ATOM      8  N   UNL A   1      32.584  23.918  25.461  1.00  0.00    -0.281 N 
ATOM      9  N   UNL A   1      31.706  26.139  25.627  1.00  0.00    -0.254 N 
ATOM     10  C   UNL A   1      31.948  26.439  24.283  1.00  0.00     0.274 A 
ATOM     11  C   UNL A   1      31.906  24.886  26.215  1.00  0.00     0.332 A 
ATOM     12  O   UNL A   1      31.801  27.561  23.798  1.00  0.00    -0.268 OA
ATOM     13  C   UNL A   1      32.467  25.321  23.533  1.00  0.00     0.116 A 
ATOM     14  O   UNL A   1      31.519  24.600  27.352  1.00  0.00    -0.247 OA
ATOM     15  S   UNL A   1      32.701  25.334  21.849  1.00  0.00    -0.136 S 
ATOM     16  C   UNL A   1      32.803  24.123  24.101  1.00  0.00     0.070 A 
ATOM     17  C   UNL A   1      33.261  23.713  21.864  1.00  0.00     0.068 A 
ATOM     18  C   UNL A   1      33.275  23.186  23.137  1.00  0.00     0.039 A 
BRANCH   9  19
ATOM     19  C   UNL A   1      31.125  27.174  26.474  1.00  0.00     0.166 C 
BRANCH  19  20
ATOM     20  C   UNL A   1      32.080  28.355  26.569  1.00  0.00    -0.028 A 
ATOM     21  C   UNL A   1      35.642  29.122  27.675  1.00  0.00     0.044 C 
ATOM     22  C   UNL A   1      34.214  29.292  27.259  1.00  0.00    -0.051 A 
ATOM     23  C   UNL A   1      33.669  30.580  27.176  1.00  0.00     0.003 A 
ATOM     24  C   UNL A   1      33.407  28.180  26.981  1.00  0.00     0.009 A 
ATOM     25  C   UNL A   1      32.363  30.764  26.736  1.00  0.00     0.001 A 
ATOM     26  C   UNL A   1      31.592  29.660  26.395  1.00  0.00     0.005 A 
ENDBRANCH  19  20
ENDBRANCH   9  19
ENDBRANCH   7   8
ENDBRANCH   5   7
ENDBRANCH   4   5
ENDBRANCH   3   4
ENDBRANCH   2   3
ENDBRANCH   1   2
BRANCH   1  27
ATOM     27  C   UNL A   1      39.454  21.639  26.197  1.00  0.00     0.202 C 
BRANCH  27  28
ATOM     28  C   UNL A   1      40.386  21.951  27.371  1.00  0.00     0.261 C 
BRANCH  28  29
ATOM     29  O   UNL A   1      40.198  23.314  27.804  1.00  0.00    -0.460 OA
BRANCH  29  30
ATOM     30  C   UNL A   1      41.344  24.041  27.925  1.00  0.00     0.338 C 
ATOM     31  O   UNL A   1      42.472  23.574  27.902  1.00  0.00    -0.246 OA
BRANCH  30  32
ATOM     32  C   UNL A   1      41.014  25.458  28.250  1.00  0.00     0.060 A 
ATOM     33  C   UNL A   1      42.037  26.418  28.335  1.00  0.00     0.016 A 
ATOM     34  C   UNL A   1      39.742  25.749  28.737  1.00  0.00     0.016 A 
ATOM     35  C   UNL A   1      41.822  27.611  29.041  1.00  0.00     0.010 A 
ATOM     36  C   UNL A   1      39.573  26.867  29.523  1.00  0.00     0.010 A 
ATOM     37  C   UNL A   1      40.611  27.796  29.702  1.00  0.00    -0.014 A 
BRANCH  37  38
ATOM     38  C   UNL A   1      40.297  28.886  30.632  1.00  0.00     0.031 A 
ATOM     39  C   UNL A   1      39.623  30.074  30.070  1.00  0.00     0.074 A 
ATOM     40  C   UNL A   1      40.427  28.763  31.978  1.00  0.00     0.049 A 
ATOM     41  N   UNL A   1      39.564  31.210  30.665  1.00  0.00    -0.248 NA
ATOM     42  C   UNL A   1      39.010  30.112  28.741  1.00  0.00     0.031 C 
ATOM     43  C   UNL A   1      39.839  29.582  33.040  1.00  0.00     0.029 A 
ATOM     44  N   UNL A   1      41.202  27.853  32.704  1.00  0.00    -0.354 N 
ATOM     45  C   UNL A   1      38.618  31.965  30.016  1.00  0.00     0.074 A 
ATOM     46  C   UNL A   1      38.459  31.327  28.742  1.00  0.00     0.031 C 
ATOM     47  C   UNL A   1      40.512  29.368  34.189  1.00  0.00     0.029 A 
ATOM     48  C   UNL A   1      41.631  28.493  33.872  1.00  0.00     0.049 A 
ATOM     49  H   UNL A   1      41.408  26.927  32.442  1.00  0.00     0.167 HD
ATOM     50  C   UNL A   1      37.976  32.933  30.726  1.00  0.00     0.034 A 
ATOM     51  C   UNL A   1      42.957  28.693  34.093  1.00  0.00     0.034 A 
ATOM     52  C   UNL A   1      38.644  33.138  32.026  1.00  0.00     0.049 A 
ATOM     53  C   UNL A   1      43.201  30.184  34.112  1.00  0.00     0.074 A 
ATOM     54  C   UNL A   1      38.293  32.885  33.341  1.00  0.00     0.029 A 
ATOM     55  N   UNL A   1      40.021  33.390  32.044  1.00  0.00    -0.354 N 
ATOM     56  N   UNL A   1      42.361  31.044  33.599  1.00  0.00    -0.248 NA
ATOM     57  C   UNL A   1      44.325  30.831  34.772  1.00  0.00     0.031 C 
ATOM     58  C   UNL A   1      39.491  32.879  34.122  1.00  0.00     0.029 A 
ATOM     59  C   UNL A   1      40.566  33.179  33.297  1.00  0.00     0.049 A 
ATOM     60  H   UNL A   1      40.539  33.681  31.259  1.00  0.00     0.167 HD
ATOM     61  C   UNL A   1      42.743  32.314  33.902  1.00  0.00     0.074 A 
ATOM     62  C   UNL A   1      43.997  32.129  34.622  1.00  0.00     0.031 C 
ATOM     63  C   UNL A   1      41.995  33.401  33.535  1.00  0.00     0.034 A 
BRANCH  50  64
ATOM     64  C   UNL A   1      36.632  33.550  30.353  1.00  0.00     0.023 A 
ATOM     65  C   UNL A   1      35.758  33.941  31.390  1.00  0.00     0.031 A 
ATOM     66  C   UNL A   1      36.102  33.707  29.049  1.00  0.00     0.131 A 
ATOM     67  C   UNL A   1      34.463  34.438  31.120  1.00  0.00     0.055 A 
ATOM     68  C   UNL A   1      34.834  34.241  28.782  1.00  0.00     0.041 A 
ATOM     69  F   UNL A   1      36.742  33.319  27.945  1.00  0.00    -0.206 F 
ATOM     70  C   UNL A   1      34.003  34.607  29.818  1.00  0.00     0.022 A 
BRANCH  67  71
ATOM     71  S   UNL A   1      33.356  34.836  32.499  1.00  0.00     0.124 S 
ATOM     72  O   UNL A   1      34.126  35.838  33.229  1.00  0.00    -0.237 OA
ATOM     73  O   UNL A   1      32.160  35.308  31.812  1.00  0.00    -0.237 OA
ATOM     74  O   UNL A   1      33.203  33.556  33.190  1.00  0.00    -0.744 OA
ENDBRANCH  67  71
ENDBRANCH  50  64
BRANCH  51  75
ATOM     75  C   UNL A   1      43.805  27.596  33.506  1.00  0.00     0.023 A 
ATOM     76  C   UNL A   1      43.945  26.380  34.239  1.00  0.00     0.031 A 
ATOM     77  C   UNL A   1      44.095  27.548  32.136  1.00  0.00     0.131 A 
ATOM     78  C   UNL A   1      44.234  25.165  33.583  1.00  0.00     0.055 A 
ATOM     79  C   UNL A   1      44.399  26.338  31.490  1.00  0.00     0.041 A 
ATOM     80  F   UNL A   1      43.962  28.641  31.371  1.00  0.00    -0.206 F 
ATOM     81  C   UNL A   1      44.430  25.138  32.201  1.00  0.00     0.022 A 
BRANCH  78  82
ATOM     82  S   UNL A   1      44.101  23.577  34.486  1.00  0.00     0.124 S 
ATOM     83  O   UNL A   1      44.738  22.641  33.568  1.00  0.00    -0.237 OA
ATOM     84  O   UNL A   1      44.824  23.830  35.728  1.00  0.00    -0.237 OA
ATOM     85  O   UNL A   1      42.660  23.407  34.668  1.00  0.00    -0.744 OA
ENDBRANCH  78  82
ENDBRANCH  51  75
BRANCH  63  86
ATOM     86  C   UNL A   1      42.553  34.799  33.426  1.00  0.00     0.023 A 
ATOM     87  C   UNL A   1      43.219  35.253  32.282  1.00  0.00     0.031 A 
ATOM     88  C   UNL A   1      42.334  35.772  34.430  1.00  0.00     0.131 A 
ATOM     89  C   UNL A   1      43.735  36.552  32.203  1.00  0.00     0.055 A 
ATOM     90  C   UNL A   1      42.746  37.101  34.301  1.00  0.00     0.041 A 
ATOM     91  F   UNL A   1      41.694  35.487  35.573  1.00  0.00    -0.206 F 
ATOM     92  C   UNL A   1      43.476  37.495  33.191  1.00  0.00     0.022 A 
BRANCH  89  93
ATOM     93  S   UNL A   1      44.834  36.927  30.818  1.00  0.00     0.124 S 
ATOM     94  O   UNL A   1      44.888  38.387  30.869  1.00  0.00    -0.237 OA
ATOM     95  O   UNL A   1      46.064  36.238  31.195  1.00  0.00    -0.237 OA
ATOM     96  O   UNL A   1      44.135  36.371  29.664  1.00  0.00    -0.744 OA
ENDBRANCH  89  93
ENDBRANCH  63  86
ENDBRANCH  37  38
ENDBRANCH  30  32
ENDBRANCH  29  30
ENDBRANCH  28  29
ENDBRANCH  27  28
ENDBRANCH   1  27
TORSDOF 20
ENDMDL
MODEL 3
REMARK VINA RESULT:     -11.1      2.550      3.724
REMARK SMILES Cc1cccc(Cn2c(=O)c3sccc3n(CC(=O)OCCOCCOC(=O)c3ccc(-c4c5nc(c(-c6cc(S(=O)(=O)[O-])ccc6F)c6ccc([nH]6)c(-c6cc(S(=O)(=O)[O-])ccc6F)c6nc(c(-c7cc(S(=O)(=O)[O-])ccc7F)c7ccc4[nH]7)C=C6)C=C5)cc3)c2=O)c1
REMARK SMILES IDX 23 1 22 2 21 3 20 4 18 5 19 6 17 7 16 8 8 9 9 10 92 11 10 12
REMARK SMILES IDX 11 13 93 14 12 15 15 16 13 17 14 18 7 19 6 20 1 21 2 22 3 23
REMARK SMILES IDX 94 24 4 25 5 26 24 27 25 28 26 29 27 30 28 31 29 32 30 33
REMARK SMILES IDX 91 34 31 35 90 36 32 37 33 38 34 39 84 40 35 41 89 42 83 43
REMARK SMILES IDX 85 44 36 45 88 46 82 47 81 48 37 50 69 51 49 52 68 53 50 54
REMARK SMILES IDX 53 55 67 56 86 57 51 58 52 59 66 61 87 62 54 63 38 64 39 65
REMARK SMILES IDX 47 66 40 67 46 68 48 69 45 70 41 71 42 72 43 73 44 74 70 75
REMARK SMILES IDX 71 76 79 77 72 78 78 79 80 80 77 81 73 82 74 83 75 84 76 85
REMARK SMILES IDX 55 86 56 87 64 88 57 89 63 90 65 91 62 92 58 93 59 94 60 95
REMARK SMILES IDX 61 96
REMARK H PARENT 85 49 53 60
REMARK Flexibility Score: inf
ROOT
ATOM      1  O   UNL A   1      33.030  31.227  27.357  1.00  0.00    -0.374 OA
ENDROOT
BRANCH   1   2
ATOM      2  C   UNL A   1      32.300  30.342  26.507  1.00  0.00     0.202 C 
BRANCH   2   3
ATOM      3  C   UNL A   1      32.453  29.005  27.146  1.00  0.00     0.261 C 
BRANCH   3   4
ATOM      4  O   UNL A   1      31.273  28.226  26.980  1.00  0.00    -0.462 OA
BRANCH   4   5
ATOM      5  C   UNL A   1      31.320  26.909  26.627  1.00  0.00     0.326 C 
ATOM      6  O   UNL A   1      30.392  26.135  26.597  1.00  0.00    -0.250 OA
BRANCH   5   7
ATOM      7  C   UNL A   1      32.768  26.524  26.316  1.00  0.00     0.250 C 
BRANCH   7   8
ATOM      8  N   UNL A   1      32.749  25.429  25.341  1.00  0.00    -0.281 N 
ATOM      9  N   UNL A   1      33.320  23.153  24.864  1.00  0.00    -0.254 N 
ATOM     10  C   UNL A   1      33.207  23.313  23.480  1.00  0.00     0.274 A 
ATOM     11  C   UNL A   1      33.206  24.186  25.800  1.00  0.00     0.332 A 
ATOM     12  O   UNL A   1      33.273  22.381  22.678  1.00  0.00    -0.268 OA
ATOM     13  C   UNL A   1      32.924  24.671  23.083  1.00  0.00     0.116 A 
ATOM     14  O   UNL A   1      33.486  24.052  26.996  1.00  0.00    -0.247 OA
ATOM     15  S   UNL A   1      32.894  25.202  21.469  1.00  0.00    -0.136 S 
ATOM     16  C   UNL A   1      32.672  25.679  23.972  1.00  0.00     0.070 A 
ATOM     17  C   UNL A   1      32.541  26.810  21.951  1.00  0.00     0.068 A 
ATOM     18  C   UNL A   1      32.438  26.924  23.321  1.00  0.00     0.039 A 
BRANCH   9  19
ATOM     19  C   UNL A   1      33.663  21.834  25.383  1.00  0.00     0.166 C 
BRANCH  19  20
ATOM     20  C   UNL A   1      35.176  21.691  25.461  1.00  0.00    -0.028 A 
ATOM     21  C   UNL A   1      38.257  23.820  26.148  1.00  0.00     0.044 C 
ATOM     22  C   UNL A   1      37.378  22.688  25.718  1.00  0.00    -0.051 A 
ATOM     23  C   UNL A   1      37.955  21.543  25.152  1.00  0.00     0.003 A 
ATOM     24  C   UNL A   1      35.984  22.768  25.845  1.00  0.00     0.009 A 
ATOM     25  C   UNL A   1      37.163  20.457  24.798  1.00  0.00     0.001 A 
ATOM     26  C   UNL A   1      35.789  20.517  24.994  1.00  0.00     0.005 A 
ENDBRANCH  19  20
ENDBRANCH   9  19
ENDBRANCH   7   8
ENDBRANCH   5   7
ENDBRANCH   4   5
ENDBRANCH   3   4
ENDBRANCH   2   3
ENDBRANCH   1   2
BRANCH   1  27
ATOM     27  C   UNL A   1      32.569  32.558  27.352  1.00  0.00     0.202 C 
BRANCH  27  28
ATOM     28  C   UNL A   1      33.514  33.551  28.036  1.00  0.00     0.261 C 
BRANCH  28  29
ATOM     29  O   UNL A   1      34.181  32.916  29.146  1.00  0.00    -0.460 OA
BRANCH  29  30
ATOM     30  C   UNL A   1      34.562  33.760  30.146  1.00  0.00     0.338 C 
ATOM     31  O   UNL A   1      33.854  34.624  30.637  1.00  0.00    -0.246 OA
BRANCH  30  32
ATOM     32  C   UNL A   1      36.013  33.579  30.437  1.00  0.00     0.060 A 
ATOM     33  C   UNL A   1      36.973  33.908  29.465  1.00  0.00     0.016 A 
ATOM     34  C   UNL A   1      36.378  32.830  31.553  1.00  0.00     0.016 A 
ATOM     35  C   UNL A   1      38.262  33.359  29.539  1.00  0.00     0.010 A 
ATOM     36  C   UNL A   1      37.606  32.205  31.559  1.00  0.00     0.010 A 
ATOM     37  C   UNL A   1      38.550  32.444  30.547  1.00  0.00    -0.014 A 
BRANCH  37  38
ATOM     38  C   UNL A   1      39.772  31.640  30.656  1.00  0.00     0.031 A 
ATOM     39  C   UNL A   1      39.772  30.327  29.979  1.00  0.00     0.074 A 
ATOM     40  C   UNL A   1      40.928  32.126  31.174  1.00  0.00     0.049 A 
ATOM     41  N   UNL A   1      40.617  29.393  30.232  1.00  0.00    -0.248 NA
ATOM     42  C   UNL A   1      38.766  29.913  28.999  1.00  0.00     0.031 C 
ATOM     43  C   UNL A   1      42.291  31.612  31.033  1.00  0.00     0.029 A 
ATOM     44  N   UNL A   1      41.114  33.220  32.027  1.00  0.00    -0.354 N 
ATOM     45  C   UNL A   1      40.518  28.466  29.224  1.00  0.00     0.074 A 
ATOM     46  C   UNL A   1      39.247  28.729  28.614  1.00  0.00     0.031 C 
ATOM     47  C   UNL A   1      43.070  32.148  31.995  1.00  0.00     0.029 A 
ATOM     48  C   UNL A   1      42.201  32.933  32.859  1.00  0.00     0.049 A 
ATOM     49  H   UNL A   1      40.577  34.045  32.038  1.00  0.00     0.167 HD
ATOM     50  C   UNL A   1      41.615  27.710  28.942  1.00  0.00     0.034 A 
ATOM     51  C   UNL A   1      42.023  32.835  34.204  1.00  0.00     0.034 A 
ATOM     52  C   UNL A   1      42.637  27.884  29.992  1.00  0.00     0.049 A 
ATOM     53  C   UNL A   1      42.333  31.413  34.607  1.00  0.00     0.074 A 
ATOM     54  C   UNL A   1      43.888  28.475  30.032  1.00  0.00     0.029 A 
ATOM     55  N   UNL A   1      42.271  27.683  31.328  1.00  0.00    -0.354 N 
ATOM     56  N   UNL A   1      42.351  30.423  33.753  1.00  0.00    -0.248 NA
ATOM     57  C   UNL A   1      42.733  30.999  35.944  1.00  0.00     0.031 C 
ATOM     58  C   UNL A   1      44.212  28.724  31.403  1.00  0.00     0.029 A 
ATOM     59  C   UNL A   1      43.186  28.240  32.201  1.00  0.00     0.049 A 
ATOM     60  H   UNL A   1      41.459  27.203  31.612  1.00  0.00     0.167 HD
ATOM     61  C   UNL A   1      42.819  29.294  34.349  1.00  0.00     0.074 A 
ATOM     62  C   UNL A   1      43.026  29.700  35.733  1.00  0.00     0.031 C 
ATOM     63  C   UNL A   1      42.997  28.129  33.651  1.00  0.00     0.034 A 
BRANCH  50  64
ATOM     64  C   UNL A   1      41.862  26.980  27.626  1.00  0.00     0.023 A 
ATOM     65  C   UNL A   1      42.079  25.586  27.658  1.00  0.00     0.031 A 
ATOM     66  C   UNL A   1      41.988  27.562  26.341  1.00  0.00     0.131 A 
ATOM     67  C   UNL A   1      42.400  24.858  26.490  1.00  0.00     0.055 A 
ATOM     68  C   UNL A   1      42.264  26.833  25.176  1.00  0.00     0.041 A 
ATOM     69  F   UNL A   1      41.900  28.875  26.118  1.00  0.00    -0.206 F 
ATOM     70  C   UNL A   1      42.476  25.473  25.245  1.00  0.00     0.022 A 
BRANCH  67  71
ATOM     71  S   UNL A   1      42.756  23.085  26.615  1.00  0.00     0.124 S 
ATOM     72  O   UNL A   1      41.730  22.506  25.755  1.00  0.00    -0.237 OA
ATOM     73  O   UNL A   1      44.129  23.009  26.131  1.00  0.00    -0.237 OA
ATOM     74  O   UNL A   1      42.592  22.806  28.042  1.00  0.00    -0.744 OA
ENDBRANCH  67  71
ENDBRANCH  50  64
BRANCH  51  75
ATOM     75  C   UNL A   1      40.941  33.754  34.705  1.00  0.00     0.023 A 
ATOM     76  C   UNL A   1      39.726  33.175  35.181  1.00  0.00     0.031 A 
ATOM     77  C   UNL A   1      41.224  35.063  35.116  1.00  0.00     0.131 A 
ATOM     78  C   UNL A   1      38.921  33.849  36.123  1.00  0.00     0.055 A 
ATOM     79  C   UNL A   1      40.409  35.736  36.042  1.00  0.00     0.041 A 
ATOM     80  F   UNL A   1      42.358  35.668  34.736  1.00  0.00    -0.206 F 
ATOM     81  C   UNL A   1      39.280  35.118  36.579  1.00  0.00     0.022 A 
BRANCH  78  82
ATOM     82  S   UNL A   1      37.544  32.970  36.952  1.00  0.00     0.124 S 
ATOM     83  O   UNL A   1      37.787  31.583  36.576  1.00  0.00    -0.237 OA
ATOM     84  O   UNL A   1      37.741  33.282  38.364  1.00  0.00    -0.237 OA
ATOM     85  O   UNL A   1      36.350  33.585  36.375  1.00  0.00    -0.744 OA
ENDBRANCH  78  82
ENDBRANCH  51  75
BRANCH  63  86
ATOM     86  C   UNL A   1      43.064  26.769  34.302  1.00  0.00     0.023 A 
ATOM     87  C   UNL A   1      44.273  26.094  34.504  1.00  0.00     0.031 A 
ATOM     88  C   UNL A   1      41.919  26.147  34.853  1.00  0.00     0.131 A 
ATOM     89  C   UNL A   1      44.313  24.830  35.104  1.00  0.00     0.055 A 
ATOM     90  C   UNL A   1      41.975  24.941  35.556  1.00  0.00     0.041 A 
ATOM     91  F   UNL A   1      40.695  26.686  34.754  1.00  0.00    -0.206 F 
ATOM     92  C   UNL A   1      43.176  24.258  35.664  1.00  0.00     0.022 A 
BRANCH  89  93
ATOM     93  S   UNL A   1      45.876  23.925  35.034  1.00  0.00     0.124 S 
ATOM     94  O   UNL A   1      46.483  24.476  33.823  1.00  0.00    -0.237 OA
ATOM     95  O   UNL A   1      46.518  24.305  36.288  1.00  0.00    -0.237 OA
ATOM     96  O   UNL A   1      45.461  22.528  34.941  1.00  0.00    -0.744 OA
ENDBRANCH  89  93
ENDBRANCH  63  86
ENDBRANCH  37  38
ENDBRANCH  30  32
ENDBRANCH  29  30
ENDBRANCH  28  29
ENDBRANCH  27  28
ENDBRANCH   1  27
TORSDOF 20
ENDMDL
