MODEL 1
REMARK VINA RESULT:     -11.5      0.000      0.000
REMARK SMILES CCOc1ccccc1-c1cc(C(=O)OCCOCCOC(=O)c2ccc(-c3c4nc(c(-c5cc(S(=O)(=O)[O-])ccc5F)c5ccc([nH]5)c(-c5cc(S(=O)(=O)[O-])ccc5F)c5nc(c(-c6cc(S(=O)(=O)[O-])ccc6F)c6ccc3[nH]6)C=C5)C=C4)cc2)c2cc(C)cc(C)c2n1
REMARK SMILES IDX 18 1 17 2 16 3 15 4 13 5 14 6 12 7 10 8 11 9 95 10 94 11
REMARK SMILES IDX 87 12 92 13 88 14 91 15 93 16 89 17 90 18 9 19 4 20 5 21
REMARK SMILES IDX 6 22 8 23 7 24 3 25 2 26 1 27 19 28 20 29 21 30 22 31 23 32
REMARK SMILES IDX 24 33 25 34 86 35 26 36 85 37 27 38 28 39 29 40 79 41 30 42
REMARK SMILES IDX 84 43 78 44 80 45 31 46 83 47 77 48 76 49 32 51 64 52 44 53
REMARK SMILES IDX 63 54 45 55 48 56 62 57 81 58 46 59 47 60 61 62 82 63 49 64
REMARK SMILES IDX 33 65 34 66 42 67 35 68 41 69 43 70 40 71 36 72 37 73 38 74
REMARK SMILES IDX 39 75 65 76 66 77 74 78 67 79 73 80 75 81 72 82 68 83 69 84
REMARK SMILES IDX 70 85 71 86 50 87 51 88 59 89 52 90 58 91 60 92 57 93 53 94
REMARK SMILES IDX 54 95 55 96 56 97
REMARK H PARENT 80 50 48 61
REMARK Flexibility Score: inf
ROOT
ATOM      1  O   UNL A   1      37.891  21.172  25.377  1.00  0.00    -0.374 OA
ENDROOT
BRANCH   1   2
ATOM      2  C   UNL A   1      36.848  21.840  24.665  1.00  0.00     0.202 C 
BRANCH   2   3
ATOM      3  C   UNL A   1      36.945  23.365  24.689  1.00  0.00     0.261 C 
BRANCH   3   4
ATOM      4  O   UNL A   1      36.485  23.906  25.943  1.00  0.00    -0.460 OA
BRANCH   4   5
ATOM      5  C   UNL A   1      35.157  23.744  26.149  1.00  0.00     0.338 C 
ATOM      6  O   UNL A   1      34.641  22.936  26.907  1.00  0.00    -0.246 OA
BRANCH   5   7
ATOM      7  C   UNL A   1      34.337  24.665  25.333  1.00  0.00     0.071 A 
ATOM      8  C   UNL A   1      33.248  26.684  24.835  1.00  0.00     0.076 A 
ATOM      9  C   UNL A   1      33.931  25.928  25.768  1.00  0.00     0.045 A 
ATOM     10  N   UNL A   1      33.540  26.481  23.532  1.00  0.00    -0.247 NA
ATOM     11  C   UNL A   1      33.533  25.203  23.155  1.00  0.00     0.075 A 
ATOM     12  C   UNL A   1      33.862  24.212  24.083  1.00  0.00     0.015 A 
ATOM     13  C   UNL A   1      33.011  24.852  21.910  1.00  0.00    -0.024 A 
ATOM     14  C   UNL A   1      33.512  22.873  23.810  1.00  0.00     0.014 A 
ATOM     15  C   UNL A   1      32.594  23.531  21.689  1.00  0.00     0.009 A 
ATOM     16  C   UNL A   1      32.707  25.898  20.874  1.00  0.00     0.047 C 
ATOM     17  C   UNL A   1      32.787  22.550  22.662  1.00  0.00    -0.050 A 
ATOM     18  C   UNL A   1      32.070  21.235  22.585  1.00  0.00     0.044 C 
BRANCH   8  19
ATOM     19  C   UNL A   1      31.772  26.962  24.916  1.00  0.00     0.042 A 
ATOM     20  C   UNL A   1      30.888  26.013  25.486  1.00  0.00     0.128 A 
ATOM     21  C   UNL A   1      29.611  25.808  24.950  1.00  0.00     0.047 A 
ATOM     22  C   UNL A   1      29.139  26.631  23.933  1.00  0.00     0.004 A 
ATOM     23  C   UNL A   1      31.223  27.860  23.976  1.00  0.00     0.014 A 
ATOM     24  C   UNL A   1      29.923  27.691  23.486  1.00  0.00     0.001 A 
BRANCH  20  25
ATOM     25  O   UNL A   1      31.332  25.119  26.431  1.00  0.00    -0.493 OA
BRANCH  25  26
ATOM     26  C   UNL A   1      30.417  24.029  26.595  1.00  0.00     0.226 C 
ATOM     27  C   UNL A   1      31.133  22.707  26.390  1.00  0.00     0.049 C 
ENDBRANCH  25  26
ENDBRANCH  20  25
ENDBRANCH   8  19
ENDBRANCH   5   7
ENDBRANCH   4   5
ENDBRANCH   3   4
ENDBRANCH   2   3
ENDBRANCH   1   2
BRANCH   1  28
ATOM     28  C   UNL A   1      38.191  19.853  24.908  1.00  0.00     0.202 C 
BRANCH  28  29
ATOM     29  C   UNL A   1      39.405  19.214  25.597  1.00  0.00     0.261 C 
BRANCH  29  30
ATOM     30  O   UNL A   1      39.846  20.026  26.703  1.00  0.00    -0.460 OA
BRANCH  30  31
ATOM     31  C   UNL A   1      41.139  20.432  26.629  1.00  0.00     0.338 C 
ATOM     32  O   UNL A   1      42.052  19.855  26.066  1.00  0.00    -0.246 OA
BRANCH  31  33
ATOM     33  C   UNL A   1      41.270  21.804  27.166  1.00  0.00     0.060 A 
ATOM     34  C   UNL A   1      40.723  22.841  26.398  1.00  0.00     0.016 A 
ATOM     35  C   UNL A   1      41.944  22.089  28.356  1.00  0.00     0.016 A 
ATOM     36  C   UNL A   1      40.899  24.167  26.786  1.00  0.00     0.010 A 
ATOM     37  C   UNL A   1      42.125  23.425  28.741  1.00  0.00     0.010 A 
ATOM     38  C   UNL A   1      41.636  24.472  27.937  1.00  0.00    -0.014 A 
BRANCH  38  39
ATOM     39  C   UNL A   1      42.018  25.884  28.197  1.00  0.00     0.031 A 
ATOM     40  C   UNL A   1      43.387  26.357  27.784  1.00  0.00     0.074 A 
ATOM     41  C   UNL A   1      41.135  26.753  28.723  1.00  0.00     0.049 A 
ATOM     42  N   UNL A   1      43.932  27.538  27.914  1.00  0.00    -0.248 NA
ATOM     43  C   UNL A   1      44.253  25.361  27.133  1.00  0.00     0.031 C 
ATOM     44  C   UNL A   1      39.761  26.429  29.108  1.00  0.00     0.029 A 
ATOM     45  N   UNL A   1      41.260  28.088  29.017  1.00  0.00    -0.354 N 
ATOM     46  C   UNL A   1      45.202  27.433  27.357  1.00  0.00     0.074 A 
ATOM     47  C   UNL A   1      45.359  26.060  26.925  1.00  0.00     0.031 C 
ATOM     48  C   UNL A   1      39.170  27.538  29.585  1.00  0.00     0.029 A 
ATOM     49  C   UNL A   1      40.131  28.640  29.574  1.00  0.00     0.049 A 
ATOM     50  H   UNL A   1      42.082  28.603  28.843  1.00  0.00     0.167 HD
ATOM     51  C   UNL A   1      46.147  28.394  27.208  1.00  0.00     0.034 A 
ATOM     52  C   UNL A   1      39.904  29.885  30.040  1.00  0.00     0.034 A 
ATOM     53  C   UNL A   1      45.985  29.757  27.653  1.00  0.00     0.049 A 
ATOM     54  C   UNL A   1      40.999  30.918  29.943  1.00  0.00     0.074 A 
ATOM     55  C   UNL A   1      46.887  30.803  27.569  1.00  0.00     0.029 A 
ATOM     56  N   UNL A   1      44.848  30.263  28.270  1.00  0.00    -0.354 N 
ATOM     57  N   UNL A   1      42.209  30.795  29.448  1.00  0.00    -0.248 NA
ATOM     58  C   UNL A   1      40.694  32.259  30.458  1.00  0.00     0.031 C 
ATOM     59  C   UNL A   1      46.322  31.922  28.191  1.00  0.00     0.029 A 
ATOM     60  C   UNL A   1      45.036  31.599  28.593  1.00  0.00     0.049 A 
ATOM     61  H   UNL A   1      44.029  29.749  28.450  1.00  0.00     0.167 HD
ATOM     62  C   UNL A   1      42.800  32.050  29.572  1.00  0.00     0.074 A 
ATOM     63  C   UNL A   1      41.809  32.917  30.176  1.00  0.00     0.031 C 
ATOM     64  C   UNL A   1      44.048  32.451  29.213  1.00  0.00     0.034 A 
BRANCH  51  65
ATOM     65  C   UNL A   1      47.457  27.988  26.580  1.00  0.00     0.023 A 
ATOM     66  C   UNL A   1      47.627  27.945  25.184  1.00  0.00     0.031 A 
ATOM     67  C   UNL A   1      48.548  27.627  27.388  1.00  0.00     0.131 A 
ATOM     68  C   UNL A   1      48.843  27.501  24.642  1.00  0.00     0.055 A 
ATOM     69  C   UNL A   1      49.778  27.253  26.843  1.00  0.00     0.041 A 
ATOM     70  F   UNL A   1      48.436  27.626  28.726  1.00  0.00    -0.206 F 
ATOM     71  C   UNL A   1      49.927  27.178  25.462  1.00  0.00     0.022 A 
BRANCH  68  72
ATOM     72  S   UNL A   1      48.953  27.241  22.850  1.00  0.00     0.124 S 
ATOM     73  O   UNL A   1      50.392  27.353  22.624  1.00  0.00    -0.237 OA
ATOM     74  O   UNL A   1      48.382  25.909  22.688  1.00  0.00    -0.237 OA
ATOM     75  O   UNL A   1      48.155  28.334  22.297  1.00  0.00    -0.744 OA
ENDBRANCH  68  72
ENDBRANCH  51  65
BRANCH  52  76
ATOM     76  C   UNL A   1      38.599  30.216  30.679  1.00  0.00     0.023 A 
ATOM     77  C   UNL A   1      37.618  30.956  30.001  1.00  0.00     0.031 A 
ATOM     78  C   UNL A   1      38.328  29.816  32.001  1.00  0.00     0.131 A 
ATOM     79  C   UNL A   1      36.423  31.297  30.656  1.00  0.00     0.055 A 
ATOM     80  C   UNL A   1      37.121  30.117  32.632  1.00  0.00     0.041 A 
ATOM     81  F   UNL A   1      39.234  29.106  32.692  1.00  0.00    -0.206 F 
ATOM     82  C   UNL A   1      36.163  30.871  31.961  1.00  0.00     0.022 A 
BRANCH  79  83
ATOM     83  S   UNL A   1      35.227  32.353  29.794  1.00  0.00     0.124 S 
ATOM     84  O   UNL A   1      34.742  31.461  28.747  1.00  0.00    -0.237 OA
ATOM     85  O   UNL A   1      34.280  32.671  30.857  1.00  0.00    -0.237 OA
ATOM     86  O   UNL A   1      36.039  33.478  29.331  1.00  0.00    -0.744 OA
ENDBRANCH  79  83
ENDBRANCH  52  76
BRANCH  64  87
ATOM     87  C   UNL A   1      44.397  33.903  29.431  1.00  0.00     0.023 A 
ATOM     88  C   UNL A   1      44.095  34.889  28.477  1.00  0.00     0.031 A 
ATOM     89  C   UNL A   1      45.038  34.303  30.618  1.00  0.00     0.131 A 
ATOM     90  C   UNL A   1      44.481  36.219  28.703  1.00  0.00     0.055 A 
ATOM     91  C   UNL A   1      45.367  35.637  30.862  1.00  0.00     0.041 A 
ATOM     92  F   UNL A   1      45.350  33.403  31.564  1.00  0.00    -0.206 F 
ATOM     93  C   UNL A   1      45.100  36.602  29.896  1.00  0.00     0.022 A 
BRANCH  90  94
ATOM     94  S   UNL A   1      44.238  37.434  27.377  1.00  0.00     0.124 S 
ATOM     95  O   UNL A   1      43.111  36.864  26.645  1.00  0.00    -0.237 OA
ATOM     96  O   UNL A   1      43.961  38.658  28.121  1.00  0.00    -0.237 OA
ATOM     97  O   UNL A   1      45.512  37.421  26.661  1.00  0.00    -0.744 OA
ENDBRANCH  90  94
ENDBRANCH  64  87
ENDBRANCH  38  39
ENDBRANCH  31  33
ENDBRANCH  30  31
ENDBRANCH  29  30
ENDBRANCH  28  29
ENDBRANCH   1  28
TORSDOF 20
ENDMDL
MODEL 2
REMARK VINA RESULT:     -11.3      2.626      4.015
REMARK SMILES CCOc1ccccc1-c1cc(C(=O)OCCOCCOC(=O)c2ccc(-c3c4nc(c(-c5cc(S(=O)(=O)[O-])ccc5F)c5ccc([nH]5)c(-c5cc(S(=O)(=O)[O-])ccc5F)c5nc(c(-c6cc(S(=O)(=O)[O-])ccc6F)c6ccc3[nH]6)C=C5)C=C4)cc2)c2cc(C)cc(C)c2n1
REMARK SMILES IDX 18 1 17 2 16 3 15 4 13 5 14 6 12 7 10 8 11 9 95 10 94 11
REMARK SMILES IDX 87 12 92 13 88 14 91 15 93 16 89 17 90 18 9 19 4 20 5 21
REMARK SMILES IDX 6 22 8 23 7 24 3 25 2 26 1 27 19 28 20 29 21 30 22 31 23 32
REMARK SMILES IDX 24 33 25 34 86 35 26 36 85 37 27 38 28 39 29 40 79 41 30 42
REMARK SMILES IDX 84 43 78 44 80 45 31 46 83 47 77 48 76 49 32 51 64 52 44 53
REMARK SMILES IDX 63 54 45 55 48 56 62 57 81 58 46 59 47 60 61 62 82 63 49 64
REMARK SMILES IDX 33 65 34 66 42 67 35 68 41 69 43 70 40 71 36 72 37 73 38 74
REMARK SMILES IDX 39 75 65 76 66 77 74 78 67 79 73 80 75 81 72 82 68 83 69 84
REMARK SMILES IDX 70 85 71 86 50 87 51 88 59 89 52 90 58 91 60 92 57 93 53 94
REMARK SMILES IDX 54 95 55 96 56 97
REMARK H PARENT 80 50 48 61
REMARK Flexibility Score: inf
ROOT
ATOM      1  O   UNL A   1      38.885  21.973  26.487  1.00  0.00    -0.374 OA
ENDROOT
BRANCH   1   2
ATOM      2  C   UNL A   1      38.521  23.316  26.161  1.00  0.00     0.202 C 
BRANCH   2   3
ATOM      3  C   UNL A   1      37.015  23.570  26.128  1.00  0.00     0.261 C 
BRANCH   3   4
ATOM      4  O   UNL A   1      36.603  24.153  24.877  1.00  0.00    -0.460 OA
BRANCH   4   5
ATOM      5  C   UNL A   1      36.217  23.241  23.953  1.00  0.00     0.338 C 
ATOM      6  O   UNL A   1      36.759  23.034  22.878  1.00  0.00    -0.246 OA
BRANCH   5   7
ATOM      7  C   UNL A   1      35.016  22.484  24.369  1.00  0.00     0.071 A 
ATOM      8  C   UNL A   1      33.826  20.590  25.078  1.00  0.00     0.076 A 
ATOM      9  C   UNL A   1      35.017  21.109  24.611  1.00  0.00     0.045 A 
ATOM     10  N   UNL A   1      33.035  21.403  25.811  1.00  0.00    -0.247 NA
ATOM     11  C   UNL A   1      32.812  22.598  25.266  1.00  0.00     0.075 A 
ATOM     12  C   UNL A   1      33.783  23.167  24.438  1.00  0.00     0.015 A 
ATOM     13  C   UNL A   1      31.546  23.177  25.362  1.00  0.00    -0.024 A 
ATOM     14  C   UNL A   1      33.420  24.229  23.585  1.00  0.00     0.014 A 
ATOM     15  C   UNL A   1      31.178  24.176  24.449  1.00  0.00     0.009 A 
ATOM     16  C   UNL A   1      30.506  22.617  26.292  1.00  0.00     0.047 C 
ATOM     17  C   UNL A   1      32.095  24.662  23.516  1.00  0.00    -0.050 A 
ATOM     18  C   UNL A   1      31.642  25.476  22.341  1.00  0.00     0.044 C 
BRANCH   8  19
ATOM     19  C   UNL A   1      32.916  19.726  24.248  1.00  0.00     0.042 A 
ATOM     20  C   UNL A   1      33.122  18.327  24.169  1.00  0.00     0.128 A 
ATOM     21  C   UNL A   1      32.912  17.636  22.969  1.00  0.00     0.047 A 
ATOM     22  C   UNL A   1      32.365  18.291  21.871  1.00  0.00     0.004 A 
ATOM     23  C   UNL A   1      32.247  20.334  23.164  1.00  0.00     0.014 A 
ATOM     24  C   UNL A   1      31.981  19.624  21.987  1.00  0.00     0.001 A 
BRANCH  20  25
ATOM     25  O   UNL A   1      33.741  17.649  25.192  1.00  0.00    -0.493 OA
BRANCH  25  26
ATOM     26  C   UNL A   1      34.987  17.083  24.771  1.00  0.00     0.226 C 
ATOM     27  C   UNL A   1      35.092  15.642  25.236  1.00  0.00     0.049 C 
ENDBRANCH  25  26
ENDBRANCH  20  25
ENDBRANCH   8  19
ENDBRANCH   5   7
ENDBRANCH   4   5
ENDBRANCH   3   4
ENDBRANCH   2   3
ENDBRANCH   1   2
BRANCH   1  28
ATOM     28  C   UNL A   1      38.737  21.033  25.418  1.00  0.00     0.202 C 
BRANCH  28  29
ATOM     29  C   UNL A   1      39.394  19.674  25.696  1.00  0.00     0.261 C 
BRANCH  29  30
ATOM     30  O   UNL A   1      40.451  19.810  26.667  1.00  0.00    -0.460 OA
BRANCH  30  31
ATOM     31  C   UNL A   1      41.705  19.769  26.151  1.00  0.00     0.338 C 
ATOM     32  O   UNL A   1      42.189  18.872  25.484  1.00  0.00    -0.246 OA
BRANCH  31  33
ATOM     33  C   UNL A   1      42.372  21.077  26.336  1.00  0.00     0.060 A 
ATOM     34  C   UNL A   1      42.684  21.449  27.650  1.00  0.00     0.016 A 
ATOM     35  C   UNL A   1      42.647  21.942  25.274  1.00  0.00     0.016 A 
ATOM     36  C   UNL A   1      43.215  22.709  27.913  1.00  0.00     0.010 A 
ATOM     37  C   UNL A   1      43.177  23.212  25.542  1.00  0.00     0.010 A 
ATOM     38  C   UNL A   1      43.428  23.616  26.867  1.00  0.00    -0.014 A 
BRANCH  38  39
ATOM     39  C   UNL A   1      43.761  25.027  27.190  1.00  0.00     0.031 A 
ATOM     40  C   UNL A   1      45.156  25.526  26.919  1.00  0.00     0.074 A 
ATOM     41  C   UNL A   1      42.819  25.873  27.646  1.00  0.00     0.049 A 
ATOM     42  N   UNL A   1      45.668  26.711  27.124  1.00  0.00    -0.248 NA
ATOM     43  C   UNL A   1      46.096  24.556  26.335  1.00  0.00     0.031 C 
ATOM     44  C   UNL A   1      41.420  25.523  27.890  1.00  0.00     0.029 A 
ATOM     45  N   UNL A   1      42.895  27.203  27.976  1.00  0.00    -0.354 N 
ATOM     46  C   UNL A   1      46.987  26.635  26.690  1.00  0.00     0.074 A 
ATOM     47  C   UNL A   1      47.206  25.273  26.248  1.00  0.00     0.031 C 
ATOM     48  C   UNL A   1      40.769  26.614  28.330  1.00  0.00     0.029 A 
ATOM     49  C   UNL A   1      41.710  27.729  28.433  1.00  0.00     0.049 A 
ATOM     50  H   UNL A   1      43.722  27.732  27.892  1.00  0.00     0.167 HD
ATOM     51  C   UNL A   1      47.928  27.612  26.651  1.00  0.00     0.034 A 
ATOM     52  C   UNL A   1      41.420  28.960  28.899  1.00  0.00     0.034 A 
ATOM     53  C   UNL A   1      47.703  28.962  27.105  1.00  0.00     0.049 A 
ATOM     54  C   UNL A   1      42.504  30.009  28.928  1.00  0.00     0.074 A 
ATOM     55  C   UNL A   1      48.593  30.022  27.129  1.00  0.00     0.029 A 
ATOM     56  N   UNL A   1      46.505  29.440  27.620  1.00  0.00    -0.354 N 
ATOM     57  N   UNL A   1      43.758  29.913  28.550  1.00  0.00    -0.248 NA
ATOM     58  C   UNL A   1      42.131  31.336  29.438  1.00  0.00     0.031 C 
ATOM     59  C   UNL A   1      47.954  31.120  27.715  1.00  0.00     0.029 A 
ATOM     60  C   UNL A   1      46.641  30.771  27.985  1.00  0.00     0.049 A 
ATOM     61  H   UNL A   1      45.680  28.912  27.711  1.00  0.00     0.167 HD
ATOM     62  C   UNL A   1      44.315  31.172  28.755  1.00  0.00     0.074 A 
ATOM     63  C   UNL A   1      43.258  32.014  29.278  1.00  0.00     0.031 C 
ATOM     64  C   UNL A   1      45.585  31.597  28.524  1.00  0.00     0.034 A 
BRANCH  51  65
ATOM     65  C   UNL A   1      49.297  27.235  26.143  1.00  0.00     0.023 A 
ATOM     66  C   UNL A   1      49.715  27.548  24.837  1.00  0.00     0.031 A 
ATOM     67  C   UNL A   1      50.196  26.545  26.975  1.00  0.00     0.131 A 
ATOM     68  C   UNL A   1      50.974  27.123  24.386  1.00  0.00     0.055 A 
ATOM     69  C   UNL A   1      51.475  26.188  26.543  1.00  0.00     0.041 A 
ATOM     70  F   UNL A   1      49.843  26.200  28.224  1.00  0.00    -0.206 F 
ATOM     71  C   UNL A   1      51.866  26.468  25.238  1.00  0.00     0.022 A 
BRANCH  68  72
ATOM     72  S   UNL A   1      51.389  27.340  22.633  1.00  0.00     0.124 S 
ATOM     73  O   UNL A   1      52.619  26.561  22.523  1.00  0.00    -0.237 OA
ATOM     74  O   UNL A   1      50.219  26.787  21.961  1.00  0.00    -0.237 OA
ATOM     75  O   UNL A   1      51.561  28.785  22.499  1.00  0.00    -0.744 OA
ENDBRANCH  68  72
ENDBRANCH  51  65
BRANCH  52  76
ATOM     76  C   UNL A   1      40.055  29.261  29.417  1.00  0.00     0.023 A 
ATOM     77  C   UNL A   1      39.784  29.293  30.793  1.00  0.00     0.031 A 
ATOM     78  C   UNL A   1      38.989  29.495  28.528  1.00  0.00     0.131 A 
ATOM     79  C   UNL A   1      38.473  29.526  31.242  1.00  0.00     0.055 A 
ATOM     80  C   UNL A   1      37.698  29.771  28.979  1.00  0.00     0.041 A 
ATOM     81  F   UNL A   1      39.197  29.475  27.202  1.00  0.00    -0.206 F 
ATOM     82  C   UNL A   1      37.433  29.778  30.344  1.00  0.00     0.022 A 
BRANCH  79  83
ATOM     83  S   UNL A   1      38.134  29.444  33.022  1.00  0.00     0.124 S 
ATOM     84  O   UNL A   1      39.479  29.338  33.577  1.00  0.00    -0.237 OA
ATOM     85  O   UNL A   1      37.439  30.705  33.257  1.00  0.00    -0.237 OA
ATOM     86  O   UNL A   1      37.306  28.246  33.155  1.00  0.00    -0.744 OA
ENDBRANCH  79  83
ENDBRANCH  52  76
BRANCH  64  87
ATOM     87  C   UNL A   1      45.889  33.049  28.804  1.00  0.00     0.023 A 
ATOM     88  C   UNL A   1      46.413  33.473  30.036  1.00  0.00     0.031 A 
ATOM     89  C   UNL A   1      45.654  34.021  27.815  1.00  0.00     0.131 A 
ATOM     90  C   UNL A   1      46.636  34.839  30.268  1.00  0.00     0.055 A 
ATOM     91  C   UNL A   1      45.932  35.372  28.030  1.00  0.00     0.041 A 
ATOM     92  F   UNL A   1      45.154  33.673  26.618  1.00  0.00    -0.206 F 
ATOM     93  C   UNL A   1      46.415  35.788  29.267  1.00  0.00     0.022 A 
BRANCH  90  94
ATOM     94  S   UNL A   1      47.142  35.371  31.927  1.00  0.00     0.124 S 
ATOM     95  O   UNL A   1      46.882  36.806  31.878  1.00  0.00    -0.237 OA
ATOM     96  O   UNL A   1      46.258  34.592  32.788  1.00  0.00    -0.237 OA
ATOM     97  O   UNL A   1      48.554  34.999  31.992  1.00  0.00    -0.744 OA
ENDBRANCH  90  94
ENDBRANCH  64  87
ENDBRANCH  38  39
ENDBRANCH  31  33
ENDBRANCH  30  31
ENDBRANCH  29  30
ENDBRANCH  28  29
ENDBRANCH   1  28
TORSDOF 20
ENDMDL
MODEL 3
REMARK VINA RESULT:     -11.2      1.813      2.836
REMARK SMILES CCOc1ccccc1-c1cc(C(=O)OCCOCCOC(=O)c2ccc(-c3c4nc(c(-c5cc(S(=O)(=O)[O-])ccc5F)c5ccc([nH]5)c(-c5cc(S(=O)(=O)[O-])ccc5F)c5nc(c(-c6cc(S(=O)(=O)[O-])ccc6F)c6ccc3[nH]6)C=C5)C=C4)cc2)c2cc(C)cc(C)c2n1
REMARK SMILES IDX 18 1 17 2 16 3 15 4 13 5 14 6 12 7 10 8 11 9 95 10 94 11
REMARK SMILES IDX 87 12 92 13 88 14 91 15 93 16 89 17 90 18 9 19 4 20 5 21
REMARK SMILES IDX 6 22 8 23 7 24 3 25 2 26 1 27 19 28 20 29 21 30 22 31 23 32
REMARK SMILES IDX 24 33 25 34 86 35 26 36 85 37 27 38 28 39 29 40 79 41 30 42
REMARK SMILES IDX 84 43 78 44 80 45 31 46 83 47 77 48 76 49 32 51 64 52 44 53
REMARK SMILES IDX 63 54 45 55 48 56 62 57 81 58 46 59 47 60 61 62 82 63 49 64
REMARK SMILES IDX 33 65 34 66 42 67 35 68 41 69 43 70 40 71 36 72 37 73 38 74
REMARK SMILES IDX 39 75 65 76 66 77 74 78 67 79 73 80 75 81 72 82 68 83 69 84
REMARK SMILES IDX 70 85 71 86 50 87 51 88 59 89 52 90 58 91 60 92 57 93 53 94
REMARK SMILES IDX 54 95 55 96 56 97
REMARK H PARENT 80 50 48 61
REMARK Flexibility Score: inf
ROOT
ATOM      1  O   UNL A   1      36.383  21.949  23.835  1.00  0.00    -0.374 OA
ENDROOT
BRANCH   1   2
ATOM      2  C   UNL A   1      36.431  23.349  24.115  1.00  0.00     0.202 C 
BRANCH   2   3
ATOM      3  C   UNL A   1      35.175  24.116  23.704  1.00  0.00     0.261 C 
BRANCH   3   4
ATOM      4  O   UNL A   1      34.639  23.627  22.459  1.00  0.00    -0.460 OA
BRANCH   4   5
ATOM      5  C   UNL A   1      33.354  23.210  22.548  1.00  0.00     0.338 C 
ATOM      6  O   UNL A   1      32.889  22.202  22.037  1.00  0.00    -0.246 OA
BRANCH   5   7
ATOM      7  C   UNL A   1      32.512  24.126  23.347  1.00  0.00     0.071 A 
ATOM      8  C   UNL A   1      31.358  26.120  23.797  1.00  0.00     0.076 A 
ATOM      9  C   UNL A   1      32.236  25.443  22.974  1.00  0.00     0.045 A 
ATOM     10  N   UNL A   1      30.422  25.392  24.445  1.00  0.00    -0.247 NA
ATOM     11  C   UNL A   1      30.896  24.325  25.087  1.00  0.00     0.075 A 
ATOM     12  C   UNL A   1      32.035  23.680  24.598  1.00  0.00     0.015 A 
ATOM     13  C   UNL A   1      30.379  23.983  26.336  1.00  0.00    -0.024 A 
ATOM     14  C   UNL A   1      32.742  22.801  25.445  1.00  0.00     0.014 A 
ATOM     15  C   UNL A   1      31.137  23.174  27.195  1.00  0.00     0.009 A 
ATOM     16  C   UNL A   1      29.121  24.622  26.855  1.00  0.00     0.047 C 
ATOM     17  C   UNL A   1      32.352  22.631  26.774  1.00  0.00    -0.050 A 
ATOM     18  C   UNL A   1      33.319  22.048  27.761  1.00  0.00     0.044 C 
BRANCH   8  19
ATOM     19  C   UNL A   1      31.780  27.222  24.731  1.00  0.00     0.042 A 
ATOM     20  C   UNL A   1      31.925  28.550  24.261  1.00  0.00     0.128 A 
ATOM     21  C   UNL A   1      32.954  29.372  24.737  1.00  0.00     0.047 A 
ATOM     22  C   UNL A   1      33.766  28.943  25.781  1.00  0.00     0.004 A 
ATOM     23  C   UNL A   1      32.533  26.862  25.868  1.00  0.00     0.014 A 
ATOM     24  C   UNL A   1      33.519  27.712  26.383  1.00  0.00     0.001 A 
BRANCH  20  25
ATOM     25  O   UNL A   1      31.208  28.993  23.175  1.00  0.00    -0.493 OA
BRANCH  25  26
ATOM     26  C   UNL A   1      29.996  29.644  23.574  1.00  0.00     0.226 C 
ATOM     27  C   UNL A   1      28.806  29.007  22.880  1.00  0.00     0.049 C 
ENDBRANCH  25  26
ENDBRANCH  20  25
ENDBRANCH   8  19
ENDBRANCH   5   7
ENDBRANCH   4   5
ENDBRANCH   3   4
ENDBRANCH   2   3
ENDBRANCH   1   2
BRANCH   1  28
ATOM     28  C   UNL A   1      36.137  21.115  24.973  1.00  0.00     0.202 C 
BRANCH  28  29
ATOM     29  C   UNL A   1      37.325  20.221  25.353  1.00  0.00     0.261 C 
BRANCH  29  30
ATOM     30  O   UNL A   1      38.570  20.918  25.148  1.00  0.00    -0.460 OA
BRANCH  30  31
ATOM     31  C   UNL A   1      39.515  20.681  26.092  1.00  0.00     0.338 C 
ATOM     32  O   UNL A   1      40.084  19.624  26.304  1.00  0.00    -0.246 OA
BRANCH  31  33
ATOM     33  C   UNL A   1      39.928  21.952  26.725  1.00  0.00     0.060 A 
ATOM     34  C   UNL A   1      39.310  23.121  26.263  1.00  0.00     0.016 A 
ATOM     35  C   UNL A   1      40.920  22.021  27.707  1.00  0.00     0.016 A 
ATOM     36  C   UNL A   1      39.721  24.365  26.736  1.00  0.00     0.010 A 
ATOM     37  C   UNL A   1      41.337  23.274  28.177  1.00  0.00     0.010 A 
ATOM     38  C   UNL A   1      40.765  24.454  27.665  1.00  0.00    -0.014 A 
BRANCH  38  39
ATOM     39  C   UNL A   1      41.349  25.786  27.970  1.00  0.00     0.031 A 
ATOM     40  C   UNL A   1      42.745  26.095  27.497  1.00  0.00     0.074 A 
ATOM     41  C   UNL A   1      40.623  26.733  28.592  1.00  0.00     0.049 A 
ATOM     42  N   UNL A   1      43.451  27.184  27.650  1.00  0.00    -0.248 NA
ATOM     43  C   UNL A   1      43.431  25.032  26.746  1.00  0.00     0.031 C 
ATOM     44  C   UNL A   1      39.241  26.573  29.045  1.00  0.00     0.029 A 
ATOM     45  N   UNL A   1      40.944  28.021  28.942  1.00  0.00    -0.354 N 
ATOM     46  C   UNL A   1      44.663  26.943  27.011  1.00  0.00     0.074 A 
ATOM     47  C   UNL A   1      44.608  25.588  26.504  1.00  0.00     0.031 C 
ATOM     48  C   UNL A   1      38.833  27.722  29.611  1.00  0.00     0.029 A 
ATOM     49  C   UNL A   1      39.933  28.686  29.595  1.00  0.00     0.049 A 
ATOM     50  H   UNL A   1      41.817  28.431  28.743  1.00  0.00     0.167 HD
ATOM     51  C   UNL A   1      45.721  27.777  26.851  1.00  0.00     0.034 A 
ATOM     52  C   UNL A   1      39.903  29.921  30.134  1.00  0.00     0.034 A 
ATOM     53  C   UNL A   1      45.770  29.122  27.371  1.00  0.00     0.049 A 
ATOM     54  C   UNL A   1      41.121  30.803  30.020  1.00  0.00     0.074 A 
ATOM     55  C   UNL A   1      46.800  30.042  27.283  1.00  0.00     0.029 A 
ATOM     56  N   UNL A   1      44.748  29.739  28.082  1.00  0.00    -0.354 N 
ATOM     57  N   UNL A   1      42.275  30.549  29.445  1.00  0.00    -0.248 NA
ATOM     58  C   UNL A   1      41.030  32.142  30.618  1.00  0.00     0.031 C 
ATOM     59  C   UNL A   1      46.427  31.189  27.993  1.00  0.00     0.029 A 
ATOM     60  C   UNL A   1      45.133  31.017  28.457  1.00  0.00     0.049 A 
ATOM     61  H   UNL A   1      43.877  29.329  28.287  1.00  0.00     0.167 HD
ATOM     62  C   UNL A   1      43.037  31.705  29.594  1.00  0.00     0.074 A 
ATOM     63  C   UNL A   1      42.208  32.661  30.300  1.00  0.00     0.031 C 
ATOM     64  C   UNL A   1      44.306  31.956  29.178  1.00  0.00     0.034 A 
BRANCH  51  65
ATOM     65  C   UNL A   1      46.927  27.237  26.124  1.00  0.00     0.023 A 
ATOM     66  C   UNL A   1      47.962  26.568  26.801  1.00  0.00     0.031 A 
ATOM     67  C   UNL A   1      47.047  27.402  24.733  1.00  0.00     0.131 A 
ATOM     68  C   UNL A   1      49.095  26.136  26.094  1.00  0.00     0.055 A 
ATOM     69  C   UNL A   1      48.144  26.907  24.024  1.00  0.00     0.041 A 
ATOM     70  F   UNL A   1      46.101  28.053  24.038  1.00  0.00    -0.206 F 
ATOM     71  C   UNL A   1      49.182  26.279  24.707  1.00  0.00     0.022 A 
BRANCH  68  72
ATOM     72  S   UNL A   1      50.507  25.485  27.028  1.00  0.00     0.124 S 
ATOM     73  O   UNL A   1      49.925  24.301  27.654  1.00  0.00    -0.237 OA
ATOM     74  O   UNL A   1      51.492  25.238  25.982  1.00  0.00    -0.237 OA
ATOM     75  O   UNL A   1      50.836  26.571  27.951  1.00  0.00    -0.744 OA
ENDBRANCH  68  72
ENDBRANCH  51  65
BRANCH  52  76
ATOM     76  C   UNL A   1      38.692  30.386  30.868  1.00  0.00     0.023 A 
ATOM     77  C   UNL A   1      37.660  31.077  30.215  1.00  0.00     0.031 A 
ATOM     78  C   UNL A   1      38.567  30.166  32.252  1.00  0.00     0.131 A 
ATOM     79  C   UNL A   1      36.560  31.549  30.952  1.00  0.00     0.055 A 
ATOM     80  C   UNL A   1      37.452  30.597  32.972  1.00  0.00     0.041 A 
ATOM     81  F   UNL A   1      39.528  29.510  32.923  1.00  0.00    -0.206 F 
ATOM     82  C   UNL A   1      36.444  31.301  32.321  1.00  0.00     0.022 A 
BRANCH  79  83
ATOM     83  S   UNL A   1      35.302  32.540  30.101  1.00  0.00     0.124 S 
ATOM     84  O   UNL A   1      36.059  33.731  29.733  1.00  0.00    -0.237 OA
ATOM     85  O   UNL A   1      34.914  31.661  29.003  1.00  0.00    -0.237 OA
ATOM     86  O   UNL A   1      34.278  32.741  31.125  1.00  0.00    -0.744 OA
ENDBRANCH  79  83
ENDBRANCH  52  76
BRANCH  64  87
ATOM     87  C   UNL A   1      44.860  33.334  29.445  1.00  0.00     0.023 A 
ATOM     88  C   UNL A   1      44.702  34.388  28.529  1.00  0.00     0.031 A 
ATOM     89  C   UNL A   1      45.555  33.595  30.640  1.00  0.00     0.131 A 
ATOM     90  C   UNL A   1      45.275  35.640  28.798  1.00  0.00     0.055 A 
ATOM     91  C   UNL A   1      46.073  34.858  30.929  1.00  0.00     0.041 A 
ATOM     92  F   UNL A   1      45.736  32.626  31.551  1.00  0.00    -0.206 F 
ATOM     93  C   UNL A   1      45.945  35.886  30.000  1.00  0.00     0.022 A 
BRANCH  90  94
ATOM     94  S   UNL A   1      45.206  36.924  27.518  1.00  0.00     0.124 S 
ATOM     95  O   UNL A   1      46.234  36.476  26.583  1.00  0.00    -0.237 OA
ATOM     96  O   UNL A   1      43.829  36.823  27.048  1.00  0.00    -0.237 OA
ATOM     97  O   UNL A   1      45.523  38.152  28.246  1.00  0.00    -0.744 OA
ENDBRANCH  90  94
ENDBRANCH  64  87
ENDBRANCH  38  39
ENDBRANCH  31  33
ENDBRANCH  30  31
ENDBRANCH  29  30
ENDBRANCH  28  29
ENDBRANCH   1  28
TORSDOF 20
ENDMDL
