MODEL 1
REMARK VINA RESULT:      -9.8      0.000      0.000
REMARK SMILES CC(C)(O)CC[C@@H](C(=O)OCCOCCOC(=O)c1ccc(-c2c3nc(c(-c4cc(S(=O)(=O)[O-])ccc4F)c4ccc([nH]4)c(-c4cc(S(=O)(=O)[O-])ccc4F)c4nc(c(-c5cc(S(=O)(=O)[O-])ccc5F)c5ccc2[nH]5)C=C4)C=C3)cc1)[C@@H]1CCS(=O)(=O)C1
REMARK SMILES IDX 12 1 11 2 10 3 8 4 9 5 7 6 6 7 5 8 2 9 1 10 3 11 4 12 82 14
REMARK SMILES IDX 83 15 88 16 84 17 85 18 86 19 87 20 13 21 14 22 15 23 16 24
REMARK SMILES IDX 17 25 18 26 19 27 20 28 81 29 21 30 80 31 22 32 23 33 24 34
REMARK SMILES IDX 74 35 25 36 79 37 73 38 75 39 26 40 78 41 72 42 71 43 27 45
REMARK SMILES IDX 59 46 39 47 58 48 40 49 43 50 57 51 76 52 41 53 42 54 56 56
REMARK SMILES IDX 77 57 44 58 28 59 29 60 37 61 30 62 36 63 38 64 35 65 31 66
REMARK SMILES IDX 32 67 33 68 34 69 60 70 61 71 69 72 62 73 68 74 70 75 67 76
REMARK SMILES IDX 63 77 64 78 65 79 66 80 45 81 46 82 54 83 47 84 53 85 55 86
REMARK SMILES IDX 52 87 48 88 49 89 50 90 51 91
REMARK H PARENT 4 13 75 44 43 55
REMARK Flexibility Score: inf
ROOT
ATOM      1  C   UNL A   1      32.227  29.303  27.191  1.00  0.00     0.202 C 
ENDROOT
BRANCH   1   2
ATOM      2  C   UNL A   1      31.695  27.869  27.188  1.00  0.00     0.261 C 
BRANCH   2   3
ATOM      3  O   UNL A   1      32.727  26.952  26.788  1.00  0.00    -0.463 OA
BRANCH   3   4
ATOM      4  C   UNL A   1      32.328  25.747  26.326  1.00  0.00     0.309 C 
ATOM      5  O   UNL A   1      31.405  25.102  26.812  1.00  0.00    -0.252 OA
BRANCH   4   6
ATOM      6  C   UNL A   1      33.126  25.269  25.097  1.00  0.00     0.103 C 
BRANCH   6   7
ATOM      7  C   UNL A   1      34.617  24.945  25.339  1.00  0.00     0.018 C 
BRANCH   7   8
ATOM      8  C   UNL A   1      35.032  23.550  25.852  1.00  0.00     0.035 C 
BRANCH   8   9
ATOM      9  C   UNL A   1      35.518  22.506  24.825  1.00  0.00     0.059 C 
ATOM     10  C   UNL A   1      36.128  21.242  25.436  1.00  0.00     0.042 C 
ATOM     11  C   UNL A   1      36.567  23.162  23.917  1.00  0.00     0.042 C 
BRANCH   9  12
ATOM     12  O   UNL A   1      34.399  22.122  24.031  1.00  0.00    -0.390 OA
ATOM     13  H   UNL A   1      34.702  21.580  23.285  1.00  0.00     0.211 HD
ENDBRANCH   9  12
ENDBRANCH   8   9
ENDBRANCH   7   8
ENDBRANCH   6   7
BRANCH   6  14
ATOM     14  C   UNL A   1      32.900  26.348  23.973  1.00  0.00     0.019 C 
ATOM     15  C   UNL A   1      31.467  26.249  23.386  1.00  0.00     0.021 C 
ATOM     16  C   UNL A   1      33.791  26.271  22.723  1.00  0.00     0.141 C 
ATOM     17  C   UNL A   1      31.447  25.046  22.448  1.00  0.00     0.137 C 
ATOM     18  S   UNL A   1      33.039  25.060  21.646  1.00  0.00     0.150 S 
ATOM     19  O   UNL A   1      33.677  23.777  21.854  1.00  0.00    -0.229 OA
ATOM     20  O   UNL A   1      32.891  25.639  20.329  1.00  0.00    -0.229 OA
ENDBRANCH   6  14
ENDBRANCH   4   6
ENDBRANCH   3   4
ENDBRANCH   2   3
ENDBRANCH   1   2
BRANCH   1  21
ATOM     21  O   UNL A   1      32.130  30.024  25.964  1.00  0.00    -0.374 OA
BRANCH  21  22
ATOM     22  C   UNL A   1      31.357  31.222  25.952  1.00  0.00     0.202 C 
BRANCH  22  23
ATOM     23  C   UNL A   1      31.643  32.277  27.030  1.00  0.00     0.261 C 
BRANCH  23  24
ATOM     24  O   UNL A   1      33.046  32.481  27.263  1.00  0.00    -0.460 OA
BRANCH  24  25
ATOM     25  C   UNL A   1      33.335  33.575  28.014  1.00  0.00     0.338 C 
ATOM     26  O   UNL A   1      32.677  34.598  28.097  1.00  0.00    -0.246 OA
BRANCH  25  27
ATOM     27  C   UNL A   1      34.474  33.287  28.906  1.00  0.00     0.060 A 
ATOM     28  C   UNL A   1      35.712  33.865  28.589  1.00  0.00     0.016 A 
ATOM     29  C   UNL A   1      34.357  32.404  29.979  1.00  0.00     0.016 A 
ATOM     30  C   UNL A   1      36.852  33.522  29.313  1.00  0.00     0.010 A 
ATOM     31  C   UNL A   1      35.502  32.054  30.698  1.00  0.00     0.010 A 
ATOM     32  C   UNL A   1      36.761  32.581  30.345  1.00  0.00    -0.014 A 
BRANCH  32  33
ATOM     33  C   UNL A   1      37.989  32.015  30.954  1.00  0.00     0.031 A 
ATOM     34  C   UNL A   1      38.755  30.969  30.193  1.00  0.00     0.074 A 
ATOM     35  C   UNL A   1      38.400  32.402  32.173  1.00  0.00     0.049 A 
ATOM     36  N   UNL A   1      39.748  30.216  30.582  1.00  0.00    -0.248 NA
ATOM     37  C   UNL A   1      38.322  30.738  28.808  1.00  0.00     0.031 C 
ATOM     38  C   UNL A   1      37.774  33.447  32.980  1.00  0.00     0.029 A 
ATOM     39  N   UNL A   1      39.429  31.939  32.955  1.00  0.00    -0.354 N 
ATOM     40  C   UNL A   1      40.045  29.395  29.499  1.00  0.00     0.074 A 
ATOM     41  C   UNL A   1      39.101  29.728  28.452  1.00  0.00     0.031 C 
ATOM     42  C   UNL A   1      38.411  33.522  34.161  1.00  0.00     0.029 A 
ATOM     43  C   UNL A   1      39.450  32.492  34.212  1.00  0.00     0.049 A 
ATOM     44  H   UNL A   1      40.085  31.273  32.645  1.00  0.00     0.167 HD
ATOM     45  C   UNL A   1      41.015  28.451  29.391  1.00  0.00     0.034 A 
ATOM     46  C   UNL A   1      40.183  32.171  35.297  1.00  0.00     0.034 A 
ATOM     47  C   UNL A   1      41.933  28.130  30.459  1.00  0.00     0.049 A 
ATOM     48  C   UNL A   1      41.195  31.056  35.198  1.00  0.00     0.074 A 
ATOM     49  C   UNL A   1      42.970  27.213  30.456  1.00  0.00     0.029 A 
ATOM     50  N   UNL A   1      41.909  28.696  31.728  1.00  0.00    -0.354 N 
ATOM     51  N   UNL A   1      41.472  30.281  34.174  1.00  0.00    -0.248 NA
ATOM     52  C   UNL A   1      41.996  30.775  36.396  1.00  0.00     0.031 C 
ATOM     53  C   UNL A   1      43.508  27.158  31.747  1.00  0.00     0.029 A 
ATOM     54  C   UNL A   1      42.882  28.117  32.529  1.00  0.00     0.049 A 
ATOM     55  H   UNL A   1      41.291  29.406  32.018  1.00  0.00     0.167 HD
ATOM     56  C   UNL A   1      42.505  29.445  34.595  1.00  0.00     0.074 A 
ATOM     57  C   UNL A   1      42.797  29.809  35.967  1.00  0.00     0.031 C 
ATOM     58  C   UNL A   1      43.161  28.478  33.902  1.00  0.00     0.034 A 
BRANCH  45  59
ATOM     59  C   UNL A   1      41.067  27.656  28.106  1.00  0.00     0.023 A 
ATOM     60  C   UNL A   1      40.601  26.331  28.030  1.00  0.00     0.031 A 
ATOM     61  C   UNL A   1      41.657  28.207  26.955  1.00  0.00     0.131 A 
ATOM     62  C   UNL A   1      40.833  25.572  26.873  1.00  0.00     0.055 A 
ATOM     63  C   UNL A   1      41.791  27.480  25.771  1.00  0.00     0.041 A 
ATOM     64  F   UNL A   1      42.144  29.459  26.968  1.00  0.00    -0.206 F 
ATOM     65  C   UNL A   1      41.399  26.146  25.732  1.00  0.00     0.022 A 
BRANCH  62  66
ATOM     66  S   UNL A   1      40.575  23.777  26.953  1.00  0.00     0.124 S 
ATOM     67  O   UNL A   1      40.950  23.486  28.334  1.00  0.00    -0.237 OA
ATOM     68  O   UNL A   1      39.158  23.649  26.635  1.00  0.00    -0.237 OA
ATOM     69  O   UNL A   1      41.494  23.254  25.943  1.00  0.00    -0.744 OA
ENDBRANCH  62  66
ENDBRANCH  45  59
BRANCH  46  70
ATOM     70  C   UNL A   1      39.936  32.877  36.586  1.00  0.00     0.023 A 
ATOM     71  C   UNL A   1      38.955  32.436  37.487  1.00  0.00     0.031 A 
ATOM     72  C   UNL A   1      40.694  34.011  36.935  1.00  0.00     0.131 A 
ATOM     73  C   UNL A   1      38.747  33.135  38.686  1.00  0.00     0.055 A 
ATOM     74  C   UNL A   1      40.516  34.673  38.150  1.00  0.00     0.041 A 
ATOM     75  F   UNL A   1      41.646  34.472  36.109  1.00  0.00    -0.206 F 
ATOM     76  C   UNL A   1      39.531  34.239  39.032  1.00  0.00     0.022 A 
BRANCH  73  77
ATOM     77  S   UNL A   1      37.396  32.612  39.776  1.00  0.00     0.124 S 
ATOM     78  O   UNL A   1      36.260  32.613  38.861  1.00  0.00    -0.237 OA
ATOM     79  O   UNL A   1      37.858  31.302  40.224  1.00  0.00    -0.237 OA
ATOM     80  O   UNL A   1      37.369  33.646  40.807  1.00  0.00    -0.744 OA
ENDBRANCH  73  77
ENDBRANCH  46  70
BRANCH  58  81
ATOM     81  C   UNL A   1      44.315  27.784  34.590  1.00  0.00     0.023 A 
ATOM     82  C   UNL A   1      44.156  26.583  35.303  1.00  0.00     0.031 A 
ATOM     83  C   UNL A   1      45.610  28.331  34.498  1.00  0.00     0.131 A 
ATOM     84  C   UNL A   1      45.266  25.988  35.926  1.00  0.00     0.055 A 
ATOM     85  C   UNL A   1      46.718  27.702  35.067  1.00  0.00     0.041 A 
ATOM     86  F   UNL A   1      45.821  29.480  33.837  1.00  0.00    -0.206 F 
ATOM     87  C   UNL A   1      46.549  26.528  35.793  1.00  0.00     0.022 A 
BRANCH  84  88
ATOM     88  S   UNL A   1      45.005  24.538  36.985  1.00  0.00     0.124 S 
ATOM     89  O   UNL A   1      46.353  24.284  37.485  1.00  0.00    -0.237 OA
ATOM     90  O   UNL A   1      44.044  25.035  37.964  1.00  0.00    -0.237 OA
ATOM     91  O   UNL A   1      44.486  23.529  36.064  1.00  0.00    -0.744 OA
ENDBRANCH  84  88
ENDBRANCH  58  81
ENDBRANCH  32  33
ENDBRANCH  25  27
ENDBRANCH  24  25
ENDBRANCH  23  24
ENDBRANCH  22  23
ENDBRANCH  21  22
ENDBRANCH   1  21
TORSDOF 22
ENDMDL
MODEL 2
REMARK VINA RESULT:      -9.5      1.939      7.967
REMARK SMILES CC(C)(O)CC[C@@H](C(=O)OCCOCCOC(=O)c1ccc(-c2c3nc(c(-c4cc(S(=O)(=O)[O-])ccc4F)c4ccc([nH]4)c(-c4cc(S(=O)(=O)[O-])ccc4F)c4nc(c(-c5cc(S(=O)(=O)[O-])ccc5F)c5ccc2[nH]5)C=C4)C=C3)cc1)[C@@H]1CCS(=O)(=O)C1
REMARK SMILES IDX 12 1 11 2 10 3 8 4 9 5 7 6 6 7 5 8 2 9 1 10 3 11 4 12 82 14
REMARK SMILES IDX 83 15 88 16 84 17 85 18 86 19 87 20 13 21 14 22 15 23 16 24
REMARK SMILES IDX 17 25 18 26 19 27 20 28 81 29 21 30 80 31 22 32 23 33 24 34
REMARK SMILES IDX 74 35 25 36 79 37 73 38 75 39 26 40 78 41 72 42 71 43 27 45
REMARK SMILES IDX 59 46 39 47 58 48 40 49 43 50 57 51 76 52 41 53 42 54 56 56
REMARK SMILES IDX 77 57 44 58 28 59 29 60 37 61 30 62 36 63 38 64 35 65 31 66
REMARK SMILES IDX 32 67 33 68 34 69 60 70 61 71 69 72 62 73 68 74 70 75 67 76
REMARK SMILES IDX 63 77 64 78 65 79 66 80 45 81 46 82 54 83 47 84 53 85 55 86
REMARK SMILES IDX 52 87 48 88 49 89 50 90 51 91
REMARK H PARENT 4 13 75 44 43 55
REMARK Flexibility Score: inf
ROOT
ATOM      1  C   UNL A   1      32.259  28.747  26.636  1.00  0.00     0.202 C 
ENDROOT
BRANCH   1   2
ATOM      2  C   UNL A   1      31.494  27.473  26.997  1.00  0.00     0.261 C 
BRANCH   2   3
ATOM      3  O   UNL A   1      31.285  26.666  25.826  1.00  0.00    -0.463 OA
BRANCH   3   4
ATOM      4  C   UNL A   1      30.728  25.449  26.016  1.00  0.00     0.309 C 
ATOM      5  O   UNL A   1      29.766  25.247  26.747  1.00  0.00    -0.252 OA
BRANCH   4   6
ATOM      6  C   UNL A   1      31.399  24.334  25.190  1.00  0.00     0.103 C 
BRANCH   6   7
ATOM      7  C   UNL A   1      30.840  24.112  23.767  1.00  0.00     0.018 C 
BRANCH   7   8
ATOM      8  C   UNL A   1      31.210  25.088  22.630  1.00  0.00     0.035 C 
BRANCH   8   9
ATOM      9  C   UNL A   1      32.591  24.941  21.957  1.00  0.00     0.059 C 
ATOM     10  C   UNL A   1      33.753  25.564  22.734  1.00  0.00     0.042 C 
ATOM     11  C   UNL A   1      32.531  25.590  20.568  1.00  0.00     0.042 C 
BRANCH   9  12
ATOM     12  O   UNL A   1      32.854  23.549  21.801  1.00  0.00    -0.390 OA
ATOM     13  H   UNL A   1      32.696  23.291  20.879  1.00  0.00     0.211 HD
ENDBRANCH   9  12
ENDBRANCH   8   9
ENDBRANCH   7   8
ENDBRANCH   6   7
BRANCH   6  14
ATOM     14  C   UNL A   1      31.360  23.037  26.081  1.00  0.00     0.019 C 
ATOM     15  C   UNL A   1      32.500  23.050  27.133  1.00  0.00     0.021 C 
ATOM     16  C   UNL A   1      31.557  21.684  25.377  1.00  0.00     0.141 C 
ATOM     17  C   UNL A   1      33.792  22.694  26.402  1.00  0.00     0.137 C 
ATOM     18  S   UNL A   1      33.321  21.459  25.207  1.00  0.00     0.150 S 
ATOM     19  O   UNL A   1      33.733  21.902  23.891  1.00  0.00    -0.229 OA
ATOM     20  O   UNL A   1      33.673  20.154  25.723  1.00  0.00    -0.229 OA
ENDBRANCH   6  14
ENDBRANCH   4   6
ENDBRANCH   3   4
ENDBRANCH   2   3
ENDBRANCH   1   2
BRANCH   1  21
ATOM     21  O   UNL A   1      31.801  29.465  25.491  1.00  0.00    -0.374 OA
BRANCH  21  22
ATOM     22  C   UNL A   1      31.286  30.780  25.689  1.00  0.00     0.202 C 
BRANCH  22  23
ATOM     23  C   UNL A   1      31.820  31.594  26.876  1.00  0.00     0.261 C 
BRANCH  23  24
ATOM     24  O   UNL A   1      33.015  32.329  26.565  1.00  0.00    -0.460 OA
BRANCH  24  25
ATOM     25  C   UNL A   1      33.564  32.978  27.624  1.00  0.00     0.338 C 
ATOM     26  O   UNL A   1      33.065  33.890  28.261  1.00  0.00    -0.246 OA
BRANCH  25  27
ATOM     27  C   UNL A   1      34.795  32.287  28.055  1.00  0.00     0.060 A 
ATOM     28  C   UNL A   1      34.723  30.903  28.270  1.00  0.00     0.016 A 
ATOM     29  C   UNL A   1      35.969  32.989  28.325  1.00  0.00     0.016 A 
ATOM     30  C   UNL A   1      35.813  30.220  28.807  1.00  0.00     0.010 A 
ATOM     31  C   UNL A   1      37.058  32.304  28.872  1.00  0.00     0.010 A 
ATOM     32  C   UNL A   1      36.972  30.925  29.151  1.00  0.00    -0.014 A 
BRANCH  32  33
ATOM     33  C   UNL A   1      38.037  30.273  29.951  1.00  0.00     0.031 A 
ATOM     34  C   UNL A   1      38.228  30.698  31.380  1.00  0.00     0.074 A 
ATOM     35  C   UNL A   1      38.838  29.340  29.410  1.00  0.00     0.049 A 
ATOM     36  N   UNL A   1      39.184  30.400  32.218  1.00  0.00    -0.248 NA
ATOM     37  C   UNL A   1      37.201  31.597  31.925  1.00  0.00     0.031 C 
ATOM     38  C   UNL A   1      38.712  28.805  28.056  1.00  0.00     0.029 A 
ATOM     39  N   UNL A   1      39.934  28.698  29.929  1.00  0.00    -0.354 N 
ATOM     40  C   UNL A   1      38.894  31.099  33.385  1.00  0.00     0.074 A 
ATOM     41  C   UNL A   1      37.687  31.857  33.128  1.00  0.00     0.031 C 
ATOM     42  C   UNL A   1      39.716  27.940  27.838  1.00  0.00     0.029 A 
ATOM     43  C   UNL A   1      40.585  27.905  29.015  1.00  0.00     0.049 A 
ATOM     44  H   UNL A   1      40.226  28.797  30.864  1.00  0.00     0.167 HD
ATOM     45  C   UNL A   1      39.574  31.105  34.560  1.00  0.00     0.034 A 
ATOM     46  C   UNL A   1      41.771  27.268  29.096  1.00  0.00     0.034 A 
ATOM     47  C   UNL A   1      40.784  30.350  34.782  1.00  0.00     0.049 A 
ATOM     48  C   UNL A   1      42.568  27.356  30.375  1.00  0.00     0.074 A 
ATOM     49  C   UNL A   1      41.543  30.258  35.936  1.00  0.00     0.029 A 
ATOM     50  N   UNL A   1      41.428  29.575  33.824  1.00  0.00    -0.354 N 
ATOM     51  N   UNL A   1      42.291  28.018  31.476  1.00  0.00    -0.248 NA
ATOM     52  C   UNL A   1      43.831  26.610  30.425  1.00  0.00     0.031 C 
ATOM     53  C   UNL A   1      42.689  29.509  35.648  1.00  0.00     0.029 A 
ATOM     54  C   UNL A   1      42.596  29.041  34.346  1.00  0.00     0.049 A 
ATOM     55  H   UNL A   1      41.101  29.427  32.907  1.00  0.00     0.167 HD
ATOM     56  C   UNL A   1      43.330  27.738  32.362  1.00  0.00     0.074 A 
ATOM     57  C   UNL A   1      44.239  26.851  31.664  1.00  0.00     0.031 C 
ATOM     58  C   UNL A   1      43.504  28.163  33.640  1.00  0.00     0.034 A 
BRANCH  45  59
ATOM     59  C   UNL A   1      39.061  32.018  35.652  1.00  0.00     0.023 A 
ATOM     60  C   UNL A   1      39.458  33.363  35.746  1.00  0.00     0.031 A 
ATOM     61  C   UNL A   1      38.214  31.515  36.656  1.00  0.00     0.131 A 
ATOM     62  C   UNL A   1      39.102  34.121  36.873  1.00  0.00     0.055 A 
ATOM     63  C   UNL A   1      37.778  32.306  37.720  1.00  0.00     0.041 A 
ATOM     64  F   UNL A   1      37.817  30.233  36.637  1.00  0.00    -0.206 F 
ATOM     65  C   UNL A   1      38.242  33.611  37.846  1.00  0.00     0.022 A 
BRANCH  62  66
ATOM     66  S   UNL A   1      39.947  35.704  37.148  1.00  0.00     0.124 S 
ATOM     67  O   UNL A   1      39.279  36.190  38.353  1.00  0.00    -0.237 OA
ATOM     68  O   UNL A   1      41.338  35.295  37.309  1.00  0.00    -0.237 OA
ATOM     69  O   UNL A   1      39.654  36.464  35.934  1.00  0.00    -0.744 OA
ENDBRANCH  62  66
ENDBRANCH  45  59
BRANCH  46  70
ATOM     70  C   UNL A   1      42.299  26.545  27.905  1.00  0.00     0.023 A 
ATOM     71  C   UNL A   1      42.053  25.178  27.709  1.00  0.00     0.031 A 
ATOM     72  C   UNL A   1      43.060  27.227  26.936  1.00  0.00     0.131 A 
ATOM     73  C   UNL A   1      42.578  24.532  26.578  1.00  0.00     0.055 A 
ATOM     74  C   UNL A   1      43.538  26.590  25.790  1.00  0.00     0.041 A 
ATOM     75  F   UNL A   1      43.322  28.536  27.077  1.00  0.00    -0.206 F 
ATOM     76  C   UNL A   1      43.303  25.231  25.610  1.00  0.00     0.022 A 
BRANCH  73  77
ATOM     77  S   UNL A   1      42.341  22.742  26.411  1.00  0.00     0.124 S 
ATOM     78  O   UNL A   1      40.940  22.592  26.788  1.00  0.00    -0.237 OA
ATOM     79  O   UNL A   1      42.653  22.526  25.001  1.00  0.00    -0.237 OA
ATOM     80  O   UNL A   1      43.306  22.181  27.353  1.00  0.00    -0.744 OA
ENDBRANCH  73  77
ENDBRANCH  46  70
BRANCH  58  81
ATOM     81  C   UNL A   1      44.691  27.620  34.403  1.00  0.00     0.023 A 
ATOM     82  C   UNL A   1      44.633  26.420  35.134  1.00  0.00     0.031 A 
ATOM     83  C   UNL A   1      45.917  28.311  34.367  1.00  0.00     0.131 A 
ATOM     84  C   UNL A   1      45.768  25.968  35.828  1.00  0.00     0.055 A 
ATOM     85  C   UNL A   1      47.058  27.825  35.007  1.00  0.00     0.041 A 
ATOM     86  F   UNL A   1      46.030  29.465  33.692  1.00  0.00    -0.206 F 
ATOM     87  C   UNL A   1      46.986  26.651  35.750  1.00  0.00     0.022 A 
BRANCH  84  88
ATOM     88  S   UNL A   1      45.618  24.516  36.904  1.00  0.00     0.124 S 
ATOM     89  O   UNL A   1      47.007  24.277  37.284  1.00  0.00    -0.237 OA
ATOM     90  O   UNL A   1      44.741  25.001  37.964  1.00  0.00    -0.237 OA
ATOM     91  O   UNL A   1      45.032  23.500  36.032  1.00  0.00    -0.744 OA
ENDBRANCH  84  88
ENDBRANCH  58  81
ENDBRANCH  32  33
ENDBRANCH  25  27
ENDBRANCH  24  25
ENDBRANCH  23  24
ENDBRANCH  22  23
ENDBRANCH  21  22
ENDBRANCH   1  21
TORSDOF 22
ENDMDL
MODEL 3
REMARK VINA RESULT:      -9.1      5.677      9.480
REMARK SMILES CC(C)(O)CC[C@@H](C(=O)OCCOCCOC(=O)c1ccc(-c2c3nc(c(-c4cc(S(=O)(=O)[O-])ccc4F)c4ccc([nH]4)c(-c4cc(S(=O)(=O)[O-])ccc4F)c4nc(c(-c5cc(S(=O)(=O)[O-])ccc5F)c5ccc2[nH]5)C=C4)C=C3)cc1)[C@@H]1CCS(=O)(=O)C1
REMARK SMILES IDX 12 1 11 2 10 3 8 4 9 5 7 6 6 7 5 8 2 9 1 10 3 11 4 12 82 14
REMARK SMILES IDX 83 15 88 16 84 17 85 18 86 19 87 20 13 21 14 22 15 23 16 24
REMARK SMILES IDX 17 25 18 26 19 27 20 28 81 29 21 30 80 31 22 32 23 33 24 34
REMARK SMILES IDX 74 35 25 36 79 37 73 38 75 39 26 40 78 41 72 42 71 43 27 45
REMARK SMILES IDX 59 46 39 47 58 48 40 49 43 50 57 51 76 52 41 53 42 54 56 56
REMARK SMILES IDX 77 57 44 58 28 59 29 60 37 61 30 62 36 63 38 64 35 65 31 66
REMARK SMILES IDX 32 67 33 68 34 69 60 70 61 71 69 72 62 73 68 74 70 75 67 76
REMARK SMILES IDX 63 77 64 78 65 79 66 80 45 81 46 82 54 83 47 84 53 85 55 86
REMARK SMILES IDX 52 87 48 88 49 89 50 90 51 91
REMARK H PARENT 4 13 75 44 43 55
REMARK Flexibility Score: inf
ROOT
ATOM      1  C   UNL A   1      35.727  21.014  25.418  1.00  0.00     0.202 C 
ENDROOT
BRANCH   1   2
ATOM      2  C   UNL A   1      34.947  21.892  24.439  1.00  0.00     0.261 C 
BRANCH   2   3
ATOM      3  O   UNL A   1      34.353  23.005  25.128  1.00  0.00    -0.463 OA
BRANCH   3   4
ATOM      4  C   UNL A   1      34.993  24.192  25.034  1.00  0.00     0.309 C 
ATOM      5  O   UNL A   1      36.206  24.323  25.148  1.00  0.00    -0.252 OA
BRANCH   4   6
ATOM      6  C   UNL A   1      34.049  25.373  24.734  1.00  0.00     0.103 C 
BRANCH   6   7
ATOM      7  C   UNL A   1      33.593  26.205  25.953  1.00  0.00     0.018 C 
BRANCH   7   8
ATOM      8  C   UNL A   1      33.837  27.729  25.984  1.00  0.00     0.035 C 
BRANCH   8   9
ATOM      9  C   UNL A   1      32.878  28.609  26.815  1.00  0.00     0.059 C 
ATOM     10  C   UNL A   1      31.571  27.925  27.221  1.00  0.00     0.042 C 
ATOM     11  C   UNL A   1      32.538  29.865  26.002  1.00  0.00     0.042 C 
BRANCH   9  12
ATOM     12  O   UNL A   1      33.564  29.001  28.000  1.00  0.00    -0.390 OA
ATOM     13  H   UNL A   1      34.395  29.442  27.763  1.00  0.00     0.211 HD
ENDBRANCH   9  12
ENDBRANCH   8   9
ENDBRANCH   7   8
ENDBRANCH   6   7
BRANCH   6  14
ATOM     14  C   UNL A   1      32.849  24.783  23.903  1.00  0.00     0.019 C 
ATOM     15  C   UNL A   1      33.249  24.577  22.418  1.00  0.00     0.021 C 
ATOM     16  C   UNL A   1      31.569  25.628  23.802  1.00  0.00     0.141 C 
ATOM     17  C   UNL A   1      33.233  25.952  21.753  1.00  0.00     0.137 C 
ATOM     18  S   UNL A   1      31.846  26.801  22.483  1.00  0.00     0.150 S 
ATOM     19  O   UNL A   1      32.309  28.052  23.047  1.00  0.00    -0.229 OA
ATOM     20  O   UNL A   1      30.729  26.739  21.566  1.00  0.00    -0.229 OA
ENDBRANCH   6  14
ENDBRANCH   4   6
ENDBRANCH   3   4
ENDBRANCH   2   3
ENDBRANCH   1   2
BRANCH   1  21
ATOM     21  O   UNL A   1      37.021  20.583  24.998  1.00  0.00    -0.374 OA
BRANCH  21  22
ATOM     22  C   UNL A   1      38.128  21.442  25.257  1.00  0.00     0.202 C 
BRANCH  22  23
ATOM     23  C   UNL A   1      39.166  20.991  26.295  1.00  0.00     0.261 C 
BRANCH  23  24
ATOM     24  O   UNL A   1      40.145  20.086  25.758  1.00  0.00    -0.460 OA
BRANCH  24  25
ATOM     25  C   UNL A   1      41.278  19.985  26.499  1.00  0.00     0.338 C 
ATOM     26  O   UNL A   1      41.805  18.959  26.893  1.00  0.00    -0.246 OA
BRANCH  25  27
ATOM     27  C   UNL A   1      41.931  21.305  26.604  1.00  0.00     0.060 A 
ATOM     28  C   UNL A   1      42.244  21.777  27.886  1.00  0.00     0.016 A 
ATOM     29  C   UNL A   1      42.154  22.100  25.479  1.00  0.00     0.016 A 
ATOM     30  C   UNL A   1      42.734  23.070  28.057  1.00  0.00     0.010 A 
ATOM     31  C   UNL A   1      42.637  23.399  25.653  1.00  0.00     0.010 A 
ATOM     32  C   UNL A   1      42.894  23.903  26.944  1.00  0.00    -0.014 A 
BRANCH  32  33
ATOM     33  C   UNL A   1      43.168  25.350  27.123  1.00  0.00     0.031 A 
ATOM     34  C   UNL A   1      44.551  25.863  26.834  1.00  0.00     0.074 A 
ATOM     35  C   UNL A   1      42.213  26.188  27.560  1.00  0.00     0.049 A 
ATOM     36  N   UNL A   1      45.072  27.037  27.072  1.00  0.00    -0.248 NA
ATOM     37  C   UNL A   1      45.472  24.906  26.205  1.00  0.00     0.031 C 
ATOM     38  C   UNL A   1      40.822  25.819  27.817  1.00  0.00     0.029 A 
ATOM     39  N   UNL A   1      42.279  27.518  27.891  1.00  0.00    -0.354 N 
ATOM     40  C   UNL A   1      46.394  26.956  26.650  1.00  0.00     0.074 A 
ATOM     41  C   UNL A   1      46.596  25.604  26.170  1.00  0.00     0.031 C 
ATOM     42  C   UNL A   1      40.173  26.891  28.300  1.00  0.00     0.029 A 
ATOM     43  C   UNL A   1      41.115  28.001  28.440  1.00  0.00     0.049 A 
ATOM     44  H   UNL A   1      43.082  28.071  27.751  1.00  0.00     0.167 HD
ATOM     45  C   UNL A   1      47.348  27.921  26.662  1.00  0.00     0.034 A 
ATOM     46  C   UNL A   1      40.854  29.182  29.036  1.00  0.00     0.034 A 
ATOM     47  C   UNL A   1      47.121  29.257  27.162  1.00  0.00     0.049 A 
ATOM     48  C   UNL A   1      41.947  30.217  29.131  1.00  0.00     0.074 A 
ATOM     49  C   UNL A   1      48.003  30.323  27.201  1.00  0.00     0.029 A 
ATOM     50  N   UNL A   1      45.935  29.703  27.732  1.00  0.00    -0.354 N 
ATOM     51  N   UNL A   1      43.197  30.137  28.732  1.00  0.00    -0.248 NA
ATOM     52  C   UNL A   1      41.597  31.501  29.751  1.00  0.00     0.031 C 
ATOM     53  C   UNL A   1      47.383  31.379  27.878  1.00  0.00     0.029 A 
ATOM     54  C   UNL A   1      46.076  31.013  28.167  1.00  0.00     0.049 A 
ATOM     55  H   UNL A   1      45.113  29.168  27.816  1.00  0.00     0.167 HD
ATOM     56  C   UNL A   1      43.771  31.374  29.021  1.00  0.00     0.074 A 
ATOM     57  C   UNL A   1      42.732  32.178  29.631  1.00  0.00     0.031 C 
ATOM     58  C   UNL A   1      45.037  31.807  28.785  1.00  0.00     0.034 A 
BRANCH  45  59
ATOM     59  C   UNL A   1      48.733  27.531  26.197  1.00  0.00     0.023 A 
ATOM     60  C   UNL A   1      49.214  27.871  24.920  1.00  0.00     0.031 A 
ATOM     61  C   UNL A   1      49.562  26.745  27.018  1.00  0.00     0.131 A 
ATOM     62  C   UNL A   1      50.428  27.336  24.463  1.00  0.00     0.055 A 
ATOM     63  C   UNL A   1      50.817  26.303  26.596  1.00  0.00     0.041 A 
ATOM     64  F   UNL A   1      49.153  26.366  28.239  1.00  0.00    -0.206 F 
ATOM     65  C   UNL A   1      51.247  26.578  25.302  1.00  0.00     0.022 A 
BRANCH  62  66
ATOM     66  S   UNL A   1      50.820  27.474  22.696  1.00  0.00     0.124 S 
ATOM     67  O   UNL A   1      50.532  28.882  22.438  1.00  0.00    -0.237 OA
ATOM     68  O   UNL A   1      52.227  27.091  22.654  1.00  0.00    -0.237 OA
ATOM     69  O   UNL A   1      49.896  26.532  22.066  1.00  0.00    -0.744 OA
ENDBRANCH  62  66
ENDBRANCH  45  59
BRANCH  46  70
ATOM     70  C   UNL A   1      39.513  29.417  29.643  1.00  0.00     0.023 A 
ATOM     71  C   UNL A   1      38.546  30.205  29.001  1.00  0.00     0.031 A 
ATOM     72  C   UNL A   1      39.181  28.841  30.884  1.00  0.00     0.131 A 
ATOM     73  C   UNL A   1      37.299  30.411  29.612  1.00  0.00     0.055 A 
ATOM     74  C   UNL A   1      37.922  29.009  31.463  1.00  0.00     0.041 A 
ATOM     75  F   UNL A   1      40.070  28.077  31.537  1.00  0.00    -0.206 F 
ATOM     76  C   UNL A   1      36.974  29.805  30.828  1.00  0.00     0.022 A 
BRANCH  73  77
ATOM     77  S   UNL A   1      36.113  31.528  28.815  1.00  0.00     0.124 S 
ATOM     78  O   UNL A   1      35.654  30.719  27.691  1.00  0.00    -0.237 OA
ATOM     79  O   UNL A   1      35.143  31.751  29.883  1.00  0.00    -0.237 OA
ATOM     80  O   UNL A   1      36.924  32.690  28.460  1.00  0.00    -0.744 OA
ENDBRANCH  73  77
ENDBRANCH  46  70
BRANCH  58  81
ATOM     81  C   UNL A   1      45.359  33.245  29.123  1.00  0.00     0.023 A 
ATOM     82  C   UNL A   1      45.148  34.299  28.217  1.00  0.00     0.031 A 
ATOM     83  C   UNL A   1      45.861  33.563  30.400  1.00  0.00     0.131 A 
ATOM     84  C   UNL A   1      45.472  35.615  28.588  1.00  0.00     0.055 A 
ATOM     85  C   UNL A   1      46.123  34.879  30.784  1.00  0.00     0.041 A 
ATOM     86  F   UNL A   1      46.091  32.598  31.304  1.00  0.00    -0.206 F 
ATOM     87  C   UNL A   1      45.937  35.914  29.873  1.00  0.00     0.022 A 
BRANCH  84  88
ATOM     88  S   UNL A   1      45.357  36.930  27.344  1.00  0.00     0.124 S 
ATOM     89  O   UNL A   1      46.373  36.523  26.378  1.00  0.00    -0.237 OA
ATOM     90  O   UNL A   1      43.972  36.820  26.899  1.00  0.00    -0.237 OA
ATOM     91  O   UNL A   1      45.671  38.144  28.097  1.00  0.00    -0.744 OA
ENDBRANCH  84  88
ENDBRANCH  58  81
ENDBRANCH  32  33
ENDBRANCH  25  27
ENDBRANCH  24  25
ENDBRANCH  23  24
ENDBRANCH  22  23
ENDBRANCH  21  22
ENDBRANCH   1  21
TORSDOF 22
ENDMDL
