MODEL 1
REMARK VINA RESULT:     -10.8      0.000      0.000
REMARK SMILES COc1ccccc1C[N@@H+](C)[C@@H](C)c1ccc(C(=O)OCCOCCOC(=O)c2ccc(-c3c4nc(c(-c5cc(S(=O)(=O)[O-])ccc5F)c5ccc([nH]5)c(-c5cc(S(=O)(=O)[O-])ccc5F)c5nc(c(-c6cc(S(=O)(=O)[O-])ccc6F)c6ccc3[nH]6)C=C5)C=C4)cc2)o1
REMARK SMILES IDX 22 1 21 2 20 3 18 4 19 5 17 6 14 7 15 8 92 9 16 10 12 11
REMARK SMILES IDX 13 12 10 13 11 14 9 16 8 17 3 18 4 19 5 20 7 21 6 22 2 23
REMARK SMILES IDX 1 24 23 25 24 26 25 27 26 28 27 29 28 30 29 31 30 32 91 33
REMARK SMILES IDX 31 34 90 35 32 36 33 37 34 38 84 39 35 40 89 41 83 42 85 43
REMARK SMILES IDX 36 44 88 45 82 46 81 47 37 49 69 50 49 51 68 52 50 53 53 54
REMARK SMILES IDX 67 55 86 56 51 57 52 58 66 60 87 61 54 62 38 63 39 64 47 65
REMARK SMILES IDX 40 66 46 67 48 68 45 69 41 70 42 71 43 72 44 73 70 74 71 75
REMARK SMILES IDX 79 76 72 77 78 78 80 79 77 80 73 81 74 82 75 83 76 84 55 85
REMARK SMILES IDX 56 86 64 87 57 88 63 89 65 90 62 91 58 92 59 93 60 94 61 95
REMARK H PARENT 10 15 85 48 53 59
REMARK Flexibility Score: inf
ROOT
ATOM      1  C   UNL A   1      30.298  29.157  23.015  1.00  0.00     0.202 C 
ENDROOT
BRANCH   1   2
ATOM      2  C   UNL A   1      31.649  28.592  22.566  1.00  0.00     0.261 C 
BRANCH   2   3
ATOM      3  O   UNL A   1      31.542  27.194  22.252  1.00  0.00    -0.457 OA
BRANCH   3   4
ATOM      4  C   UNL A   1      32.667  26.450  22.462  1.00  0.00     0.374 C 
ATOM      5  O   UNL A   1      33.610  26.364  21.685  1.00  0.00    -0.242 OA
BRANCH   4   6
ATOM      6  C   UNL A   1      32.590  25.833  23.763  1.00  0.00     0.212 A 
ATOM      7  C   UNL A   1      31.985  24.256  25.192  1.00  0.00     0.162 A 
ATOM      8  C   UNL A   1      32.618  25.244  25.921  1.00  0.00     0.053 A 
ATOM      9  O   UNL A   1      31.929  24.638  23.879  1.00  0.00    -0.448 OA
ATOM     10  C   UNL A   1      33.084  26.206  24.997  1.00  0.00     0.059 A 
BRANCH   7  11
ATOM     11  C   UNL A   1      31.267  22.981  25.549  1.00  0.00     0.248 C 
ATOM     12  C   UNL A   1      30.371  23.221  26.774  1.00  0.00     0.084 C 
BRANCH  11  13
ATOM     13  N   UNL A   1      32.114  21.756  25.589  1.00  0.00    -0.325 N 
ATOM     14  C   UNL A   1      33.021  21.797  26.744  1.00  0.00     0.333 C 
ATOM     15  H   UNL A   1      31.430  21.002  25.659  1.00  0.00     0.348 HD
BRANCH  13  16
ATOM     16  C   UNL A   1      32.904  21.448  24.375  1.00  0.00     0.303 C 
BRANCH  16  17
ATOM     17  C   UNL A   1      33.451  20.039  24.290  1.00  0.00     0.048 A 
ATOM     18  C   UNL A   1      34.712  19.594  24.727  1.00  0.00     0.127 A 
ATOM     19  C   UNL A   1      35.085  18.255  24.486  1.00  0.00     0.047 A 
ATOM     20  C   UNL A   1      34.231  17.346  23.865  1.00  0.00     0.004 A 
ATOM     21  C   UNL A   1      32.583  19.082  23.702  1.00  0.00     0.013 A 
ATOM     22  C   UNL A   1      32.966  17.759  23.483  1.00  0.00     0.001 A 
BRANCH  18  23
ATOM     23  O   UNL A   1      35.755  20.272  25.294  1.00  0.00    -0.496 OA
ATOM     24  C   UNL A   1      37.077  20.147  24.819  1.00  0.00     0.278 C 
ENDBRANCH  18  23
ENDBRANCH  16  17
ENDBRANCH  13  16
ENDBRANCH  11  13
ENDBRANCH   7  11
ENDBRANCH   4   6
ENDBRANCH   3   4
ENDBRANCH   2   3
ENDBRANCH   1   2
BRANCH   1  25
ATOM     25  O   UNL A   1      30.369  29.883  24.244  1.00  0.00    -0.374 OA
BRANCH  25  26
ATOM     26  C   UNL A   1      31.560  29.678  25.008  1.00  0.00     0.202 C 
BRANCH  26  27
ATOM     27  C   UNL A   1      31.751  30.698  26.133  1.00  0.00     0.261 C 
BRANCH  27  28
ATOM     28  O   UNL A   1      32.953  30.418  26.873  1.00  0.00    -0.460 OA
BRANCH  28  29
ATOM     29  C   UNL A   1      33.575  31.510  27.382  1.00  0.00     0.338 C 
ATOM     30  O   UNL A   1      33.084  32.609  27.572  1.00  0.00    -0.246 OA
BRANCH  29  31
ATOM     31  C   UNL A   1      34.926  31.138  27.855  1.00  0.00     0.060 A 
ATOM     32  C   UNL A   1      35.169  29.782  28.102  1.00  0.00     0.016 A 
ATOM     33  C   UNL A   1      35.923  32.089  28.092  1.00  0.00     0.016 A 
ATOM     34  C   UNL A   1      36.391  29.376  28.635  1.00  0.00     0.010 A 
ATOM     35  C   UNL A   1      37.149  31.679  28.630  1.00  0.00     0.010 A 
ATOM     36  C   UNL A   1      37.376  30.325  28.936  1.00  0.00    -0.014 A 
BRANCH  36  37
ATOM     37  C   UNL A   1      38.577  29.914  29.705  1.00  0.00     0.031 A 
ATOM     38  C   UNL A   1      39.483  28.859  29.130  1.00  0.00     0.074 A 
ATOM     39  C   UNL A   1      38.876  30.496  30.880  1.00  0.00     0.049 A 
ATOM     40  N   UNL A   1      40.570  28.332  29.631  1.00  0.00    -0.248 NA
ATOM     41  C   UNL A   1      39.107  28.325  27.812  1.00  0.00     0.031 C 
ATOM     42  C   UNL A   1      38.097  31.557  31.517  1.00  0.00     0.029 A 
ATOM     43  N   UNL A   1      39.917  30.276  31.747  1.00  0.00    -0.354 N 
ATOM     44  C   UNL A   1      41.008  27.403  28.693  1.00  0.00     0.074 A 
ATOM     45  C   UNL A   1      40.042  27.410  27.614  1.00  0.00     0.031 C 
ATOM     46  C   UNL A   1      38.686  31.891  32.679  1.00  0.00     0.029 A 
ATOM     47  C   UNL A   1      39.860  31.045  32.885  1.00  0.00     0.049 A 
ATOM     48  H   UNL A   1      40.638  29.628  31.570  1.00  0.00     0.167 HD
ATOM     49  C   UNL A   1      42.119  26.624  28.724  1.00  0.00     0.034 A 
ATOM     50  C   UNL A   1      40.650  31.048  33.978  1.00  0.00     0.034 A 
ATOM     51  C   UNL A   1      43.066  26.621  29.813  1.00  0.00     0.049 A 
ATOM     52  C   UNL A   1      41.833  30.113  34.030  1.00  0.00     0.074 A 
ATOM     53  C   UNL A   1      44.234  25.887  29.939  1.00  0.00     0.029 A 
ATOM     54  N   UNL A   1      42.949  27.377  30.973  1.00  0.00    -0.354 N 
ATOM     55  N   UNL A   1      42.245  29.248  33.131  1.00  0.00    -0.248 NA
ATOM     56  C   UNL A   1      42.663  30.161  35.241  1.00  0.00     0.031 C 
ATOM     57  C   UNL A   1      44.779  26.142  31.202  1.00  0.00     0.029 A 
ATOM     58  C   UNL A   1      44.000  27.098  31.834  1.00  0.00     0.049 A 
ATOM     59  H   UNL A   1      42.225  28.018  31.157  1.00  0.00     0.167 HD
ATOM     60  C   UNL A   1      43.400  28.671  33.658  1.00  0.00     0.074 A 
ATOM     61  C   UNL A   1      43.624  29.298  34.944  1.00  0.00     0.031 C 
ATOM     62  C   UNL A   1      44.205  27.718  33.124  1.00  0.00     0.034 A 
BRANCH  49  63
ATOM     63  C   UNL A   1      42.331  25.676  27.567  1.00  0.00     0.023 A 
ATOM     64  C   UNL A   1      41.732  24.404  27.529  1.00  0.00     0.031 A 
ATOM     65  C   UNL A   1      43.178  26.036  26.503  1.00  0.00     0.131 A 
ATOM     66  C   UNL A   1      42.046  23.513  26.492  1.00  0.00     0.055 A 
ATOM     67  C   UNL A   1      43.421  25.174  25.431  1.00  0.00     0.041 A 
ATOM     68  F   UNL A   1      43.796  27.227  26.495  1.00  0.00    -0.206 F 
ATOM     69  C   UNL A   1      42.867  23.898  25.430  1.00  0.00     0.022 A 
BRANCH  66  70
ATOM     70  S   UNL A   1      41.490  21.791  26.629  1.00  0.00     0.124 S 
ATOM     71  O   UNL A   1      40.341  21.780  25.727  1.00  0.00    -0.237 OA
ATOM     72  O   UNL A   1      42.661  21.046  26.182  1.00  0.00    -0.237 OA
ATOM     73  O   UNL A   1      41.162  21.648  28.046  1.00  0.00    -0.744 OA
ENDBRANCH  66  70
ENDBRANCH  49  63
BRANCH  50  74
ATOM     74  C   UNL A   1      40.332  31.935  35.134  1.00  0.00     0.023 A 
ATOM     75  C   UNL A   1      39.344  31.588  36.070  1.00  0.00     0.031 A 
ATOM     76  C   UNL A   1      40.982  33.173  35.291  1.00  0.00     0.131 A 
ATOM     77  C   UNL A   1      39.006  32.486  37.094  1.00  0.00     0.055 A 
ATOM     78  C   UNL A   1      40.678  34.040  36.341  1.00  0.00     0.041 A 
ATOM     79  F   UNL A   1      41.933  33.554  34.423  1.00  0.00    -0.206 F 
ATOM     80  C   UNL A   1      39.675  33.703  37.244  1.00  0.00     0.022 A 
BRANCH  77  81
ATOM     81  S   UNL A   1      37.618  32.075  38.188  1.00  0.00     0.124 S 
ATOM     82  O   UNL A   1      38.199  32.311  39.505  1.00  0.00    -0.237 OA
ATOM     83  O   UNL A   1      36.600  33.027  37.755  1.00  0.00    -0.237 OA
ATOM     84  O   UNL A   1      37.337  30.676  37.870  1.00  0.00    -0.744 OA
ENDBRANCH  77  81
ENDBRANCH  50  74
BRANCH  62  85
ATOM     85  C   UNL A   1      45.429  27.327  33.918  1.00  0.00     0.023 A 
ATOM     86  C   UNL A   1      45.401  26.287  34.864  1.00  0.00     0.031 A 
ATOM     87  C   UNL A   1      46.641  28.018  33.734  1.00  0.00     0.131 A 
ATOM     88  C   UNL A   1      46.543  26.006  35.629  1.00  0.00     0.055 A 
ATOM     89  C   UNL A   1      47.791  27.692  34.453  1.00  0.00     0.041 A 
ATOM     90  F   UNL A   1      46.727  29.022  32.846  1.00  0.00    -0.206 F 
ATOM     91  C   UNL A   1      47.743  26.690  35.418  1.00  0.00     0.022 A 
BRANCH  88  92
ATOM     92  S   UNL A   1      46.415  24.797  36.976  1.00  0.00     0.124 S 
ATOM     93  O   UNL A   1      45.288  25.315  37.744  1.00  0.00    -0.237 OA
ATOM     94  O   UNL A   1      46.177  23.550  36.255  1.00  0.00    -0.237 OA
ATOM     95  O   UNL A   1      47.713  24.887  37.642  1.00  0.00    -0.744 OA
ENDBRANCH  88  92
ENDBRANCH  62  85
ENDBRANCH  36  37
ENDBRANCH  29  31
ENDBRANCH  28  29
ENDBRANCH  27  28
ENDBRANCH  26  27
ENDBRANCH  25  26
ENDBRANCH   1  25
TORSDOF 22
ENDMDL
MODEL 2
REMARK VINA RESULT:     -10.8      1.589      2.121
REMARK SMILES COc1ccccc1C[N@@H+](C)[C@@H](C)c1ccc(C(=O)OCCOCCOC(=O)c2ccc(-c3c4nc(c(-c5cc(S(=O)(=O)[O-])ccc5F)c5ccc([nH]5)c(-c5cc(S(=O)(=O)[O-])ccc5F)c5nc(c(-c6cc(S(=O)(=O)[O-])ccc6F)c6ccc3[nH]6)C=C5)C=C4)cc2)o1
REMARK SMILES IDX 22 1 21 2 20 3 18 4 19 5 17 6 14 7 15 8 92 9 16 10 12 11
REMARK SMILES IDX 13 12 10 13 11 14 9 16 8 17 3 18 4 19 5 20 7 21 6 22 2 23
REMARK SMILES IDX 1 24 23 25 24 26 25 27 26 28 27 29 28 30 29 31 30 32 91 33
REMARK SMILES IDX 31 34 90 35 32 36 33 37 34 38 84 39 35 40 89 41 83 42 85 43
REMARK SMILES IDX 36 44 88 45 82 46 81 47 37 49 69 50 49 51 68 52 50 53 53 54
REMARK SMILES IDX 67 55 86 56 51 57 52 58 66 60 87 61 54 62 38 63 39 64 47 65
REMARK SMILES IDX 40 66 46 67 48 68 45 69 41 70 42 71 43 72 44 73 70 74 71 75
REMARK SMILES IDX 79 76 72 77 78 78 80 79 77 80 73 81 74 82 75 83 76 84 55 85
REMARK SMILES IDX 56 86 64 87 57 88 63 89 65 90 62 91 58 92 59 93 60 94 61 95
REMARK H PARENT 10 15 85 48 53 59
REMARK Flexibility Score: inf
ROOT
ATOM      1  C   UNL A   1      30.498  28.681  23.347  1.00  0.00     0.202 C 
ENDROOT
BRANCH   1   2
ATOM      2  C   UNL A   1      31.670  27.711  23.522  1.00  0.00     0.261 C 
BRANCH   2   3
ATOM      3  O   UNL A   1      31.491  26.536  22.714  1.00  0.00    -0.457 OA
BRANCH   3   4
ATOM      4  C   UNL A   1      32.633  25.972  22.225  1.00  0.00     0.374 C 
ATOM      5  O   UNL A   1      33.483  26.559  21.565  1.00  0.00    -0.242 OA
BRANCH   4   6
ATOM      6  C   UNL A   1      32.705  24.598  22.656  1.00  0.00     0.212 A 
ATOM      7  C   UNL A   1      32.458  22.946  24.106  1.00  0.00     0.162 A 
ATOM      8  C   UNL A   1      33.037  22.409  22.973  1.00  0.00     0.053 A 
ATOM      9  O   UNL A   1      32.297  24.293  23.928  1.00  0.00    -0.448 OA
ATOM     10  C   UNL A   1      33.110  23.445  22.015  1.00  0.00     0.059 A 
BRANCH   7  11
ATOM     11  C   UNL A   1      32.114  22.405  25.470  1.00  0.00     0.248 C 
ATOM     12  C   UNL A   1      31.025  23.279  26.110  1.00  0.00     0.084 C 
BRANCH  11  13
ATOM     13  N   UNL A   1      33.277  22.068  26.339  1.00  0.00    -0.325 N 
ATOM     14  C   UNL A   1      33.003  22.450  27.732  1.00  0.00     0.333 C 
ATOM     15  H   UNL A   1      33.369  21.058  26.224  1.00  0.00     0.348 HD
BRANCH  13  16
ATOM     16  C   UNL A   1      34.592  22.622  25.944  1.00  0.00     0.303 C 
BRANCH  16  17
ATOM     17  C   UNL A   1      35.627  21.605  25.512  1.00  0.00     0.048 A 
ATOM     18  C   UNL A   1      35.384  20.331  24.967  1.00  0.00     0.127 A 
ATOM     19  C   UNL A   1      36.479  19.482  24.702  1.00  0.00     0.047 A 
ATOM     20  C   UNL A   1      37.797  19.877  24.926  1.00  0.00     0.004 A 
ATOM     21  C   UNL A   1      36.980  22.000  25.687  1.00  0.00     0.013 A 
ATOM     22  C   UNL A   1      38.049  21.149  25.408  1.00  0.00     0.001 A 
BRANCH  18  23
ATOM     23  O   UNL A   1      34.214  19.674  24.712  1.00  0.00    -0.496 OA
ATOM     24  C   UNL A   1      34.140  18.267  24.663  1.00  0.00     0.278 C 
ENDBRANCH  18  23
ENDBRANCH  16  17
ENDBRANCH  13  16
ENDBRANCH  11  13
ENDBRANCH   7  11
ENDBRANCH   4   6
ENDBRANCH   3   4
ENDBRANCH   2   3
ENDBRANCH   1   2
BRANCH   1  25
ATOM     25  O   UNL A   1      30.650  29.893  24.088  1.00  0.00    -0.374 OA
BRANCH  25  26
ATOM     26  C   UNL A   1      31.485  29.802  25.245  1.00  0.00     0.202 C 
BRANCH  26  27
ATOM     27  C   UNL A   1      31.576  31.106  26.041  1.00  0.00     0.261 C 
BRANCH  27  28
ATOM     28  O   UNL A   1      32.493  30.967  27.140  1.00  0.00    -0.460 OA
BRANCH  28  29
ATOM     29  C   UNL A   1      33.245  32.066  27.397  1.00  0.00     0.338 C 
ATOM     30  O   UNL A   1      32.885  33.229  27.335  1.00  0.00    -0.246 OA
BRANCH  29  31
ATOM     31  C   UNL A   1      34.555  31.657  27.947  1.00  0.00     0.060 A 
ATOM     32  C   UNL A   1      34.707  30.313  28.310  1.00  0.00     0.016 A 
ATOM     33  C   UNL A   1      35.599  32.564  28.145  1.00  0.00     0.016 A 
ATOM     34  C   UNL A   1      35.884  29.881  28.919  1.00  0.00     0.010 A 
ATOM     35  C   UNL A   1      36.780  32.129  28.759  1.00  0.00     0.010 A 
ATOM     36  C   UNL A   1      36.915  30.794  29.180  1.00  0.00    -0.014 A 
BRANCH  36  37
ATOM     37  C   UNL A   1      38.063  30.378  30.023  1.00  0.00     0.031 A 
ATOM     38  C   UNL A   1      39.037  29.367  29.479  1.00  0.00     0.074 A 
ATOM     39  C   UNL A   1      38.257  30.918  31.239  1.00  0.00     0.049 A 
ATOM     40  N   UNL A   1      40.094  28.843  30.043  1.00  0.00    -0.248 NA
ATOM     41  C   UNL A   1      38.775  28.878  28.117  1.00  0.00     0.031 C 
ATOM     42  C   UNL A   1      37.406  31.935  31.854  1.00  0.00     0.029 A 
ATOM     43  N   UNL A   1      39.234  30.686  32.175  1.00  0.00    -0.354 N 
ATOM     44  C   UNL A   1      40.625  27.962  29.106  1.00  0.00     0.074 A 
ATOM     45  C   UNL A   1      39.745  27.992  27.957  1.00  0.00     0.031 C 
ATOM     46  C   UNL A   1      37.895  32.235  33.070  1.00  0.00     0.029 A 
ATOM     47  C   UNL A   1      39.070  31.407  33.334  1.00  0.00     0.049 A 
ATOM     48  H   UNL A   1      39.981  30.061  32.029  1.00  0.00     0.167 HD
ATOM     49  C   UNL A   1      41.749  27.207  29.193  1.00  0.00     0.034 A 
ATOM     50  C   UNL A   1      39.774  31.383  34.484  1.00  0.00     0.034 A 
ATOM     51  C   UNL A   1      42.610  27.180  30.351  1.00  0.00     0.049 A 
ATOM     52  C   UNL A   1      40.973  30.471  34.592  1.00  0.00     0.074 A 
ATOM     53  C   UNL A   1      43.783  26.467  30.539  1.00  0.00     0.029 A 
ATOM     54  N   UNL A   1      42.386  27.886  31.527  1.00  0.00    -0.354 N 
ATOM     55  N   UNL A   1      41.473  29.653  33.695  1.00  0.00    -0.248 NA
ATOM     56  C   UNL A   1      41.706  30.489  35.864  1.00  0.00     0.031 C 
ATOM     57  C   UNL A   1      44.223  26.683  31.849  1.00  0.00     0.029 A 
ATOM     58  C   UNL A   1      43.375  27.595  32.456  1.00  0.00     0.049 A 
ATOM     59  H   UNL A   1      41.634  28.503  31.678  1.00  0.00     0.167 HD
ATOM     60  C   UNL A   1      42.598  29.080  34.287  1.00  0.00     0.074 A 
ATOM     61  C   UNL A   1      42.708  29.659  35.610  1.00  0.00     0.031 C 
ATOM     62  C   UNL A   1      43.465  28.166  33.780  1.00  0.00     0.034 A 
BRANCH  49  63
ATOM     63  C   UNL A   1      42.072  26.311  28.020  1.00  0.00     0.023 A 
ATOM     64  C   UNL A   1      41.620  24.981  27.954  1.00  0.00     0.031 A 
ATOM     65  C   UNL A   1      42.879  26.784  26.969  1.00  0.00     0.131 A 
ATOM     66  C   UNL A   1      42.039  24.151  26.903  1.00  0.00     0.055 A 
ATOM     67  C   UNL A   1      43.223  25.976  25.883  1.00  0.00     0.041 A 
ATOM     68  F   UNL A   1      43.359  28.037  26.987  1.00  0.00    -0.206 F 
ATOM     69  C   UNL A   1      42.816  24.646  25.855  1.00  0.00     0.022 A 
BRANCH  66  70
ATOM     70  S   UNL A   1      41.679  22.375  27.005  1.00  0.00     0.124 S 
ATOM     71  O   UNL A   1      41.884  21.954  25.621  1.00  0.00    -0.237 OA
ATOM     72  O   UNL A   1      42.669  21.908  27.968  1.00  0.00    -0.237 OA
ATOM     73  O   UNL A   1      40.292  22.331  27.462  1.00  0.00    -0.744 OA
ENDBRANCH  66  70
ENDBRANCH  49  63
BRANCH  50  74
ATOM     74  C   UNL A   1      39.347  32.215  35.646  1.00  0.00     0.023 A 
ATOM     75  C   UNL A   1      39.814  33.528  35.813  1.00  0.00     0.031 A 
ATOM     76  C   UNL A   1      38.498  31.686  36.635  1.00  0.00     0.131 A 
ATOM     77  C   UNL A   1      39.465  34.253  36.964  1.00  0.00     0.055 A 
ATOM     78  C   UNL A   1      38.112  32.429  37.752  1.00  0.00     0.041 A 
ATOM     79  F   UNL A   1      38.024  30.435  36.524  1.00  0.00    -0.206 F 
ATOM     80  C   UNL A   1      38.607  33.717  37.927  1.00  0.00     0.022 A 
BRANCH  77  81
ATOM     81  S   UNL A   1      40.214  35.885  37.226  1.00  0.00     0.124 S 
ATOM     82  O   UNL A   1      39.687  36.638  36.093  1.00  0.00    -0.237 OA
ATOM     83  O   UNL A   1      39.691  36.249  38.538  1.00  0.00    -0.237 OA
ATOM     84  O   UNL A   1      41.649  35.611  37.182  1.00  0.00    -0.744 OA
ENDBRANCH  77  81
ENDBRANCH  50  74
BRANCH  62  85
ATOM     85  C   UNL A   1      44.634  27.771  34.651  1.00  0.00     0.023 A 
ATOM     86  C   UNL A   1      44.578  26.658  35.510  1.00  0.00     0.031 A 
ATOM     87  C   UNL A   1      45.819  28.528  34.631  1.00  0.00     0.131 A 
ATOM     88  C   UNL A   1      45.662  26.370  36.352  1.00  0.00     0.055 A 
ATOM     89  C   UNL A   1      46.918  28.200  35.425  1.00  0.00     0.041 A 
ATOM     90  F   UNL A   1      45.929  29.603  33.833  1.00  0.00    -0.206 F 
ATOM     91  C   UNL A   1      46.838  27.123  36.304  1.00  0.00     0.022 A 
BRANCH  88  92
ATOM     92  S   UNL A   1      45.481  25.053  37.587  1.00  0.00     0.124 S 
ATOM     93  O   UNL A   1      44.850  25.761  38.697  1.00  0.00    -0.237 OA
ATOM     94  O   UNL A   1      44.642  24.084  36.889  1.00  0.00    -0.237 OA
ATOM     95  O   UNL A   1      46.856  24.619  37.831  1.00  0.00    -0.744 OA
ENDBRANCH  88  92
ENDBRANCH  62  85
ENDBRANCH  36  37
ENDBRANCH  29  31
ENDBRANCH  28  29
ENDBRANCH  27  28
ENDBRANCH  26  27
ENDBRANCH  25  26
ENDBRANCH   1  25
TORSDOF 22
ENDMDL
MODEL 3
REMARK VINA RESULT:     -10.7      4.828      8.599
REMARK SMILES COc1ccccc1C[N@@H+](C)[C@@H](C)c1ccc(C(=O)OCCOCCOC(=O)c2ccc(-c3c4nc(c(-c5cc(S(=O)(=O)[O-])ccc5F)c5ccc([nH]5)c(-c5cc(S(=O)(=O)[O-])ccc5F)c5nc(c(-c6cc(S(=O)(=O)[O-])ccc6F)c6ccc3[nH]6)C=C5)C=C4)cc2)o1
REMARK SMILES IDX 22 1 21 2 20 3 18 4 19 5 17 6 14 7 15 8 92 9 16 10 12 11
REMARK SMILES IDX 13 12 10 13 11 14 9 16 8 17 3 18 4 19 5 20 7 21 6 22 2 23
REMARK SMILES IDX 1 24 23 25 24 26 25 27 26 28 27 29 28 30 29 31 30 32 91 33
REMARK SMILES IDX 31 34 90 35 32 36 33 37 34 38 84 39 35 40 89 41 83 42 85 43
REMARK SMILES IDX 36 44 88 45 82 46 81 47 37 49 69 50 49 51 68 52 50 53 53 54
REMARK SMILES IDX 67 55 86 56 51 57 52 58 66 60 87 61 54 62 38 63 39 64 47 65
REMARK SMILES IDX 40 66 46 67 48 68 45 69 41 70 42 71 43 72 44 73 70 74 71 75
REMARK SMILES IDX 79 76 72 77 78 78 80 79 77 80 73 81 74 82 75 83 76 84 55 85
REMARK SMILES IDX 56 86 64 87 57 88 63 89 65 90 62 91 58 92 59 93 60 94 61 95
REMARK H PARENT 10 15 85 48 53 59
REMARK Flexibility Score: inf
ROOT
ATOM      1  C   UNL A   1      35.218  21.129  25.202  1.00  0.00     0.202 C 
ENDROOT
BRANCH   1   2
ATOM      2  C   UNL A   1      34.389  21.184  26.488  1.00  0.00     0.261 C 
BRANCH   2   3
ATOM      3  O   UNL A   1      33.046  21.616  26.215  1.00  0.00    -0.457 OA
BRANCH   3   4
ATOM      4  C   UNL A   1      32.654  22.766  26.838  1.00  0.00     0.374 C 
ATOM      5  O   UNL A   1      32.266  22.843  27.997  1.00  0.00    -0.242 OA
BRANCH   4   6
ATOM      6  C   UNL A   1      32.826  23.875  25.934  1.00  0.00     0.212 A 
ATOM      7  C   UNL A   1      32.212  25.231  24.297  1.00  0.00     0.162 A 
ATOM      8  C   UNL A   1      33.491  25.596  24.668  1.00  0.00     0.053 A 
ATOM      9  O   UNL A   1      31.824  24.151  25.041  1.00  0.00    -0.448 OA
ATOM     10  C   UNL A   1      33.848  24.791  25.772  1.00  0.00     0.059 A 
BRANCH   7  11
ATOM     11  C   UNL A   1      31.265  25.670  23.211  1.00  0.00     0.248 C 
ATOM     12  C   UNL A   1      32.022  25.768  21.877  1.00  0.00     0.084 C 
BRANCH  11  13
ATOM     13  N   UNL A   1      30.389  26.827  23.551  1.00  0.00    -0.325 N 
ATOM     14  C   UNL A   1      29.093  26.356  24.059  1.00  0.00     0.333 C 
ATOM     15  H   UNL A   1      30.926  27.326  24.260  1.00  0.00     0.348 HD
BRANCH  13  16
ATOM     16  C   UNL A   1      30.146  27.821  22.480  1.00  0.00     0.303 C 
BRANCH  16  17
ATOM     17  C   UNL A   1      29.628  29.167  22.942  1.00  0.00     0.048 A 
ATOM     18  C   UNL A   1      30.263  30.059  23.825  1.00  0.00     0.127 A 
ATOM     19  C   UNL A   1      29.586  31.235  24.211  1.00  0.00     0.047 A 
ATOM     20  C   UNL A   1      28.324  31.562  23.717  1.00  0.00     0.004 A 
ATOM     21  C   UNL A   1      28.364  29.546  22.419  1.00  0.00     0.013 A 
ATOM     22  C   UNL A   1      27.716  30.719  22.804  1.00  0.00     0.001 A 
BRANCH  18  23
ATOM     23  O   UNL A   1      31.447  29.962  24.500  1.00  0.00    -0.496 OA
ATOM     24  C   UNL A   1      31.539  30.189  25.889  1.00  0.00     0.278 C 
ENDBRANCH  18  23
ENDBRANCH  16  17
ENDBRANCH  13  16
ENDBRANCH  11  13
ENDBRANCH   7  11
ENDBRANCH   4   6
ENDBRANCH   3   4
ENDBRANCH   2   3
ENDBRANCH   1   2
BRANCH   1  25
ATOM     25  O   UNL A   1      36.124  20.025  25.159  1.00  0.00    -0.374 OA
BRANCH  25  26
ATOM     26  C   UNL A   1      37.414  20.313  24.612  1.00  0.00     0.202 C 
BRANCH  26  27
ATOM     27  C   UNL A   1      38.559  19.591  25.328  1.00  0.00     0.261 C 
BRANCH  27  28
ATOM     28  O   UNL A   1      39.717  20.439  25.416  1.00  0.00    -0.460 OA
BRANCH  28  29
ATOM     29  C   UNL A   1      40.394  20.358  26.588  1.00  0.00     0.338 C 
ATOM     30  O   UNL A   1      40.844  19.349  27.104  1.00  0.00    -0.246 OA
BRANCH  29  31
ATOM     31  C   UNL A   1      40.678  21.717  27.095  1.00  0.00     0.060 A 
ATOM     32  C   UNL A   1      40.012  22.784  26.479  1.00  0.00     0.016 A 
ATOM     33  C   UNL A   1      41.600  21.956  28.118  1.00  0.00     0.016 A 
ATOM     34  C   UNL A   1      40.303  24.096  26.848  1.00  0.00     0.010 A 
ATOM     35  C   UNL A   1      41.892  23.275  28.485  1.00  0.00     0.010 A 
ATOM     36  C   UNL A   1      41.271  24.353  27.828  1.00  0.00    -0.014 A 
BRANCH  36  37
ATOM     37  C   UNL A   1      41.731  25.745  28.053  1.00  0.00     0.031 A 
ATOM     38  C   UNL A   1      43.112  26.138  27.599  1.00  0.00     0.074 A 
ATOM     39  C   UNL A   1      40.921  26.657  28.619  1.00  0.00     0.049 A 
ATOM     40  N   UNL A   1      43.730  27.285  27.710  1.00  0.00    -0.248 NA
ATOM     41  C   UNL A   1      43.902  25.089  26.936  1.00  0.00     0.031 C 
ATOM     42  C   UNL A   1      39.550  26.406  29.062  1.00  0.00     0.029 A 
ATOM     43  N   UNL A   1      41.134  27.979  28.919  1.00  0.00    -0.354 N 
ATOM     44  C   UNL A   1      44.981  27.099  27.132  1.00  0.00     0.074 A 
ATOM     45  C   UNL A   1      45.047  25.714  26.713  1.00  0.00     0.031 C 
ATOM     46  C   UNL A   1      39.046  27.538  29.583  1.00  0.00     0.029 A 
ATOM     47  C   UNL A   1      40.069  28.582  29.546  1.00  0.00     0.049 A 
ATOM     48  H   UNL A   1      41.971  28.451  28.706  1.00  0.00     0.167 HD
ATOM     49  C   UNL A   1      45.979  28.002  26.956  1.00  0.00     0.034 A 
ATOM     50  C   UNL A   1      39.942  29.825  30.052  1.00  0.00     0.034 A 
ATOM     51  C   UNL A   1      45.901  29.376  27.390  1.00  0.00     0.049 A 
ATOM     52  C   UNL A   1      41.097  30.790  29.923  1.00  0.00     0.074 A 
ATOM     53  C   UNL A   1      46.843  30.381  27.246  1.00  0.00     0.029 A 
ATOM     54  N   UNL A   1      44.825  29.939  28.066  1.00  0.00    -0.354 N 
ATOM     55  N   UNL A   1      42.270  30.607  29.362  1.00  0.00    -0.248 NA
ATOM     56  C   UNL A   1      40.903  32.132  30.487  1.00  0.00     0.031 C 
ATOM     57  C   UNL A   1      46.370  31.524  27.900  1.00  0.00     0.029 A 
ATOM     58  C   UNL A   1      45.097  31.263  28.380  1.00  0.00     0.049 A 
ATOM     59  H   UNL A   1      43.991  29.466  28.290  1.00  0.00     0.167 HD
ATOM     60  C   UNL A   1      42.943  31.821  29.481  1.00  0.00     0.074 A 
ATOM     61  C   UNL A   1      42.038  32.731  30.153  1.00  0.00     0.031 C 
ATOM     62  C   UNL A   1      44.192  32.157  29.066  1.00  0.00     0.034 A 
BRANCH  49  63
ATOM     63  C   UNL A   1      47.254  27.508  26.316  1.00  0.00     0.023 A 
ATOM     64  C   UNL A   1      48.261  26.868  27.061  1.00  0.00     0.031 A 
ATOM     65  C   UNL A   1      47.482  27.714  24.943  1.00  0.00     0.131 A 
ATOM     66  C   UNL A   1      49.476  26.528  26.448  1.00  0.00     0.055 A 
ATOM     67  C   UNL A   1      48.662  27.298  24.322  1.00  0.00     0.041 A 
ATOM     68  F   UNL A   1      46.569  28.339  24.184  1.00  0.00    -0.206 F 
ATOM     69  C   UNL A   1      49.674  26.716  25.078  1.00  0.00     0.022 A 
BRANCH  66  70
ATOM     70  S   UNL A   1      50.852  25.978  27.495  1.00  0.00     0.124 S 
ATOM     71  O   UNL A   1      50.143  25.430  28.649  1.00  0.00    -0.237 OA
ATOM     72  O   UNL A   1      51.529  25.009  26.641  1.00  0.00    -0.237 OA
ATOM     73  O   UNL A   1      51.597  27.207  27.758  1.00  0.00    -0.744 OA
ENDBRANCH  66  70
ENDBRANCH  49  63
BRANCH  50  74
ATOM     74  C   UNL A   1      38.695  30.225  30.765  1.00  0.00     0.023 A 
ATOM     75  C   UNL A   1      37.670  30.923  30.107  1.00  0.00     0.031 A 
ATOM     76  C   UNL A   1      38.533  29.954  32.136  1.00  0.00     0.131 A 
ATOM     77  C   UNL A   1      36.550  31.363  30.829  1.00  0.00     0.055 A 
ATOM     78  C   UNL A   1      37.394  30.349  32.838  1.00  0.00     0.041 A 
ATOM     79  F   UNL A   1      39.484  29.291  32.813  1.00  0.00    -0.206 F 
ATOM     80  C   UNL A   1      36.399  31.069  32.186  1.00  0.00     0.022 A 
BRANCH  77  81
ATOM     81  S   UNL A   1      35.322  32.399  29.984  1.00  0.00     0.124 S 
ATOM     82  O   UNL A   1      34.307  32.558  31.019  1.00  0.00    -0.237 OA
ATOM     83  O   UNL A   1      36.103  33.588  29.661  1.00  0.00    -0.237 OA
ATOM     84  O   UNL A   1      34.923  31.586  28.837  1.00  0.00    -0.744 OA
ENDBRANCH  77  81
ENDBRANCH  50  74
BRANCH  62  85
ATOM     85  C   UNL A   1      44.632  33.584  29.292  1.00  0.00     0.023 A 
ATOM     86  C   UNL A   1      44.224  34.630  28.444  1.00  0.00     0.031 A 
ATOM     87  C   UNL A   1      45.484  33.900  30.365  1.00  0.00     0.131 A 
ATOM     88  C   UNL A   1      44.714  35.928  28.649  1.00  0.00     0.055 A 
ATOM     89  C   UNL A   1      45.918  35.205  30.602  1.00  0.00     0.041 A 
ATOM     90  F   UNL A   1      45.908  32.943  31.206  1.00  0.00    -0.206 F 
ATOM     91  C   UNL A   1      45.544  36.226  29.733  1.00  0.00     0.022 A 
BRANCH  88  92
ATOM     92  S   UNL A   1      44.330  37.210  27.424  1.00  0.00     0.124 S 
ATOM     93  O   UNL A   1      43.983  38.347  28.271  1.00  0.00    -0.237 OA
ATOM     94  O   UNL A   1      45.585  37.323  26.687  1.00  0.00    -0.237 OA
ATOM     95  O   UNL A   1      43.218  36.639  26.666  1.00  0.00    -0.744 OA
ENDBRANCH  88  92
ENDBRANCH  62  85
ENDBRANCH  36  37
ENDBRANCH  29  31
ENDBRANCH  28  29
ENDBRANCH  27  28
ENDBRANCH  26  27
ENDBRANCH  25  26
ENDBRANCH   1  25
TORSDOF 22
ENDMDL
