MODEL 1
REMARK VINA RESULT:     -12.0      0.000      0.000
REMARK SMILES Cc1cc(Br)cc2c1O[C@H](C(F)(F)F)C(C(=O)OCCOCCOC(=O)c1ccc(-c3c4nc(c(-c5cc(S(=O)(=O)[O-])ccc5F)c5ccc([nH]5)c(-c5cc(S(=O)(=O)[O-])ccc5F)c5nc(c(-c6cc(S(=O)(=O)[O-])ccc6F)c6ccc3[nH]6)C=C5)C=C4)cc1)=C2
REMARK SMILES IDX 22 1 21 2 20 3 19 4 18 5 16 6 17 7 15 8 1 9 2 10 3 11 8 12
REMARK SMILES IDX 4 13 7 14 9 15 5 16 6 17 90 18 10 19 11 20 12 21 13 22 14 23
REMARK SMILES IDX 23 24 24 25 25 26 26 27 27 28 28 29 89 30 29 31 88 32 30 33
REMARK SMILES IDX 31 34 32 35 82 36 33 37 87 38 81 39 83 40 34 41 86 42 80 43
REMARK SMILES IDX 79 44 35 46 67 47 47 48 66 49 48 50 51 51 65 52 84 53 49 54
REMARK SMILES IDX 50 55 64 57 85 58 52 59 36 60 37 61 45 62 38 63 44 64 46 65
REMARK SMILES IDX 43 66 39 67 40 68 41 69 42 70 68 71 69 72 77 73 70 74 76 75
REMARK SMILES IDX 78 76 75 77 71 78 72 79 73 80 74 81 53 82 54 83 62 84 55 85
REMARK SMILES IDX 61 86 63 87 60 88 56 89 57 90 58 91 59 92
REMARK H PARENT 83 45 51 56
REMARK Flexibility Score: inf
ROOT
ATOM      1  C   UNL A   1      35.433  20.140  24.979  1.00  0.00     0.202 C 
ENDROOT
BRANCH   1   2
ATOM      2  O   UNL A   1      34.600  21.299  24.921  1.00  0.00    -0.374 OA
BRANCH   2   3
ATOM      3  C   UNL A   1      33.299  21.155  24.352  1.00  0.00     0.202 C 
BRANCH   3   4
ATOM      4  C   UNL A   1      32.110  21.362  25.295  1.00  0.00     0.261 C 
BRANCH   4   5
ATOM      5  O   UNL A   1      31.428  22.599  25.030  1.00  0.00    -0.460 OA
BRANCH   5   6
ATOM      6  C   UNL A   1      31.107  23.313  26.132  1.00  0.00     0.338 C 
ATOM      7  O   UNL A   1      30.853  22.876  27.245  1.00  0.00    -0.246 OA
BRANCH   6   8
ATOM      8  C   UNL A   1      31.228  24.756  25.846  1.00  0.00     0.087 C 
ATOM      9  C   UNL A   1      32.822  29.578  24.964  1.00  0.00     0.048 C 
ATOM     10  C   UNL A   1      31.616  28.741  24.639  1.00  0.00    -0.007 A 
ATOM     11  C   UNL A   1      30.639  29.283  23.785  1.00  0.00     0.023 A 
ATOM     12  C   UNL A   1      31.454  27.430  25.118  1.00  0.00     0.130 A 
ATOM     13  C   UNL A   1      29.520  28.534  23.430  1.00  0.00     0.019 A 
ATOM     14  C   UNL A   1      30.342  26.676  24.729  1.00  0.00     0.019 A 
ATOM     15  O   UNL A   1      32.407  26.950  25.973  1.00  0.00    -0.475 OA
ATOM     16  Br  UNL A   1      28.217  29.278  22.279  1.00  0.00    -0.051 Br
ATOM     17  C   UNL A   1      29.364  27.235  23.898  1.00  0.00     0.027 A 
ATOM     18  C   UNL A   1      30.224  25.289  25.138  1.00  0.00     0.027 C 
ATOM     19  C   UNL A   1      32.424  25.534  26.316  1.00  0.00     0.316 C 
BRANCH  19  20
ATOM     20  C   UNL A   1      33.748  24.937  25.818  1.00  0.00     0.430 C 
ATOM     21  F   UNL A   1      34.137  23.894  26.590  1.00  0.00    -0.167 F 
ATOM     22  F   UNL A   1      33.647  24.471  24.552  1.00  0.00    -0.167 F 
ATOM     23  F   UNL A   1      34.748  25.849  25.836  1.00  0.00    -0.167 F 
ENDBRANCH  19  20
ENDBRANCH   6   8
ENDBRANCH   5   6
ENDBRANCH   4   5
ENDBRANCH   3   4
ENDBRANCH   2   3
ENDBRANCH   1   2
BRANCH   1  24
ATOM     24  C   UNL A   1      36.938  20.334  24.756  1.00  0.00     0.261 C 
BRANCH  24  25
ATOM     25  O   UNL A   1      37.486  21.372  25.589  1.00  0.00    -0.460 OA
BRANCH  25  26
ATOM     26  C   UNL A   1      38.776  21.177  25.956  1.00  0.00     0.338 C 
ATOM     27  O   UNL A   1      39.469  20.197  25.713  1.00  0.00    -0.246 OA
BRANCH  26  28
ATOM     28  C   UNL A   1      39.326  22.409  26.546  1.00  0.00     0.060 A 
ATOM     29  C   UNL A   1      38.785  23.630  26.123  1.00  0.00     0.016 A 
ATOM     30  C   UNL A   1      40.409  22.377  27.426  1.00  0.00     0.016 A 
ATOM     31  C   UNL A   1      39.355  24.829  26.545  1.00  0.00     0.010 A 
ATOM     32  C   UNL A   1      40.990  23.583  27.838  1.00  0.00     0.010 A 
ATOM     33  C   UNL A   1      40.486  24.811  27.371  1.00  0.00    -0.014 A 
BRANCH  33  34
ATOM     34  C   UNL A   1      41.230  26.072  27.605  1.00  0.00     0.031 A 
ATOM     35  C   UNL A   1      40.583  27.153  28.427  1.00  0.00     0.074 A 
ATOM     36  C   UNL A   1      42.486  26.227  27.147  1.00  0.00     0.049 A 
ATOM     37  N   UNL A   1      41.036  28.339  28.743  1.00  0.00    -0.248 NA
ATOM     38  C   UNL A   1      39.248  26.855  28.971  1.00  0.00     0.031 C 
ATOM     39  C   UNL A   1      43.240  25.221  26.400  1.00  0.00     0.029 A 
ATOM     40  N   UNL A   1      43.351  27.286  27.255  1.00  0.00    -0.354 N 
ATOM     41  C   UNL A   1      40.049  28.924  29.528  1.00  0.00     0.074 A 
ATOM     42  C   UNL A   1      38.957  27.979  29.609  1.00  0.00     0.031 C 
ATOM     43  C   UNL A   1      44.461  25.711  26.123  1.00  0.00     0.029 A 
ATOM     44  C   UNL A   1      44.561  27.075  26.639  1.00  0.00     0.049 A 
ATOM     45  H   UNL A   1      43.126  28.119  27.730  1.00  0.00     0.167 HD
ATOM     46  C   UNL A   1      40.060  30.135  30.135  1.00  0.00     0.034 A 
ATOM     47  C   UNL A   1      45.622  27.896  26.492  1.00  0.00     0.034 A 
ATOM     48  C   UNL A   1      41.149  31.072  30.042  1.00  0.00     0.049 A 
ATOM     49  C   UNL A   1      45.562  29.284  27.080  1.00  0.00     0.074 A 
ATOM     50  C   UNL A   1      41.255  32.327  30.615  1.00  0.00     0.029 A 
ATOM     51  N   UNL A   1      42.320  30.859  29.329  1.00  0.00    -0.354 N 
ATOM     52  N   UNL A   1      44.606  29.840  27.787  1.00  0.00    -0.248 NA
ATOM     53  C   UNL A   1      46.721  30.157  26.843  1.00  0.00     0.031 C 
ATOM     54  C   UNL A   1      42.461  32.898  30.198  1.00  0.00     0.029 A 
ATOM     55  C   UNL A   1      43.140  31.973  29.419  1.00  0.00     0.049 A 
ATOM     56  H   UNL A   1      42.537  30.037  28.831  1.00  0.00     0.167 HD
ATOM     57  C   UNL A   1      45.056  31.121  28.094  1.00  0.00     0.074 A 
ATOM     58  C   UNL A   1      46.371  31.254  27.502  1.00  0.00     0.031 C 
ATOM     59  C   UNL A   1      44.439  32.097  28.807  1.00  0.00     0.034 A 
BRANCH  46  60
ATOM     60  C   UNL A   1      38.839  30.529  30.922  1.00  0.00     0.023 A 
ATOM     61  C   UNL A   1      37.753  31.182  30.317  1.00  0.00     0.031 A 
ATOM     62  C   UNL A   1      38.756  30.232  32.295  1.00  0.00     0.131 A 
ATOM     63  C   UNL A   1      36.643  31.553  31.091  1.00  0.00     0.055 A 
ATOM     64  C   UNL A   1      37.623  30.549  33.045  1.00  0.00     0.041 A 
ATOM     65  F   UNL A   1      39.775  29.628  32.925  1.00  0.00    -0.206 F 
ATOM     66  C   UNL A   1      36.561  31.219  32.445  1.00  0.00     0.022 A 
BRANCH  63  67
ATOM     67  S   UNL A   1      35.335  32.544  30.320  1.00  0.00     0.124 S 
ATOM     68  O   UNL A   1      34.344  32.606  31.392  1.00  0.00    -0.237 OA
ATOM     69  O   UNL A   1      36.022  33.793  30.012  1.00  0.00    -0.237 OA
ATOM     70  O   UNL A   1      34.940  31.748  29.160  1.00  0.00    -0.744 OA
ENDBRANCH  63  67
ENDBRANCH  46  60
BRANCH  47  71
ATOM     71  C   UNL A   1      46.817  27.445  25.728  1.00  0.00     0.023 A 
ATOM     72  C   UNL A   1      46.992  27.797  24.382  1.00  0.00     0.031 A 
ATOM     73  C   UNL A   1      47.794  26.635  26.334  1.00  0.00     0.131 A 
ATOM     74  C   UNL A   1      48.109  27.323  23.676  1.00  0.00     0.055 A 
ATOM     75  C   UNL A   1      48.923  26.198  25.639  1.00  0.00     0.041 A 
ATOM     76  F   UNL A   1      47.670  26.271  27.620  1.00  0.00    -0.206 F 
ATOM     77  C   UNL A   1      49.082  26.537  24.299  1.00  0.00     0.022 A 
BRANCH  74  78
ATOM     78  S   UNL A   1      48.261  27.723  21.913  1.00  0.00     0.124 S 
ATOM     79  O   UNL A   1      46.991  28.392  21.651  1.00  0.00    -0.237 OA
ATOM     80  O   UNL A   1      49.450  28.569  21.893  1.00  0.00    -0.237 OA
ATOM     81  O   UNL A   1      48.421  26.415  21.280  1.00  0.00    -0.744 OA
ENDBRANCH  74  78
ENDBRANCH  47  71
BRANCH  59  82
ATOM     82  C   UNL A   1      45.183  33.392  29.002  1.00  0.00     0.023 A 
ATOM     83  C   UNL A   1      44.957  34.499  28.168  1.00  0.00     0.031 A 
ATOM     84  C   UNL A   1      46.090  33.533  30.068  1.00  0.00     0.131 A 
ATOM     85  C   UNL A   1      45.651  35.697  28.398  1.00  0.00     0.055 A 
ATOM     86  C   UNL A   1      46.742  34.741  30.318  1.00  0.00     0.041 A 
ATOM     87  F   UNL A   1      46.336  32.506  30.894  1.00  0.00    -0.206 F 
ATOM     88  C   UNL A   1      46.528  35.829  29.478  1.00  0.00     0.022 A 
BRANCH  85  89
ATOM     89  S   UNL A   1      45.414  37.076  27.245  1.00  0.00     0.124 S 
ATOM     90  O   UNL A   1      46.391  36.773  26.206  1.00  0.00    -0.237 OA
ATOM     91  O   UNL A   1      44.013  36.934  26.864  1.00  0.00    -0.237 OA
ATOM     92  O   UNL A   1      45.717  38.255  28.055  1.00  0.00    -0.744 OA
ENDBRANCH  85  89
ENDBRANCH  59  82
ENDBRANCH  33  34
ENDBRANCH  26  28
ENDBRANCH  25  26
ENDBRANCH  24  25
ENDBRANCH   1  24
TORSDOF 18
ENDMDL
MODEL 2
REMARK VINA RESULT:     -11.6      1.364      2.093
REMARK SMILES Cc1cc(Br)cc2c1O[C@H](C(F)(F)F)C(C(=O)OCCOCCOC(=O)c1ccc(-c3c4nc(c(-c5cc(S(=O)(=O)[O-])ccc5F)c5ccc([nH]5)c(-c5cc(S(=O)(=O)[O-])ccc5F)c5nc(c(-c6cc(S(=O)(=O)[O-])ccc6F)c6ccc3[nH]6)C=C5)C=C4)cc1)=C2
REMARK SMILES IDX 22 1 21 2 20 3 19 4 18 5 16 6 17 7 15 8 1 9 2 10 3 11 8 12
REMARK SMILES IDX 4 13 7 14 9 15 5 16 6 17 90 18 10 19 11 20 12 21 13 22 14 23
REMARK SMILES IDX 23 24 24 25 25 26 26 27 27 28 28 29 89 30 29 31 88 32 30 33
REMARK SMILES IDX 31 34 32 35 82 36 33 37 87 38 81 39 83 40 34 41 86 42 80 43
REMARK SMILES IDX 79 44 35 46 67 47 47 48 66 49 48 50 51 51 65 52 84 53 49 54
REMARK SMILES IDX 50 55 64 57 85 58 52 59 36 60 37 61 45 62 38 63 44 64 46 65
REMARK SMILES IDX 43 66 39 67 40 68 41 69 42 70 68 71 69 72 77 73 70 74 76 75
REMARK SMILES IDX 78 76 75 77 71 78 72 79 73 80 74 81 53 82 54 83 62 84 55 85
REMARK SMILES IDX 61 86 63 87 60 88 56 89 57 90 58 91 59 92
REMARK H PARENT 83 45 51 56
REMARK Flexibility Score: inf
ROOT
ATOM      1  C   UNL A   1      36.467  22.265  23.614  1.00  0.00     0.202 C 
ENDROOT
BRANCH   1   2
ATOM      2  O   UNL A   1      35.188  22.797  23.962  1.00  0.00    -0.374 OA
BRANCH   2   3
ATOM      3  C   UNL A   1      34.384  23.336  22.912  1.00  0.00     0.202 C 
BRANCH   3   4
ATOM      4  C   UNL A   1      33.140  24.124  23.335  1.00  0.00     0.261 C 
BRANCH   4   5
ATOM      5  O   UNL A   1      33.191  25.485  22.878  1.00  0.00    -0.460 OA
BRANCH   5   6
ATOM      6  C   UNL A   1      32.849  26.406  23.807  1.00  0.00     0.338 C 
ATOM      7  O   UNL A   1      33.575  26.898  24.658  1.00  0.00    -0.246 OA
BRANCH   6   8
ATOM      8  C   UNL A   1      31.462  26.858  23.579  1.00  0.00     0.087 C 
ATOM      9  C   UNL A   1      26.411  27.855  23.808  1.00  0.00     0.048 C 
ATOM     10  C   UNL A   1      27.625  28.468  23.168  1.00  0.00    -0.007 A 
ATOM     11  C   UNL A   1      27.481  29.704  22.514  1.00  0.00     0.023 A 
ATOM     12  C   UNL A   1      28.897  27.877  23.241  1.00  0.00     0.130 A 
ATOM     13  C   UNL A   1      28.584  30.327  21.934  1.00  0.00     0.019 A 
ATOM     14  C   UNL A   1      30.004  28.527  22.682  1.00  0.00     0.019 A 
ATOM     15  O   UNL A   1      28.992  26.658  23.855  1.00  0.00    -0.475 OA
ATOM     16  Br  UNL A   1      28.373  31.989  21.059  1.00  0.00    -0.051 Br
ATOM     17  C   UNL A   1      29.844  29.745  22.012  1.00  0.00     0.027 A 
ATOM     18  C   UNL A   1      31.333  27.970  22.845  1.00  0.00     0.027 C 
ATOM     19  C   UNL A   1      30.303  26.107  24.169  1.00  0.00     0.316 C 
BRANCH  19  20
ATOM     20  C   UNL A   1      30.409  25.962  25.694  1.00  0.00     0.430 C 
ATOM     21  F   UNL A   1      31.330  25.030  26.036  1.00  0.00    -0.167 F 
ATOM     22  F   UNL A   1      30.784  27.120  26.286  1.00  0.00    -0.167 F 
ATOM     23  F   UNL A   1      29.231  25.588  26.246  1.00  0.00    -0.167 F 
ENDBRANCH  19  20
ENDBRANCH   6   8
ENDBRANCH   5   6
ENDBRANCH   4   5
ENDBRANCH   3   4
ENDBRANCH   2   3
ENDBRANCH   1   2
BRANCH   1  24
ATOM     24  C   UNL A   1      37.053  21.175  24.520  1.00  0.00     0.261 C 
BRANCH  24  25
ATOM     25  O   UNL A   1      37.486  21.694  25.791  1.00  0.00    -0.460 OA
BRANCH  25  26
ATOM     26  C   UNL A   1      38.795  21.479  26.071  1.00  0.00     0.338 C 
ATOM     27  O   UNL A   1      39.463  20.504  25.754  1.00  0.00    -0.246 OA
BRANCH  26  28
ATOM     28  C   UNL A   1      39.390  22.689  26.664  1.00  0.00     0.060 A 
ATOM     29  C   UNL A   1      38.845  23.927  26.300  1.00  0.00     0.016 A 
ATOM     30  C   UNL A   1      40.516  22.621  27.487  1.00  0.00     0.016 A 
ATOM     31  C   UNL A   1      39.451  25.107  26.724  1.00  0.00     0.010 A 
ATOM     32  C   UNL A   1      41.132  23.808  27.900  1.00  0.00     0.010 A 
ATOM     33  C   UNL A   1      40.622  25.053  27.491  1.00  0.00    -0.014 A 
BRANCH  33  34
ATOM     34  C   UNL A   1      41.394  26.299  27.720  1.00  0.00     0.031 A 
ATOM     35  C   UNL A   1      40.775  27.393  28.546  1.00  0.00     0.074 A 
ATOM     36  C   UNL A   1      42.650  26.427  27.254  1.00  0.00     0.049 A 
ATOM     37  N   UNL A   1      41.255  28.570  28.858  1.00  0.00    -0.248 NA
ATOM     38  C   UNL A   1      39.437  27.124  29.098  1.00  0.00     0.031 C 
ATOM     39  C   UNL A   1      43.378  25.406  26.503  1.00  0.00     0.029 A 
ATOM     40  N   UNL A   1      43.538  27.468  27.356  1.00  0.00    -0.354 N 
ATOM     41  C   UNL A   1      40.285  29.176  29.648  1.00  0.00     0.074 A 
ATOM     42  C   UNL A   1      39.174  28.254  29.737  1.00  0.00     0.031 C 
ATOM     43  C   UNL A   1      44.607  25.870  26.219  1.00  0.00     0.029 A 
ATOM     44  C   UNL A   1      44.740  27.232  26.733  1.00  0.00     0.049 A 
ATOM     45  H   UNL A   1      43.333  28.306  27.832  1.00  0.00     0.167 HD
ATOM     46  C   UNL A   1      40.325  30.387  30.255  1.00  0.00     0.034 A 
ATOM     47  C   UNL A   1      45.816  28.030  26.579  1.00  0.00     0.034 A 
ATOM     48  C   UNL A   1      41.433  31.300  30.155  1.00  0.00     0.049 A 
ATOM     49  C   UNL A   1      45.789  29.419  27.166  1.00  0.00     0.074 A 
ATOM     50  C   UNL A   1      41.568  32.553  30.726  1.00  0.00     0.029 A 
ATOM     51  N   UNL A   1      42.595  31.063  29.434  1.00  0.00    -0.354 N 
ATOM     52  N   UNL A   1      44.849  29.996  27.879  1.00  0.00    -0.248 NA
ATOM     53  C   UNL A   1      46.965  30.267  26.922  1.00  0.00     0.031 C 
ATOM     54  C   UNL A   1      42.784  33.098  30.301  1.00  0.00     0.029 A 
ATOM     55  C   UNL A   1      43.438  32.159  29.519  1.00  0.00     0.049 A 
ATOM     56  H   UNL A   1      42.791  30.237  28.936  1.00  0.00     0.167 HD
ATOM     57  C   UNL A   1      45.328  31.267  28.182  1.00  0.00     0.074 A 
ATOM     58  C   UNL A   1      46.642  31.373  27.583  1.00  0.00     0.031 C 
ATOM     59  C   UNL A   1      44.736  32.256  28.899  1.00  0.00     0.034 A 
BRANCH  46  60
ATOM     60  C   UNL A   1      39.117  30.807  31.049  1.00  0.00     0.023 A 
ATOM     61  C   UNL A   1      38.026  31.451  30.444  1.00  0.00     0.031 A 
ATOM     62  C   UNL A   1      39.052  30.543  32.430  1.00  0.00     0.131 A 
ATOM     63  C   UNL A   1      36.929  31.847  31.224  1.00  0.00     0.055 A 
ATOM     64  C   UNL A   1      37.931  30.885  33.188  1.00  0.00     0.041 A 
ATOM     65  F   UNL A   1      40.076  29.949  33.060  1.00  0.00    -0.206 F 
ATOM     66  C   UNL A   1      36.864  31.546  32.587  1.00  0.00     0.022 A 
BRANCH  63  67
ATOM     67  S   UNL A   1      35.616  32.827  30.448  1.00  0.00     0.124 S 
ATOM     68  O   UNL A   1      36.069  34.189  30.718  1.00  0.00    -0.237 OA
ATOM     69  O   UNL A   1      35.678  32.397  29.056  1.00  0.00    -0.237 OA
ATOM     70  O   UNL A   1      34.413  32.421  31.172  1.00  0.00    -0.744 OA
ENDBRANCH  63  67
ENDBRANCH  46  60
BRANCH  47  71
ATOM     71  C   UNL A   1      46.996  27.554  25.808  1.00  0.00     0.023 A 
ATOM     72  C   UNL A   1      47.166  27.894  24.458  1.00  0.00     0.031 A 
ATOM     73  C   UNL A   1      47.965  26.732  26.411  1.00  0.00     0.131 A 
ATOM     74  C   UNL A   1      48.269  27.396  23.746  1.00  0.00     0.055 A 
ATOM     75  C   UNL A   1      49.081  26.271  25.710  1.00  0.00     0.041 A 
ATOM     76  F   UNL A   1      47.847  26.378  27.701  1.00  0.00    -0.206 F 
ATOM     77  C   UNL A   1      49.234  26.598  24.366  1.00  0.00     0.022 A 
BRANCH  74  78
ATOM     78  S   UNL A   1      48.412  27.782  21.979  1.00  0.00     0.124 S 
ATOM     79  O   UNL A   1      48.504  26.450  21.392  1.00  0.00    -0.237 OA
ATOM     80  O   UNL A   1      47.175  28.513  21.725  1.00  0.00    -0.237 OA
ATOM     81  O   UNL A   1      49.631  28.584  21.904  1.00  0.00    -0.744 OA
ENDBRANCH  74  78
ENDBRANCH  47  71
BRANCH  59  82
ATOM     82  C   UNL A   1      45.507  33.535  29.089  1.00  0.00     0.023 A 
ATOM     83  C   UNL A   1      45.354  34.620  28.211  1.00  0.00     0.031 A 
ATOM     84  C   UNL A   1      46.368  33.685  30.191  1.00  0.00     0.131 A 
ATOM     85  C   UNL A   1      46.072  35.805  28.436  1.00  0.00     0.055 A 
ATOM     86  C   UNL A   1      47.043  34.881  30.435  1.00  0.00     0.041 A 
ATOM     87  F   UNL A   1      46.545  32.678  31.060  1.00  0.00    -0.206 F 
ATOM     88  C   UNL A   1      46.901  35.948  29.552  1.00  0.00     0.022 A 
BRANCH  85  89
ATOM     89  S   UNL A   1      45.930  37.153  27.231  1.00  0.00     0.124 S 
ATOM     90  O   UNL A   1      44.485  37.248  27.054  1.00  0.00    -0.237 OA
ATOM     91  O   UNL A   1      46.562  38.268  27.927  1.00  0.00    -0.237 OA
ATOM     92  O   UNL A   1      46.664  36.653  26.070  1.00  0.00    -0.744 OA
ENDBRANCH  85  89
ENDBRANCH  59  82
ENDBRANCH  33  34
ENDBRANCH  26  28
ENDBRANCH  25  26
ENDBRANCH  24  25
ENDBRANCH   1  24
TORSDOF 18
ENDMDL
MODEL 3
REMARK VINA RESULT:     -11.5      5.064     10.164
REMARK SMILES Cc1cc(Br)cc2c1O[C@H](C(F)(F)F)C(C(=O)OCCOCCOC(=O)c1ccc(-c3c4nc(c(-c5cc(S(=O)(=O)[O-])ccc5F)c5ccc([nH]5)c(-c5cc(S(=O)(=O)[O-])ccc5F)c5nc(c(-c6cc(S(=O)(=O)[O-])ccc6F)c6ccc3[nH]6)C=C5)C=C4)cc1)=C2
REMARK SMILES IDX 22 1 21 2 20 3 19 4 18 5 16 6 17 7 15 8 1 9 2 10 3 11 8 12
REMARK SMILES IDX 4 13 7 14 9 15 5 16 6 17 90 18 10 19 11 20 12 21 13 22 14 23
REMARK SMILES IDX 23 24 24 25 25 26 26 27 27 28 28 29 89 30 29 31 88 32 30 33
REMARK SMILES IDX 31 34 32 35 82 36 33 37 87 38 81 39 83 40 34 41 86 42 80 43
REMARK SMILES IDX 79 44 35 46 67 47 47 48 66 49 48 50 51 51 65 52 84 53 49 54
REMARK SMILES IDX 50 55 64 57 85 58 52 59 36 60 37 61 45 62 38 63 44 64 46 65
REMARK SMILES IDX 43 66 39 67 40 68 41 69 42 70 68 71 69 72 77 73 70 74 76 75
REMARK SMILES IDX 78 76 75 77 71 78 72 79 73 80 74 81 53 82 54 83 62 84 55 85
REMARK SMILES IDX 61 86 63 87 60 88 56 89 57 90 58 91 59 92
REMARK H PARENT 83 45 51 56
REMARK Flexibility Score: inf
ROOT
ATOM      1  C   UNL A   1      32.173  29.295  25.234  1.00  0.00     0.202 C 
ENDROOT
BRANCH   1   2
ATOM      2  O   UNL A   1      31.177  28.294  25.023  1.00  0.00    -0.374 OA
BRANCH   2   3
ATOM      3  C   UNL A   1      30.719  28.081  23.688  1.00  0.00     0.202 C 
BRANCH   3   4
ATOM      4  C   UNL A   1      30.053  26.733  23.397  1.00  0.00     0.261 C 
BRANCH   4   5
ATOM      5  O   UNL A   1      30.918  25.631  23.714  1.00  0.00    -0.460 OA
BRANCH   5   6
ATOM      6  C   UNL A   1      31.721  25.234  22.703  1.00  0.00     0.338 C 
ATOM      7  O   UNL A   1      31.778  25.708  21.578  1.00  0.00    -0.246 OA
BRANCH   6   8
ATOM      8  C   UNL A   1      32.653  24.194  23.180  1.00  0.00     0.087 C 
ATOM      9  C   UNL A   1      36.398  21.475  25.449  1.00  0.00     0.048 C 
ATOM     10  C   UNL A   1      35.042  21.201  24.861  1.00  0.00    -0.007 A 
ATOM     11  C   UNL A   1      34.504  19.910  25.000  1.00  0.00     0.023 A 
ATOM     12  C   UNL A   1      34.280  22.195  24.224  1.00  0.00     0.130 A 
ATOM     13  C   UNL A   1      33.238  19.617  24.499  1.00  0.00     0.019 A 
ATOM     14  C   UNL A   1      32.996  21.898  23.753  1.00  0.00     0.019 A 
ATOM     15  O   UNL A   1      34.851  23.429  24.077  1.00  0.00    -0.475 OA
ATOM     16  Br  UNL A   1      32.528  17.876  24.695  1.00  0.00    -0.051 Br
ATOM     17  C   UNL A   1      32.481  20.602  23.875  1.00  0.00     0.027 A 
ATOM     18  C   UNL A   1      32.168  22.946  23.188  1.00  0.00     0.027 C 
ATOM     19  C   UNL A   1      34.036  24.555  23.642  1.00  0.00     0.316 C 
BRANCH  19  20
ATOM     20  C   UNL A   1      34.027  25.602  24.766  1.00  0.00     0.430 C 
ATOM     21  F   UNL A   1      35.159  25.536  25.507  1.00  0.00    -0.167 F 
ATOM     22  F   UNL A   1      33.950  26.863  24.281  1.00  0.00    -0.167 F 
ATOM     23  F   UNL A   1      32.982  25.426  25.608  1.00  0.00    -0.167 F 
ENDBRANCH  19  20
ENDBRANCH   6   8
ENDBRANCH   5   6
ENDBRANCH   4   5
ENDBRANCH   3   4
ENDBRANCH   2   3
ENDBRANCH   1   2
BRANCH   1  24
ATOM     24  C   UNL A   1      31.734  30.606  25.899  1.00  0.00     0.261 C 
BRANCH  24  25
ATOM     25  O   UNL A   1      32.307  30.776  27.208  1.00  0.00    -0.460 OA
BRANCH  25  26
ATOM     26  C   UNL A   1      33.103  31.865  27.337  1.00  0.00     0.338 C 
ATOM     27  O   UNL A   1      32.765  33.037  27.243  1.00  0.00    -0.246 OA
BRANCH  26  28
ATOM     28  C   UNL A   1      34.440  31.462  27.807  1.00  0.00     0.060 A 
ATOM     29  C   UNL A   1      34.634  30.113  28.135  1.00  0.00     0.016 A 
ATOM     30  C   UNL A   1      35.456  32.397  28.009  1.00  0.00     0.016 A 
ATOM     31  C   UNL A   1      35.834  29.702  28.710  1.00  0.00     0.010 A 
ATOM     32  C   UNL A   1      36.656  31.984  28.600  1.00  0.00     0.010 A 
ATOM     33  C   UNL A   1      36.835  30.643  28.984  1.00  0.00    -0.014 A 
BRANCH  33  34
ATOM     34  C   UNL A   1      37.994  30.243  29.819  1.00  0.00     0.031 A 
ATOM     35  C   UNL A   1      39.014  29.302  29.239  1.00  0.00     0.074 A 
ATOM     36  C   UNL A   1      38.168  30.759  31.049  1.00  0.00     0.049 A 
ATOM     37  N   UNL A   1      40.091  28.804  29.790  1.00  0.00    -0.248 NA
ATOM     38  C   UNL A   1      38.793  28.868  27.850  1.00  0.00     0.031 C 
ATOM     39  C   UNL A   1      37.283  31.733  31.687  1.00  0.00     0.029 A 
ATOM     40  N   UNL A   1      39.156  30.544  31.976  1.00  0.00    -0.354 N 
ATOM     41  C   UNL A   1      40.680  28.007  28.815  1.00  0.00     0.074 A 
ATOM     42  C   UNL A   1      39.823  28.057  27.651  1.00  0.00     0.031 C 
ATOM     43  C   UNL A   1      37.775  32.037  32.900  1.00  0.00     0.029 A 
ATOM     44  C   UNL A   1      38.985  31.253  33.140  1.00  0.00     0.049 A 
ATOM     45  H   UNL A   1      39.917  29.938  31.821  1.00  0.00     0.167 HD
ATOM     46  C   UNL A   1      41.839  27.308  28.882  1.00  0.00     0.034 A 
ATOM     47  C   UNL A   1      39.712  31.255  34.277  1.00  0.00     0.034 A 
ATOM     48  C   UNL A   1      42.683  27.259  30.048  1.00  0.00     0.049 A 
ATOM     49  C   UNL A   1      40.935  30.378  34.368  1.00  0.00     0.074 A 
ATOM     50  C   UNL A   1      43.873  26.574  30.218  1.00  0.00     0.029 A 
ATOM     51  N   UNL A   1      42.425  27.916  31.242  1.00  0.00    -0.354 N 
ATOM     52  N   UNL A   1      41.460  29.597  33.452  1.00  0.00    -0.248 NA
ATOM     53  C   UNL A   1      41.658  30.375  35.647  1.00  0.00     0.031 C 
ATOM     54  C   UNL A   1      44.303  26.768  31.535  1.00  0.00     0.029 A 
ATOM     55  C   UNL A   1      43.417  27.628  32.165  1.00  0.00     0.049 A 
ATOM     56  H   UNL A   1      41.651  28.502  31.408  1.00  0.00     0.167 HD
ATOM     57  C   UNL A   1      42.585  29.026  34.039  1.00  0.00     0.074 A 
ATOM     58  C   UNL A   1      42.668  29.554  35.384  1.00  0.00     0.031 C 
ATOM     59  C   UNL A   1      43.473  28.147  33.510  1.00  0.00     0.034 A 
BRANCH  46  60
ATOM     60  C   UNL A   1      42.240  26.509  27.671  1.00  0.00     0.023 A 
ATOM     61  C   UNL A   1      41.899  25.153  27.539  1.00  0.00     0.031 A 
ATOM     62  C   UNL A   1      42.960  27.118  26.628  1.00  0.00     0.131 A 
ATOM     63  C   UNL A   1      42.311  24.437  26.404  1.00  0.00     0.055 A 
ATOM     64  C   UNL A   1      43.314  26.417  25.474  1.00  0.00     0.041 A 
ATOM     65  F   UNL A   1      43.328  28.406  26.714  1.00  0.00    -0.206 F 
ATOM     66  C   UNL A   1      42.996  25.067  25.361  1.00  0.00     0.022 A 
BRANCH  63  67
ATOM     67  S   UNL A   1      42.006  22.652  26.341  1.00  0.00     0.124 S 
ATOM     68  O   UNL A   1      42.652  22.288  25.082  1.00  0.00    -0.237 OA
ATOM     69  O   UNL A   1      42.659  22.174  27.555  1.00  0.00    -0.237 OA
ATOM     70  O   UNL A   1      40.548  22.553  26.338  1.00  0.00    -0.744 OA
ENDBRANCH  63  67
ENDBRANCH  46  60
BRANCH  47  71
ATOM     71  C   UNL A   1      39.285  32.087  35.436  1.00  0.00     0.023 A 
ATOM     72  C   UNL A   1      39.739  33.405  35.587  1.00  0.00     0.031 A 
ATOM     73  C   UNL A   1      38.430  31.563  36.421  1.00  0.00     0.131 A 
ATOM     74  C   UNL A   1      39.351  34.152  36.711  1.00  0.00     0.055 A 
ATOM     75  C   UNL A   1      38.016  32.321  37.517  1.00  0.00     0.041 A 
ATOM     76  F   UNL A   1      37.969  30.305  36.320  1.00  0.00    -0.206 F 
ATOM     77  C   UNL A   1      38.483  33.623  37.670  1.00  0.00     0.022 A 
BRANCH  74  78
ATOM     78  S   UNL A   1      40.025  35.822  36.923  1.00  0.00     0.124 S 
ATOM     79  O   UNL A   1      39.653  36.454  35.663  1.00  0.00    -0.237 OA
ATOM     80  O   UNL A   1      39.318  36.289  38.111  1.00  0.00    -0.237 OA
ATOM     81  O   UNL A   1      41.457  35.591  37.107  1.00  0.00    -0.744 OA
ENDBRANCH  74  78
ENDBRANCH  47  71
BRANCH  59  82
ATOM     82  C   UNL A   1      44.623  27.710  34.379  1.00  0.00     0.023 A 
ATOM     83  C   UNL A   1      44.534  26.567  35.190  1.00  0.00     0.031 A 
ATOM     84  C   UNL A   1      45.837  28.419  34.355  1.00  0.00     0.131 A 
ATOM     85  C   UNL A   1      45.636  26.179  35.968  1.00  0.00     0.055 A 
ATOM     86  C   UNL A   1      46.944  28.001  35.095  1.00  0.00     0.041 A 
ATOM     87  F   UNL A   1      45.972  29.515  33.593  1.00  0.00    -0.206 F 
ATOM     88  C   UNL A   1      46.845  26.878  35.911  1.00  0.00     0.022 A 
BRANCH  85  89
ATOM     89  S   UNL A   1      45.459  24.758  37.081  1.00  0.00     0.124 S 
ATOM     90  O   UNL A   1      44.038  24.454  36.959  1.00  0.00    -0.237 OA
ATOM     91  O   UNL A   1      46.372  23.781  36.496  1.00  0.00    -0.237 OA
ATOM     92  O   UNL A   1      45.871  25.287  38.380  1.00  0.00    -0.744 OA
ENDBRANCH  85  89
ENDBRANCH  59  82
ENDBRANCH  33  34
ENDBRANCH  26  28
ENDBRANCH  25  26
ENDBRANCH  24  25
ENDBRANCH   1  24
TORSDOF 18
ENDMDL
