MODEL 1
REMARK VINA RESULT:     -12.0      0.000      0.000
REMARK SMILES COc1ccc(/C=C2/C(=O)N(c3ccccc3)C(=O)N=C2OCCOCCOC(=O)c2ccc(-c3c4nc(c(-c5cc(S(=O)(=O)[O-])ccc5F)c5ccc([nH]5)c(-c5cc(S(=O)(=O)[O-])ccc5F)c5nc(c(-c6cc(S(=O)(=O)[O-])ccc6F)c6ccc3[nH]6)C=C5)C=C4)cc2)cc1C(=O)[O-]
REMARK SMILES IDX 26 1 25 2 24 3 23 4 22 5 21 6 7 7 8 8 9 9 10 10 11 11 20 12
REMARK SMILES IDX 18 13 19 14 6 15 3 16 4 17 95 18 5 19 94 20 2 21 1 22 96 23
REMARK SMILES IDX 97 24 98 25 12 26 13 27 17 28 14 29 16 30 15 31 27 32 28 33
REMARK SMILES IDX 29 34 30 35 31 36 32 37 93 38 33 39 92 40 34 41 35 42 36 43
REMARK SMILES IDX 86 44 37 45 91 46 85 47 87 48 38 49 90 50 84 51 83 52 39 54
REMARK SMILES IDX 71 55 51 56 70 57 52 58 55 59 69 60 88 61 53 62 54 63 68 65
REMARK SMILES IDX 89 66 56 67 40 68 41 69 49 70 42 71 48 72 50 73 47 74 43 75
REMARK SMILES IDX 44 76 45 77 46 78 72 79 73 80 81 81 74 82 80 83 82 84 79 85
REMARK SMILES IDX 75 86 76 87 77 88 78 89 57 90 58 91 66 92 59 93 65 94 67 95
REMARK SMILES IDX 64 96 60 97 61 98 62 99 63 100
REMARK H PARENT 87 53 55 64
REMARK Flexibility Score: inf
ROOT
ATOM      1  C   UNL A   1      36.904  21.822  25.111  1.00  0.00     0.202 C 
ENDROOT
BRANCH   1   2
ATOM      2  O   UNL A   1      36.816  22.753  24.031  1.00  0.00    -0.374 OA
BRANCH   2   3
ATOM      3  C   UNL A   1      35.507  22.984  23.500  1.00  0.00     0.202 C 
BRANCH   3   4
ATOM      4  C   UNL A   1      34.935  24.356  23.851  1.00  0.00     0.260 C 
BRANCH   4   5
ATOM      5  O   UNL A   1      34.033  24.775  22.800  1.00  0.00    -0.475 OA
BRANCH   5   6
ATOM      6  C   UNL A   1      33.230  25.823  23.022  1.00  0.00     0.231 C 
ATOM      7  C   UNL A   1      31.262  24.257  23.589  1.00  0.00     0.027 C 
ATOM      8  C   UNL A   1      31.853  25.469  23.409  1.00  0.00     0.103 C 
ATOM      9  C   UNL A   1      30.939  26.674  23.505  1.00  0.00     0.272 C 
ATOM     10  O   UNL A   1      29.770  26.548  23.872  1.00  0.00    -0.268 OA
ATOM     11  N   UNL A   1      31.502  27.885  23.096  1.00  0.00    -0.226 N 
ATOM     12  N   UNL A   1      33.684  26.999  22.824  1.00  0.00    -0.156 NA
ATOM     13  C   UNL A   1      32.873  28.080  22.896  1.00  0.00     0.358 C 
ATOM     14  O   UNL A   1      33.375  29.199  22.803  1.00  0.00    -0.245 OA
BRANCH   7  15
ATOM     15  C   UNL A   1      31.655  22.816  23.501  1.00  0.00    -0.024 A 
ATOM     16  C   UNL A   1      32.410  20.052  23.546  1.00  0.00     0.127 A 
ATOM     17  C   UNL A   1      32.078  20.693  22.357  1.00  0.00     0.048 A 
ATOM     18  C   UNL A   1      32.485  20.818  24.707  1.00  0.00     0.040 A 
ATOM     19  C   UNL A   1      31.758  22.061  22.333  1.00  0.00     0.012 A 
ATOM     20  C   UNL A   1      32.054  22.167  24.692  1.00  0.00     0.022 A 
BRANCH  16  21
ATOM     21  O   UNL A   1      32.717  18.726  23.420  1.00  0.00    -0.496 OA
ATOM     22  C   UNL A   1      32.276  18.120  22.205  1.00  0.00     0.278 C 
ENDBRANCH  16  21
BRANCH  18  23
ATOM     23  C   UNL A   1      33.092  20.323  25.962  1.00  0.00     0.075 C 
ATOM     24  O   UNL A   1      33.678  20.993  26.783  1.00  0.00    -0.545 OA
ATOM     25  O   UNL A   1      33.037  18.979  26.036  1.00  0.00    -0.545 OA
ENDBRANCH  18  23
ENDBRANCH   7  15
BRANCH  11  26
ATOM     26  C   UNL A   1      30.692  29.061  23.002  1.00  0.00     0.054 A 
ATOM     27  C   UNL A   1      30.463  29.835  24.155  1.00  0.00     0.027 A 
ATOM     28  C   UNL A   1      30.004  29.369  21.826  1.00  0.00     0.027 A 
ATOM     29  C   UNL A   1      29.535  30.876  24.139  1.00  0.00     0.002 A 
ATOM     30  C   UNL A   1      29.051  30.393  21.824  1.00  0.00     0.002 A 
ATOM     31  C   UNL A   1      28.814  31.140  22.978  1.00  0.00     0.000 A 
ENDBRANCH  11  26
ENDBRANCH   5   6
ENDBRANCH   4   5
ENDBRANCH   3   4
ENDBRANCH   2   3
ENDBRANCH   1   2
BRANCH   1  32
ATOM     32  C   UNL A   1      38.198  21.009  25.174  1.00  0.00     0.261 C 
BRANCH  32  33
ATOM     33  O   UNL A   1      38.850  21.172  26.444  1.00  0.00    -0.460 OA
BRANCH  33  34
ATOM     34  C   UNL A   1      40.159  21.511  26.359  1.00  0.00     0.338 C 
ATOM     35  O   UNL A   1      41.019  20.945  25.706  1.00  0.00    -0.246 OA
BRANCH  34  36
ATOM     36  C   UNL A   1      40.384  22.806  27.031  1.00  0.00     0.060 A 
ATOM     37  C   UNL A   1      39.688  23.918  26.538  1.00  0.00     0.016 A 
ATOM     38  C   UNL A   1      41.298  22.949  28.075  1.00  0.00     0.016 A 
ATOM     39  C   UNL A   1      39.953  25.188  27.043  1.00  0.00     0.010 A 
ATOM     40  C   UNL A   1      41.568  24.226  28.572  1.00  0.00     0.010 A 
ATOM     41  C   UNL A   1      40.926  25.357  28.035  1.00  0.00    -0.014 A 
BRANCH  41  42
ATOM     42  C   UNL A   1      41.396  26.725  28.372  1.00  0.00     0.031 A 
ATOM     43  C   UNL A   1      42.806  27.113  28.017  1.00  0.00     0.074 A 
ATOM     44  C   UNL A   1      40.574  27.620  28.948  1.00  0.00     0.049 A 
ATOM     45  N   UNL A   1      43.435  28.243  28.216  1.00  0.00    -0.248 NA
ATOM     46  C   UNL A   1      43.620  26.076  27.365  1.00  0.00     0.031 C 
ATOM     47  C   UNL A   1      39.184  27.370  29.326  1.00  0.00     0.029 A 
ATOM     48  N   UNL A   1      40.793  28.921  29.322  1.00  0.00    -0.354 N 
ATOM     49  C   UNL A   1      44.720  28.053  27.715  1.00  0.00     0.074 A 
ATOM     50  C   UNL A   1      44.794  26.676  27.273  1.00  0.00     0.031 C 
ATOM     51  C   UNL A   1      38.674  28.483  29.878  1.00  0.00     0.029 A 
ATOM     52  C   UNL A   1      39.704  29.518  29.911  1.00  0.00     0.049 A 
ATOM     53  H   UNL A   1      41.652  29.385  29.181  1.00  0.00     0.167 HD
ATOM     54  C   UNL A   1      45.733  28.947  27.607  1.00  0.00     0.034 A 
ATOM     55  C   UNL A   1      39.559  30.755  30.424  1.00  0.00     0.034 A 
ATOM     56  C   UNL A   1      45.645  30.316  28.055  1.00  0.00     0.049 A 
ATOM     57  C   UNL A   1      40.718  31.720  30.354  1.00  0.00     0.074 A 
ATOM     58  C   UNL A   1      46.600  31.315  27.981  1.00  0.00     0.029 A 
ATOM     59  N   UNL A   1      44.533  30.878  28.673  1.00  0.00    -0.354 N 
ATOM     60  N   UNL A   1      41.920  31.536  29.858  1.00  0.00    -0.248 NA
ATOM     61  C   UNL A   1      40.489  33.065  30.897  1.00  0.00     0.031 C 
ATOM     62  C   UNL A   1      46.090  32.458  28.609  1.00  0.00     0.029 A 
ATOM     63  C   UNL A   1      44.789  32.199  29.011  1.00  0.00     0.049 A 
ATOM     64  H   UNL A   1      43.687  30.407  28.847  1.00  0.00     0.167 HD
ATOM     65  C   UNL A   1      42.580  32.754  29.999  1.00  0.00     0.074 A 
ATOM     66  C   UNL A   1      41.637  33.664  30.618  1.00  0.00     0.031 C 
ATOM     67  C   UNL A   1      43.845  33.093  29.642  1.00  0.00     0.034 A 
BRANCH  54  68
ATOM     68  C   UNL A   1      47.029  28.441  27.016  1.00  0.00     0.023 A 
ATOM     69  C   UNL A   1      47.231  28.384  25.624  1.00  0.00     0.031 A 
ATOM     70  C   UNL A   1      48.042  27.934  27.847  1.00  0.00     0.131 A 
ATOM     71  C   UNL A   1      48.362  27.737  25.106  1.00  0.00     0.055 A 
ATOM     72  C   UNL A   1      49.213  27.377  27.324  1.00  0.00     0.041 A 
ATOM     73  F   UNL A   1      47.901  27.940  29.181  1.00  0.00    -0.206 F 
ATOM     74  C   UNL A   1      49.368  27.255  25.946  1.00  0.00     0.022 A 
BRANCH  71  75
ATOM     75  S   UNL A   1      48.403  27.362  23.331  1.00  0.00     0.124 S 
ATOM     76  O   UNL A   1      49.729  27.847  22.958  1.00  0.00    -0.237 OA
ATOM     77  O   UNL A   1      48.221  25.916  23.310  1.00  0.00    -0.237 OA
ATOM     78  O   UNL A   1      47.289  28.140  22.791  1.00  0.00    -0.744 OA
ENDBRANCH  71  75
ENDBRANCH  54  68
BRANCH  55  79
ATOM     79  C   UNL A   1      38.274  31.161  31.056  1.00  0.00     0.023 A 
ATOM     80  C   UNL A   1      37.269  31.799  30.312  1.00  0.00     0.031 A 
ATOM     81  C   UNL A   1      38.047  30.949  32.427  1.00  0.00     0.131 A 
ATOM     82  C   UNL A   1      36.099  32.236  30.949  1.00  0.00     0.055 A 
ATOM     83  C   UNL A   1      36.863  31.347  33.049  1.00  0.00     0.041 A 
ATOM     84  F   UNL A   1      38.978  30.342  33.182  1.00  0.00    -0.206 F 
ATOM     85  C   UNL A   1      35.883  32.004  32.310  1.00  0.00     0.022 A 
BRANCH  82  86
ATOM     86  S   UNL A   1      34.879  33.170  29.984  1.00  0.00     0.124 S 
ATOM     87  O   UNL A   1      33.999  33.679  31.029  1.00  0.00    -0.237 OA
ATOM     88  O   UNL A   1      35.718  34.157  29.312  1.00  0.00    -0.237 OA
ATOM     89  O   UNL A   1      34.291  32.159  29.108  1.00  0.00    -0.744 OA
ENDBRANCH  82  86
ENDBRANCH  55  79
BRANCH  67  90
ATOM     90  C   UNL A   1      44.260  34.527  29.872  1.00  0.00     0.023 A 
ATOM     91  C   UNL A   1      44.126  35.508  28.874  1.00  0.00     0.031 A 
ATOM     92  C   UNL A   1      44.823  34.909  31.104  1.00  0.00     0.131 A 
ATOM     93  C   UNL A   1      44.608  36.807  29.102  1.00  0.00     0.055 A 
ATOM     94  C   UNL A   1      45.244  36.219  31.345  1.00  0.00     0.041 A 
ATOM     95  F   UNL A   1      44.977  34.015  32.092  1.00  0.00    -0.206 F 
ATOM     96  C   UNL A   1      45.151  37.172  30.335  1.00  0.00     0.022 A 
BRANCH  93  97
ATOM     97  S   UNL A   1      44.614  37.987  27.724  1.00  0.00     0.124 S 
ATOM     98  O   UNL A   1      45.615  37.410  26.833  1.00  0.00    -0.237 OA
ATOM     99  O   UNL A   1      43.232  37.925  27.255  1.00  0.00    -0.237 OA
ATOM    100  O   UNL A   1      44.997  39.249  28.353  1.00  0.00    -0.744 OA
ENDBRANCH  93  97
ENDBRANCH  67  90
ENDBRANCH  41  42
ENDBRANCH  34  36
ENDBRANCH  33  34
ENDBRANCH  32  33
ENDBRANCH   1  32
TORSDOF 20
ENDMDL
MODEL 2
REMARK VINA RESULT:     -11.5      2.263      2.561
REMARK SMILES COc1ccc(/C=C2/C(=O)N(c3ccccc3)C(=O)N=C2OCCOCCOC(=O)c2ccc(-c3c4nc(c(-c5cc(S(=O)(=O)[O-])ccc5F)c5ccc([nH]5)c(-c5cc(S(=O)(=O)[O-])ccc5F)c5nc(c(-c6cc(S(=O)(=O)[O-])ccc6F)c6ccc3[nH]6)C=C5)C=C4)cc2)cc1C(=O)[O-]
REMARK SMILES IDX 26 1 25 2 24 3 23 4 22 5 21 6 7 7 8 8 9 9 10 10 11 11 20 12
REMARK SMILES IDX 18 13 19 14 6 15 3 16 4 17 95 18 5 19 94 20 2 21 1 22 96 23
REMARK SMILES IDX 97 24 98 25 12 26 13 27 17 28 14 29 16 30 15 31 27 32 28 33
REMARK SMILES IDX 29 34 30 35 31 36 32 37 93 38 33 39 92 40 34 41 35 42 36 43
REMARK SMILES IDX 86 44 37 45 91 46 85 47 87 48 38 49 90 50 84 51 83 52 39 54
REMARK SMILES IDX 71 55 51 56 70 57 52 58 55 59 69 60 88 61 53 62 54 63 68 65
REMARK SMILES IDX 89 66 56 67 40 68 41 69 49 70 42 71 48 72 50 73 47 74 43 75
REMARK SMILES IDX 44 76 45 77 46 78 72 79 73 80 81 81 74 82 80 83 82 84 79 85
REMARK SMILES IDX 75 86 76 87 77 88 78 89 57 90 58 91 66 92 59 93 65 94 67 95
REMARK SMILES IDX 64 96 60 97 61 98 62 99 63 100
REMARK H PARENT 87 53 55 64
REMARK Flexibility Score: inf
ROOT
ATOM      1  C   UNL A   1      37.046  21.787  24.969  1.00  0.00     0.202 C 
ENDROOT
BRANCH   1   2
ATOM      2  O   UNL A   1      36.889  22.720  23.898  1.00  0.00    -0.374 OA
BRANCH   2   3
ATOM      3  C   UNL A   1      35.552  22.930  23.435  1.00  0.00     0.202 C 
BRANCH   3   4
ATOM      4  C   UNL A   1      34.973  24.289  23.825  1.00  0.00     0.260 C 
BRANCH   4   5
ATOM      5  O   UNL A   1      34.064  24.731  22.790  1.00  0.00    -0.475 OA
BRANCH   5   6
ATOM      6  C   UNL A   1      33.276  25.785  23.033  1.00  0.00     0.231 C 
ATOM      7  C   UNL A   1      31.302  24.233  23.620  1.00  0.00     0.027 C 
ATOM      8  C   UNL A   1      31.902  25.441  23.440  1.00  0.00     0.103 C 
ATOM      9  C   UNL A   1      31.002  26.654  23.561  1.00  0.00     0.272 C 
ATOM     10  O   UNL A   1      29.837  26.537  23.947  1.00  0.00    -0.268 OA
ATOM     11  N   UNL A   1      31.569  27.863  23.153  1.00  0.00    -0.226 N 
ATOM     12  N   UNL A   1      33.737  26.959  22.837  1.00  0.00    -0.156 NA
ATOM     13  C   UNL A   1      32.938  28.047  22.932  1.00  0.00     0.358 C 
ATOM     14  O   UNL A   1      33.450  29.161  22.840  1.00  0.00    -0.245 OA
BRANCH   7  15
ATOM     15  C   UNL A   1      31.679  22.789  23.513  1.00  0.00    -0.024 A 
ATOM     16  C   UNL A   1      32.407  20.018  23.523  1.00  0.00     0.127 A 
ATOM     17  C   UNL A   1      32.064  20.673  22.344  1.00  0.00     0.048 A 
ATOM     18  C   UNL A   1      32.507  20.773  24.690  1.00  0.00     0.040 A 
ATOM     19  C   UNL A   1      31.757  22.044  22.337  1.00  0.00     0.012 A 
ATOM     20  C   UNL A   1      32.090  22.125  24.692  1.00  0.00     0.022 A 
BRANCH  16  21
ATOM     21  O   UNL A   1      32.699  18.690  23.381  1.00  0.00    -0.496 OA
ATOM     22  C   UNL A   1      32.348  18.130  22.115  1.00  0.00     0.278 C 
ENDBRANCH  16  21
BRANCH  18  23
ATOM     23  C   UNL A   1      33.128  20.260  25.930  1.00  0.00     0.075 C 
ATOM     24  O   UNL A   1      32.913  19.184  26.443  1.00  0.00    -0.545 OA
ATOM     25  O   UNL A   1      33.888  21.201  26.523  1.00  0.00    -0.545 OA
ENDBRANCH  18  23
ENDBRANCH   7  15
BRANCH  11  26
ATOM     26  C   UNL A   1      30.769  29.048  23.083  1.00  0.00     0.054 A 
ATOM     27  C   UNL A   1      30.606  29.839  24.234  1.00  0.00     0.027 A 
ATOM     28  C   UNL A   1      30.029  29.349  21.937  1.00  0.00     0.027 A 
ATOM     29  C   UNL A   1      29.690  30.892  24.250  1.00  0.00     0.002 A 
ATOM     30  C   UNL A   1      29.089  30.384  21.967  1.00  0.00     0.002 A 
ATOM     31  C   UNL A   1      28.917  31.149  23.121  1.00  0.00     0.000 A 
ENDBRANCH  11  26
ENDBRANCH   5   6
ENDBRANCH   4   5
ENDBRANCH   3   4
ENDBRANCH   2   3
ENDBRANCH   1   2
BRANCH   1  32
ATOM     32  C   UNL A   1      38.483  21.338  25.244  1.00  0.00     0.261 C 
BRANCH  32  33
ATOM     33  O   UNL A   1      38.964  21.878  26.485  1.00  0.00    -0.460 OA
BRANCH  33  34
ATOM     34  C   UNL A   1      40.232  22.354  26.431  1.00  0.00     0.338 C 
ATOM     35  O   UNL A   1      41.161  21.886  25.796  1.00  0.00    -0.246 OA
BRANCH  34  36
ATOM     36  C   UNL A   1      40.303  23.662  27.112  1.00  0.00     0.060 A 
ATOM     37  C   UNL A   1      39.716  24.758  26.467  1.00  0.00     0.016 A 
ATOM     38  C   UNL A   1      40.981  23.831  28.320  1.00  0.00     0.016 A 
ATOM     39  C   UNL A   1      39.860  26.038  26.994  1.00  0.00     0.010 A 
ATOM     40  C   UNL A   1      41.132  25.119  28.840  1.00  0.00     0.010 A 
ATOM     41  C   UNL A   1      40.606  26.234  28.163  1.00  0.00    -0.014 A 
BRANCH  41  42
ATOM     42  C   UNL A   1      40.986  27.612  28.565  1.00  0.00     0.031 A 
ATOM     43  C   UNL A   1      42.431  28.021  28.470  1.00  0.00     0.074 A 
ATOM     44  C   UNL A   1      40.058  28.497  28.973  1.00  0.00     0.049 A 
ATOM     45  N   UNL A   1      42.995  29.163  28.768  1.00  0.00    -0.248 NA
ATOM     46  C   UNL A   1      43.366  26.994  27.987  1.00  0.00     0.031 C 
ATOM     47  C   UNL A   1      38.627  28.225  29.093  1.00  0.00     0.029 A 
ATOM     48  N   UNL A   1      40.186  29.804  29.367  1.00  0.00    -0.354 N 
ATOM     49  C   UNL A   1      44.352  28.991  28.511  1.00  0.00     0.074 A 
ATOM     50  C   UNL A   1      44.528  27.613  28.104  1.00  0.00     0.031 C 
ATOM     51  C   UNL A   1      38.008  29.334  29.532  1.00  0.00     0.029 A 
ATOM     52  C   UNL A   1      38.999  30.386  29.742  1.00  0.00     0.049 A 
ATOM     53  H   UNL A   1      41.048  30.281  29.380  1.00  0.00     0.167 HD
ATOM     54  C   UNL A   1      45.355  29.902  28.581  1.00  0.00     0.034 A 
ATOM     55  C   UNL A   1      38.743  31.625  30.207  1.00  0.00     0.034 A 
ATOM     56  C   UNL A   1      45.165  31.272  28.992  1.00  0.00     0.049 A 
ATOM     57  C   UNL A   1      39.880  32.608  30.339  1.00  0.00     0.074 A 
ATOM     58  C   UNL A   1      46.102  32.286  29.082  1.00  0.00     0.029 A 
ATOM     59  N   UNL A   1      43.951  31.820  29.390  1.00  0.00    -0.354 N 
ATOM     60  N   UNL A   1      41.156  32.441  30.072  1.00  0.00    -0.248 NA
ATOM     61  C   UNL A   1      39.536  33.953  30.818  1.00  0.00     0.031 C 
ATOM     62  C   UNL A   1      45.469  33.426  29.596  1.00  0.00     0.029 A 
ATOM     63  C   UNL A   1      44.121  33.147  29.756  1.00  0.00     0.049 A 
ATOM     64  H   UNL A   1      43.094  31.336  29.412  1.00  0.00     0.167 HD
ATOM     65  C   UNL A   1      41.760  33.671  30.319  1.00  0.00     0.074 A 
ATOM     66  C   UNL A   1      40.706  34.570  30.746  1.00  0.00     0.031 C 
ATOM     67  C   UNL A   1      43.064  34.029  30.196  1.00  0.00     0.034 A 
BRANCH  54  68
ATOM     68  C   UNL A   1      46.744  29.413  28.241  1.00  0.00     0.023 A 
ATOM     69  C   UNL A   1      47.601  28.886  29.225  1.00  0.00     0.031 A 
ATOM     70  C   UNL A   1      47.250  29.551  26.937  1.00  0.00     0.131 A 
ATOM     71  C   UNL A   1      48.943  28.619  28.916  1.00  0.00     0.055 A 
ATOM     72  C   UNL A   1      48.561  29.191  26.614  1.00  0.00     0.041 A 
ATOM     73  F   UNL A   1      46.490  30.067  25.959  1.00  0.00    -0.206 F 
ATOM     74  C   UNL A   1      49.423  28.744  27.611  1.00  0.00     0.022 A 
BRANCH  71  75
ATOM     75  S   UNL A   1      50.094  28.297  30.282  1.00  0.00     0.124 S 
ATOM     76  O   UNL A   1      51.376  28.644  29.675  1.00  0.00    -0.237 OA
ATOM     77  O   UNL A   1      49.611  29.200  31.320  1.00  0.00    -0.237 OA
ATOM     78  O   UNL A   1      49.908  26.873  30.557  1.00  0.00    -0.744 OA
ENDBRANCH  71  75
ENDBRANCH  54  68
BRANCH  55  79
ATOM     79  C   UNL A   1      37.358  32.013  30.590  1.00  0.00     0.023 A 
ATOM     80  C   UNL A   1      36.479  32.580  29.654  1.00  0.00     0.031 A 
ATOM     81  C   UNL A   1      36.906  31.857  31.912  1.00  0.00     0.131 A 
ATOM     82  C   UNL A   1      35.205  33.004  30.060  1.00  0.00     0.055 A 
ATOM     83  C   UNL A   1      35.623  32.241  32.302  1.00  0.00     0.041 A 
ATOM     84  F   UNL A   1      37.710  31.319  32.844  1.00  0.00    -0.206 F 
ATOM     85  C   UNL A   1      34.766  32.828  31.375  1.00  0.00     0.022 A 
BRANCH  82  86
ATOM     86  S   UNL A   1      34.143  33.848  28.855  1.00  0.00     0.124 S 
ATOM     87  O   UNL A   1      35.091  34.739  28.197  1.00  0.00    -0.237 OA
ATOM     88  O   UNL A   1      33.649  32.731  28.054  1.00  0.00    -0.237 OA
ATOM     89  O   UNL A   1      33.139  34.505  29.687  1.00  0.00    -0.744 OA
ENDBRANCH  82  86
ENDBRANCH  55  79
BRANCH  67  90
ATOM     90  C   UNL A   1      43.407  35.472  30.483  1.00  0.00     0.023 A 
ATOM     91  C   UNL A   1      43.693  35.922  31.783  1.00  0.00     0.031 A 
ATOM     92  C   UNL A   1      43.422  36.415  29.438  1.00  0.00     0.131 A 
ATOM     93  C   UNL A   1      43.919  37.288  32.016  1.00  0.00     0.055 A 
ATOM     94  C   UNL A   1      43.709  37.762  29.668  1.00  0.00     0.041 A 
ATOM     95  F   UNL A   1      43.156  36.042  28.177  1.00  0.00    -0.206 F 
ATOM     96  C   UNL A   1      43.944  38.207  30.965  1.00  0.00     0.022 A 
BRANCH  93  97
ATOM     97  S   UNL A   1      44.073  37.866  33.729  1.00  0.00     0.124 S 
ATOM     98  O   UNL A   1      45.338  38.593  33.692  1.00  0.00    -0.237 OA
ATOM     99  O   UNL A   1      42.873  38.682  33.892  1.00  0.00    -0.237 OA
ATOM    100  O   UNL A   1      44.091  36.630  34.508  1.00  0.00    -0.744 OA
ENDBRANCH  93  97
ENDBRANCH  67  90
ENDBRANCH  41  42
ENDBRANCH  34  36
ENDBRANCH  33  34
ENDBRANCH  32  33
ENDBRANCH   1  32
TORSDOF 20
ENDMDL
MODEL 3
REMARK VINA RESULT:     -10.8      5.292     16.338
REMARK SMILES COc1ccc(/C=C2/C(=O)N(c3ccccc3)C(=O)N=C2OCCOCCOC(=O)c2ccc(-c3c4nc(c(-c5cc(S(=O)(=O)[O-])ccc5F)c5ccc([nH]5)c(-c5cc(S(=O)(=O)[O-])ccc5F)c5nc(c(-c6cc(S(=O)(=O)[O-])ccc6F)c6ccc3[nH]6)C=C5)C=C4)cc2)cc1C(=O)[O-]
REMARK SMILES IDX 26 1 25 2 24 3 23 4 22 5 21 6 7 7 8 8 9 9 10 10 11 11 20 12
REMARK SMILES IDX 18 13 19 14 6 15 3 16 4 17 95 18 5 19 94 20 2 21 1 22 96 23
REMARK SMILES IDX 97 24 98 25 12 26 13 27 17 28 14 29 16 30 15 31 27 32 28 33
REMARK SMILES IDX 29 34 30 35 31 36 32 37 93 38 33 39 92 40 34 41 35 42 36 43
REMARK SMILES IDX 86 44 37 45 91 46 85 47 87 48 38 49 90 50 84 51 83 52 39 54
REMARK SMILES IDX 71 55 51 56 70 57 52 58 55 59 69 60 88 61 53 62 54 63 68 65
REMARK SMILES IDX 89 66 56 67 40 68 41 69 49 70 42 71 48 72 50 73 47 74 43 75
REMARK SMILES IDX 44 76 45 77 46 78 72 79 73 80 81 81 74 82 80 83 82 84 79 85
REMARK SMILES IDX 75 86 76 87 77 88 78 89 57 90 58 91 66 92 59 93 65 94 67 95
REMARK SMILES IDX 64 96 60 97 61 98 62 99 63 100
REMARK H PARENT 87 53 55 64
REMARK Flexibility Score: inf
ROOT
ATOM      1  C   UNL A   1      47.463  38.740  27.352  1.00  0.00     0.202 C 
ENDROOT
BRANCH   1   2
ATOM      2  O   UNL A   1      47.051  39.647  26.328  1.00  0.00    -0.374 OA
BRANCH   2   3
ATOM      3  C   UNL A   1      47.116  39.157  24.985  1.00  0.00     0.202 C 
BRANCH   3   4
ATOM      4  C   UNL A   1      47.181  40.260  23.931  1.00  0.00     0.260 C 
BRANCH   4   5
ATOM      5  O   UNL A   1      45.930  40.986  23.929  1.00  0.00    -0.475 OA
BRANCH   5   6
ATOM      6  C   UNL A   1      45.754  41.961  23.028  1.00  0.00     0.231 C 
ATOM      7  C   UNL A   1      44.371  43.336  24.714  1.00  0.00     0.027 C 
ATOM      8  C   UNL A   1      44.953  43.101  23.507  1.00  0.00     0.103 C 
ATOM      9  C   UNL A   1      44.651  44.110  22.417  1.00  0.00     0.272 C 
ATOM     10  O   UNL A   1      44.038  45.147  22.673  1.00  0.00    -0.268 OA
ATOM     11  N   UNL A   1      45.061  43.743  21.134  1.00  0.00    -0.226 N 
ATOM     12  N   UNL A   1      46.218  41.802  21.849  1.00  0.00    -0.156 NA
ATOM     13  C   UNL A   1      45.944  42.692  20.867  1.00  0.00     0.358 C 
ATOM     14  O   UNL A   1      46.500  42.554  19.779  1.00  0.00    -0.245 OA
BRANCH   7  15
ATOM     15  C   UNL A   1      44.253  42.641  26.034  1.00  0.00    -0.024 A 
ATOM     16  C   UNL A   1      44.148  41.468  28.646  1.00  0.00     0.127 A 
ATOM     17  C   UNL A   1      43.400  40.955  27.591  1.00  0.00     0.048 A 
ATOM     18  C   UNL A   1      45.047  42.497  28.376  1.00  0.00     0.040 A 
ATOM     19  C   UNL A   1      43.494  41.502  26.300  1.00  0.00     0.012 A 
ATOM     20  C   UNL A   1      45.054  43.112  27.101  1.00  0.00     0.022 A 
BRANCH  16  21
ATOM     21  O   UNL A   1      43.972  40.828  29.842  1.00  0.00    -0.496 OA
ATOM     22  C   UNL A   1      42.618  40.499  30.154  1.00  0.00     0.278 C 
ENDBRANCH  16  21
BRANCH  18  23
ATOM     23  C   UNL A   1      46.088  42.930  29.334  1.00  0.00     0.075 C 
ATOM     24  O   UNL A   1      45.905  43.586  30.336  1.00  0.00    -0.545 OA
ATOM     25  O   UNL A   1      47.321  42.619  28.893  1.00  0.00    -0.545 OA
ENDBRANCH  18  23
ENDBRANCH   7  15
BRANCH  11  26
ATOM     26  C   UNL A   1      44.699  44.546  20.005  1.00  0.00     0.054 A 
ATOM     27  C   UNL A   1      45.441  45.706  19.717  1.00  0.00     0.027 A 
ATOM     28  C   UNL A   1      43.536  44.281  19.276  1.00  0.00     0.027 A 
ATOM     29  C   UNL A   1      45.007  46.604  18.742  1.00  0.00     0.002 A 
ATOM     30  C   UNL A   1      43.088  45.200  18.323  1.00  0.00     0.002 A 
ATOM     31  C   UNL A   1      43.817  46.361  18.061  1.00  0.00     0.000 A 
ENDBRANCH  11  26
ENDBRANCH   5   6
ENDBRANCH   4   5
ENDBRANCH   3   4
ENDBRANCH   2   3
ENDBRANCH   1   2
BRANCH   1  32
ATOM     32  C   UNL A   1      46.661  38.810  28.653  1.00  0.00     0.261 C 
BRANCH  32  33
ATOM     33  O   UNL A   1      45.465  38.019  28.567  1.00  0.00    -0.460 OA
BRANCH  33  34
ATOM     34  C   UNL A   1      45.188  37.305  29.685  1.00  0.00     0.338 C 
ATOM     35  O   UNL A   1      44.905  37.751  30.784  1.00  0.00    -0.246 OA
BRANCH  34  36
ATOM     36  C   UNL A   1      45.083  35.872  29.348  1.00  0.00     0.060 A 
ATOM     37  C   UNL A   1      44.420  35.534  28.161  1.00  0.00     0.016 A 
ATOM     38  C   UNL A   1      45.563  34.875  30.200  1.00  0.00     0.016 A 
ATOM     39  C   UNL A   1      44.177  34.199  27.853  1.00  0.00     0.010 A 
ATOM     40  C   UNL A   1      45.307  33.537  29.892  1.00  0.00     0.010 A 
ATOM     41  C   UNL A   1      44.581  33.191  28.737  1.00  0.00    -0.014 A 
BRANCH  41  42
ATOM     42  C   UNL A   1      44.083  31.806  28.544  1.00  0.00     0.031 A 
ATOM     43  C   UNL A   1      42.760  31.421  29.150  1.00  0.00     0.074 A 
ATOM     44  C   UNL A   1      44.775  30.915  27.811  1.00  0.00     0.049 A 
ATOM     45  N   UNL A   1      42.130  30.276  29.118  1.00  0.00    -0.248 NA
ATOM     46  C   UNL A   1      42.065  32.471  29.911  1.00  0.00     0.031 C 
ATOM     47  C   UNL A   1      46.058  31.171  27.161  1.00  0.00     0.029 A 
ATOM     48  N   UNL A   1      44.493  29.610  27.496  1.00  0.00    -0.354 N 
ATOM     49  C   UNL A   1      40.964  30.465  29.854  1.00  0.00     0.074 A 
ATOM     50  C   UNL A   1      41.018  31.814  30.378  1.00  0.00     0.031 C 
ATOM     51  C   UNL A   1      46.455  30.057  26.523  1.00  0.00     0.029 A 
ATOM     52  C   UNL A   1      45.465  29.005  26.734  1.00  0.00     0.049 A 
ATOM     53  H   UNL A   1      43.673  29.150  27.788  1.00  0.00     0.167 HD
ATOM     54  C   UNL A   1      39.933  29.607  30.054  1.00  0.00     0.034 A 
ATOM     55  C   UNL A   1      45.547  27.743  26.268  1.00  0.00     0.034 A 
ATOM     56  C   UNL A   1      39.895  28.264  29.527  1.00  0.00     0.049 A 
ATOM     57  C   UNL A   1      44.420  26.781  26.551  1.00  0.00     0.074 A 
ATOM     58  C   UNL A   1      38.896  27.314  29.649  1.00  0.00     0.029 A 
ATOM     59  N   UNL A   1      40.910  27.676  28.782  1.00  0.00    -0.354 N 
ATOM     60  N   UNL A   1      43.313  26.978  27.230  1.00  0.00    -0.248 NA
ATOM     61  C   UNL A   1      44.548  25.431  25.988  1.00  0.00     0.031 C 
ATOM     62  C   UNL A   1      39.334  26.134  29.035  1.00  0.00     0.029 A 
ATOM     63  C   UNL A   1      40.574  26.368  28.464  1.00  0.00     0.049 A 
ATOM     64  H   UNL A   1      41.747  28.121  28.519  1.00  0.00     0.167 HD
ATOM     65  C   UNL A   1      42.597  25.786  27.146  1.00  0.00     0.074 A 
ATOM     66  C   UNL A   1      43.396  24.882  26.342  1.00  0.00     0.031 C 
ATOM     67  C   UNL A   1      41.387  25.470  27.675  1.00  0.00     0.034 A 
BRANCH  54  68
ATOM     68  C   UNL A   1      38.791  30.102  30.912  1.00  0.00     0.023 A 
ATOM     69  C   UNL A   1      37.690  30.778  30.355  1.00  0.00     0.031 A 
ATOM     70  C   UNL A   1      38.840  29.969  32.310  1.00  0.00     0.131 A 
ATOM     71  C   UNL A   1      36.745  31.388  31.193  1.00  0.00     0.055 A 
ATOM     72  C   UNL A   1      37.842  30.495  33.135  1.00  0.00     0.041 A 
ATOM     73  F   UNL A   1      39.874  29.353  32.903  1.00  0.00    -0.206 F 
ATOM     74  C   UNL A   1      36.799  31.230  32.579  1.00  0.00     0.022 A 
BRANCH  71  75
ATOM     75  S   UNL A   1      35.561  32.549  30.455  1.00  0.00     0.124 S 
ATOM     76  O   UNL A   1      35.421  32.010  29.105  1.00  0.00    -0.237 OA
ATOM     77  O   UNL A   1      34.399  32.408  31.324  1.00  0.00    -0.237 OA
ATOM     78  O   UNL A   1      36.250  33.836  30.535  1.00  0.00    -0.744 OA
ENDBRANCH  71  75
ENDBRANCH  54  68
BRANCH  55  79
ATOM     79  C   UNL A   1      46.737  27.306  25.488  1.00  0.00     0.023 A 
ATOM     80  C   UNL A   1      46.949  27.756  24.175  1.00  0.00     0.031 A 
ATOM     81  C   UNL A   1      47.662  26.400  26.034  1.00  0.00     0.131 A 
ATOM     82  C   UNL A   1      48.039  27.270  23.438  1.00  0.00     0.055 A 
ATOM     83  C   UNL A   1      48.770  25.952  25.312  1.00  0.00     0.041 A 
ATOM     84  F   UNL A   1      47.504  25.941  27.286  1.00  0.00    -0.206 F 
ATOM     85  C   UNL A   1      48.958  26.380  24.001  1.00  0.00     0.022 A 
BRANCH  82  86
ATOM     86  S   UNL A   1      48.210  27.773  21.703  1.00  0.00     0.124 S 
ATOM     87  O   UNL A   1      48.592  26.519  21.067  1.00  0.00    -0.237 OA
ATOM     88  O   UNL A   1      46.871  28.268  21.399  1.00  0.00    -0.237 OA
ATOM     89  O   UNL A   1      49.252  28.796  21.747  1.00  0.00    -0.744 OA
ENDBRANCH  82  86
ENDBRANCH  55  79
BRANCH  67  90
ATOM     90  C   UNL A   1      40.838  24.100  27.355  1.00  0.00     0.023 A 
ATOM     91  C   UNL A   1      39.717  23.925  26.524  1.00  0.00     0.031 A 
ATOM     92  C   UNL A   1      41.433  22.954  27.914  1.00  0.00     0.131 A 
ATOM     93  C   UNL A   1      39.187  22.640  26.328  1.00  0.00     0.055 A 
ATOM     94  C   UNL A   1      40.937  21.673  27.664  1.00  0.00     0.041 A 
ATOM     95  F   UNL A   1      42.503  23.061  28.715  1.00  0.00    -0.206 F 
ATOM     96  C   UNL A   1      39.799  21.512  26.879  1.00  0.00     0.022 A 
BRANCH  93  97
ATOM     97  S   UNL A   1      37.621  22.472  25.428  1.00  0.00     0.124 S 
ATOM     98  O   UNL A   1      36.681  22.179  26.505  1.00  0.00    -0.237 OA
ATOM     99  O   UNL A   1      37.482  23.782  24.798  1.00  0.00    -0.237 OA
ATOM    100  O   UNL A   1      37.871  21.366  24.506  1.00  0.00    -0.744 OA
ENDBRANCH  93  97
ENDBRANCH  67  90
ENDBRANCH  41  42
ENDBRANCH  34  36
ENDBRANCH  33  34
ENDBRANCH  32  33
ENDBRANCH   1  32
TORSDOF 20
ENDMDL
