MODEL 1
REMARK VINA RESULT:     -10.9      0.000      0.000
REMARK SMILES COCC[C@@H](C)NC(=O)N1Cc2nc[nH]c2C[C@@H]1C(=O)OCCOCCOC(=O)c1ccc(-c2c3nc(c(-c4cc(S(=O)(=O)[O-])ccc4F)c4ccc([nH]4)c(-c4cc(S(=O)(=O)[O-])ccc4F)c4nc(c(-c5cc(S(=O)(=O)[O-])ccc5F)c5ccc2[nH]5)C=C4)C=C3)cc1
REMARK SMILES IDX 23 1 22 2 21 3 19 4 20 5 18 6 10 7 11 8 12 9 17 10 13 11
REMARK SMILES IDX 16 12 14 13 15 14 8 16 7 17 9 19 5 20 6 21 4 22 3 23 2 24
REMARK SMILES IDX 1 25 24 26 25 27 26 28 27 29 28 30 29 31 30 32 31 33 92 34
REMARK SMILES IDX 32 35 91 36 33 37 34 38 35 39 85 40 36 41 90 42 84 43 86 44
REMARK SMILES IDX 37 45 89 46 83 47 82 48 38 50 70 51 50 52 69 53 51 54 54 55
REMARK SMILES IDX 68 56 87 57 52 58 53 59 67 61 88 62 55 63 39 64 40 65 48 66
REMARK SMILES IDX 41 67 47 68 49 69 46 70 42 71 43 72 44 73 45 74 71 75 72 76
REMARK SMILES IDX 80 77 73 78 79 79 81 80 78 81 74 82 75 83 76 84 77 85 56 86
REMARK SMILES IDX 57 87 65 88 58 89 64 90 66 91 63 92 59 93 60 94 61 95 62 96
REMARK H PARENT 15 15 7 18 86 49 54 60
REMARK Flexibility Score: inf
ROOT
ATOM      1  C   UNL A   1      31.551  30.168  26.325  1.00  0.00     0.202 C 
ENDROOT
BRANCH   1   2
ATOM      2  C   UNL A   1      31.758  28.658  26.555  1.00  0.00     0.261 C 
BRANCH   2   3
ATOM      3  O   UNL A   1      31.397  27.804  25.441  1.00  0.00    -0.462 OA
BRANCH   3   4
ATOM      4  C   UNL A   1      31.058  26.500  25.685  1.00  0.00     0.329 C 
ATOM      5  O   UNL A   1      30.489  26.109  26.694  1.00  0.00    -0.250 OA
BRANCH   4   6
ATOM      6  C   UNL A   1      31.557  25.603  24.524  1.00  0.00     0.203 C 
ATOM      7  N   UNL A   1      33.033  25.345  24.453  1.00  0.00    -0.305 N 
ATOM      8  C   UNL A   1      33.555  24.582  23.305  1.00  0.00     0.180 C 
ATOM      9  C   UNL A   1      32.899  25.039  22.060  1.00  0.00     0.081 A 
ATOM     10  C   UNL A   1      31.026  26.296  23.219  1.00  0.00     0.093 C 
ATOM     11  N   UNL A   1      33.348  24.786  20.791  1.00  0.00    -0.240 NA
ATOM     12  C   UNL A   1      31.751  25.792  22.028  1.00  0.00     0.042 A 
ATOM     13  C   UNL A   1      32.508  25.421  20.002  1.00  0.00     0.197 A 
ATOM     14  N   UNL A   1      31.517  26.049  20.711  1.00  0.00    -0.348 N 
ATOM     15  H   UNL A   1      30.778  26.582  20.339  1.00  0.00     0.167 HD
BRANCH   7  16
ATOM     16  C   UNL A   1      33.844  25.277  25.551  1.00  0.00     0.318 C 
ATOM     17  N   UNL A   1      34.123  24.052  26.076  1.00  0.00    -0.335 N 
ATOM     18  H   UNL A   1      34.968  23.977  26.574  1.00  0.00     0.165 HD
ATOM     19  O   UNL A   1      34.433  26.266  25.980  1.00  0.00    -0.249 OA
BRANCH  17  20
ATOM     20  C   UNL A   1      33.321  22.836  25.989  1.00  0.00     0.083 C 
ATOM     21  C   UNL A   1      32.198  22.968  26.998  1.00  0.00     0.031 C 
BRANCH  20  22
ATOM     22  C   UNL A   1      34.123  21.560  26.227  1.00  0.00     0.053 C 
BRANCH  22  23
ATOM     23  C   UNL A   1      34.315  20.735  24.948  1.00  0.00     0.162 C 
BRANCH  23  24
ATOM     24  O   UNL A   1      33.463  19.588  24.925  1.00  0.00    -0.385 OA
ATOM     25  C   UNL A   1      32.497  19.572  23.882  1.00  0.00     0.194 C 
ENDBRANCH  23  24
ENDBRANCH  22  23
ENDBRANCH  20  22
ENDBRANCH  17  20
ENDBRANCH   7  16
ENDBRANCH   4   6
ENDBRANCH   3   4
ENDBRANCH   2   3
ENDBRANCH   1   2
BRANCH   1  26
ATOM     26  O   UNL A   1      32.781  30.876  26.204  1.00  0.00    -0.374 OA
BRANCH  26  27
ATOM     27  C   UNL A   1      33.686  30.781  27.304  1.00  0.00     0.202 C 
BRANCH  27  28
ATOM     28  C   UNL A   1      34.227  32.131  27.780  1.00  0.00     0.261 C 
BRANCH  28  29
ATOM     29  O   UNL A   1      35.638  32.257  27.560  1.00  0.00    -0.460 OA
BRANCH  29  30
ATOM     30  C   UNL A   1      36.407  32.743  28.558  1.00  0.00     0.338 C 
ATOM     31  O   UNL A   1      36.331  33.860  29.061  1.00  0.00    -0.246 OA
BRANCH  30  32
ATOM     32  C   UNL A   1      37.393  31.701  28.943  1.00  0.00     0.060 A 
ATOM     33  C   UNL A   1      38.608  32.060  29.531  1.00  0.00     0.016 A 
ATOM     34  C   UNL A   1      37.124  30.348  28.687  1.00  0.00     0.016 A 
ATOM     35  C   UNL A   1      39.555  31.069  29.800  1.00  0.00     0.010 A 
ATOM     36  C   UNL A   1      38.031  29.362  29.029  1.00  0.00     0.010 A 
ATOM     37  C   UNL A   1      39.278  29.717  29.522  1.00  0.00    -0.014 A 
BRANCH  37  38
ATOM     38  C   UNL A   1      40.277  28.681  29.810  1.00  0.00     0.031 A 
ATOM     39  C   UNL A   1      40.559  28.492  31.251  1.00  0.00     0.074 A 
ATOM     40  C   UNL A   1      40.848  27.859  28.898  1.00  0.00     0.049 A 
ATOM     41  N   UNL A   1      41.557  28.971  31.916  1.00  0.00    -0.248 NA
ATOM     42  C   UNL A   1      39.534  27.859  32.092  1.00  0.00     0.031 C 
ATOM     43  C   UNL A   1      40.488  27.712  27.483  1.00  0.00     0.029 A 
ATOM     44  N   UNL A   1      41.837  26.922  29.055  1.00  0.00    -0.354 N 
ATOM     45  C   UNL A   1      41.447  28.431  33.192  1.00  0.00     0.074 A 
ATOM     46  C   UNL A   1      40.085  27.985  33.302  1.00  0.00     0.031 C 
ATOM     47  C   UNL A   1      41.083  26.612  26.969  1.00  0.00     0.029 A 
ATOM     48  C   UNL A   1      42.017  26.090  27.952  1.00  0.00     0.049 A 
ATOM     49  H   UNL A   1      42.374  26.843  29.877  1.00  0.00     0.167 HD
ATOM     50  C   UNL A   1      42.571  28.108  33.891  1.00  0.00     0.034 A 
ATOM     51  C   UNL A   1      42.899  25.070  27.793  1.00  0.00     0.034 A 
ATOM     52  C   UNL A   1      43.735  28.706  33.266  1.00  0.00     0.049 A 
ATOM     53  C   UNL A   1      44.055  25.347  28.670  1.00  0.00     0.074 A 
ATOM     54  C   UNL A   1      44.251  29.972  33.104  1.00  0.00     0.029 A 
ATOM     55  N   UNL A   1      44.363  27.896  32.350  1.00  0.00    -0.354 N 
ATOM     56  N   UNL A   1      44.836  26.379  28.504  1.00  0.00    -0.248 NA
ATOM     57  C   UNL A   1      44.164  24.692  29.967  1.00  0.00     0.031 C 
ATOM     58  C   UNL A   1      45.034  29.932  31.910  1.00  0.00     0.029 A 
ATOM     59  C   UNL A   1      45.019  28.634  31.401  1.00  0.00     0.049 A 
ATOM     60  H   UNL A   1      44.344  26.912  32.373  1.00  0.00     0.167 HD
ATOM     61  C   UNL A   1      45.185  26.760  29.784  1.00  0.00     0.074 A 
ATOM     62  C   UNL A   1      44.903  25.598  30.615  1.00  0.00     0.031 C 
ATOM     63  C   UNL A   1      45.354  28.077  30.099  1.00  0.00     0.034 A 
BRANCH  50  64
ATOM     64  C   UNL A   1      42.734  26.882  34.785  1.00  0.00     0.023 A 
ATOM     65  C   UNL A   1      43.541  25.837  34.283  1.00  0.00     0.031 A 
ATOM     66  C   UNL A   1      41.935  26.541  35.898  1.00  0.00     0.131 A 
ATOM     67  C   UNL A   1      43.427  24.523  34.771  1.00  0.00     0.055 A 
ATOM     68  C   UNL A   1      41.857  25.240  36.410  1.00  0.00     0.041 A 
ATOM     69  F   UNL A   1      41.133  27.411  36.517  1.00  0.00    -0.206 F 
ATOM     70  C   UNL A   1      42.575  24.214  35.824  1.00  0.00     0.022 A 
BRANCH  67  71
ATOM     71  S   UNL A   1      44.286  23.196  33.888  1.00  0.00     0.124 S 
ATOM     72  O   UNL A   1      45.535  23.850  33.516  1.00  0.00    -0.237 OA
ATOM     73  O   UNL A   1      44.375  22.163  34.915  1.00  0.00    -0.237 OA
ATOM     74  O   UNL A   1      43.385  22.892  32.778  1.00  0.00    -0.744 OA
ENDBRANCH  67  71
ENDBRANCH  50  64
BRANCH  51  75
ATOM     75  C   UNL A   1      42.688  23.788  27.070  1.00  0.00     0.023 A 
ATOM     76  C   UNL A   1      43.681  23.155  26.292  1.00  0.00     0.031 A 
ATOM     77  C   UNL A   1      41.528  23.034  27.356  1.00  0.00     0.131 A 
ATOM     78  C   UNL A   1      43.496  21.822  25.851  1.00  0.00     0.055 A 
ATOM     79  C   UNL A   1      41.352  21.720  26.919  1.00  0.00     0.041 A 
ATOM     80  F   UNL A   1      40.561  23.528  28.146  1.00  0.00    -0.206 F 
ATOM     81  C   UNL A   1      42.342  21.103  26.173  1.00  0.00     0.022 A 
BRANCH  78  82
ATOM     82  S   UNL A   1      44.803  20.965  24.911  1.00  0.00     0.124 S 
ATOM     83  O   UNL A   1      44.622  21.495  23.565  1.00  0.00    -0.237 OA
ATOM     84  O   UNL A   1      46.013  21.374  25.615  1.00  0.00    -0.237 OA
ATOM     85  O   UNL A   1      44.460  19.549  25.061  1.00  0.00    -0.744 OA
ENDBRANCH  78  82
ENDBRANCH  51  75
BRANCH  63  86
ATOM     86  C   UNL A   1      45.794  29.013  29.000  1.00  0.00     0.023 A 
ATOM     87  C   UNL A   1      45.015  30.044  28.434  1.00  0.00     0.031 A 
ATOM     88  C   UNL A   1      47.110  28.853  28.527  1.00  0.00     0.131 A 
ATOM     89  C   UNL A   1      45.562  30.862  27.426  1.00  0.00     0.055 A 
ATOM     90  C   UNL A   1      47.655  29.678  27.546  1.00  0.00     0.041 A 
ATOM     91  F   UNL A   1      47.904  27.893  29.031  1.00  0.00    -0.206 F 
ATOM     92  C   UNL A   1      46.878  30.683  26.986  1.00  0.00     0.022 A 
BRANCH  89  93
ATOM     93  S   UNL A   1      44.560  32.167  26.641  1.00  0.00     0.124 S 
ATOM     94  O   UNL A   1      44.032  32.919  27.772  1.00  0.00    -0.237 OA
ATOM     95  O   UNL A   1      45.542  32.862  25.814  1.00  0.00    -0.237 OA
ATOM     96  O   UNL A   1      43.555  31.416  25.886  1.00  0.00    -0.744 OA
ENDBRANCH  89  93
ENDBRANCH  63  86
ENDBRANCH  37  38
ENDBRANCH  30  32
ENDBRANCH  29  30
ENDBRANCH  28  29
ENDBRANCH  27  28
ENDBRANCH  26  27
ENDBRANCH   1  26
TORSDOF 22
ENDMDL
MODEL 2
REMARK VINA RESULT:     -10.9      1.947      3.310
REMARK SMILES COCC[C@@H](C)NC(=O)N1Cc2nc[nH]c2C[C@@H]1C(=O)OCCOCCOC(=O)c1ccc(-c2c3nc(c(-c4cc(S(=O)(=O)[O-])ccc4F)c4ccc([nH]4)c(-c4cc(S(=O)(=O)[O-])ccc4F)c4nc(c(-c5cc(S(=O)(=O)[O-])ccc5F)c5ccc2[nH]5)C=C4)C=C3)cc1
REMARK SMILES IDX 23 1 22 2 21 3 19 4 20 5 18 6 10 7 11 8 12 9 17 10 13 11
REMARK SMILES IDX 16 12 14 13 15 14 8 16 7 17 9 19 5 20 6 21 4 22 3 23 2 24
REMARK SMILES IDX 1 25 24 26 25 27 26 28 27 29 28 30 29 31 30 32 31 33 92 34
REMARK SMILES IDX 32 35 91 36 33 37 34 38 35 39 85 40 36 41 90 42 84 43 86 44
REMARK SMILES IDX 37 45 89 46 83 47 82 48 38 50 70 51 50 52 69 53 51 54 54 55
REMARK SMILES IDX 68 56 87 57 52 58 53 59 67 61 88 62 55 63 39 64 40 65 48 66
REMARK SMILES IDX 41 67 47 68 49 69 46 70 42 71 43 72 44 73 45 74 71 75 72 76
REMARK SMILES IDX 80 77 73 78 79 79 81 80 78 81 74 82 75 83 76 84 77 85 56 86
REMARK SMILES IDX 57 87 65 88 58 89 64 90 66 91 63 92 59 93 60 94 61 95 62 96
REMARK H PARENT 15 15 7 18 86 49 54 60
REMARK Flexibility Score: inf
ROOT
ATOM      1  C   UNL A   1      31.572  27.450  26.990  1.00  0.00     0.202 C 
ENDROOT
BRANCH   1   2
ATOM      2  C   UNL A   1      32.190  26.136  26.473  1.00  0.00     0.261 C 
BRANCH   2   3
ATOM      3  O   UNL A   1      31.453  24.931  26.799  1.00  0.00    -0.462 OA
BRANCH   3   4
ATOM      4  C   UNL A   1      32.117  23.735  26.839  1.00  0.00     0.329 C 
ATOM      5  O   UNL A   1      31.790  22.784  27.533  1.00  0.00    -0.250 OA
BRANCH   4   6
ATOM      6  C   UNL A   1      33.367  23.799  25.925  1.00  0.00     0.203 C 
ATOM      7  N   UNL A   1      33.356  22.935  24.699  1.00  0.00    -0.305 N 
ATOM      8  C   UNL A   1      34.570  22.893  23.863  1.00  0.00     0.180 C 
ATOM      9  C   UNL A   1      35.770  22.810  24.724  1.00  0.00     0.081 A 
ATOM     10  C   UNL A   1      34.575  23.454  26.867  1.00  0.00     0.093 C 
ATOM     11  N   UNL A   1      37.021  22.443  24.305  1.00  0.00    -0.240 NA
ATOM     12  C   UNL A   1      35.769  23.083  26.071  1.00  0.00     0.042 A 
ATOM     13  C   UNL A   1      37.758  22.447  25.394  1.00  0.00     0.197 A 
ATOM     14  N   UNL A   1      37.039  22.831  26.496  1.00  0.00    -0.348 N 
ATOM     15  H   UNL A   1      37.376  22.910  27.418  1.00  0.00     0.167 HD
BRANCH   7  16
ATOM     16  C   UNL A   1      32.222  22.614  24.008  1.00  0.00     0.318 C 
ATOM     17  N   UNL A   1      31.684  23.547  23.175  1.00  0.00    -0.335 N 
ATOM     18  H   UNL A   1      31.147  23.200  22.427  1.00  0.00     0.165 HD
ATOM     19  O   UNL A   1      31.766  21.473  24.013  1.00  0.00    -0.249 OA
BRANCH  17  20
ATOM     20  C   UNL A   1      31.809  24.998  23.256  1.00  0.00     0.083 C 
ATOM     21  C   UNL A   1      30.405  25.568  23.256  1.00  0.00     0.031 C 
BRANCH  20  22
ATOM     22  C   UNL A   1      32.644  25.601  22.130  1.00  0.00     0.053 C 
BRANCH  22  23
ATOM     23  C   UNL A   1      33.673  26.620  22.636  1.00  0.00     0.162 C 
BRANCH  23  24
ATOM     24  O   UNL A   1      33.300  27.959  22.303  1.00  0.00    -0.385 OA
ATOM     25  C   UNL A   1      32.635  28.677  23.334  1.00  0.00     0.194 C 
ENDBRANCH  23  24
ENDBRANCH  22  23
ENDBRANCH  20  22
ENDBRANCH  17  20
ENDBRANCH   7  16
ENDBRANCH   4   6
ENDBRANCH   3   4
ENDBRANCH   2   3
ENDBRANCH   1   2
BRANCH   1  26
ATOM     26  O   UNL A   1      32.542  28.478  27.164  1.00  0.00    -0.374 OA
BRANCH  26  27
ATOM     27  C   UNL A   1      32.106  29.817  26.923  1.00  0.00     0.202 C 
BRANCH  27  28
ATOM     28  C   UNL A   1      33.248  30.828  26.803  1.00  0.00     0.261 C 
BRANCH  28  29
ATOM     29  O   UNL A   1      34.141  30.772  27.924  1.00  0.00    -0.460 OA
BRANCH  29  30
ATOM     30  C   UNL A   1      35.216  31.589  27.936  1.00  0.00     0.338 C 
ATOM     31  O   UNL A   1      35.232  32.778  27.633  1.00  0.00    -0.246 OA
BRANCH  30  32
ATOM     32  C   UNL A   1      36.401  30.803  28.363  1.00  0.00     0.060 A 
ATOM     33  C   UNL A   1      37.505  31.440  28.931  1.00  0.00     0.016 A 
ATOM     34  C   UNL A   1      36.433  29.413  28.165  1.00  0.00     0.016 A 
ATOM     35  C   UNL A   1      38.642  30.690  29.240  1.00  0.00     0.010 A 
ATOM     36  C   UNL A   1      37.529  28.662  28.546  1.00  0.00     0.010 A 
ATOM     37  C   UNL A   1      38.666  29.300  29.020  1.00  0.00    -0.014 A 
BRANCH  37  38
ATOM     38  C   UNL A   1      39.865  28.517  29.349  1.00  0.00     0.031 A 
ATOM     39  C   UNL A   1      40.143  28.412  30.800  1.00  0.00     0.074 A 
ATOM     40  C   UNL A   1      40.629  27.834  28.465  1.00  0.00     0.049 A 
ATOM     41  N   UNL A   1      40.989  29.110  31.480  1.00  0.00    -0.248 NA
ATOM     42  C   UNL A   1      39.263  27.574  31.626  1.00  0.00     0.031 C 
ATOM     43  C   UNL A   1      40.350  27.595  27.044  1.00  0.00     0.029 A 
ATOM     44  N   UNL A   1      41.799  27.145  28.661  1.00  0.00    -0.354 N 
ATOM     45  C   UNL A   1      40.968  28.572  32.762  1.00  0.00     0.074 A 
ATOM     46  C   UNL A   1      39.739  27.834  32.847  1.00  0.00     0.031 C 
ATOM     47  C   UNL A   1      41.190  26.652  26.563  1.00  0.00     0.029 A 
ATOM     48  C   UNL A   1      42.190  26.363  27.576  1.00  0.00     0.049 A 
ATOM     49  H   UNL A   1      42.317  27.198  29.497  1.00  0.00     0.167 HD
ATOM     50  C   UNL A   1      42.117  28.518  33.493  1.00  0.00     0.034 A 
ATOM     51  C   UNL A   1      43.283  25.565  27.456  1.00  0.00     0.034 A 
ATOM     52  C   UNL A   1      43.134  29.355  32.886  1.00  0.00     0.049 A 
ATOM     53  C   UNL A   1      44.322  26.105  28.355  1.00  0.00     0.074 A 
ATOM     54  C   UNL A   1      43.357  30.703  32.716  1.00  0.00     0.029 A 
ATOM     55  N   UNL A   1      43.952  28.697  31.999  1.00  0.00    -0.354 N 
ATOM     56  N   UNL A   1      44.857  27.284  28.191  1.00  0.00    -0.248 NA
ATOM     57  C   UNL A   1      44.541  25.505  29.666  1.00  0.00     0.031 C 
ATOM     58  C   UNL A   1      44.161  30.827  31.541  1.00  0.00     0.029 A 
ATOM     59  C   UNL A   1      44.451  29.553  31.054  1.00  0.00     0.049 A 
ATOM     60  H   UNL A   1      44.153  27.735  32.038  1.00  0.00     0.167 HD
ATOM     61  C   UNL A   1      45.077  27.747  29.473  1.00  0.00     0.074 A 
ATOM     62  C   UNL A   1      45.040  26.560  30.316  1.00  0.00     0.031 C 
ATOM     63  C   UNL A   1      44.938  29.071  29.770  1.00  0.00     0.034 A 
BRANCH  50  64
ATOM     64  C   UNL A   1      42.526  27.369  34.411  1.00  0.00     0.023 A 
ATOM     65  C   UNL A   1      43.389  26.397  33.858  1.00  0.00     0.031 A 
ATOM     66  C   UNL A   1      41.907  27.002  35.626  1.00  0.00     0.131 A 
ATOM     67  C   UNL A   1      43.488  25.107  34.411  1.00  0.00     0.055 A 
ATOM     68  C   UNL A   1      42.043  25.731  36.197  1.00  0.00     0.041 A 
ATOM     69  F   UNL A   1      41.084  27.809  36.301  1.00  0.00    -0.206 F 
ATOM     70  C   UNL A   1      42.806  24.762  35.571  1.00  0.00     0.022 A 
BRANCH  67  71
ATOM     71  S   UNL A   1      44.391  23.838  33.486  1.00  0.00     0.124 S 
ATOM     72  O   UNL A   1      45.715  24.441  33.376  1.00  0.00    -0.237 OA
ATOM     73  O   UNL A   1      44.275  22.684  34.373  1.00  0.00    -0.237 OA
ATOM     74  O   UNL A   1      43.643  23.738  32.235  1.00  0.00    -0.744 OA
ENDBRANCH  67  71
ENDBRANCH  50  64
BRANCH  51  75
ATOM     75  C   UNL A   1      43.384  24.261  26.749  1.00  0.00     0.023 A 
ATOM     76  C   UNL A   1      42.651  23.113  27.117  1.00  0.00     0.031 A 
ATOM     77  C   UNL A   1      44.057  24.216  25.507  1.00  0.00     0.131 A 
ATOM     78  C   UNL A   1      42.601  21.994  26.250  1.00  0.00     0.055 A 
ATOM     79  C   UNL A   1      44.004  23.110  24.657  1.00  0.00     0.041 A 
ATOM     80  F   UNL A   1      44.723  25.286  25.043  1.00  0.00    -0.206 F 
ATOM     81  C   UNL A   1      43.265  21.997  25.020  1.00  0.00     0.022 A 
BRANCH  78  82
ATOM     82  S   UNL A   1      41.595  20.533  26.675  1.00  0.00     0.124 S 
ATOM     83  O   UNL A   1      42.487  19.781  27.549  1.00  0.00    -0.237 OA
ATOM     84  O   UNL A   1      40.424  21.134  27.302  1.00  0.00    -0.237 OA
ATOM     85  O   UNL A   1      41.337  19.905  25.378  1.00  0.00    -0.744 OA
ENDBRANCH  78  82
ENDBRANCH  51  75
BRANCH  63  86
ATOM     86  C   UNL A   1      45.187  30.070  28.666  1.00  0.00     0.023 A 
ATOM     87  C   UNL A   1      46.431  30.657  28.350  1.00  0.00     0.031 A 
ATOM     88  C   UNL A   1      44.079  30.417  27.870  1.00  0.00     0.131 A 
ATOM     89  C   UNL A   1      46.526  31.560  27.273  1.00  0.00     0.055 A 
ATOM     90  C   UNL A   1      44.181  31.293  26.793  1.00  0.00     0.041 A 
ATOM     91  F   UNL A   1      42.869  29.887  28.117  1.00  0.00    -0.206 F 
ATOM     92  C   UNL A   1      45.407  31.875  26.494  1.00  0.00     0.022 A 
BRANCH  89  93
ATOM     93  S   UNL A   1      48.109  32.371  26.877  1.00  0.00     0.124 S 
ATOM     94  O   UNL A   1      47.774  33.249  25.763  1.00  0.00    -0.237 OA
ATOM     95  O   UNL A   1      48.445  33.035  28.134  1.00  0.00    -0.237 OA
ATOM     96  O   UNL A   1      48.987  31.253  26.528  1.00  0.00    -0.744 OA
ENDBRANCH  89  93
ENDBRANCH  63  86
ENDBRANCH  37  38
ENDBRANCH  30  32
ENDBRANCH  29  30
ENDBRANCH  28  29
ENDBRANCH  27  28
ENDBRANCH  26  27
ENDBRANCH   1  26
TORSDOF 22
ENDMDL
MODEL 3
REMARK VINA RESULT:     -10.8      1.721      2.146
REMARK SMILES COCC[C@@H](C)NC(=O)N1Cc2nc[nH]c2C[C@@H]1C(=O)OCCOCCOC(=O)c1ccc(-c2c3nc(c(-c4cc(S(=O)(=O)[O-])ccc4F)c4ccc([nH]4)c(-c4cc(S(=O)(=O)[O-])ccc4F)c4nc(c(-c5cc(S(=O)(=O)[O-])ccc5F)c5ccc2[nH]5)C=C4)C=C3)cc1
REMARK SMILES IDX 23 1 22 2 21 3 19 4 20 5 18 6 10 7 11 8 12 9 17 10 13 11
REMARK SMILES IDX 16 12 14 13 15 14 8 16 7 17 9 19 5 20 6 21 4 22 3 23 2 24
REMARK SMILES IDX 1 25 24 26 25 27 26 28 27 29 28 30 29 31 30 32 31 33 92 34
REMARK SMILES IDX 32 35 91 36 33 37 34 38 35 39 85 40 36 41 90 42 84 43 86 44
REMARK SMILES IDX 37 45 89 46 83 47 82 48 38 50 70 51 50 52 69 53 51 54 54 55
REMARK SMILES IDX 68 56 87 57 52 58 53 59 67 61 88 62 55 63 39 64 40 65 48 66
REMARK SMILES IDX 41 67 47 68 49 69 46 70 42 71 43 72 44 73 45 74 71 75 72 76
REMARK SMILES IDX 80 77 73 78 79 79 81 80 78 81 74 82 75 83 76 84 77 85 56 86
REMARK SMILES IDX 57 87 65 88 58 89 64 90 66 91 63 92 59 93 60 94 61 95 62 96
REMARK H PARENT 15 15 7 18 86 49 54 60
REMARK Flexibility Score: inf
ROOT
ATOM      1  C   UNL A   1      32.262  27.867  26.938  1.00  0.00     0.202 C 
ENDROOT
BRANCH   1   2
ATOM      2  C   UNL A   1      31.060  26.938  27.198  1.00  0.00     0.261 C 
BRANCH   2   3
ATOM      3  O   UNL A   1      30.791  25.962  26.161  1.00  0.00    -0.462 OA
BRANCH   3   4
ATOM      4  C   UNL A   1      31.449  24.762  26.189  1.00  0.00     0.329 C 
ATOM      5  O   UNL A   1      31.685  24.124  27.204  1.00  0.00    -0.250 OA
BRANCH   4   6
ATOM      6  C   UNL A   1      31.896  24.377  24.755  1.00  0.00     0.203 C 
ATOM      7  N   UNL A   1      33.369  24.394  24.476  1.00  0.00    -0.305 N 
ATOM      8  C   UNL A   1      33.823  24.134  23.098  1.00  0.00     0.180 C 
ATOM      9  C   UNL A   1      32.956  24.855  22.140  1.00  0.00     0.081 A 
ATOM     10  C   UNL A   1      31.114  25.358  23.810  1.00  0.00     0.093 C 
ATOM     11  N   UNL A   1      33.259  25.098  20.826  1.00  0.00    -0.240 NA
ATOM     12  C   UNL A   1      31.730  25.385  22.462  1.00  0.00     0.042 A 
ATOM     13  C   UNL A   1      32.250  25.809  20.372  1.00  0.00     0.197 A 
ATOM     14  N   UNL A   1      31.293  26.010  21.333  1.00  0.00    -0.348 N 
ATOM     15  H   UNL A   1      30.451  26.509  21.227  1.00  0.00     0.167 HD
BRANCH   7  16
ATOM     16  C   UNL A   1      34.322  24.108  25.414  1.00  0.00     0.318 C 
ATOM     17  N   UNL A   1      34.513  22.808  25.767  1.00  0.00    -0.335 N 
ATOM     18  H   UNL A   1      35.408  22.580  26.109  1.00  0.00     0.165 HD
ATOM     19  O   UNL A   1      35.094  24.968  25.831  1.00  0.00    -0.249 OA
BRANCH  17  20
ATOM     20  C   UNL A   1      33.554  21.710  25.699  1.00  0.00     0.083 C 
ATOM     21  C   UNL A   1      33.511  21.068  27.071  1.00  0.00     0.031 C 
BRANCH  20  22
ATOM     22  C   UNL A   1      33.885  20.680  24.623  1.00  0.00     0.053 C 
BRANCH  22  23
ATOM     23  C   UNL A   1      32.686  19.792  24.264  1.00  0.00     0.162 C 
BRANCH  23  24
ATOM     24  O   UNL A   1      33.078  18.435  24.050  1.00  0.00    -0.385 OA
ATOM     25  C   UNL A   1      32.562  17.500  24.987  1.00  0.00     0.194 C 
ENDBRANCH  23  24
ENDBRANCH  22  23
ENDBRANCH  20  22
ENDBRANCH  17  20
ENDBRANCH   7  16
ENDBRANCH   4   6
ENDBRANCH   3   4
ENDBRANCH   2   3
ENDBRANCH   1   2
BRANCH   1  26
ATOM     26  O   UNL A   1      31.949  29.239  27.159  1.00  0.00    -0.374 OA
BRANCH  26  27
ATOM     27  C   UNL A   1      32.692  30.195  26.400  1.00  0.00     0.202 C 
BRANCH  27  28
ATOM     28  C   UNL A   1      33.123  31.423  27.204  1.00  0.00     0.261 C 
BRANCH  28  29
ATOM     29  O   UNL A   1      34.245  31.148  28.052  1.00  0.00    -0.460 OA
BRANCH  29  30
ATOM     30  C   UNL A   1      35.333  31.943  27.964  1.00  0.00     0.338 C 
ATOM     31  O   UNL A   1      35.354  33.115  27.597  1.00  0.00    -0.246 OA
BRANCH  30  32
ATOM     32  C   UNL A   1      36.526  31.156  28.367  1.00  0.00     0.060 A 
ATOM     33  C   UNL A   1      37.669  31.800  28.845  1.00  0.00     0.016 A 
ATOM     34  C   UNL A   1      36.525  29.759  28.237  1.00  0.00     0.016 A 
ATOM     35  C   UNL A   1      38.809  31.044  29.131  1.00  0.00     0.010 A 
ATOM     36  C   UNL A   1      37.628  29.007  28.597  1.00  0.00     0.010 A 
ATOM     37  C   UNL A   1      38.798  29.644  28.979  1.00  0.00    -0.014 A 
BRANCH  37  38
ATOM     38  C   UNL A   1      40.000  28.856  29.284  1.00  0.00     0.031 A 
ATOM     39  C   UNL A   1      40.276  28.705  30.731  1.00  0.00     0.074 A 
ATOM     40  C   UNL A   1      40.768  28.206  28.379  1.00  0.00     0.049 A 
ATOM     41  N   UNL A   1      41.118  29.384  31.436  1.00  0.00    -0.248 NA
ATOM     42  C   UNL A   1      39.398  27.837  31.528  1.00  0.00     0.031 C 
ATOM     43  C   UNL A   1      40.492  28.012  26.951  1.00  0.00     0.029 A 
ATOM     44  N   UNL A   1      41.940  27.515  28.554  1.00  0.00    -0.354 N 
ATOM     45  C   UNL A   1      41.098  28.804  32.699  1.00  0.00     0.074 A 
ATOM     46  C   UNL A   1      39.872  28.058  32.758  1.00  0.00     0.031 C 
ATOM     47  C   UNL A   1      41.336  27.089  26.441  1.00  0.00     0.029 A 
ATOM     48  C   UNL A   1      42.336  26.770  27.445  1.00  0.00     0.049 A 
ATOM     49  H   UNL A   1      42.457  27.543  29.392  1.00  0.00     0.167 HD
ATOM     50  C   UNL A   1      42.246  28.730  33.430  1.00  0.00     0.034 A 
ATOM     51  C   UNL A   1      43.432  25.982  27.300  1.00  0.00     0.034 A 
ATOM     52  C   UNL A   1      43.261  29.591  32.852  1.00  0.00     0.049 A 
ATOM     53  C   UNL A   1      44.468  26.495  28.219  1.00  0.00     0.074 A 
ATOM     54  C   UNL A   1      43.479  30.945  32.726  1.00  0.00     0.029 A 
ATOM     55  N   UNL A   1      44.083  28.966  31.945  1.00  0.00    -0.354 N 
ATOM     56  N   UNL A   1      44.998  27.681  28.094  1.00  0.00    -0.248 NA
ATOM     57  C   UNL A   1      44.687  25.854  29.509  1.00  0.00     0.031 C 
ATOM     58  C   UNL A   1      44.284  31.110  31.558  1.00  0.00     0.029 A 
ATOM     59  C   UNL A   1      44.580  29.854  31.029  1.00  0.00     0.049 A 
ATOM     60  H   UNL A   1      44.288  28.003  31.952  1.00  0.00     0.167 HD
ATOM     61  C   UNL A   1      45.215  28.103  29.390  1.00  0.00     0.074 A 
ATOM     62  C   UNL A   1      45.181  26.889  30.194  1.00  0.00     0.031 C 
ATOM     63  C   UNL A   1      45.070  29.417  29.731  1.00  0.00     0.034 A 
BRANCH  50  64
ATOM     64  C   UNL A   1      42.659  27.554  34.310  1.00  0.00     0.023 A 
ATOM     65  C   UNL A   1      43.600  26.655  33.761  1.00  0.00     0.031 A 
ATOM     66  C   UNL A   1      41.989  27.092  35.464  1.00  0.00     0.131 A 
ATOM     67  C   UNL A   1      43.733  25.343  34.252  1.00  0.00     0.055 A 
ATOM     68  C   UNL A   1      42.156  25.799  35.976  1.00  0.00     0.041 A 
ATOM     69  F   UNL A   1      41.089  27.820  36.128  1.00  0.00    -0.206 F 
ATOM     70  C   UNL A   1      43.002  24.903  35.348  1.00  0.00     0.022 A 
BRANCH  67  71
ATOM     71  S   UNL A   1      44.751  24.171  33.319  1.00  0.00     0.124 S 
ATOM     72  O   UNL A   1      45.883  25.006  32.934  1.00  0.00    -0.237 OA
ATOM     73  O   UNL A   1      45.014  23.143  34.320  1.00  0.00    -0.237 OA
ATOM     74  O   UNL A   1      43.875  23.762  32.223  1.00  0.00    -0.744 OA
ENDBRANCH  67  71
ENDBRANCH  50  64
BRANCH  51  75
ATOM     75  C   UNL A   1      43.539  24.702  26.552  1.00  0.00     0.023 A 
ATOM     76  C   UNL A   1      42.798  23.544  26.870  1.00  0.00     0.031 A 
ATOM     77  C   UNL A   1      44.229  24.697  25.317  1.00  0.00     0.131 A 
ATOM     78  C   UNL A   1      42.757  22.455  25.966  1.00  0.00     0.055 A 
ATOM     79  C   UNL A   1      44.184  23.620  24.430  1.00  0.00     0.041 A 
ATOM     80  F   UNL A   1      44.903  25.780  24.899  1.00  0.00    -0.206 F 
ATOM     81  C   UNL A   1      43.437  22.497  24.745  1.00  0.00     0.022 A 
BRANCH  78  82
ATOM     82  S   UNL A   1      41.742  20.984  26.328  1.00  0.00     0.124 S 
ATOM     83  O   UNL A   1      42.062  20.718  27.725  1.00  0.00    -0.237 OA
ATOM     84  O   UNL A   1      40.393  21.460  26.048  1.00  0.00    -0.237 OA
ATOM     85  O   UNL A   1      42.242  19.982  25.385  1.00  0.00    -0.744 OA
ENDBRANCH  78  82
ENDBRANCH  51  75
BRANCH  63  86
ATOM     86  C   UNL A   1      45.316  30.452  28.661  1.00  0.00     0.023 A 
ATOM     87  C   UNL A   1      46.568  31.016  28.332  1.00  0.00     0.031 A 
ATOM     88  C   UNL A   1      44.197  30.861  27.912  1.00  0.00     0.131 A 
ATOM     89  C   UNL A   1      46.658  31.959  27.289  1.00  0.00     0.055 A 
ATOM     90  C   UNL A   1      44.294  31.778  26.868  1.00  0.00     0.041 A 
ATOM     91  F   UNL A   1      42.980  30.356  28.173  1.00  0.00    -0.206 F 
ATOM     92  C   UNL A   1      45.527  32.337  26.556  1.00  0.00     0.022 A 
BRANCH  89  93
ATOM     93  S   UNL A   1      48.252  32.742  26.878  1.00  0.00     0.124 S 
ATOM     94  O   UNL A   1      49.054  31.637  26.369  1.00  0.00    -0.237 OA
ATOM     95  O   UNL A   1      47.862  33.752  25.898  1.00  0.00    -0.237 OA
ATOM     96  O   UNL A   1      48.705  33.284  28.160  1.00  0.00    -0.744 OA
ENDBRANCH  89  93
ENDBRANCH  63  86
ENDBRANCH  37  38
ENDBRANCH  30  32
ENDBRANCH  29  30
ENDBRANCH  28  29
ENDBRANCH  27  28
ENDBRANCH  26  27
ENDBRANCH   1  26
TORSDOF 22
ENDMDL
