MODEL 1
REMARK VINA RESULT:     -12.2      0.000      0.000
REMARK SMILES O=C(OCCOCCOC(=O)c1ccc2c(c1)[C@@H]1C=CC[C@@H]1[C@H](c1ccncc1)N2)c1ccc(-c2c3nc(c(-c4cc(S(=O)(=O)[O-])ccc4F)c4ccc([nH]4)c(-c4cc(S(=O)(=O)[O-])ccc4F)c4nc(c(-c5cc(S(=O)(=O)[O-])ccc5F)c5ccc2[nH]5)C=C4)C=C3)cc1
REMARK SMILES IDX 5 1 4 2 3 3 2 4 1 5 31 6 32 7 93 8 33 9 92 10 34 11 35 12
REMARK SMILES IDX 36 13 86 14 37 15 91 16 85 17 87 18 38 19 90 20 84 21 83 22
REMARK SMILES IDX 39 24 71 25 51 26 70 27 52 28 55 29 69 30 88 31 53 32 54 33
REMARK SMILES IDX 68 35 89 36 56 37 40 38 41 39 49 40 42 41 48 42 50 43 47 44
REMARK SMILES IDX 43 45 44 46 45 47 46 48 72 49 73 50 81 51 74 52 80 53 82 54
REMARK SMILES IDX 79 55 75 56 76 57 77 58 78 59 57 60 58 61 66 62 59 63 65 64
REMARK SMILES IDX 67 65 64 66 60 67 61 68 62 69 63 70 6 71 7 72 8 73 9 74
REMARK SMILES IDX 10 75 11 76 12 77 13 78 17 79 14 80 16 81 15 82 18 83 30 84
REMARK SMILES IDX 19 85 22 86 23 87 20 89 21 90 24 91 25 92 29 93 26 94 28 95
REMARK SMILES IDX 27 96
REMARK H PARENT 87 23 55 34 30 88
REMARK Flexibility Score: inf
ROOT
ATOM      1  C   UNL A   1      37.730  20.955  25.017  1.00  0.00     0.202 C 
ENDROOT
BRANCH   1   2
ATOM      2  C   UNL A   1      38.522  19.692  25.364  1.00  0.00     0.261 C 
BRANCH   2   3
ATOM      3  O   UNL A   1      39.896  20.024  25.627  1.00  0.00    -0.460 OA
BRANCH   3   4
ATOM      4  C   UNL A   1      40.450  20.438  26.791  1.00  0.00     0.338 C 
ATOM      5  O   UNL A   1      40.623  19.608  27.682  1.00  0.00    -0.246 OA
BRANCH   4   6
ATOM      6  C   UNL A   1      40.849  21.852  27.064  1.00  0.00     0.060 A 
ATOM      7  C   UNL A   1      40.415  22.960  26.333  1.00  0.00     0.016 A 
ATOM      8  C   UNL A   1      41.642  22.087  28.200  1.00  0.00     0.016 A 
ATOM      9  C   UNL A   1      40.797  24.248  26.668  1.00  0.00     0.010 A 
ATOM     10  C   UNL A   1      41.996  23.389  28.576  1.00  0.00     0.010 A 
ATOM     11  C   UNL A   1      41.579  24.473  27.796  1.00  0.00    -0.014 A 
BRANCH  11  12
ATOM     12  C   UNL A   1      42.009  25.858  28.064  1.00  0.00     0.031 A 
ATOM     13  C   UNL A   1      43.333  26.307  27.528  1.00  0.00     0.074 A 
ATOM     14  C   UNL A   1      41.144  26.717  28.633  1.00  0.00     0.049 A 
ATOM     15  N   UNL A   1      43.923  27.464  27.641  1.00  0.00    -0.248 NA
ATOM     16  C   UNL A   1      44.086  25.316  26.741  1.00  0.00     0.031 C 
ATOM     17  C   UNL A   1      39.781  26.377  29.056  1.00  0.00     0.029 A 
ATOM     18  N   UNL A   1      41.256  28.050  28.919  1.00  0.00    -0.354 N 
ATOM     19  C   UNL A   1      45.120  27.344  26.944  1.00  0.00     0.074 A 
ATOM     20  C   UNL A   1      45.182  25.990  26.436  1.00  0.00     0.031 C 
ATOM     21  C   UNL A   1      39.179  27.483  29.522  1.00  0.00     0.029 A 
ATOM     22  C   UNL A   1      40.132  28.586  29.503  1.00  0.00     0.049 A 
ATOM     23  H   UNL A   1      42.065  28.577  28.724  1.00  0.00     0.167 HD
ATOM     24  C   UNL A   1      46.074  28.286  26.752  1.00  0.00     0.034 A 
ATOM     25  C   UNL A   1      39.920  29.821  29.999  1.00  0.00     0.034 A 
ATOM     26  C   UNL A   1      45.981  29.612  27.310  1.00  0.00     0.049 A 
ATOM     27  C   UNL A   1      41.054  30.812  29.891  1.00  0.00     0.074 A 
ATOM     28  C   UNL A   1      46.920  30.626  27.308  1.00  0.00     0.029 A 
ATOM     29  N   UNL A   1      44.864  30.104  27.981  1.00  0.00    -0.354 N 
ATOM     30  N   UNL A   1      42.230  30.661  29.319  1.00  0.00    -0.248 NA
ATOM     31  C   UNL A   1      40.841  32.131  30.496  1.00  0.00     0.031 C 
ATOM     32  C   UNL A   1      46.392  31.709  28.023  1.00  0.00     0.029 A 
ATOM     33  C   UNL A   1      45.096  31.399  28.411  1.00  0.00     0.049 A 
ATOM     34  H   UNL A   1      44.029  29.603  28.129  1.00  0.00     0.167 HD
ATOM     35  C   UNL A   1      42.890  31.873  29.484  1.00  0.00     0.074 A 
ATOM     36  C   UNL A   1      41.969  32.751  30.180  1.00  0.00     0.031 C 
ATOM     37  C   UNL A   1      44.145  32.234  29.107  1.00  0.00     0.034 A 
BRANCH  24  38
ATOM     38  C   UNL A   1      47.307  27.856  25.998  1.00  0.00     0.023 A 
ATOM     39  C   UNL A   1      47.452  28.095  24.618  1.00  0.00     0.031 A 
ATOM     40  C   UNL A   1      48.303  27.101  26.643  1.00  0.00     0.131 A 
ATOM     41  C   UNL A   1      48.517  27.509  23.916  1.00  0.00     0.055 A 
ATOM     42  C   UNL A   1      49.403  26.590  25.952  1.00  0.00     0.041 A 
ATOM     43  F   UNL A   1      48.202  26.813  27.950  1.00  0.00    -0.206 F 
ATOM     44  C   UNL A   1      49.506  26.777  24.576  1.00  0.00     0.022 A 
BRANCH  41  45
ATOM     45  S   UNL A   1      48.502  27.576  22.101  1.00  0.00     0.124 S 
ATOM     46  O   UNL A   1      48.687  26.169  21.753  1.00  0.00    -0.237 OA
ATOM     47  O   UNL A   1      47.188  28.138  21.814  1.00  0.00    -0.237 OA
ATOM     48  O   UNL A   1      49.635  28.443  21.780  1.00  0.00    -0.744 OA
ENDBRANCH  41  45
ENDBRANCH  24  38
BRANCH  25  49
ATOM     49  C   UNL A   1      38.647  30.164  30.703  1.00  0.00     0.023 A 
ATOM     50  C   UNL A   1      37.623  30.884  30.069  1.00  0.00     0.031 A 
ATOM     51  C   UNL A   1      38.464  29.831  32.060  1.00  0.00     0.131 A 
ATOM     52  C   UNL A   1      36.492  31.290  30.798  1.00  0.00     0.055 A 
ATOM     53  C   UNL A   1      37.311  30.181  32.764  1.00  0.00     0.041 A 
ATOM     54  F   UNL A   1      39.412  29.155  32.730  1.00  0.00    -0.206 F 
ATOM     55  C   UNL A   1      36.322  30.930  32.138  1.00  0.00     0.022 A 
BRANCH  52  56
ATOM     56  S   UNL A   1      35.294  32.403  30.009  1.00  0.00     0.124 S 
ATOM     57  O   UNL A   1      34.853  31.605  28.869  1.00  0.00    -0.237 OA
ATOM     58  O   UNL A   1      34.316  32.599  31.072  1.00  0.00    -0.237 OA
ATOM     59  O   UNL A   1      36.093  33.580  29.673  1.00  0.00    -0.744 OA
ENDBRANCH  52  56
ENDBRANCH  25  49
BRANCH  37  60
ATOM     60  C   UNL A   1      44.552  33.651  29.416  1.00  0.00     0.023 A 
ATOM     61  C   UNL A   1      44.358  34.690  28.489  1.00  0.00     0.031 A 
ATOM     62  C   UNL A   1      45.155  33.959  30.648  1.00  0.00     0.131 A 
ATOM     63  C   UNL A   1      44.822  35.979  28.784  1.00  0.00     0.055 A 
ATOM     64  C   UNL A   1      45.559  35.257  30.960  1.00  0.00     0.041 A 
ATOM     65  F   UNL A   1      45.362  33.002  31.566  1.00  0.00    -0.206 F 
ATOM     66  C   UNL A   1      45.406  36.272  30.019  1.00  0.00     0.022 A 
BRANCH  63  67
ATOM     67  S   UNL A   1      44.737  37.247  27.491  1.00  0.00     0.124 S 
ATOM     68  O   UNL A   1      44.866  38.478  28.264  1.00  0.00    -0.237 OA
ATOM     69  O   UNL A   1      45.875  36.904  26.643  1.00  0.00    -0.237 OA
ATOM     70  O   UNL A   1      43.425  37.030  26.884  1.00  0.00    -0.744 OA
ENDBRANCH  63  67
ENDBRANCH  37  60
ENDBRANCH  11  12
ENDBRANCH   4   6
ENDBRANCH   3   4
ENDBRANCH   2   3
ENDBRANCH   1   2
BRANCH   1  71
ATOM     71  O   UNL A   1      36.620  21.212  25.876  1.00  0.00    -0.374 OA
BRANCH  71  72
ATOM     72  C   UNL A   1      35.991  22.490  25.732  1.00  0.00     0.202 C 
BRANCH  72  73
ATOM     73  C   UNL A   1      34.489  22.284  25.510  1.00  0.00     0.261 C 
BRANCH  73  74
ATOM     74  O   UNL A   1      34.273  22.059  24.109  1.00  0.00    -0.460 OA
BRANCH  74  75
ATOM     75  C   UNL A   1      34.698  23.068  23.304  1.00  0.00     0.338 C 
ATOM     76  O   UNL A   1      35.678  23.079  22.580  1.00  0.00    -0.246 OA
BRANCH  75  77
ATOM     77  C   UNL A   1      33.635  24.092  23.282  1.00  0.00     0.060 A 
ATOM     78  C   UNL A   1      32.341  23.717  22.919  1.00  0.00     0.018 A 
ATOM     79  C   UNL A   1      33.892  25.396  23.705  1.00  0.00     0.022 A 
ATOM     80  C   UNL A   1      31.303  24.649  22.989  1.00  0.00     0.027 A 
ATOM     81  C   UNL A   1      32.856  26.339  23.764  1.00  0.00    -0.017 A 
ATOM     82  C   UNL A   1      31.556  25.974  23.369  1.00  0.00     0.038 A 
ATOM     83  C   UNL A   1      33.175  27.744  24.212  1.00  0.00     0.049 C 
ATOM     84  N   UNL A   1      30.514  26.903  23.371  1.00  0.00    -0.378 N 
ATOM     85  C   UNL A   1      33.665  27.824  25.634  1.00  0.00    -0.023 C 
ATOM     86  C   UNL A   1      31.963  28.687  24.252  1.00  0.00     0.031 C 
ATOM     87  C   UNL A   1      30.901  28.297  23.220  1.00  0.00     0.114 C 
ATOM     88  H   UNL A   1      29.573  26.631  23.469  1.00  0.00     0.161 HD
ATOM     89  C   UNL A   1      32.754  28.363  26.453  1.00  0.00    -0.030 C 
ATOM     90  C   UNL A   1      31.499  28.711  25.719  1.00  0.00     0.034 C 
BRANCH  87  91
ATOM     91  C   UNL A   1      29.722  29.254  23.232  1.00  0.00    -0.022 A 
ATOM     92  C   UNL A   1      29.886  30.508  23.839  1.00  0.00     0.026 A 
ATOM     93  C   UNL A   1      28.468  28.950  22.695  1.00  0.00     0.026 A 
ATOM     94  C   UNL A   1      28.815  31.386  23.880  1.00  0.00     0.111 A 
ATOM     95  C   UNL A   1      27.461  29.902  22.773  1.00  0.00     0.111 A 
ATOM     96  N   UNL A   1      27.605  31.112  23.357  1.00  0.00    -0.265 NA
ENDBRANCH  87  91
ENDBRANCH  75  77
ENDBRANCH  74  75
ENDBRANCH  73  74
ENDBRANCH  72  73
ENDBRANCH  71  72
ENDBRANCH   1  71
TORSDOF 18
ENDMDL
MODEL 2
REMARK VINA RESULT:     -12.1      5.263     10.989
REMARK SMILES O=C(OCCOCCOC(=O)c1ccc2c(c1)[C@@H]1C=CC[C@@H]1[C@H](c1ccncc1)N2)c1ccc(-c2c3nc(c(-c4cc(S(=O)(=O)[O-])ccc4F)c4ccc([nH]4)c(-c4cc(S(=O)(=O)[O-])ccc4F)c4nc(c(-c5cc(S(=O)(=O)[O-])ccc5F)c5ccc2[nH]5)C=C4)C=C3)cc1
REMARK SMILES IDX 5 1 4 2 3 3 2 4 1 5 31 6 32 7 93 8 33 9 92 10 34 11 35 12
REMARK SMILES IDX 36 13 86 14 37 15 91 16 85 17 87 18 38 19 90 20 84 21 83 22
REMARK SMILES IDX 39 24 71 25 51 26 70 27 52 28 55 29 69 30 88 31 53 32 54 33
REMARK SMILES IDX 68 35 89 36 56 37 40 38 41 39 49 40 42 41 48 42 50 43 47 44
REMARK SMILES IDX 43 45 44 46 45 47 46 48 72 49 73 50 81 51 74 52 80 53 82 54
REMARK SMILES IDX 79 55 75 56 76 57 77 58 78 59 57 60 58 61 66 62 59 63 65 64
REMARK SMILES IDX 67 65 64 66 60 67 61 68 62 69 63 70 6 71 7 72 8 73 9 74
REMARK SMILES IDX 10 75 11 76 12 77 13 78 17 79 14 80 16 81 15 82 18 83 30 84
REMARK SMILES IDX 19 85 22 86 23 87 20 89 21 90 24 91 25 92 29 93 26 94 28 95
REMARK SMILES IDX 27 96
REMARK H PARENT 87 23 55 34 30 88
REMARK Flexibility Score: inf
ROOT
ATOM      1  C   UNL A   1      32.193  31.130  26.903  1.00  0.00     0.202 C 
ENDROOT
BRANCH   1   2
ATOM      2  C   UNL A   1      31.622  32.550  26.928  1.00  0.00     0.261 C 
BRANCH   2   3
ATOM      3  O   UNL A   1      32.685  33.510  27.060  1.00  0.00    -0.460 OA
BRANCH   3   4
ATOM      4  C   UNL A   1      33.294  33.933  28.193  1.00  0.00     0.338 C 
ATOM      5  O   UNL A   1      32.857  34.940  28.749  1.00  0.00    -0.246 OA
BRANCH   4   6
ATOM      6  C   UNL A   1      34.479  33.256  28.802  1.00  0.00     0.060 A 
ATOM      7  C   UNL A   1      34.424  32.094  29.575  1.00  0.00     0.016 A 
ATOM      8  C   UNL A   1      35.747  33.775  28.490  1.00  0.00     0.016 A 
ATOM      9  C   UNL A   1      35.570  31.499  30.077  1.00  0.00     0.010 A 
ATOM     10  C   UNL A   1      36.914  33.155  28.952  1.00  0.00     0.010 A 
ATOM     11  C   UNL A   1      36.822  32.017  29.760  1.00  0.00    -0.014 A 
BRANCH  11  12
ATOM     12  C   UNL A   1      38.000  31.381  30.377  1.00  0.00     0.031 A 
ATOM     13  C   UNL A   1      38.342  31.740  31.790  1.00  0.00     0.074 A 
ATOM     14  C   UNL A   1      38.631  30.389  29.722  1.00  0.00     0.049 A 
ATOM     15  N   UNL A   1      39.327  31.322  32.535  1.00  0.00    -0.248 NA
ATOM     16  C   UNL A   1      37.437  32.689  32.457  1.00  0.00     0.031 C 
ATOM     17  C   UNL A   1      38.260  29.895  28.392  1.00  0.00     0.029 A 
ATOM     18  N   UNL A   1      39.682  29.595  30.089  1.00  0.00    -0.354 N 
ATOM     19  C   UNL A   1      39.166  31.958  33.760  1.00  0.00     0.074 A 
ATOM     20  C   UNL A   1      38.003  32.811  33.646  1.00  0.00     0.031 C 
ATOM     21  C   UNL A   1      39.056  28.863  28.071  1.00  0.00     0.029 A 
ATOM     22  C   UNL A   1      40.038  28.674  29.131  1.00  0.00     0.049 A 
ATOM     23  H   UNL A   1      40.139  29.673  30.958  1.00  0.00     0.167 HD
ATOM     24  C   UNL A   1      39.927  31.833  34.873  1.00  0.00     0.034 A 
ATOM     25  C   UNL A   1      41.070  27.806  29.107  1.00  0.00     0.034 A 
ATOM     26  C   UNL A   1      41.098  30.994  34.925  1.00  0.00     0.049 A 
ATOM     27  C   UNL A   1      41.982  27.786  30.310  1.00  0.00     0.074 A 
ATOM     28  C   UNL A   1      42.033  30.865  35.934  1.00  0.00     0.029 A 
ATOM     29  N   UNL A   1      41.493  30.136  33.902  1.00  0.00    -0.354 N 
ATOM     30  N   UNL A   1      41.885  28.468  31.431  1.00  0.00    -0.248 NA
ATOM     31  C   UNL A   1      43.142  26.890  30.246  1.00  0.00     0.031 C 
ATOM     32  C   UNL A   1      43.020  29.971  35.500  1.00  0.00     0.029 A 
ATOM     33  C   UNL A   1      42.665  29.486  34.249  1.00  0.00     0.049 A 
ATOM     34  H   UNL A   1      41.008  30.008  33.055  1.00  0.00     0.167 HD
ATOM     35  C   UNL A   1      42.964  28.070  32.213  1.00  0.00     0.074 A 
ATOM     36  C   UNL A   1      43.678  27.068  31.445  1.00  0.00     0.031 C 
ATOM     37  C   UNL A   1      43.344  28.495  33.446  1.00  0.00     0.034 A 
BRANCH  24  38
ATOM     38  C   UNL A   1      39.550  32.696  36.051  1.00  0.00     0.023 A 
ATOM     39  C   UNL A   1      38.763  32.202  37.109  1.00  0.00     0.031 A 
ATOM     40  C   UNL A   1      39.888  34.061  36.064  1.00  0.00     0.131 A 
ATOM     41  C   UNL A   1      38.269  33.084  38.083  1.00  0.00     0.055 A 
ATOM     42  C   UNL A   1      39.460  34.916  37.083  1.00  0.00     0.041 A 
ATOM     43  F   UNL A   1      40.607  34.596  35.066  1.00  0.00    -0.206 F 
ATOM     44  C   UNL A   1      38.631  34.433  38.091  1.00  0.00     0.022 A 
BRANCH  41  45
ATOM     45  S   UNL A   1      37.013  32.479  39.247  1.00  0.00     0.124 S 
ATOM     46  O   UNL A   1      35.778  32.741  38.510  1.00  0.00    -0.237 OA
ATOM     47  O   UNL A   1      37.376  31.077  39.407  1.00  0.00    -0.237 OA
ATOM     48  O   UNL A   1      37.211  33.313  40.431  1.00  0.00    -0.744 OA
ENDBRANCH  41  45
ENDBRANCH  24  38
BRANCH  25  49
ATOM     49  C   UNL A   1      41.344  26.965  27.902  1.00  0.00     0.023 A 
ATOM     50  C   UNL A   1      40.991  25.608  27.854  1.00  0.00     0.031 A 
ATOM     51  C   UNL A   1      42.036  27.498  26.797  1.00  0.00     0.131 A 
ATOM     52  C   UNL A   1      41.372  24.820  26.753  1.00  0.00     0.055 A 
ATOM     53  C   UNL A   1      42.356  26.729  25.677  1.00  0.00     0.041 A 
ATOM     54  F   UNL A   1      42.415  28.786  26.786  1.00  0.00    -0.206 F 
ATOM     55  C   UNL A   1      42.039  25.375  25.658  1.00  0.00     0.022 A 
BRANCH  52  56
ATOM     56  S   UNL A   1      41.093  23.028  26.821  1.00  0.00     0.124 S 
ATOM     57  O   UNL A   1      41.639  22.691  28.131  1.00  0.00    -0.237 OA
ATOM     58  O   UNL A   1      39.644  22.942  26.688  1.00  0.00    -0.237 OA
ATOM     59  O   UNL A   1      41.853  22.521  25.680  1.00  0.00    -0.744 OA
ENDBRANCH  52  56
ENDBRANCH  25  49
BRANCH  37  60
ATOM     60  C   UNL A   1      44.563  27.834  34.032  1.00  0.00     0.023 A 
ATOM     61  C   UNL A   1      44.466  26.654  34.790  1.00  0.00     0.031 A 
ATOM     62  C   UNL A   1      45.834  28.404  33.843  1.00  0.00     0.131 A 
ATOM     63  C   UNL A   1      45.615  26.114  35.383  1.00  0.00     0.055 A 
ATOM     64  C   UNL A   1      46.982  27.827  34.386  1.00  0.00     0.041 A 
ATOM     65  F   UNL A   1      45.979  29.530  33.128  1.00  0.00    -0.206 F 
ATOM     66  C   UNL A   1      46.874  26.683  35.173  1.00  0.00     0.022 A 
BRANCH  63  67
ATOM     67  S   UNL A   1      45.427  24.710  36.514  1.00  0.00     0.124 S 
ATOM     68  O   UNL A   1      46.806  24.466  36.927  1.00  0.00    -0.237 OA
ATOM     69  O   UNL A   1      44.541  25.251  37.540  1.00  0.00    -0.237 OA
ATOM     70  O   UNL A   1      44.839  23.669  35.673  1.00  0.00    -0.744 OA
ENDBRANCH  63  67
ENDBRANCH  37  60
ENDBRANCH  11  12
ENDBRANCH   4   6
ENDBRANCH   3   4
ENDBRANCH   2   3
ENDBRANCH   1   2
BRANCH   1  71
ATOM     71  O   UNL A   1      31.975  30.426  25.681  1.00  0.00    -0.374 OA
BRANCH  71  72
ATOM     72  C   UNL A   1      32.934  29.415  25.353  1.00  0.00     0.202 C 
BRANCH  72  73
ATOM     73  C   UNL A   1      32.412  28.599  24.166  1.00  0.00     0.261 C 
BRANCH  73  74
ATOM     74  O   UNL A   1      32.491  27.208  24.514  1.00  0.00    -0.460 OA
BRANCH  74  75
ATOM     75  C   UNL A   1      31.290  26.576  24.580  1.00  0.00     0.338 C 
ATOM     76  O   UNL A   1      30.181  27.082  24.584  1.00  0.00    -0.246 OA
BRANCH  75  77
ATOM     77  C   UNL A   1      31.543  25.129  24.421  1.00  0.00     0.060 A 
ATOM     78  C   UNL A   1      31.103  24.488  23.263  1.00  0.00     0.018 A 
ATOM     79  C   UNL A   1      32.292  24.429  25.367  1.00  0.00     0.022 A 
ATOM     80  C   UNL A   1      31.422  23.145  23.049  1.00  0.00     0.027 A 
ATOM     81  C   UNL A   1      32.602  23.076  25.164  1.00  0.00    -0.017 A 
ATOM     82  C   UNL A   1      32.133  22.417  24.012  1.00  0.00     0.038 A 
ATOM     83  C   UNL A   1      33.400  22.347  26.216  1.00  0.00     0.049 C 
ATOM     84  N   UNL A   1      32.385  21.060  23.806  1.00  0.00    -0.378 N 
ATOM     85  C   UNL A   1      34.790  22.895  26.404  1.00  0.00    -0.023 C 
ATOM     86  C   UNL A   1      33.693  20.876  25.883  1.00  0.00     0.031 C 
ATOM     87  C   UNL A   1      32.602  20.261  25.003  1.00  0.00     0.114 C 
ATOM     88  H   UNL A   1      32.415  20.666  22.904  1.00  0.00     0.161 HD
ATOM     89  C   UNL A   1      35.727  22.074  25.917  1.00  0.00    -0.030 C 
ATOM     90  C   UNL A   1      35.118  20.854  25.304  1.00  0.00     0.034 C 
BRANCH  87  91
ATOM     91  C   UNL A   1      32.871  18.796  24.708  1.00  0.00    -0.022 A 
ATOM     92  C   UNL A   1      32.820  17.881  25.770  1.00  0.00     0.026 A 
ATOM     93  C   UNL A   1      33.195  18.304  23.440  1.00  0.00     0.026 A 
ATOM     94  C   UNL A   1      33.085  16.544  25.526  1.00  0.00     0.111 A 
ATOM     95  C   UNL A   1      33.430  16.944  23.293  1.00  0.00     0.111 A 
ATOM     96  N   UNL A   1      33.386  16.053  24.308  1.00  0.00    -0.265 NA
ENDBRANCH  87  91
ENDBRANCH  75  77
ENDBRANCH  74  75
ENDBRANCH  73  74
ENDBRANCH  72  73
ENDBRANCH  71  72
ENDBRANCH   1  71
TORSDOF 18
ENDMDL
MODEL 3
REMARK VINA RESULT:     -12.0      5.465     11.024
REMARK SMILES O=C(OCCOCCOC(=O)c1ccc2c(c1)[C@@H]1C=CC[C@@H]1[C@H](c1ccncc1)N2)c1ccc(-c2c3nc(c(-c4cc(S(=O)(=O)[O-])ccc4F)c4ccc([nH]4)c(-c4cc(S(=O)(=O)[O-])ccc4F)c4nc(c(-c5cc(S(=O)(=O)[O-])ccc5F)c5ccc2[nH]5)C=C4)C=C3)cc1
REMARK SMILES IDX 5 1 4 2 3 3 2 4 1 5 31 6 32 7 93 8 33 9 92 10 34 11 35 12
REMARK SMILES IDX 36 13 86 14 37 15 91 16 85 17 87 18 38 19 90 20 84 21 83 22
REMARK SMILES IDX 39 24 71 25 51 26 70 27 52 28 55 29 69 30 88 31 53 32 54 33
REMARK SMILES IDX 68 35 89 36 56 37 40 38 41 39 49 40 42 41 48 42 50 43 47 44
REMARK SMILES IDX 43 45 44 46 45 47 46 48 72 49 73 50 81 51 74 52 80 53 82 54
REMARK SMILES IDX 79 55 75 56 76 57 77 58 78 59 57 60 58 61 66 62 59 63 65 64
REMARK SMILES IDX 67 65 64 66 60 67 61 68 62 69 63 70 6 71 7 72 8 73 9 74
REMARK SMILES IDX 10 75 11 76 12 77 13 78 17 79 14 80 16 81 15 82 18 83 30 84
REMARK SMILES IDX 19 85 22 86 23 87 20 89 21 90 24 91 25 92 29 93 26 94 28 95
REMARK SMILES IDX 27 96
REMARK H PARENT 87 23 55 34 30 88
REMARK Flexibility Score: inf
ROOT
ATOM      1  C   UNL A   1      31.177  32.144  26.594  1.00  0.00     0.202 C 
ENDROOT
BRANCH   1   2
ATOM      2  C   UNL A   1      32.505  32.528  27.252  1.00  0.00     0.261 C 
BRANCH   2   3
ATOM      3  O   UNL A   1      32.471  33.902  27.676  1.00  0.00    -0.460 OA
BRANCH   3   4
ATOM      4  C   UNL A   1      33.258  34.515  28.590  1.00  0.00     0.338 C 
ATOM      5  O   UNL A   1      32.998  35.678  28.897  1.00  0.00    -0.246 OA
BRANCH   4   6
ATOM      6  C   UNL A   1      34.439  33.867  29.239  1.00  0.00     0.060 A 
ATOM      7  C   UNL A   1      35.770  34.203  28.989  1.00  0.00     0.016 A 
ATOM      8  C   UNL A   1      34.179  32.921  30.246  1.00  0.00     0.016 A 
ATOM      9  C   UNL A   1      36.815  33.585  29.658  1.00  0.00     0.010 A 
ATOM     10  C   UNL A   1      35.225  32.325  30.961  1.00  0.00     0.010 A 
ATOM     11  C   UNL A   1      36.550  32.652  30.655  1.00  0.00    -0.014 A 
BRANCH  11  12
ATOM     12  C   UNL A   1      37.702  31.980  31.284  1.00  0.00     0.031 A 
ATOM     13  C   UNL A   1      38.065  32.357  32.686  1.00  0.00     0.074 A 
ATOM     14  C   UNL A   1      38.287  30.947  30.650  1.00  0.00     0.049 A 
ATOM     15  N   UNL A   1      39.034  31.914  33.438  1.00  0.00    -0.248 NA
ATOM     16  C   UNL A   1      37.204  33.360  33.333  1.00  0.00     0.031 C 
ATOM     17  C   UNL A   1      37.890  30.437  29.333  1.00  0.00     0.029 A 
ATOM     18  N   UNL A   1      39.304  30.116  31.033  1.00  0.00    -0.354 N 
ATOM     19  C   UNL A   1      38.905  32.585  34.648  1.00  0.00     0.074 A 
ATOM     20  C   UNL A   1      37.779  33.485  34.518  1.00  0.00     0.031 C 
ATOM     21  C   UNL A   1      38.640  29.365  29.034  1.00  0.00     0.029 A 
ATOM     22  C   UNL A   1      39.617  29.158  30.096  1.00  0.00     0.049 A 
ATOM     23  H   UNL A   1      39.768  30.195  31.898  1.00  0.00     0.167 HD
ATOM     24  C   UNL A   1      39.664  32.454  35.762  1.00  0.00     0.034 A 
ATOM     25  C   UNL A   1      40.610  28.247  30.090  1.00  0.00     0.034 A 
ATOM     26  C   UNL A   1      40.798  31.567  35.830  1.00  0.00     0.049 A 
ATOM     27  C   UNL A   1      41.526  28.215  31.290  1.00  0.00     0.074 A 
ATOM     28  C   UNL A   1      41.731  31.421  36.839  1.00  0.00     0.029 A 
ATOM     29  N   UNL A   1      41.152  30.668  34.827  1.00  0.00    -0.354 N 
ATOM     30  N   UNL A   1      41.462  28.927  32.395  1.00  0.00    -0.248 NA
ATOM     31  C   UNL A   1      42.645  27.269  31.244  1.00  0.00     0.031 C 
ATOM     32  C   UNL A   1      42.677  30.475  36.423  1.00  0.00     0.029 A 
ATOM     33  C   UNL A   1      42.297  29.977  35.185  1.00  0.00     0.049 A 
ATOM     34  H   UNL A   1      40.659  30.541  33.984  1.00  0.00     0.167 HD
ATOM     35  C   UNL A   1      42.526  28.502  33.182  1.00  0.00     0.074 A 
ATOM     36  C   UNL A   1      43.194  27.452  32.437  1.00  0.00     0.031 C 
ATOM     37  C   UNL A   1      42.929  28.939  34.404  1.00  0.00     0.034 A 
BRANCH  24  38
ATOM     38  C   UNL A   1      39.329  33.360  36.920  1.00  0.00     0.023 A 
ATOM     39  C   UNL A   1      40.004  34.579  37.125  1.00  0.00     0.031 A 
ATOM     40  C   UNL A   1      38.401  32.950  37.894  1.00  0.00     0.131 A 
ATOM     41  C   UNL A   1      39.805  35.296  38.315  1.00  0.00     0.055 A 
ATOM     42  C   UNL A   1      38.149  33.711  39.037  1.00  0.00     0.041 A 
ATOM     43  F   UNL A   1      37.753  31.782  37.770  1.00  0.00    -0.206 F 
ATOM     44  C   UNL A   1      38.866  34.883  39.263  1.00  0.00     0.022 A 
BRANCH  41  45
ATOM     45  S   UNL A   1      40.911  36.688  38.686  1.00  0.00     0.124 S 
ATOM     46  O   UNL A   1      41.706  36.148  39.786  1.00  0.00    -0.237 OA
ATOM     47  O   UNL A   1      41.614  36.881  37.424  1.00  0.00    -0.237 OA
ATOM     48  O   UNL A   1      39.995  37.765  39.060  1.00  0.00    -0.744 OA
ENDBRANCH  41  45
ENDBRANCH  24  38
BRANCH  25  49
ATOM     49  C   UNL A   1      40.844  27.367  28.904  1.00  0.00     0.023 A 
ATOM     50  C   UNL A   1      41.852  27.642  27.968  1.00  0.00     0.031 A 
ATOM     51  C   UNL A   1      40.005  26.263  28.653  1.00  0.00     0.131 A 
ATOM     52  C   UNL A   1      41.964  26.860  26.804  1.00  0.00     0.055 A 
ATOM     53  C   UNL A   1      40.160  25.451  27.529  1.00  0.00     0.041 A 
ATOM     54  F   UNL A   1      39.012  25.954  29.503  1.00  0.00    -0.206 F 
ATOM     55  C   UNL A   1      41.134  25.757  26.586  1.00  0.00     0.022 A 
BRANCH  52  56
ATOM     56  S   UNL A   1      43.132  27.375  25.514  1.00  0.00     0.124 S 
ATOM     57  O   UNL A   1      44.135  28.097  26.290  1.00  0.00    -0.237 OA
ATOM     58  O   UNL A   1      43.551  26.094  24.957  1.00  0.00    -0.237 OA
ATOM     59  O   UNL A   1      42.317  28.202  24.626  1.00  0.00    -0.744 OA
ENDBRANCH  52  56
ENDBRANCH  25  49
BRANCH  37  60
ATOM     60  C   UNL A   1      44.121  28.240  35.003  1.00  0.00     0.023 A 
ATOM     61  C   UNL A   1      43.976  27.087  35.793  1.00  0.00     0.031 A 
ATOM     62  C   UNL A   1      45.415  28.746  34.791  1.00  0.00     0.131 A 
ATOM     63  C   UNL A   1      45.103  26.512  36.396  1.00  0.00     0.055 A 
ATOM     64  C   UNL A   1      46.539  28.133  35.343  1.00  0.00     0.041 A 
ATOM     65  F   UNL A   1      45.606  29.845  34.044  1.00  0.00    -0.206 F 
ATOM     66  C   UNL A   1      46.385  27.018  36.163  1.00  0.00     0.022 A 
BRANCH  63  67
ATOM     67  S   UNL A   1      44.859  25.150  37.567  1.00  0.00     0.124 S 
ATOM     68  O   UNL A   1      45.204  25.777  38.839  1.00  0.00    -0.237 OA
ATOM     69  O   UNL A   1      43.449  24.824  37.378  1.00  0.00    -0.237 OA
ATOM     70  O   UNL A   1      45.798  24.129  37.105  1.00  0.00    -0.744 OA
ENDBRANCH  63  67
ENDBRANCH  37  60
ENDBRANCH  11  12
ENDBRANCH   4   6
ENDBRANCH   3   4
ENDBRANCH   2   3
ENDBRANCH   1   2
BRANCH   1  71
ATOM     71  O   UNL A   1      31.268  31.063  25.667  1.00  0.00    -0.374 OA
BRANCH  71  72
ATOM     72  C   UNL A   1      32.354  30.151  25.863  1.00  0.00     0.202 C 
BRANCH  72  73
ATOM     73  C   UNL A   1      32.224  29.000  24.860  1.00  0.00     0.261 C 
BRANCH  73  74
ATOM     74  O   UNL A   1      33.531  28.443  24.651  1.00  0.00    -0.460 OA
BRANCH  74  75
ATOM     75  C   UNL A   1      33.746  27.970  23.395  1.00  0.00     0.338 C 
ATOM     76  O   UNL A   1      34.207  28.573  22.442  1.00  0.00    -0.246 OA
BRANCH  75  77
ATOM     77  C   UNL A   1      33.531  26.509  23.431  1.00  0.00     0.060 A 
ATOM     78  C   UNL A   1      32.800  25.908  22.405  1.00  0.00     0.018 A 
ATOM     79  C   UNL A   1      34.124  25.724  24.419  1.00  0.00     0.022 A 
ATOM     80  C   UNL A   1      32.672  24.518  22.367  1.00  0.00     0.027 A 
ATOM     81  C   UNL A   1      33.986  24.329  24.393  1.00  0.00    -0.017 A 
ATOM     82  C   UNL A   1      33.223  23.721  23.379  1.00  0.00     0.038 A 
ATOM     83  C   UNL A   1      34.628  23.514  25.488  1.00  0.00     0.049 C 
ATOM     84  N   UNL A   1      33.028  22.339  23.354  1.00  0.00    -0.378 N 
ATOM     85  C   UNL A   1      36.131  23.614  25.509  1.00  0.00    -0.023 C 
ATOM     86  C   UNL A   1      34.425  21.998  25.352  1.00  0.00     0.031 C 
ATOM     87  C   UNL A   1      33.114  21.659  24.637  1.00  0.00     0.114 C 
ATOM     88  H   UNL A   1      32.843  21.854  22.518  1.00  0.00     0.161 HD
ATOM     89  C   UNL A   1      36.719  22.489  25.088  1.00  0.00    -0.030 C 
ATOM     90  C   UNL A   1      35.708  21.460  24.695  1.00  0.00     0.034 C 
BRANCH  87  91
ATOM     91  C   UNL A   1      32.893  20.159  24.539  1.00  0.00    -0.022 A 
ATOM     92  C   UNL A   1      32.904  19.404  25.722  1.00  0.00     0.026 A 
ATOM     93  C   UNL A   1      32.705  19.477  23.334  1.00  0.00     0.026 A 
ATOM     94  C   UNL A   1      32.727  18.033  25.651  1.00  0.00     0.111 A 
ATOM     95  C   UNL A   1      32.523  18.102  23.367  1.00  0.00     0.111 A 
ATOM     96  N   UNL A   1      32.534  17.363  24.499  1.00  0.00    -0.265 NA
ENDBRANCH  87  91
ENDBRANCH  75  77
ENDBRANCH  74  75
ENDBRANCH  73  74
ENDBRANCH  72  73
ENDBRANCH  71  72
ENDBRANCH   1  71
TORSDOF 18
ENDMDL
