MODEL 1
REMARK VINA RESULT:     -11.0      0.000      0.000
REMARK SMILES O=C(/C=C/C(=O)OCCOCCOC(=O)c1ccc(-c2c3nc(c(-c4cc(S(=O)(=O)[O-])ccc4F)c4ccc([nH]4)c(-c4cc(S(=O)(=O)[O-])ccc4F)c4nc(c(-c5cc(S(=O)(=O)[O-])ccc5F)c5ccc2[nH]5)C=C4)C=C3)cc1)NCc1ccc(-c2cccs2)s1
REMARK SMILES IDX 9 1 8 2 7 3 5 4 6 5 4 6 3 7 2 8 1 9 79 10 80 12 81 13 82 14
REMARK SMILES IDX 90 15 83 16 84 17 85 18 86 19 89 20 87 21 88 22 10 23 11 24
REMARK SMILES IDX 12 25 13 26 14 27 15 28 16 29 17 30 78 31 18 32 77 33 19 34
REMARK SMILES IDX 20 35 21 36 71 37 22 38 76 39 70 40 72 41 23 42 75 43 69 44
REMARK SMILES IDX 68 45 24 47 56 48 36 49 55 50 37 51 40 52 54 53 73 54 38 55
REMARK SMILES IDX 39 56 53 58 74 59 41 60 25 61 26 62 34 63 27 64 33 65 35 66
REMARK SMILES IDX 32 67 28 68 29 69 30 70 31 71 57 72 58 73 66 74 59 75 65 76
REMARK SMILES IDX 67 77 64 78 60 79 61 80 62 81 63 82 42 83 43 84 51 85 44 86
REMARK SMILES IDX 50 87 52 88 49 89 45 90 46 91 47 92 48 93
REMARK H PARENT 79 11 72 46 40 57
REMARK Flexibility Score: inf
ROOT
ATOM      1  C   UNL A   1      31.824  29.688  25.222  1.00  0.00     0.202 C 
ENDROOT
BRANCH   1   2
ATOM      2  C   UNL A   1      30.583  29.800  24.333  1.00  0.00     0.261 C 
BRANCH   2   3
ATOM      3  O   UNL A   1      30.700  28.932  23.192  1.00  0.00    -0.460 OA
BRANCH   3   4
ATOM      4  C   UNL A   1      30.098  27.728  23.303  1.00  0.00     0.331 C 
ATOM      5  O   UNL A   1      28.899  27.508  23.386  1.00  0.00    -0.247 OA
BRANCH   4   6
ATOM      6  C   UNL A   1      31.066  26.617  23.221  1.00  0.00     0.099 C 
ATOM      7  C   UNL A   1      32.354  26.740  22.872  1.00  0.00     0.078 C 
BRANCH   7   8
ATOM      8  C   UNL A   1      33.276  25.581  22.814  1.00  0.00     0.244 C 
ATOM      9  O   UNL A   1      33.931  25.370  21.803  1.00  0.00    -0.270 OA
ATOM     10  N   UNL A   1      33.301  24.787  23.932  1.00  0.00    -0.348 N 
ATOM     11  H   UNL A   1      32.610  24.907  24.622  1.00  0.00     0.164 HD
BRANCH  10  12
ATOM     12  C   UNL A   1      34.319  23.780  24.118  1.00  0.00     0.163 C 
BRANCH  12  13
ATOM     13  C   UNL A   1      33.706  22.424  23.916  1.00  0.00     0.024 A 
ATOM     14  C   UNL A   1      32.619  22.079  23.134  1.00  0.00     0.018 A 
ATOM     15  S   UNL A   1      34.382  21.040  24.674  1.00  0.00    -0.138 S 
ATOM     16  C   UNL A   1      32.348  20.677  23.166  1.00  0.00     0.022 A 
ATOM     17  C   UNL A   1      33.222  19.990  23.984  1.00  0.00     0.045 A 
BRANCH  17  18
ATOM     18  C   UNL A   1      33.254  18.581  24.266  1.00  0.00     0.044 A 
ATOM     19  C   UNL A   1      33.725  17.575  23.444  1.00  0.00     0.021 A 
ATOM     20  S   UNL A   1      32.639  17.950  25.736  1.00  0.00    -0.143 S 
ATOM     21  C   UNL A   1      33.549  16.279  24.012  1.00  0.00     0.012 A 
ATOM     22  C   UNL A   1      32.950  16.339  25.250  1.00  0.00     0.065 A 
ENDBRANCH  17  18
ENDBRANCH  12  13
ENDBRANCH  10  12
ENDBRANCH   7   8
ENDBRANCH   4   6
ENDBRANCH   3   4
ENDBRANCH   2   3
ENDBRANCH   1   2
BRANCH   1  23
ATOM     23  O   UNL A   1      31.874  30.621  26.304  1.00  0.00    -0.374 OA
BRANCH  23  24
ATOM     24  C   UNL A   1      31.057  31.787  26.180  1.00  0.00     0.202 C 
BRANCH  24  25
ATOM     25  C   UNL A   1      31.754  33.123  26.460  1.00  0.00     0.261 C 
BRANCH  25  26
ATOM     26  O   UNL A   1      32.188  33.224  27.829  1.00  0.00    -0.460 OA
BRANCH  26  27
ATOM     27  C   UNL A   1      33.215  34.082  28.040  1.00  0.00     0.338 C 
ATOM     28  O   UNL A   1      33.151  35.303  28.075  1.00  0.00    -0.246 OA
BRANCH  27  29
ATOM     29  C   UNL A   1      34.433  33.335  28.415  1.00  0.00     0.060 A 
ATOM     30  C   UNL A   1      34.283  31.984  28.756  1.00  0.00     0.016 A 
ATOM     31  C   UNL A   1      35.687  33.945  28.484  1.00  0.00     0.016 A 
ATOM     32  C   UNL A   1      35.378  31.250  29.209  1.00  0.00     0.010 A 
ATOM     33  C   UNL A   1      36.784  33.209  28.948  1.00  0.00     0.010 A 
ATOM     34  C   UNL A   1      36.629  31.867  29.342  1.00  0.00    -0.014 A 
BRANCH  34  35
ATOM     35  C   UNL A   1      37.739  31.150  30.021  1.00  0.00     0.031 A 
ATOM     36  C   UNL A   1      38.040  31.474  31.461  1.00  0.00     0.074 A 
ATOM     37  C   UNL A   1      38.459  30.217  29.371  1.00  0.00     0.049 A 
ATOM     38  N   UNL A   1      38.992  31.018  32.232  1.00  0.00    -0.248 NA
ATOM     39  C   UNL A   1      37.148  32.445  32.113  1.00  0.00     0.031 C 
ATOM     40  C   UNL A   1      38.230  29.785  27.992  1.00  0.00     0.029 A 
ATOM     41  N   UNL A   1      39.534  29.469  29.782  1.00  0.00    -0.354 N 
ATOM     42  C   UNL A   1      38.827  31.659  33.456  1.00  0.00     0.074 A 
ATOM     43  C   UNL A   1      37.694  32.549  33.317  1.00  0.00     0.031 C 
ATOM     44  C   UNL A   1      39.149  28.858  27.668  1.00  0.00     0.029 A 
ATOM     45  C   UNL A   1      40.055  28.660  28.798  1.00  0.00     0.049 A 
ATOM     46  H   UNL A   1      39.900  29.509  30.695  1.00  0.00     0.167 HD
ATOM     47  C   UNL A   1      39.553  31.514  34.592  1.00  0.00     0.034 A 
ATOM     48  C   UNL A   1      41.152  27.876  28.802  1.00  0.00     0.034 A 
ATOM     49  C   UNL A   1      40.675  30.618  34.719  1.00  0.00     0.049 A 
ATOM     50  C   UNL A   1      41.991  27.794  30.057  1.00  0.00     0.074 A 
ATOM     51  C   UNL A   1      41.448  30.360  35.839  1.00  0.00     0.029 A 
ATOM     52  N   UNL A   1      41.198  29.845  33.691  1.00  0.00    -0.354 N 
ATOM     53  N   UNL A   1      41.802  28.381  31.218  1.00  0.00    -0.248 NA
ATOM     54  C   UNL A   1      43.188  26.942  30.004  1.00  0.00     0.031 C 
ATOM     55  C   UNL A   1      42.481  29.493  35.470  1.00  0.00     0.029 A 
ATOM     56  C   UNL A   1      42.306  29.143  34.140  1.00  0.00     0.049 A 
ATOM     57  H   UNL A   1      40.833  29.800  32.777  1.00  0.00     0.167 HD
ATOM     58  C   UNL A   1      42.834  27.932  32.041  1.00  0.00     0.074 A 
ATOM     59  C   UNL A   1      43.634  27.024  31.249  1.00  0.00     0.031 C 
ATOM     60  C   UNL A   1      43.094  28.238  33.338  1.00  0.00     0.034 A 
BRANCH  47  61
ATOM     61  C   UNL A   1      39.197  32.389  35.767  1.00  0.00     0.023 A 
ATOM     62  C   UNL A   1      39.643  33.718  35.872  1.00  0.00     0.031 A 
ATOM     63  C   UNL A   1      38.389  31.880  36.801  1.00  0.00     0.131 A 
ATOM     64  C   UNL A   1      39.319  34.475  37.009  1.00  0.00     0.055 A 
ATOM     65  C   UNL A   1      38.015  32.660  37.895  1.00  0.00     0.041 A 
ATOM     66  F   UNL A   1      37.954  30.611  36.763  1.00  0.00    -0.206 F 
ATOM     67  C   UNL A   1      38.488  33.962  38.009  1.00  0.00     0.022 A 
BRANCH  64  68
ATOM     68  S   UNL A   1      40.086  36.105  37.217  1.00  0.00     0.124 S 
ATOM     69  O   UNL A   1      39.270  36.682  38.283  1.00  0.00    -0.237 OA
ATOM     70  O   UNL A   1      41.458  35.766  37.575  1.00  0.00    -0.237 OA
ATOM     71  O   UNL A   1      39.920  36.732  35.907  1.00  0.00    -0.744 OA
ENDBRANCH  64  68
ENDBRANCH  47  61
BRANCH  48  72
ATOM     72  C   UNL A   1      41.569  27.135  27.574  1.00  0.00     0.023 A 
ATOM     73  C   UNL A   1      41.436  25.740  27.487  1.00  0.00     0.031 A 
ATOM     74  C   UNL A   1      42.192  27.804  26.504  1.00  0.00     0.131 A 
ATOM     75  C   UNL A   1      41.975  25.051  26.390  1.00  0.00     0.055 A 
ATOM     76  C   UNL A   1      42.672  27.120  25.385  1.00  0.00     0.041 A 
ATOM     77  F   UNL A   1      42.350  29.136  26.534  1.00  0.00    -0.206 F 
ATOM     78  C   UNL A   1      42.580  25.733  25.332  1.00  0.00     0.022 A 
BRANCH  75  79
ATOM     79  S   UNL A   1      41.980  23.237  26.421  1.00  0.00     0.124 S 
ATOM     80  O   UNL A   1      42.690  22.921  25.188  1.00  0.00    -0.237 OA
ATOM     81  O   UNL A   1      42.694  22.960  27.663  1.00  0.00    -0.237 OA
ATOM     82  O   UNL A   1      40.560  22.894  26.430  1.00  0.00    -0.744 OA
ENDBRANCH  75  79
ENDBRANCH  48  72
BRANCH  60  83
ATOM     83  C   UNL A   1      44.256  27.532  33.995  1.00  0.00     0.023 A 
ATOM     84  C   UNL A   1      44.102  26.299  34.652  1.00  0.00     0.031 A 
ATOM     85  C   UNL A   1      45.538  28.109  33.962  1.00  0.00     0.131 A 
ATOM     86  C   UNL A   1      45.202  25.708  35.293  1.00  0.00     0.055 A 
ATOM     87  C   UNL A   1      46.640  27.488  34.550  1.00  0.00     0.041 A 
ATOM     88  F   UNL A   1      45.742  29.286  33.349  1.00  0.00    -0.206 F 
ATOM     89  C   UNL A   1      46.473  26.286  35.231  1.00  0.00     0.022 A 
BRANCH  86  90
ATOM     90  S   UNL A   1      44.936  24.209  36.280  1.00  0.00     0.124 S 
ATOM     91  O   UNL A   1      46.216  23.523  36.140  1.00  0.00    -0.237 OA
ATOM     92  O   UNL A   1      44.645  24.753  37.602  1.00  0.00    -0.237 OA
ATOM     93  O   UNL A   1      43.807  23.558  35.617  1.00  0.00    -0.744 OA
ENDBRANCH  86  90
ENDBRANCH  60  83
ENDBRANCH  34  35
ENDBRANCH  27  29
ENDBRANCH  26  27
ENDBRANCH  25  26
ENDBRANCH  24  25
ENDBRANCH  23  24
ENDBRANCH   1  23
TORSDOF 21
ENDMDL
MODEL 2
REMARK VINA RESULT:     -10.8      1.623      2.104
REMARK SMILES O=C(/C=C/C(=O)OCCOCCOC(=O)c1ccc(-c2c3nc(c(-c4cc(S(=O)(=O)[O-])ccc4F)c4ccc([nH]4)c(-c4cc(S(=O)(=O)[O-])ccc4F)c4nc(c(-c5cc(S(=O)(=O)[O-])ccc5F)c5ccc2[nH]5)C=C4)C=C3)cc1)NCc1ccc(-c2cccs2)s1
REMARK SMILES IDX 9 1 8 2 7 3 5 4 6 5 4 6 3 7 2 8 1 9 79 10 80 12 81 13 82 14
REMARK SMILES IDX 90 15 83 16 84 17 85 18 86 19 89 20 87 21 88 22 10 23 11 24
REMARK SMILES IDX 12 25 13 26 14 27 15 28 16 29 17 30 78 31 18 32 77 33 19 34
REMARK SMILES IDX 20 35 21 36 71 37 22 38 76 39 70 40 72 41 23 42 75 43 69 44
REMARK SMILES IDX 68 45 24 47 56 48 36 49 55 50 37 51 40 52 54 53 73 54 38 55
REMARK SMILES IDX 39 56 53 58 74 59 41 60 25 61 26 62 34 63 27 64 33 65 35 66
REMARK SMILES IDX 32 67 28 68 29 69 30 70 31 71 57 72 58 73 66 74 59 75 65 76
REMARK SMILES IDX 67 77 64 78 60 79 61 80 62 81 63 82 42 83 43 84 51 85 44 86
REMARK SMILES IDX 50 87 52 88 49 89 45 90 46 91 47 92 48 93
REMARK H PARENT 79 11 72 46 40 57
REMARK Flexibility Score: inf
ROOT
ATOM      1  C   UNL A   1      31.850  28.955  23.809  1.00  0.00     0.202 C 
ENDROOT
BRANCH   1   2
ATOM      2  C   UNL A   1      30.576  29.128  22.979  1.00  0.00     0.261 C 
BRANCH   2   3
ATOM      3  O   UNL A   1      30.086  27.852  22.533  1.00  0.00    -0.460 OA
BRANCH   3   4
ATOM      4  C   UNL A   1      29.215  27.233  23.361  1.00  0.00     0.331 C 
ATOM      5  O   UNL A   1      28.028  27.484  23.502  1.00  0.00    -0.247 OA
BRANCH   4   6
ATOM      6  C   UNL A   1      29.834  26.092  24.062  1.00  0.00     0.099 C 
ATOM      7  C   UNL A   1      30.025  26.011  25.386  1.00  0.00     0.078 C 
BRANCH   7   8
ATOM      8  C   UNL A   1      30.650  24.831  26.029  1.00  0.00     0.244 C 
ATOM      9  O   UNL A   1      31.403  24.980  26.981  1.00  0.00    -0.270 OA
ATOM     10  N   UNL A   1      30.349  23.619  25.463  1.00  0.00    -0.348 N 
ATOM     11  H   UNL A   1      29.898  23.596  24.588  1.00  0.00     0.164 HD
BRANCH  10  12
ATOM     12  C   UNL A   1      30.678  22.377  26.122  1.00  0.00     0.163 C 
BRANCH  12  13
ATOM     13  C   UNL A   1      31.926  21.814  25.505  1.00  0.00     0.024 A 
ATOM     14  C   UNL A   1      32.053  21.059  24.355  1.00  0.00     0.018 A 
ATOM     15  S   UNL A   1      33.461  22.116  26.213  1.00  0.00    -0.138 S 
ATOM     16  C   UNL A   1      33.412  20.731  24.064  1.00  0.00     0.022 A 
ATOM     17  C   UNL A   1      34.287  21.228  25.008  1.00  0.00     0.045 A 
BRANCH  17  18
ATOM     18  C   UNL A   1      35.717  21.096  25.052  1.00  0.00     0.044 A 
ATOM     19  C   UNL A   1      36.458  19.951  24.822  1.00  0.00     0.021 A 
ATOM     20  S   UNL A   1      36.725  22.422  25.454  1.00  0.00    -0.143 S 
ATOM     21  C   UNL A   1      37.856  20.159  25.011  1.00  0.00     0.012 A 
ATOM     22  C   UNL A   1      38.136  21.456  25.377  1.00  0.00     0.065 A 
ENDBRANCH  17  18
ENDBRANCH  12  13
ENDBRANCH  10  12
ENDBRANCH   7   8
ENDBRANCH   4   6
ENDBRANCH   3   4
ENDBRANCH   2   3
ENDBRANCH   1   2
BRANCH   1  23
ATOM     23  O   UNL A   1      31.777  29.474  25.139  1.00  0.00    -0.374 OA
BRANCH  23  24
ATOM     24  C   UNL A   1      30.976  30.643  25.324  1.00  0.00     0.202 C 
BRANCH  24  25
ATOM     25  C   UNL A   1      31.455  31.616  26.408  1.00  0.00     0.261 C 
BRANCH  25  26
ATOM     26  O   UNL A   1      32.715  31.210  26.973  1.00  0.00    -0.460 OA
BRANCH  26  27
ATOM     27  C   UNL A   1      33.462  32.217  27.486  1.00  0.00     0.338 C 
ATOM     28  O   UNL A   1      33.102  33.371  27.674  1.00  0.00    -0.246 OA
BRANCH  27  29
ATOM     29  C   UNL A   1      34.754  31.694  27.974  1.00  0.00     0.060 A 
ATOM     30  C   UNL A   1      34.824  30.328  28.279  1.00  0.00     0.016 A 
ATOM     31  C   UNL A   1      35.860  32.521  28.181  1.00  0.00     0.016 A 
ATOM     32  C   UNL A   1      35.986  29.792  28.833  1.00  0.00     0.010 A 
ATOM     33  C   UNL A   1      37.023  31.983  28.746  1.00  0.00     0.010 A 
ATOM     34  C   UNL A   1      37.081  30.622  29.103  1.00  0.00    -0.014 A 
BRANCH  34  35
ATOM     35  C   UNL A   1      38.232  30.099  29.884  1.00  0.00     0.031 A 
ATOM     36  C   UNL A   1      38.435  30.587  31.294  1.00  0.00     0.074 A 
ATOM     37  C   UNL A   1      39.074  29.196  29.351  1.00  0.00     0.049 A 
ATOM     38  N   UNL A   1      39.397  30.313  32.136  1.00  0.00    -0.248 NA
ATOM     39  C   UNL A   1      37.417  31.510  31.821  1.00  0.00     0.031 C 
ATOM     40  C   UNL A   1      38.952  28.615  28.013  1.00  0.00     0.029 A 
ATOM     41  N   UNL A   1      40.205  28.613  29.867  1.00  0.00    -0.354 N 
ATOM     42  C   UNL A   1      39.112  31.042  33.287  1.00  0.00     0.074 A 
ATOM     43  C   UNL A   1      37.898  31.785  33.025  1.00  0.00     0.031 C 
ATOM     44  C   UNL A   1      39.978  27.770  27.810  1.00  0.00     0.029 A 
ATOM     45  C   UNL A   1      40.851  27.779  28.983  1.00  0.00     0.049 A 
ATOM     46  H   UNL A   1      40.526  28.777  30.782  1.00  0.00     0.167 HD
ATOM     47  C   UNL A   1      39.802  31.085  34.453  1.00  0.00     0.034 A 
ATOM     48  C   UNL A   1      42.025  27.124  29.097  1.00  0.00     0.034 A 
ATOM     49  C   UNL A   1      41.007  30.334  34.703  1.00  0.00     0.049 A 
ATOM     50  C   UNL A   1      42.814  27.253  30.381  1.00  0.00     0.074 A 
ATOM     51  C   UNL A   1      41.755  30.268  35.867  1.00  0.00     0.029 A 
ATOM     52  N   UNL A   1      41.652  29.531  33.772  1.00  0.00    -0.354 N 
ATOM     53  N   UNL A   1      42.514  27.920  31.473  1.00  0.00    -0.248 NA
ATOM     54  C   UNL A   1      44.096  26.537  30.449  1.00  0.00     0.031 C 
ATOM     55  C   UNL A   1      42.889  29.490  35.616  1.00  0.00     0.029 A 
ATOM     56  C   UNL A   1      42.810  29.002  34.322  1.00  0.00     0.049 A 
ATOM     57  H   UNL A   1      41.334  29.362  32.855  1.00  0.00     0.167 HD
ATOM     58  C   UNL A   1      43.553  27.667  32.368  1.00  0.00     0.074 A 
ATOM     59  C   UNL A   1      44.478  26.783  31.693  1.00  0.00     0.031 C 
ATOM     60  C   UNL A   1      43.723  28.119  33.637  1.00  0.00     0.034 A 
BRANCH  47  61
ATOM     61  C   UNL A   1      39.305  32.020  35.527  1.00  0.00     0.023 A 
ATOM     62  C   UNL A   1      39.722  33.360  35.603  1.00  0.00     0.031 A 
ATOM     63  C   UNL A   1      38.388  31.558  36.489  1.00  0.00     0.131 A 
ATOM     64  C   UNL A   1      39.262  34.176  36.649  1.00  0.00     0.055 A 
ATOM     65  C   UNL A   1      37.883  32.394  37.486  1.00  0.00     0.041 A 
ATOM     66  F   UNL A   1      37.973  30.282  36.478  1.00  0.00    -0.206 F 
ATOM     67  C   UNL A   1      38.327  33.708  37.576  1.00  0.00     0.022 A 
BRANCH  64  68
ATOM     68  S   UNL A   1      39.985  35.828  36.846  1.00  0.00     0.124 S 
ATOM     69  O   UNL A   1      39.653  36.450  35.567  1.00  0.00    -0.237 OA
ATOM     70  O   UNL A   1      39.278  36.346  38.011  1.00  0.00    -0.237 OA
ATOM     71  O   UNL A   1      41.407  35.558  37.048  1.00  0.00    -0.744 OA
ENDBRANCH  64  68
ENDBRANCH  47  61
BRANCH  48  72
ATOM     72  C   UNL A   1      42.570  26.324  27.961  1.00  0.00     0.023 A 
ATOM     73  C   UNL A   1      42.276  24.957  27.828  1.00  0.00     0.031 A 
ATOM     74  C   UNL A   1      43.469  26.894  27.041  1.00  0.00     0.131 A 
ATOM     75  C   UNL A   1      42.922  24.193  26.844  1.00  0.00     0.055 A 
ATOM     76  C   UNL A   1      44.062  26.143  26.025  1.00  0.00     0.041 A 
ATOM     77  F   UNL A   1      43.791  28.195  27.122  1.00  0.00    -0.206 F 
ATOM     78  C   UNL A   1      43.803  24.780  25.933  1.00  0.00     0.022 A 
BRANCH  75  79
ATOM     79  S   UNL A   1      42.684  22.394  26.848  1.00  0.00     0.124 S 
ATOM     80  O   UNL A   1      43.866  21.938  26.126  1.00  0.00    -0.237 OA
ATOM     81  O   UNL A   1      42.648  22.098  28.275  1.00  0.00    -0.237 OA
ATOM     82  O   UNL A   1      41.416  22.218  26.144  1.00  0.00    -0.744 OA
ENDBRANCH  75  79
ENDBRANCH  48  72
BRANCH  60  83
ATOM     83  C   UNL A   1      44.925  27.610  34.396  1.00  0.00     0.023 A 
ATOM     84  C   UNL A   1      44.881  26.425  35.151  1.00  0.00     0.031 A 
ATOM     85  C   UNL A   1      46.134  28.328  34.360  1.00  0.00     0.131 A 
ATOM     86  C   UNL A   1      46.009  26.021  35.882  1.00  0.00     0.055 A 
ATOM     87  C   UNL A   1      47.270  27.890  35.041  1.00  0.00     0.041 A 
ATOM     88  F   UNL A   1      46.232  29.467  33.655  1.00  0.00    -0.206 F 
ATOM     89  C   UNL A   1      47.208  26.737  35.818  1.00  0.00     0.022 A 
BRANCH  86  90
ATOM     90  S   UNL A   1      45.868  24.588  36.984  1.00  0.00     0.124 S 
ATOM     91  O   UNL A   1      46.599  25.039  38.164  1.00  0.00    -0.237 OA
ATOM     92  O   UNL A   1      44.424  24.455  37.142  1.00  0.00    -0.237 OA
ATOM     93  O   UNL A   1      46.510  23.511  36.231  1.00  0.00    -0.744 OA
ENDBRANCH  86  90
ENDBRANCH  60  83
ENDBRANCH  34  35
ENDBRANCH  27  29
ENDBRANCH  26  27
ENDBRANCH  25  26
ENDBRANCH  24  25
ENDBRANCH  23  24
ENDBRANCH   1  23
TORSDOF 21
ENDMDL
MODEL 3
REMARK VINA RESULT:     -10.6      2.123      7.892
REMARK SMILES O=C(/C=C/C(=O)OCCOCCOC(=O)c1ccc(-c2c3nc(c(-c4cc(S(=O)(=O)[O-])ccc4F)c4ccc([nH]4)c(-c4cc(S(=O)(=O)[O-])ccc4F)c4nc(c(-c5cc(S(=O)(=O)[O-])ccc5F)c5ccc2[nH]5)C=C4)C=C3)cc1)NCc1ccc(-c2cccs2)s1
REMARK SMILES IDX 9 1 8 2 7 3 5 4 6 5 4 6 3 7 2 8 1 9 79 10 80 12 81 13 82 14
REMARK SMILES IDX 90 15 83 16 84 17 85 18 86 19 89 20 87 21 88 22 10 23 11 24
REMARK SMILES IDX 12 25 13 26 14 27 15 28 16 29 17 30 78 31 18 32 77 33 19 34
REMARK SMILES IDX 20 35 21 36 71 37 22 38 76 39 70 40 72 41 23 42 75 43 69 44
REMARK SMILES IDX 68 45 24 47 56 48 36 49 55 50 37 51 40 52 54 53 73 54 38 55
REMARK SMILES IDX 39 56 53 58 74 59 41 60 25 61 26 62 34 63 27 64 33 65 35 66
REMARK SMILES IDX 32 67 28 68 29 69 30 70 31 71 57 72 58 73 66 74 59 75 65 76
REMARK SMILES IDX 67 77 64 78 60 79 61 80 62 81 63 82 42 83 43 84 51 85 44 86
REMARK SMILES IDX 50 87 52 88 49 89 45 90 46 91 47 92 48 93
REMARK H PARENT 79 11 72 46 40 57
REMARK Flexibility Score: inf
ROOT
ATOM      1  C   UNL A   1      31.993  29.065  22.897  1.00  0.00     0.202 C 
ENDROOT
BRANCH   1   2
ATOM      2  C   UNL A   1      30.497  29.134  22.581  1.00  0.00     0.261 C 
BRANCH   2   3
ATOM      3  O   UNL A   1      29.956  27.812  22.411  1.00  0.00    -0.460 OA
BRANCH   3   4
ATOM      4  C   UNL A   1      28.965  27.466  23.262  1.00  0.00     0.331 C 
ATOM      5  O   UNL A   1      27.840  27.938  23.314  1.00  0.00    -0.247 OA
BRANCH   4   6
ATOM      6  C   UNL A   1      29.349  26.333  24.125  1.00  0.00     0.099 C 
ATOM      7  C   UNL A   1      30.533  26.196  24.739  1.00  0.00     0.078 C 
BRANCH   7   8
ATOM      8  C   UNL A   1      30.853  25.032  25.599  1.00  0.00     0.244 C 
ATOM      9  O   UNL A   1      31.217  25.207  26.753  1.00  0.00    -0.270 OA
ATOM     10  N   UNL A   1      30.743  23.804  25.000  1.00  0.00    -0.348 N 
ATOM     11  H   UNL A   1      30.636  23.754  24.022  1.00  0.00     0.164 HD
BRANCH  10  12
ATOM     12  C   UNL A   1      30.780  22.584  25.770  1.00  0.00     0.163 C 
BRANCH  12  13
ATOM     13  C   UNL A   1      32.019  21.816  25.409  1.00  0.00     0.024 A 
ATOM     14  C   UNL A   1      32.121  20.619  24.727  1.00  0.00     0.018 A 
ATOM     15  S   UNL A   1      33.571  22.430  25.811  1.00  0.00    -0.138 S 
ATOM     16  C   UNL A   1      33.478  20.211  24.541  1.00  0.00     0.022 A 
ATOM     17  C   UNL A   1      34.375  21.098  25.101  1.00  0.00     0.045 A 
BRANCH  17  18
ATOM     18  C   UNL A   1      35.810  21.019  25.117  1.00  0.00     0.044 A 
ATOM     19  C   UNL A   1      36.589  19.911  24.840  1.00  0.00     0.021 A 
ATOM     20  S   UNL A   1      36.774  22.369  25.545  1.00  0.00    -0.143 S 
ATOM     21  C   UNL A   1      37.981  20.166  25.013  1.00  0.00     0.012 A 
ATOM     22  C   UNL A   1      38.219  21.461  25.415  1.00  0.00     0.065 A 
ENDBRANCH  17  18
ENDBRANCH  12  13
ENDBRANCH  10  12
ENDBRANCH   7   8
ENDBRANCH   4   6
ENDBRANCH   3   4
ENDBRANCH   2   3
ENDBRANCH   1   2
BRANCH   1  23
ATOM     23  O   UNL A   1      32.317  29.122  24.288  1.00  0.00    -0.374 OA
BRANCH  23  24
ATOM     24  C   UNL A   1      31.370  29.772  25.137  1.00  0.00     0.202 C 
BRANCH  24  25
ATOM     25  C   UNL A   1      31.880  30.165  26.529  1.00  0.00     0.261 C 
BRANCH  25  26
ATOM     26  O   UNL A   1      33.306  30.362  26.539  1.00  0.00    -0.460 OA
BRANCH  26  27
ATOM     27  C   UNL A   1      33.728  31.437  27.248  1.00  0.00     0.338 C 
ATOM     28  O   UNL A   1      33.086  32.450  27.492  1.00  0.00    -0.246 OA
BRANCH  27  29
ATOM     29  C   UNL A   1      35.040  31.155  27.865  1.00  0.00     0.060 A 
ATOM     30  C   UNL A   1      35.244  29.873  28.391  1.00  0.00     0.016 A 
ATOM     31  C   UNL A   1      36.034  32.130  27.976  1.00  0.00     0.016 A 
ATOM     32  C   UNL A   1      36.426  29.574  29.071  1.00  0.00     0.010 A 
ATOM     33  C   UNL A   1      37.215  31.831  28.666  1.00  0.00     0.010 A 
ATOM     34  C   UNL A   1      37.404  30.561  29.243  1.00  0.00    -0.014 A 
BRANCH  34  35
ATOM     35  C   UNL A   1      38.559  30.308  30.142  1.00  0.00     0.031 A 
ATOM     36  C   UNL A   1      39.657  29.389  29.674  1.00  0.00     0.074 A 
ATOM     37  C   UNL A   1      38.636  30.896  31.350  1.00  0.00     0.049 A 
ATOM     38  N   UNL A   1      40.725  28.982  30.309  1.00  0.00    -0.248 NA
ATOM     39  C   UNL A   1      39.529  28.859  28.307  1.00  0.00     0.031 C 
ATOM     40  C   UNL A   1      37.658  31.840  31.892  1.00  0.00     0.029 A 
ATOM     41  N   UNL A   1      39.576  30.780  32.344  1.00  0.00    -0.354 N 
ATOM     42  C   UNL A   1      41.388  28.132  29.428  1.00  0.00     0.074 A 
ATOM     43  C   UNL A   1      40.591  28.070  28.222  1.00  0.00     0.031 C 
ATOM     44  C   UNL A   1      38.044  32.205  33.128  1.00  0.00     0.029 A 
ATOM     45  C   UNL A   1      39.270  31.492  33.481  1.00  0.00     0.049 A 
ATOM     46  H   UNL A   1      40.392  30.237  32.253  1.00  0.00     0.167 HD
ATOM     47  C   UNL A   1      42.556  27.469  29.611  1.00  0.00     0.034 A 
ATOM     48  C   UNL A   1      39.893  31.538  34.677  1.00  0.00     0.034 A 
ATOM     49  C   UNL A   1      43.344  27.546  30.816  1.00  0.00     0.049 A 
ATOM     50  C   UNL A   1      41.151  30.725  34.881  1.00  0.00     0.074 A 
ATOM     51  C   UNL A   1      44.566  26.952  31.085  1.00  0.00     0.029 A 
ATOM     52  N   UNL A   1      42.984  28.244  31.960  1.00  0.00    -0.354 N 
ATOM     53  N   UNL A   1      41.784  29.953  34.026  1.00  0.00    -0.248 NA
ATOM     54  C   UNL A   1      41.780  30.792  36.207  1.00  0.00     0.031 C 
ATOM     55  C   UNL A   1      44.906  27.228  32.413  1.00  0.00     0.029 A 
ATOM     56  C   UNL A   1      43.938  28.062  32.949  1.00  0.00     0.049 A 
ATOM     57  H   UNL A   1      42.170  28.791  32.055  1.00  0.00     0.167 HD
ATOM     58  C   UNL A   1      42.907  29.479  34.704  1.00  0.00     0.074 A 
ATOM     59  C   UNL A   1      42.868  30.058  36.029  1.00  0.00     0.031 C 
ATOM     60  C   UNL A   1      43.887  28.647  34.267  1.00  0.00     0.034 A 
BRANCH  47  61
ATOM     61  C   UNL A   1      43.021  26.552  28.508  1.00  0.00     0.023 A 
ATOM     62  C   UNL A   1      44.115  26.869  27.685  1.00  0.00     0.031 A 
ATOM     63  C   UNL A   1      42.356  25.333  28.282  1.00  0.00     0.131 A 
ATOM     64  C   UNL A   1      44.480  26.000  26.643  1.00  0.00     0.055 A 
ATOM     65  C   UNL A   1      42.765  24.443  27.289  1.00  0.00     0.041 A 
ATOM     66  F   UNL A   1      41.291  24.990  29.024  1.00  0.00    -0.206 F 
ATOM     67  C   UNL A   1      43.827  24.779  26.455  1.00  0.00     0.022 A 
BRANCH  64  68
ATOM     68  S   UNL A   1      45.751  26.538  25.466  1.00  0.00     0.124 S 
ATOM     69  O   UNL A   1      45.858  25.371  24.594  1.00  0.00    -0.237 OA
ATOM     70  O   UNL A   1      45.150  27.726  24.872  1.00  0.00    -0.237 OA
ATOM     71  O   UNL A   1      46.918  26.784  26.311  1.00  0.00    -0.744 OA
ENDBRANCH  64  68
ENDBRANCH  47  61
BRANCH  48  72
ATOM     72  C   UNL A   1      39.327  32.337  35.805  1.00  0.00     0.023 A 
ATOM     73  C   UNL A   1      39.698  33.677  36.003  1.00  0.00     0.031 A 
ATOM     74  C   UNL A   1      38.478  31.743  36.755  1.00  0.00     0.131 A 
ATOM     75  C   UNL A   1      39.275  34.359  37.154  1.00  0.00     0.055 A 
ATOM     76  C   UNL A   1      38.009  32.445  37.868  1.00  0.00     0.041 A 
ATOM     77  F   UNL A   1      38.094  30.464  36.620  1.00  0.00    -0.206 F 
ATOM     78  C   UNL A   1      38.423  33.756  38.082  1.00  0.00     0.022 A 
BRANCH  75  79
ATOM     79  S   UNL A   1      39.954  36.009  37.484  1.00  0.00     0.124 S 
ATOM     80  O   UNL A   1      41.334  35.696  37.835  1.00  0.00    -0.237 OA
ATOM     81  O   UNL A   1      39.751  36.679  36.204  1.00  0.00    -0.237 OA
ATOM     82  O   UNL A   1      39.126  36.503  38.583  1.00  0.00    -0.744 OA
ENDBRANCH  75  79
ENDBRANCH  48  72
BRANCH  60  83
ATOM     83  C   UNL A   1      45.028  28.367  35.215  1.00  0.00     0.023 A 
ATOM     84  C   UNL A   1      45.017  27.265  36.088  1.00  0.00     0.031 A 
ATOM     85  C   UNL A   1      46.144  29.223  35.244  1.00  0.00     0.131 A 
ATOM     86  C   UNL A   1      46.078  27.076  36.988  1.00  0.00     0.055 A 
ATOM     87  C   UNL A   1      47.223  28.997  36.100  1.00  0.00     0.041 A 
ATOM     88  F   UNL A   1      46.206  30.291  34.433  1.00  0.00    -0.206 F 
ATOM     89  C   UNL A   1      47.188  27.926  36.987  1.00  0.00     0.022 A 
BRANCH  86  90
ATOM     90  S   UNL A   1      45.953  25.751  38.219  1.00  0.00     0.124 S 
ATOM     91  O   UNL A   1      46.558  24.625  37.514  1.00  0.00    -0.237 OA
ATOM     92  O   UNL A   1      46.720  26.289  39.337  1.00  0.00    -0.237 OA
ATOM     93  O   UNL A   1      44.515  25.634  38.454  1.00  0.00    -0.744 OA
ENDBRANCH  86  90
ENDBRANCH  60  83
ENDBRANCH  34  35
ENDBRANCH  27  29
ENDBRANCH  26  27
ENDBRANCH  25  26
ENDBRANCH  24  25
ENDBRANCH  23  24
ENDBRANCH   1  23
TORSDOF 21
ENDMDL
