MODEL 1
REMARK VINA RESULT:     -10.8      0.000      0.000
REMARK SMILES COc1ccc(Cn2c(SCCC(=O)OCCOCCOC(=O)c3ccc(-c4c5nc(c(-c6cc(S(=O)(=O)[O-])ccc6F)c6ccc([nH]6)c(-c6cc(S(=O)(=O)[O-])ccc6F)c6nc(c(-c7cc(S(=O)(=O)[O-])ccc7F)c7ccc4[nH]7)C=C6)C=C5)cc3)nc3ccc(Cl)cc3c2=O)cc1
REMARK SMILES IDX 16 1 15 2 13 3 14 4 12 5 11 6 10 7 9 8 8 9 95 10 87 11 94 12
REMARK SMILES IDX 96 13 88 14 93 15 89 16 91 17 90 18 92 19 7 20 6 21 3 22
REMARK SMILES IDX 4 23 98 24 5 25 97 26 2 27 1 28 17 29 18 30 19 31 20 32
REMARK SMILES IDX 21 33 22 34 23 35 24 36 25 37 86 38 26 39 85 40 27 41 28 42
REMARK SMILES IDX 29 43 79 44 30 45 84 46 78 47 80 48 31 49 83 50 77 51 76 52
REMARK SMILES IDX 32 54 64 55 44 56 63 57 45 58 48 59 62 60 81 61 46 62 47 63
REMARK SMILES IDX 61 65 82 66 49 67 33 68 34 69 42 70 35 71 41 72 43 73 40 74
REMARK SMILES IDX 36 75 37 76 38 77 39 78 65 79 66 80 74 81 67 82 73 83 75 84
REMARK SMILES IDX 72 85 68 86 69 87 70 88 71 89 50 90 51 91 59 92 52 93 58 94
REMARK SMILES IDX 60 95 57 96 53 97 54 98 55 99 56 100
REMARK H PARENT 80 53 48 64
REMARK Flexibility Score: inf
ROOT
ATOM      1  C   UNL A   1      32.851  26.820  23.176  1.00  0.00     0.261 C 
ENDROOT
BRANCH   1   2
ATOM      2  O   UNL A   1      32.463  25.616  22.476  1.00  0.00    -0.463 OA
BRANCH   2   3
ATOM      3  C   UNL A   1      32.068  24.566  23.234  1.00  0.00     0.306 C 
ATOM      4  O   UNL A   1      30.943  24.077  23.216  1.00  0.00    -0.252 OA
BRANCH   3   5
ATOM      5  C   UNL A   1      33.111  24.071  24.216  1.00  0.00     0.134 C 
BRANCH   5   6
ATOM      6  C   UNL A   1      32.719  23.385  25.512  1.00  0.00     0.090 C 
BRANCH   6   7
ATOM      7  S   UNL A   1      34.050  23.149  26.650  1.00  0.00    -0.087 SA
BRANCH   7   8
ATOM      8  C   UNL A   1      35.548  22.686  25.874  1.00  0.00     0.171 A 
ATOM      9  N   UNL A   1      35.863  21.428  25.361  1.00  0.00    -0.283 N 
ATOM     10  C   UNL A   1      37.217  21.074  25.304  1.00  0.00     0.262 A 
ATOM     11  N   UNL A   1      36.419  23.622  26.080  1.00  0.00    -0.224 NA
ATOM     12  C   UNL A   1      38.189  21.997  25.893  1.00  0.00     0.067 A 
ATOM     13  O   UNL A   1      37.674  20.085  24.736  1.00  0.00    -0.269 OA
ATOM     14  C   UNL A   1      37.769  23.300  26.097  1.00  0.00     0.079 A 
ATOM     15  C   UNL A   1      39.473  21.587  26.248  1.00  0.00     0.036 A 
ATOM     16  C   UNL A   1      38.673  24.242  26.587  1.00  0.00     0.031 A 
ATOM     17  C   UNL A   1      40.337  22.510  26.825  1.00  0.00     0.042 A 
ATOM     18  C   UNL A   1      39.956  23.844  26.966  1.00  0.00     0.023 A 
ATOM     19  Cl  UNL A   1      41.852  21.980  27.436  1.00  0.00    -0.084 Cl
BRANCH   9  20
ATOM     20  C   UNL A   1      35.033  20.742  24.366  1.00  0.00     0.163 C 
BRANCH  20  21
ATOM     21  C   UNL A   1      34.315  19.437  24.685  1.00  0.00    -0.028 A 
ATOM     22  C   UNL A   1      33.053  17.029  25.524  1.00  0.00     0.118 A 
ATOM     23  C   UNL A   1      32.519  18.267  25.867  1.00  0.00     0.047 A 
ATOM     24  C   UNL A   1      34.229  16.992  24.781  1.00  0.00     0.047 A 
ATOM     25  C   UNL A   1      33.151  19.449  25.471  1.00  0.00     0.009 A 
ATOM     26  C   UNL A   1      34.844  18.181  24.359  1.00  0.00     0.009 A 
BRANCH  22  27
ATOM     27  O   UNL A   1      32.346  15.950  25.974  1.00  0.00    -0.497 OA
ATOM     28  C   UNL A   1      32.692  14.681  25.435  1.00  0.00     0.278 C 
ENDBRANCH  22  27
ENDBRANCH  20  21
ENDBRANCH   9  20
ENDBRANCH   7   8
ENDBRANCH   6   7
ENDBRANCH   5   6
ENDBRANCH   3   5
ENDBRANCH   2   3
ENDBRANCH   1   2
BRANCH   1  29
ATOM     29  C   UNL A   1      31.866  27.967  22.946  1.00  0.00     0.202 C 
BRANCH  29  30
ATOM     30  O   UNL A   1      31.579  28.689  24.147  1.00  0.00    -0.374 OA
BRANCH  30  31
ATOM     31  C   UNL A   1      32.699  29.325  24.763  1.00  0.00     0.202 C 
BRANCH  31  32
ATOM     32  C   UNL A   1      32.341  30.148  26.011  1.00  0.00     0.261 C 
BRANCH  32  33
ATOM     33  O   UNL A   1      33.365  30.048  27.018  1.00  0.00    -0.460 OA
BRANCH  33  34
ATOM     34  C   UNL A   1      33.934  31.216  27.396  1.00  0.00     0.338 C 
ATOM     35  O   UNL A   1      33.396  32.317  27.431  1.00  0.00    -0.246 OA
BRANCH  34  36
ATOM     36  C   UNL A   1      35.282  30.960  27.935  1.00  0.00     0.060 A 
ATOM     37  C   UNL A   1      35.645  29.636  28.201  1.00  0.00     0.016 A 
ATOM     38  C   UNL A   1      36.162  31.999  28.241  1.00  0.00     0.016 A 
ATOM     39  C   UNL A   1      36.871  29.352  28.811  1.00  0.00     0.010 A 
ATOM     40  C   UNL A   1      37.402  31.707  28.830  1.00  0.00     0.010 A 
ATOM     41  C   UNL A   1      37.756  30.384  29.160  1.00  0.00    -0.014 A 
BRANCH  41  42
ATOM     42  C   UNL A   1      38.956  30.089  30.003  1.00  0.00     0.031 A 
ATOM     43  C   UNL A   1      39.041  30.666  31.399  1.00  0.00     0.074 A 
ATOM     44  C   UNL A   1      39.944  29.277  29.572  1.00  0.00     0.049 A 
ATOM     45  N   UNL A   1      39.969  30.510  32.312  1.00  0.00    -0.248 NA
ATOM     46  C   UNL A   1      37.938  31.543  31.814  1.00  0.00     0.031 C 
ATOM     47  C   UNL A   1      39.999  28.633  28.260  1.00  0.00     0.029 A 
ATOM     48  N   UNL A   1      41.093  28.850  30.197  1.00  0.00    -0.354 N 
ATOM     49  C   UNL A   1      39.559  31.269  33.404  1.00  0.00     0.074 A 
ATOM     50  C   UNL A   1      38.345  31.949  33.005  1.00  0.00     0.031 C 
ATOM     51  C   UNL A   1      41.116  27.889  28.182  1.00  0.00     0.029 A 
ATOM     52  C   UNL A   1      41.874  28.018  29.426  1.00  0.00     0.049 A 
ATOM     53  H   UNL A   1      41.336  29.116  31.114  1.00  0.00     0.167 HD
ATOM     54  C   UNL A   1      40.109  31.366  34.641  1.00  0.00     0.034 A 
ATOM     55  C   UNL A   1      43.061  27.428  29.686  1.00  0.00     0.034 A 
ATOM     56  C   UNL A   1      41.311  30.683  35.047  1.00  0.00     0.049 A 
ATOM     57  C   UNL A   1      43.701  27.608  31.044  1.00  0.00     0.074 A 
ATOM     58  C   UNL A   1      41.926  30.684  36.288  1.00  0.00     0.029 A 
ATOM     59  N   UNL A   1      42.090  29.883  34.222  1.00  0.00    -0.354 N 
ATOM     60  N   UNL A   1      43.268  28.286  32.082  1.00  0.00    -0.248 NA
ATOM     61  C   UNL A   1      44.981  26.920  31.274  1.00  0.00     0.031 C 
ATOM     62  C   UNL A   1      43.111  29.945  36.193  1.00  0.00     0.029 A 
ATOM     63  C   UNL A   1      43.194  29.413  34.917  1.00  0.00     0.049 A 
ATOM     64  H   UNL A   1      41.887  29.678  33.280  1.00  0.00     0.167 HD
ATOM     65  C   UNL A   1      44.198  28.067  33.097  1.00  0.00     0.074 A 
ATOM     66  C   UNL A   1      45.212  27.192  32.551  1.00  0.00     0.031 C 
ATOM     67  C   UNL A   1      44.204  28.536  34.371  1.00  0.00     0.034 A 
BRANCH  54  68
ATOM     68  C   UNL A   1      39.413  32.269  35.635  1.00  0.00     0.023 A 
ATOM     69  C   UNL A   1      39.770  33.622  35.772  1.00  0.00     0.031 A 
ATOM     70  C   UNL A   1      38.419  31.761  36.488  1.00  0.00     0.131 A 
ATOM     71  C   UNL A   1      39.210  34.393  36.802  1.00  0.00     0.055 A 
ATOM     72  C   UNL A   1      37.798  32.559  37.451  1.00  0.00     0.041 A 
ATOM     73  F   UNL A   1      38.047  30.474  36.415  1.00  0.00    -0.206 F 
ATOM     74  C   UNL A   1      38.208  33.878  37.626  1.00  0.00     0.022 A 
BRANCH  71  75
ATOM     75  S   UNL A   1      39.935  36.018  37.156  1.00  0.00     0.124 S 
ATOM     76  O   UNL A   1      41.291  35.652  37.563  1.00  0.00    -0.237 OA
ATOM     77  O   UNL A   1      39.815  36.703  35.875  1.00  0.00    -0.237 OA
ATOM     78  O   UNL A   1      39.091  36.543  38.228  1.00  0.00    -0.744 OA
ENDBRANCH  71  75
ENDBRANCH  54  68
BRANCH  55  79
ATOM     79  C   UNL A   1      43.751  26.617  28.637  1.00  0.00     0.023 A 
ATOM     80  C   UNL A   1      44.801  27.152  27.871  1.00  0.00     0.031 A 
ATOM     81  C   UNL A   1      43.315  25.315  28.335  1.00  0.00     0.131 A 
ATOM     82  C   UNL A   1      45.338  26.411  26.805  1.00  0.00     0.055 A 
ATOM     83  C   UNL A   1      43.888  24.563  27.308  1.00  0.00     0.041 A 
ATOM     84  F   UNL A   1      42.319  24.751  29.039  1.00  0.00    -0.206 F 
ATOM     85  C   UNL A   1      44.897  25.117  26.526  1.00  0.00     0.022 A 
BRANCH  82  86
ATOM     86  S   UNL A   1      46.566  27.201  25.726  1.00  0.00     0.124 S 
ATOM     87  O   UNL A   1      46.013  26.935  24.403  1.00  0.00    -0.237 OA
ATOM     88  O   UNL A   1      46.518  28.588  26.177  1.00  0.00    -0.237 OA
ATOM     89  O   UNL A   1      47.803  26.488  26.040  1.00  0.00    -0.744 OA
ENDBRANCH  82  86
ENDBRANCH  55  79
BRANCH  67  90
ATOM     90  C   UNL A   1      45.305  28.061  35.290  1.00  0.00     0.023 A 
ATOM     91  C   UNL A   1      45.213  26.858  36.011  1.00  0.00     0.031 A 
ATOM     92  C   UNL A   1      46.478  28.827  35.434  1.00  0.00     0.131 A 
ATOM     93  C   UNL A   1      46.251  26.479  36.878  1.00  0.00     0.055 A 
ATOM     94  C   UNL A   1      47.533  28.415  36.251  1.00  0.00     0.041 A 
ATOM     95  F   UNL A   1      46.623  29.986  34.772  1.00  0.00    -0.206 F 
ATOM     96  C   UNL A   1      47.418  27.241  36.988  1.00  0.00     0.022 A 
BRANCH  93  97
ATOM     97  S   UNL A   1      46.025  25.017  37.928  1.00  0.00     0.124 S 
ATOM     98  O   UNL A   1      46.199  23.927  36.973  1.00  0.00    -0.237 OA
ATOM     99  O   UNL A   1      47.088  25.175  38.916  1.00  0.00    -0.237 OA
ATOM    100  O   UNL A   1      44.669  25.174  38.448  1.00  0.00    -0.744 OA
ENDBRANCH  93  97
ENDBRANCH  67  90
ENDBRANCH  41  42
ENDBRANCH  34  36
ENDBRANCH  33  34
ENDBRANCH  32  33
ENDBRANCH  31  32
ENDBRANCH  30  31
ENDBRANCH  29  30
ENDBRANCH   1  29
TORSDOF 23
ENDMDL
MODEL 2
REMARK VINA RESULT:     -10.4      2.061      7.459
REMARK SMILES COc1ccc(Cn2c(SCCC(=O)OCCOCCOC(=O)c3ccc(-c4c5nc(c(-c6cc(S(=O)(=O)[O-])ccc6F)c6ccc([nH]6)c(-c6cc(S(=O)(=O)[O-])ccc6F)c6nc(c(-c7cc(S(=O)(=O)[O-])ccc7F)c7ccc4[nH]7)C=C6)C=C5)cc3)nc3ccc(Cl)cc3c2=O)cc1
REMARK SMILES IDX 16 1 15 2 13 3 14 4 12 5 11 6 10 7 9 8 8 9 95 10 87 11 94 12
REMARK SMILES IDX 96 13 88 14 93 15 89 16 91 17 90 18 92 19 7 20 6 21 3 22
REMARK SMILES IDX 4 23 98 24 5 25 97 26 2 27 1 28 17 29 18 30 19 31 20 32
REMARK SMILES IDX 21 33 22 34 23 35 24 36 25 37 86 38 26 39 85 40 27 41 28 42
REMARK SMILES IDX 29 43 79 44 30 45 84 46 78 47 80 48 31 49 83 50 77 51 76 52
REMARK SMILES IDX 32 54 64 55 44 56 63 57 45 58 48 59 62 60 81 61 46 62 47 63
REMARK SMILES IDX 61 65 82 66 49 67 33 68 34 69 42 70 35 71 41 72 43 73 40 74
REMARK SMILES IDX 36 75 37 76 38 77 39 78 65 79 66 80 74 81 67 82 73 83 75 84
REMARK SMILES IDX 72 85 68 86 69 87 70 88 71 89 50 90 51 91 59 92 52 93 58 94
REMARK SMILES IDX 60 95 57 96 53 97 54 98 55 99 56 100
REMARK H PARENT 80 53 48 64
REMARK Flexibility Score: inf
ROOT
ATOM      1  C   UNL A   1      31.813  26.901  23.274  1.00  0.00     0.261 C 
ENDROOT
BRANCH   1   2
ATOM      2  O   UNL A   1      31.786  25.627  22.591  1.00  0.00    -0.463 OA
BRANCH   2   3
ATOM      3  C   UNL A   1      31.465  24.541  23.332  1.00  0.00     0.306 C 
ATOM      4  O   UNL A   1      30.435  23.887  23.200  1.00  0.00    -0.252 OA
BRANCH   3   5
ATOM      5  C   UNL A   1      32.446  24.224  24.442  1.00  0.00     0.134 C 
BRANCH   5   6
ATOM      6  C   UNL A   1      31.974  23.809  25.824  1.00  0.00     0.090 C 
BRANCH   6   7
ATOM      7  S   UNL A   1      33.206  23.019  26.814  1.00  0.00    -0.087 SA
BRANCH   7   8
ATOM      8  C   UNL A   1      34.654  22.610  25.920  1.00  0.00     0.171 A 
ATOM      9  N   UNL A   1      34.980  21.360  25.395  1.00  0.00    -0.283 N 
ATOM     10  C   UNL A   1      36.338  21.063  25.228  1.00  0.00     0.262 A 
ATOM     11  N   UNL A   1      35.497  23.585  26.043  1.00  0.00    -0.224 NA
ATOM     12  C   UNL A   1      37.315  22.035  25.725  1.00  0.00     0.067 A 
ATOM     13  O   UNL A   1      36.789  20.088  24.634  1.00  0.00    -0.269 OA
ATOM     14  C   UNL A   1      36.856  23.322  25.950  1.00  0.00     0.079 A 
ATOM     15  C   UNL A   1      38.641  21.685  25.974  1.00  0.00     0.036 A 
ATOM     16  C   UNL A   1      37.756  24.308  26.354  1.00  0.00     0.031 A 
ATOM     17  C   UNL A   1      39.508  22.652  26.468  1.00  0.00     0.042 A 
ATOM     18  C   UNL A   1      39.083  23.971  26.628  1.00  0.00     0.023 A 
ATOM     19  Cl  UNL A   1      41.091  22.196  26.956  1.00  0.00    -0.084 Cl
BRANCH   9  20
ATOM     20  C   UNL A   1      34.101  20.626  24.479  1.00  0.00     0.163 C 
BRANCH  20  21
ATOM     21  C   UNL A   1      33.781  19.151  24.687  1.00  0.00    -0.028 A 
ATOM     22  C   UNL A   1      33.032  16.412  24.869  1.00  0.00     0.118 A 
ATOM     23  C   UNL A   1      33.913  16.843  23.882  1.00  0.00     0.047 A 
ATOM     24  C   UNL A   1      32.507  17.351  25.752  1.00  0.00     0.047 A 
ATOM     25  C   UNL A   1      34.264  18.193  23.781  1.00  0.00     0.009 A 
ATOM     26  C   UNL A   1      32.887  18.700  25.667  1.00  0.00     0.009 A 
BRANCH  22  27
ATOM     27  O   UNL A   1      32.763  15.072  24.859  1.00  0.00    -0.497 OA
ATOM     28  C   UNL A   1      32.374  14.484  26.092  1.00  0.00     0.278 C 
ENDBRANCH  22  27
ENDBRANCH  20  21
ENDBRANCH   9  20
ENDBRANCH   7   8
ENDBRANCH   6   7
ENDBRANCH   5   6
ENDBRANCH   3   5
ENDBRANCH   2   3
ENDBRANCH   1   2
BRANCH   1  29
ATOM     29  C   UNL A   1      30.435  27.562  23.325  1.00  0.00     0.202 C 
BRANCH  29  30
ATOM     30  O   UNL A   1      30.429  28.747  24.126  1.00  0.00    -0.374 OA
BRANCH  30  31
ATOM     31  C   UNL A   1      31.715  29.269  24.462  1.00  0.00     0.202 C 
BRANCH  31  32
ATOM     32  C   UNL A   1      31.829  29.761  25.913  1.00  0.00     0.261 C 
BRANCH  32  33
ATOM     33  O   UNL A   1      33.204  29.893  26.317  1.00  0.00    -0.460 OA
BRANCH  33  34
ATOM     34  C   UNL A   1      33.482  30.942  27.125  1.00  0.00     0.338 C 
ATOM     35  O   UNL A   1      32.699  31.808  27.499  1.00  0.00    -0.246 OA
BRANCH  34  36
ATOM     36  C   UNL A   1      34.853  30.815  27.651  1.00  0.00     0.060 A 
ATOM     37  C   UNL A   1      35.296  29.545  28.036  1.00  0.00     0.016 A 
ATOM     38  C   UNL A   1      35.679  31.925  27.831  1.00  0.00     0.016 A 
ATOM     39  C   UNL A   1      36.549  29.391  28.639  1.00  0.00     0.010 A 
ATOM     40  C   UNL A   1      36.945  31.761  28.412  1.00  0.00     0.010 A 
ATOM     41  C   UNL A   1      37.380  30.499  28.861  1.00  0.00    -0.014 A 
BRANCH  41  42
ATOM     42  C   UNL A   1      38.613  30.354  29.698  1.00  0.00     0.031 A 
ATOM     43  C   UNL A   1      39.792  29.580  29.153  1.00  0.00     0.074 A 
ATOM     44  C   UNL A   1      38.721  30.941  30.908  1.00  0.00     0.049 A 
ATOM     45  N   UNL A   1      40.968  29.361  29.689  1.00  0.00    -0.248 NA
ATOM     46  C   UNL A   1      39.615  28.962  27.831  1.00  0.00     0.031 C 
ATOM     47  C   UNL A   1      37.679  31.732  31.563  1.00  0.00     0.029 A 
ATOM     48  N   UNL A   1      39.766  30.967  31.804  1.00  0.00    -0.354 N 
ATOM     49  C   UNL A   1      41.666  28.582  28.771  1.00  0.00     0.074 A 
ATOM     50  C   UNL A   1      40.751  28.299  27.686  1.00  0.00     0.031 C 
ATOM     51  C   UNL A   1      38.140  32.170  32.748  1.00  0.00     0.029 A 
ATOM     52  C   UNL A   1      39.500  31.675  32.954  1.00  0.00     0.049 A 
ATOM     53  H   UNL A   1      40.627  30.519  31.636  1.00  0.00     0.167 HD
ATOM     54  C   UNL A   1      42.959  28.171  28.797  1.00  0.00     0.034 A 
ATOM     55  C   UNL A   1      40.259  31.899  34.049  1.00  0.00     0.034 A 
ATOM     56  C   UNL A   1      43.878  28.461  29.869  1.00  0.00     0.049 A 
ATOM     57  C   UNL A   1      41.674  31.369  34.097  1.00  0.00     0.074 A 
ATOM     58  C   UNL A   1      45.218  28.124  29.971  1.00  0.00     0.029 A 
ATOM     59  N   UNL A   1      43.555  29.146  31.032  1.00  0.00    -0.354 N 
ATOM     60  N   UNL A   1      42.333  30.681  33.193  1.00  0.00    -0.248 NA
ATOM     61  C   UNL A   1      42.458  31.667  35.306  1.00  0.00     0.031 C 
ATOM     62  C   UNL A   1      45.683  28.543  31.222  1.00  0.00     0.029 A 
ATOM     63  C   UNL A   1      44.658  29.214  31.869  1.00  0.00     0.049 A 
ATOM     64  H   UNL A   1      42.670  29.529  31.233  1.00  0.00     0.167 HD
ATOM     65  C   UNL A   1      43.618  30.508  33.706  1.00  0.00     0.074 A 
ATOM     66  C   UNL A   1      43.644  31.165  34.994  1.00  0.00     0.031 C 
ATOM     67  C   UNL A   1      44.684  29.874  33.153  1.00  0.00     0.034 A 
BRANCH  54  68
ATOM     68  C   UNL A   1      43.442  27.342  27.628  1.00  0.00     0.023 A 
ATOM     69  C   UNL A   1      43.605  25.950  27.734  1.00  0.00     0.031 A 
ATOM     70  C   UNL A   1      43.789  27.955  26.411  1.00  0.00     0.131 A 
ATOM     71  C   UNL A   1      44.194  25.232  26.682  1.00  0.00     0.055 A 
ATOM     72  C   UNL A   1      44.287  27.220  25.334  1.00  0.00     0.041 A 
ATOM     73  F   UNL A   1      43.669  29.282  26.256  1.00  0.00    -0.206 F 
ATOM     74  C   UNL A   1      44.512  25.853  25.473  1.00  0.00     0.022 A 
BRANCH  71  75
ATOM     75  S   UNL A   1      44.693  23.514  26.982  1.00  0.00     0.124 S 
ATOM     76  O   UNL A   1      43.950  23.201  28.202  1.00  0.00    -0.237 OA
ATOM     77  O   UNL A   1      44.246  22.838  25.770  1.00  0.00    -0.237 OA
ATOM     78  O   UNL A   1      46.142  23.603  27.150  1.00  0.00    -0.744 OA
ENDBRANCH  71  75
ENDBRANCH  54  68
BRANCH  55  79
ATOM     79  C   UNL A   1      39.704  32.650  35.216  1.00  0.00     0.023 A 
ATOM     80  C   UNL A   1      39.034  31.989  36.260  1.00  0.00     0.031 A 
ATOM     81  C   UNL A   1      39.771  34.054  35.263  1.00  0.00     0.131 A 
ATOM     82  C   UNL A   1      38.408  32.735  37.273  1.00  0.00     0.055 A 
ATOM     83  C   UNL A   1      39.192  34.787  36.301  1.00  0.00     0.041 A 
ATOM     84  F   UNL A   1      40.404  34.737  34.295  1.00  0.00    -0.206 F 
ATOM     85  C   UNL A   1      38.493  34.127  37.306  1.00  0.00     0.022 A 
BRANCH  82  86
ATOM     86  S   UNL A   1      37.401  31.860  38.505  1.00  0.00     0.124 S 
ATOM     87  O   UNL A   1      37.223  30.558  37.872  1.00  0.00    -0.237 OA
ATOM     88  O   UNL A   1      38.267  31.891  39.680  1.00  0.00    -0.237 OA
ATOM     89  O   UNL A   1      36.195  32.679  38.601  1.00  0.00    -0.744 OA
ENDBRANCH  82  86
ENDBRANCH  55  79
BRANCH  67  90
ATOM     90  C   UNL A   1      45.994  29.916  33.905  1.00  0.00     0.023 A 
ATOM     91  C   UNL A   1      46.364  28.917  34.822  1.00  0.00     0.031 A 
ATOM     92  C   UNL A   1      46.895  30.976  33.688  1.00  0.00     0.131 A 
ATOM     93  C   UNL A   1      47.578  29.022  35.520  1.00  0.00     0.055 A 
ATOM     94  C   UNL A   1      48.127  31.044  34.340  1.00  0.00     0.041 A 
ATOM     95  F   UNL A   1      46.595  31.962  32.826  1.00  0.00    -0.206 F 
ATOM     96  C   UNL A   1      48.469  30.069  35.271  1.00  0.00     0.022 A 
BRANCH  93  97
ATOM     97  S   UNL A   1      47.946  27.814  36.823  1.00  0.00     0.124 S 
ATOM     98  O   UNL A   1      48.876  28.554  37.670  1.00  0.00    -0.237 OA
ATOM     99  O   UNL A   1      46.627  27.561  37.395  1.00  0.00    -0.237 OA
ATOM    100  O   UNL A   1      48.531  26.690  36.096  1.00  0.00    -0.744 OA
ENDBRANCH  93  97
ENDBRANCH  67  90
ENDBRANCH  41  42
ENDBRANCH  34  36
ENDBRANCH  33  34
ENDBRANCH  32  33
ENDBRANCH  31  32
ENDBRANCH  30  31
ENDBRANCH  29  30
ENDBRANCH   1  29
TORSDOF 23
ENDMDL
MODEL 3
REMARK VINA RESULT:     -10.3      5.354     11.280
REMARK SMILES COc1ccc(Cn2c(SCCC(=O)OCCOCCOC(=O)c3ccc(-c4c5nc(c(-c6cc(S(=O)(=O)[O-])ccc6F)c6ccc([nH]6)c(-c6cc(S(=O)(=O)[O-])ccc6F)c6nc(c(-c7cc(S(=O)(=O)[O-])ccc7F)c7ccc4[nH]7)C=C6)C=C5)cc3)nc3ccc(Cl)cc3c2=O)cc1
REMARK SMILES IDX 16 1 15 2 13 3 14 4 12 5 11 6 10 7 9 8 8 9 95 10 87 11 94 12
REMARK SMILES IDX 96 13 88 14 93 15 89 16 91 17 90 18 92 19 7 20 6 21 3 22
REMARK SMILES IDX 4 23 98 24 5 25 97 26 2 27 1 28 17 29 18 30 19 31 20 32
REMARK SMILES IDX 21 33 22 34 23 35 24 36 25 37 86 38 26 39 85 40 27 41 28 42
REMARK SMILES IDX 29 43 79 44 30 45 84 46 78 47 80 48 31 49 83 50 77 51 76 52
REMARK SMILES IDX 32 54 64 55 44 56 63 57 45 58 48 59 62 60 81 61 46 62 47 63
REMARK SMILES IDX 61 65 82 66 49 67 33 68 34 69 42 70 35 71 41 72 43 73 40 74
REMARK SMILES IDX 36 75 37 76 38 77 39 78 65 79 66 80 74 81 67 82 73 83 75 84
REMARK SMILES IDX 72 85 68 86 69 87 70 88 71 89 50 90 51 91 59 92 52 93 58 94
REMARK SMILES IDX 60 95 57 96 53 97 54 98 55 99 56 100
REMARK H PARENT 80 53 48 64
REMARK Flexibility Score: inf
ROOT
ATOM      1  C   UNL A   1      40.869  22.115  26.485  1.00  0.00     0.261 C 
ENDROOT
BRANCH   1   2
ATOM      2  O   UNL A   1      39.442  22.332  26.419  1.00  0.00    -0.463 OA
BRANCH   2   3
ATOM      3  C   UNL A   1      38.995  23.572  26.728  1.00  0.00     0.306 C 
ATOM      4  O   UNL A   1      39.471  24.285  27.605  1.00  0.00    -0.252 OA
BRANCH   3   5
ATOM      5  C   UNL A   1      37.764  24.007  25.960  1.00  0.00     0.134 C 
BRANCH   5   6
ATOM      6  C   UNL A   1      36.959  23.025  25.127  1.00  0.00     0.090 C 
BRANCH   6   7
ATOM      7  S   UNL A   1      35.859  22.003  26.058  1.00  0.00    -0.087 SA
BRANCH   7   8
ATOM      8  C   UNL A   1      34.888  20.944  25.059  1.00  0.00     0.171 A 
ATOM      9  N   UNL A   1      33.550  21.127  24.711  1.00  0.00    -0.283 N 
ATOM     10  C   UNL A   1      32.796  19.984  24.416  1.00  0.00     0.262 A 
ATOM     11  N   UNL A   1      35.529  19.830  24.904  1.00  0.00    -0.224 NA
ATOM     12  C   UNL A   1      33.433  18.679  24.608  1.00  0.00     0.067 A 
ATOM     13  O   UNL A   1      31.665  19.977  23.938  1.00  0.00    -0.269 OA
ATOM     14  C   UNL A   1      34.816  18.663  24.675  1.00  0.00     0.079 A 
ATOM     15  C   UNL A   1      32.688  17.508  24.733  1.00  0.00     0.036 A 
ATOM     16  C   UNL A   1      35.480  17.442  24.784  1.00  0.00     0.031 A 
ATOM     17  C   UNL A   1      33.356  16.306  24.938  1.00  0.00     0.042 A 
ATOM     18  C   UNL A   1      34.750  16.261  24.930  1.00  0.00     0.023 A 
ATOM     19  Cl  UNL A   1      32.453  14.886  25.279  1.00  0.00    -0.084 Cl
BRANCH   9  20
ATOM     20  C   UNL A   1      33.056  22.343  24.057  1.00  0.00     0.163 C 
BRANCH  20  21
ATOM     21  C   UNL A   1      32.600  23.555  24.860  1.00  0.00    -0.028 A 
ATOM     22  C   UNL A   1      31.572  25.858  26.177  1.00  0.00     0.118 A 
ATOM     23  C   UNL A   1      30.858  24.664  26.175  1.00  0.00     0.047 A 
ATOM     24  C   UNL A   1      32.788  25.910  25.503  1.00  0.00     0.047 A 
ATOM     25  C   UNL A   1      31.355  23.538  25.511  1.00  0.00     0.009 A 
ATOM     26  C   UNL A   1      33.298  24.769  24.863  1.00  0.00     0.009 A 
BRANCH  22  27
ATOM     27  O   UNL A   1      30.979  26.885  26.856  1.00  0.00    -0.497 OA
ATOM     28  C   UNL A   1      31.837  27.869  27.416  1.00  0.00     0.278 C 
ENDBRANCH  22  27
ENDBRANCH  20  21
ENDBRANCH   9  20
ENDBRANCH   7   8
ENDBRANCH   6   7
ENDBRANCH   5   6
ENDBRANCH   3   5
ENDBRANCH   2   3
ENDBRANCH   1   2
BRANCH   1  29
ATOM     29  C   UNL A   1      41.230  20.875  27.305  1.00  0.00     0.202 C 
BRANCH  29  30
ATOM     30  O   UNL A   1      41.256  19.686  26.512  1.00  0.00    -0.374 OA
BRANCH  30  31
ATOM     31  C   UNL A   1      42.292  18.756  26.832  1.00  0.00     0.202 C 
BRANCH  31  32
ATOM     32  C   UNL A   1      43.316  18.551  25.705  1.00  0.00     0.261 C 
BRANCH  32  33
ATOM     33  O   UNL A   1      43.351  19.682  24.815  1.00  0.00    -0.460 OA
BRANCH  33  34
ATOM     34  C   UNL A   1      44.557  19.965  24.271  1.00  0.00     0.338 C 
ATOM     35  O   UNL A   1      45.159  19.301  23.435  1.00  0.00    -0.246 OA
BRANCH  34  36
ATOM     36  C   UNL A   1      44.996  21.304  24.704  1.00  0.00     0.060 A 
ATOM     37  C   UNL A   1      45.299  21.492  26.057  1.00  0.00     0.016 A 
ATOM     38  C   UNL A   1      45.052  22.383  23.821  1.00  0.00     0.016 A 
ATOM     39  C   UNL A   1      45.616  22.768  26.535  1.00  0.00     0.010 A 
ATOM     40  C   UNL A   1      45.396  23.655  24.301  1.00  0.00     0.010 A 
ATOM     41  C   UNL A   1      45.643  23.873  25.671  1.00  0.00    -0.014 A 
BRANCH  41  42
ATOM     42  C   UNL A   1      45.768  25.256  26.227  1.00  0.00     0.031 A 
ATOM     43  C   UNL A   1      47.126  25.919  26.268  1.00  0.00     0.074 A 
ATOM     44  C   UNL A   1      44.690  25.951  26.649  1.00  0.00     0.049 A 
ATOM     45  N   UNL A   1      47.458  27.120  26.674  1.00  0.00    -0.248 NA
ATOM     46  C   UNL A   1      48.263  25.114  25.798  1.00  0.00     0.031 C 
ATOM     47  C   UNL A   1      43.314  25.456  26.659  1.00  0.00     0.029 A 
ATOM     48  N   UNL A   1      44.584  27.230  27.146  1.00  0.00    -0.354 N 
ATOM     49  C   UNL A   1      48.837  27.211  26.507  1.00  0.00     0.074 A 
ATOM     50  C   UNL A   1      49.285  25.916  26.045  1.00  0.00     0.031 C 
ATOM     51  C   UNL A   1      42.504  26.421  27.130  1.00  0.00     0.029 A 
ATOM     52  C   UNL A   1      43.299  27.596  27.480  1.00  0.00     0.049 A 
ATOM     53  H   UNL A   1      45.358  27.829  27.254  1.00  0.00     0.167 HD
ATOM     54  C   UNL A   1      49.657  28.279  26.678  1.00  0.00     0.034 A 
ATOM     55  C   UNL A   1      42.816  28.742  28.007  1.00  0.00     0.034 A 
ATOM     56  C   UNL A   1      49.214  29.576  27.127  1.00  0.00     0.049 A 
ATOM     57  C   UNL A   1      43.755  29.899  28.265  1.00  0.00     0.074 A 
ATOM     58  C   UNL A   1      49.958  30.731  27.294  1.00  0.00     0.029 A 
ATOM     59  N   UNL A   1      47.911  29.890  27.491  1.00  0.00    -0.354 N 
ATOM     60  N   UNL A   1      45.048  29.981  28.048  1.00  0.00    -0.248 NA
ATOM     61  C   UNL A   1      43.164  31.127  28.818  1.00  0.00     0.031 C 
ATOM     62  C   UNL A   1      49.123  31.720  27.825  1.00  0.00     0.029 A 
ATOM     63  C   UNL A   1      47.838  31.209  27.912  1.00  0.00     0.049 A 
ATOM     64  H   UNL A   1      47.150  29.266  27.455  1.00  0.00     0.167 HD
ATOM     65  C   UNL A   1      45.411  31.283  28.394  1.00  0.00     0.074 A 
ATOM     66  C   UNL A   1      44.203  31.950  28.828  1.00  0.00     0.031 C 
ATOM     67  C   UNL A   1      46.631  31.876  28.341  1.00  0.00     0.034 A 
BRANCH  54  68
ATOM     68  C   UNL A   1      51.127  28.071  26.395  1.00  0.00     0.023 A 
ATOM     69  C   UNL A   1      51.646  28.181  25.092  1.00  0.00     0.031 A 
ATOM     70  C   UNL A   1      52.011  27.709  27.426  1.00  0.00     0.131 A 
ATOM     71  C   UNL A   1      52.983  27.837  24.840  1.00  0.00     0.055 A 
ATOM     72  C   UNL A   1      53.363  27.459  27.183  1.00  0.00     0.041 A 
ATOM     73  F   UNL A   1      51.571  27.573  28.687  1.00  0.00    -0.206 F 
ATOM     74  C   UNL A   1      53.851  27.502  25.880  1.00  0.00     0.022 A 
BRANCH  71  75
ATOM     75  S   UNL A   1      53.519  27.669  23.115  1.00  0.00     0.124 S 
ATOM     76  O   UNL A   1      52.480  28.417  22.410  1.00  0.00    -0.237 OA
ATOM     77  O   UNL A   1      54.843  28.279  23.135  1.00  0.00    -0.237 OA
ATOM     78  O   UNL A   1      53.499  26.225  22.889  1.00  0.00    -0.744 OA
ENDBRANCH  71  75
ENDBRANCH  54  68
BRANCH  55  79
ATOM     79  C   UNL A   1      41.367  28.866  28.352  1.00  0.00     0.023 A 
ATOM     80  C   UNL A   1      40.920  28.764  29.681  1.00  0.00     0.031 A 
ATOM     81  C   UNL A   1      40.400  29.014  27.343  1.00  0.00     0.131 A 
ATOM     82  C   UNL A   1      39.542  28.751  29.957  1.00  0.00     0.055 A 
ATOM     83  C   UNL A   1      39.033  29.053  27.628  1.00  0.00     0.041 A 
ATOM     84  F   UNL A   1      40.770  29.123  26.056  1.00  0.00    -0.206 F 
ATOM     85  C   UNL A   1      38.598  28.907  28.941  1.00  0.00     0.022 A 
BRANCH  82  86
ATOM     86  S   UNL A   1      38.997  28.437  31.660  1.00  0.00     0.124 S 
ATOM     87  O   UNL A   1      38.526  27.059  31.571  1.00  0.00    -0.237 OA
ATOM     88  O   UNL A   1      40.227  28.650  32.415  1.00  0.00    -0.237 OA
ATOM     89  O   UNL A   1      37.955  29.439  31.874  1.00  0.00    -0.744 OA
ENDBRANCH  82  86
ENDBRANCH  55  79
BRANCH  67  90
ATOM     90  C   UNL A   1      46.716  33.341  28.699  1.00  0.00     0.023 A 
ATOM     91  C   UNL A   1      46.333  34.355  27.805  1.00  0.00     0.031 A 
ATOM     92  C   UNL A   1      47.182  33.727  29.971  1.00  0.00     0.131 A 
ATOM     93  C   UNL A   1      46.464  35.703  28.176  1.00  0.00     0.055 A 
ATOM     94  C   UNL A   1      47.254  35.067  30.356  1.00  0.00     0.041 A 
ATOM     95  F   UNL A   1      47.565  32.803  30.868  1.00  0.00    -0.206 F 
ATOM     96  C   UNL A   1      46.905  36.064  29.452  1.00  0.00     0.022 A 
BRANCH  93  97
ATOM     97  S   UNL A   1      46.130  36.988  26.939  1.00  0.00     0.124 S 
ATOM     98  O   UNL A   1      44.672  36.980  26.877  1.00  0.00    -0.237 OA
ATOM     99  O   UNL A   1      46.736  38.169  27.544  1.00  0.00    -0.237 OA
ATOM    100  O   UNL A   1      46.803  36.493  25.739  1.00  0.00    -0.744 OA
ENDBRANCH  93  97
ENDBRANCH  67  90
ENDBRANCH  41  42
ENDBRANCH  34  36
ENDBRANCH  33  34
ENDBRANCH  32  33
ENDBRANCH  31  32
ENDBRANCH  30  31
ENDBRANCH  29  30
ENDBRANCH   1  29
TORSDOF 23
ENDMDL
