MODEL 1
REMARK VINA RESULT:     -10.6      0.000      0.000
REMARK SMILES C[C@@](NC(=O)NCC(N)=O)(C(=O)OCCOCCOC(=O)c1ccc(-c2c3nc(c(-c4cc(S(=O)(=O)[O-])ccc4F)c4ccc([nH]4)c(-c4cc(S(=O)(=O)[O-])ccc4F)c4nc(c(-c5cc(S(=O)(=O)[O-])ccc5F)c5ccc2[nH]5)C=C4)C=C3)cc1)C(F)(F)F
REMARK SMILES IDX 16 1 15 2 14 3 13 4 11 5 12 6 2 7 1 8 3 9 4 10 5 12 6 13
REMARK SMILES IDX 7 15 8 16 9 17 10 18 85 21 86 22 87 23 88 24 17 25 18 26
REMARK SMILES IDX 19 27 20 28 21 29 22 30 23 31 84 32 24 33 83 34 25 35 26 36
REMARK SMILES IDX 27 37 77 38 28 39 82 40 76 41 78 42 29 43 81 44 75 45 74 46
REMARK SMILES IDX 30 48 62 49 42 50 61 51 43 52 46 53 60 54 79 55 44 56 45 57
REMARK SMILES IDX 59 59 80 60 47 61 31 62 32 63 40 64 33 65 39 66 41 67 38 68
REMARK SMILES IDX 34 69 35 70 36 71 37 72 63 73 64 74 72 75 65 76 71 77 73 78
REMARK SMILES IDX 70 79 66 80 67 81 68 82 69 83 48 84 49 85 57 86 50 87 56 88
REMARK SMILES IDX 58 89 55 90 51 91 52 92 53 93 54 94
REMARK H PARENT 3 11 6 14 9 19 9 20 78 47 46 58
REMARK Flexibility Score: inf
ROOT
ATOM      1  O   UNL A   1      31.839  30.099  26.997  1.00  0.00    -0.374 OA
ENDROOT
BRANCH   1   2
ATOM      2  C   UNL A   1      32.477  29.016  26.355  1.00  0.00     0.202 C 
BRANCH   2   3
ATOM      3  C   UNL A   1      32.452  27.582  26.910  1.00  0.00     0.261 C 
BRANCH   3   4
ATOM      4  O   UNL A   1      31.605  26.581  26.337  1.00  0.00    -0.461 OA
BRANCH   4   5
ATOM      5  C   UNL A   1      32.173  25.695  25.474  1.00  0.00     0.341 C 
ATOM      6  O   UNL A   1      33.355  25.717  25.156  1.00  0.00    -0.249 OA
BRANCH   5   7
ATOM      7  C   UNL A   1      31.139  24.775  24.847  1.00  0.00     0.232 C 
ATOM      8  C   UNL A   1      31.899  23.778  23.931  1.00  0.00     0.058 C 
BRANCH   7   9
ATOM      9  N   UNL A   1      30.390  23.958  25.866  1.00  0.00    -0.315 N 
ATOM     10  C   UNL A   1      30.625  23.157  26.908  1.00  0.00     0.316 C 
ATOM     11  H   UNL A   1      29.420  24.039  25.716  1.00  0.00     0.166 HD
ATOM     12  O   UNL A   1      29.655  22.912  27.629  1.00  0.00    -0.249 OA
ATOM     13  N   UNL A   1      31.782  22.566  27.205  1.00  0.00    -0.329 N 
ATOM     14  H   UNL A   1      31.747  22.022  28.025  1.00  0.00     0.165 HD
BRANCH  13  15
ATOM     15  C   UNL A   1      33.071  22.563  26.566  1.00  0.00     0.217 C 
BRANCH  15  16
ATOM     16  C   UNL A   1      33.634  21.238  26.058  1.00  0.00     0.236 C 
ATOM     17  N   UNL A   1      33.187  20.133  26.736  1.00  0.00    -0.368 N 
ATOM     18  O   UNL A   1      34.420  21.139  25.123  1.00  0.00    -0.273 OA
ATOM     19  H   UNL A   1      32.556  20.236  27.484  1.00  0.00     0.159 HD
ATOM     20  H   UNL A   1      33.498  19.236  26.474  1.00  0.00     0.159 HD
ENDBRANCH  15  16
ENDBRANCH  13  15
ENDBRANCH   7   9
BRANCH   7  21
ATOM     21  C   UNL A   1      30.269  25.645  23.927  1.00  0.00     0.422 C 
ATOM     22  F   UNL A   1      29.526  26.532  24.637  1.00  0.00    -0.168 F 
ATOM     23  F   UNL A   1      31.052  26.393  23.102  1.00  0.00    -0.168 F 
ATOM     24  F   UNL A   1      29.433  24.949  23.134  1.00  0.00    -0.168 F 
ENDBRANCH   7  21
ENDBRANCH   5   7
ENDBRANCH   4   5
ENDBRANCH   3   4
ENDBRANCH   2   3
ENDBRANCH   1   2
BRANCH   1  25
ATOM     25  C   UNL A   1      31.538  31.300  26.307  1.00  0.00     0.202 C 
BRANCH  25  26
ATOM     26  C   UNL A   1      31.607  32.666  26.995  1.00  0.00     0.261 C 
BRANCH  26  27
ATOM     27  O   UNL A   1      32.857  33.350  26.857  1.00  0.00    -0.460 OA
BRANCH  27  28
ATOM     28  C   UNL A   1      33.423  33.695  28.036  1.00  0.00     0.338 C 
ATOM     29  O   UNL A   1      32.924  34.406  28.909  1.00  0.00    -0.246 OA
BRANCH  28  30
ATOM     30  C   UNL A   1      34.663  32.940  28.252  1.00  0.00     0.060 A 
ATOM     31  C   UNL A   1      34.547  31.596  28.631  1.00  0.00     0.016 A 
ATOM     32  C   UNL A   1      35.913  33.558  28.174  1.00  0.00     0.016 A 
ATOM     33  C   UNL A   1      35.677  30.876  28.993  1.00  0.00     0.010 A 
ATOM     34  C   UNL A   1      37.047  32.838  28.561  1.00  0.00     0.010 A 
ATOM     35  C   UNL A   1      36.924  31.512  29.015  1.00  0.00    -0.014 A 
BRANCH  35  36
ATOM     36  C   UNL A   1      38.040  30.862  29.739  1.00  0.00     0.031 A 
ATOM     37  C   UNL A   1      38.272  31.248  31.174  1.00  0.00     0.074 A 
ATOM     38  C   UNL A   1      38.788  29.914  29.152  1.00  0.00     0.049 A 
ATOM     39  N   UNL A   1      39.191  30.841  32.009  1.00  0.00    -0.248 NA
ATOM     40  C   UNL A   1      37.334  32.230  31.742  1.00  0.00     0.031 C 
ATOM     41  C   UNL A   1      38.604  29.419  27.790  1.00  0.00     0.029 A 
ATOM     42  N   UNL A   1      39.852  29.198  29.633  1.00  0.00    -0.354 N 
ATOM     43  C   UNL A   1      38.945  31.516  33.200  1.00  0.00     0.074 A 
ATOM     44  C   UNL A   1      37.816  32.389  32.964  1.00  0.00     0.031 C 
ATOM     45  C   UNL A   1      39.535  28.482  27.539  1.00  0.00     0.029 A 
ATOM     46  C   UNL A   1      40.402  28.341  28.709  1.00  0.00     0.049 A 
ATOM     47  H   UNL A   1      40.192  29.287  30.553  1.00  0.00     0.167 HD
ATOM     48  C   UNL A   1      39.598  31.410  34.383  1.00  0.00     0.034 A 
ATOM     49  C   UNL A   1      41.496  27.557  28.794  1.00  0.00     0.034 A 
ATOM     50  C   UNL A   1      40.737  30.549  34.587  1.00  0.00     0.049 A 
ATOM     51  C   UNL A   1      42.275  27.536  30.087  1.00  0.00     0.074 A 
ATOM     52  C   UNL A   1      41.482  30.360  35.738  1.00  0.00     0.029 A 
ATOM     53  N   UNL A   1      41.307  29.743  33.610  1.00  0.00    -0.354 N 
ATOM     54  N   UNL A   1      42.038  28.180  31.208  1.00  0.00    -0.248 NA
ATOM     55  C   UNL A   1      43.465  26.676  30.128  1.00  0.00     0.031 C 
ATOM     56  C   UNL A   1      42.545  29.502  35.434  1.00  0.00     0.029 A 
ATOM     57  C   UNL A   1      42.416  29.085  34.118  1.00  0.00     0.049 A 
ATOM     58  H   UNL A   1      40.972  29.652  32.688  1.00  0.00     0.167 HD
ATOM     59  C   UNL A   1      43.034  27.777  32.096  1.00  0.00     0.074 A 
ATOM     60  C   UNL A   1      43.862  26.827  31.383  1.00  0.00     0.031 C 
ATOM     61  C   UNL A   1      43.240  28.152  33.385  1.00  0.00     0.034 A 
BRANCH  48  62
ATOM     62  C   UNL A   1      39.130  32.299  35.510  1.00  0.00     0.023 A 
ATOM     63  C   UNL A   1      39.539  33.641  35.618  1.00  0.00     0.031 A 
ATOM     64  C   UNL A   1      38.307  31.782  36.526  1.00  0.00     0.131 A 
ATOM     65  C   UNL A   1      39.196  34.389  36.754  1.00  0.00     0.055 A 
ATOM     66  C   UNL A   1      37.897  32.558  37.611  1.00  0.00     0.041 A 
ATOM     67  F   UNL A   1      37.905  30.501  36.493  1.00  0.00    -0.206 F 
ATOM     68  C   UNL A   1      38.357  33.865  37.740  1.00  0.00     0.022 A 
BRANCH  65  69
ATOM     69  S   UNL A   1      40.000  35.996  37.008  1.00  0.00     0.124 S 
ATOM     70  O   UNL A   1      39.747  36.658  35.731  1.00  0.00    -0.237 OA
ATOM     71  O   UNL A   1      39.280  36.529  38.158  1.00  0.00    -0.237 OA
ATOM     72  O   UNL A   1      41.398  35.646  37.253  1.00  0.00    -0.744 OA
ENDBRANCH  65  69
ENDBRANCH  48  62
BRANCH  49  73
ATOM     73  C   UNL A   1      41.948  26.765  27.616  1.00  0.00     0.023 A 
ATOM     74  C   UNL A   1      41.660  25.395  27.506  1.00  0.00     0.031 A 
ATOM     75  C   UNL A   1      42.714  27.361  26.598  1.00  0.00     0.131 A 
ATOM     76  C   UNL A   1      42.171  24.658  26.425  1.00  0.00     0.055 A 
ATOM     77  C   UNL A   1      43.175  26.636  25.498  1.00  0.00     0.041 A 
ATOM     78  F   UNL A   1      43.018  28.668  26.654  1.00  0.00    -0.206 F 
ATOM     79  C   UNL A   1      42.913  25.271  25.414  1.00  0.00     0.022 A 
BRANCH  76  80
ATOM     80  S   UNL A   1      41.910  22.864  26.398  1.00  0.00     0.124 S 
ATOM     81  O   UNL A   1      42.617  22.443  27.602  1.00  0.00    -0.237 OA
ATOM     82  O   UNL A   1      40.455  22.769  26.442  1.00  0.00    -0.237 OA
ATOM     83  O   UNL A   1      42.521  22.450  25.137  1.00  0.00    -0.744 OA
ENDBRANCH  76  80
ENDBRANCH  49  73
BRANCH  61  84
ATOM     84  C   UNL A   1      44.386  27.492  34.117  1.00  0.00     0.023 A 
ATOM     85  C   UNL A   1      44.224  26.281  34.811  1.00  0.00     0.031 A 
ATOM     86  C   UNL A   1      45.658  28.091  34.119  1.00  0.00     0.131 A 
ATOM     87  C   UNL A   1      45.301  25.737  35.526  1.00  0.00     0.055 A 
ATOM     88  C   UNL A   1      46.743  27.511  34.779  1.00  0.00     0.041 A 
ATOM     89  F   UNL A   1      45.870  29.249  33.474  1.00  0.00    -0.206 F 
ATOM     90  C   UNL A   1      46.565  26.334  35.499  1.00  0.00     0.022 A 
BRANCH  87  91
ATOM     91  S   UNL A   1      45.008  24.285  36.573  1.00  0.00     0.124 S 
ATOM     92  O   UNL A   1      44.409  24.884  37.761  1.00  0.00    -0.237 OA
ATOM     93  O   UNL A   1      44.114  23.480  35.746  1.00  0.00    -0.237 OA
ATOM     94  O   UNL A   1      46.344  23.724  36.766  1.00  0.00    -0.744 OA
ENDBRANCH  87  91
ENDBRANCH  61  84
ENDBRANCH  35  36
ENDBRANCH  28  30
ENDBRANCH  27  28
ENDBRANCH  26  27
ENDBRANCH  25  26
ENDBRANCH   1  25
TORSDOF 21
ENDMDL
MODEL 2
REMARK VINA RESULT:     -10.4      2.235      3.274
REMARK SMILES C[C@@](NC(=O)NCC(N)=O)(C(=O)OCCOCCOC(=O)c1ccc(-c2c3nc(c(-c4cc(S(=O)(=O)[O-])ccc4F)c4ccc([nH]4)c(-c4cc(S(=O)(=O)[O-])ccc4F)c4nc(c(-c5cc(S(=O)(=O)[O-])ccc5F)c5ccc2[nH]5)C=C4)C=C3)cc1)C(F)(F)F
REMARK SMILES IDX 16 1 15 2 14 3 13 4 11 5 12 6 2 7 1 8 3 9 4 10 5 12 6 13
REMARK SMILES IDX 7 15 8 16 9 17 10 18 85 21 86 22 87 23 88 24 17 25 18 26
REMARK SMILES IDX 19 27 20 28 21 29 22 30 23 31 84 32 24 33 83 34 25 35 26 36
REMARK SMILES IDX 27 37 77 38 28 39 82 40 76 41 78 42 29 43 81 44 75 45 74 46
REMARK SMILES IDX 30 48 62 49 42 50 61 51 43 52 46 53 60 54 79 55 44 56 45 57
REMARK SMILES IDX 59 59 80 60 47 61 31 62 32 63 40 64 33 65 39 66 41 67 38 68
REMARK SMILES IDX 34 69 35 70 36 71 37 72 63 73 64 74 72 75 65 76 71 77 73 78
REMARK SMILES IDX 70 79 66 80 67 81 68 82 69 83 48 84 49 85 57 86 50 87 56 88
REMARK SMILES IDX 58 89 55 90 51 91 52 92 53 93 54 94
REMARK H PARENT 3 11 6 14 9 19 9 20 78 47 46 58
REMARK Flexibility Score: inf
ROOT
ATOM      1  O   UNL A   1      32.524  30.887  26.825  1.00  0.00    -0.374 OA
ENDROOT
BRANCH   1   2
ATOM      2  C   UNL A   1      32.049  29.559  26.852  1.00  0.00     0.202 C 
BRANCH   2   3
ATOM      3  C   UNL A   1      32.923  28.366  27.279  1.00  0.00     0.261 C 
BRANCH   3   4
ATOM      4  O   UNL A   1      33.132  27.253  26.405  1.00  0.00    -0.461 OA
BRANCH   4   5
ATOM      5  C   UNL A   1      32.065  26.806  25.687  1.00  0.00     0.341 C 
ATOM      6  O   UNL A   1      30.923  26.756  26.126  1.00  0.00    -0.249 OA
BRANCH   5   7
ATOM      7  C   UNL A   1      32.485  26.247  24.338  1.00  0.00     0.232 C 
ATOM      8  C   UNL A   1      31.196  26.050  23.496  1.00  0.00     0.058 C 
BRANCH   7   9
ATOM      9  N   UNL A   1      33.377  27.185  23.570  1.00  0.00    -0.315 N 
ATOM     10  C   UNL A   1      33.436  28.467  23.198  1.00  0.00     0.316 C 
ATOM     11  H   UNL A   1      34.166  26.701  23.234  1.00  0.00     0.166 HD
ATOM     12  O   UNL A   1      34.530  28.857  22.782  1.00  0.00    -0.249 OA
ATOM     13  N   UNL A   1      32.424  29.334  23.187  1.00  0.00    -0.329 N 
ATOM     14  H   UNL A   1      32.681  30.235  22.887  1.00  0.00     0.165 HD
BRANCH  13  15
ATOM     15  C   UNL A   1      31.030  29.214  23.524  1.00  0.00     0.217 C 
BRANCH  15  16
ATOM     16  C   UNL A   1      29.989  29.475  22.439  1.00  0.00     0.236 C 
ATOM     17  N   UNL A   1      30.007  30.748  21.928  1.00  0.00    -0.368 N 
ATOM     18  O   UNL A   1      29.191  28.637  22.036  1.00  0.00    -0.273 OA
ATOM     19  H   UNL A   1      30.657  31.405  22.266  1.00  0.00     0.159 HD
ATOM     20  H   UNL A   1      29.371  31.004  21.222  1.00  0.00     0.159 HD
ENDBRANCH  15  16
ENDBRANCH  13  15
ENDBRANCH   7   9
BRANCH   7  21
ATOM     21  C   UNL A   1      33.063  24.848  24.598  1.00  0.00     0.422 C 
ATOM     22  F   UNL A   1      34.373  24.907  24.951  1.00  0.00    -0.168 F 
ATOM     23  F   UNL A   1      32.422  24.256  25.643  1.00  0.00    -0.168 F 
ATOM     24  F   UNL A   1      32.955  24.002  23.556  1.00  0.00    -0.168 F 
ENDBRANCH   7  21
ENDBRANCH   5   7
ENDBRANCH   4   5
ENDBRANCH   3   4
ENDBRANCH   2   3
ENDBRANCH   1   2
BRANCH   1  25
ATOM     25  C   UNL A   1      31.643  31.989  26.681  1.00  0.00     0.202 C 
BRANCH  25  26
ATOM     26  C   UNL A   1      32.033  33.399  27.132  1.00  0.00     0.261 C 
BRANCH  26  27
ATOM     27  O   UNL A   1      32.679  33.469  28.408  1.00  0.00    -0.460 OA
BRANCH  27  28
ATOM     28  C   UNL A   1      33.827  34.183  28.400  1.00  0.00     0.338 C 
ATOM     29  O   UNL A   1      33.929  35.410  28.425  1.00  0.00    -0.246 OA
BRANCH  28  30
ATOM     30  C   UNL A   1      34.986  33.296  28.562  1.00  0.00     0.060 A 
ATOM     31  C   UNL A   1      34.756  32.018  29.087  1.00  0.00     0.016 A 
ATOM     32  C   UNL A   1      36.283  33.737  28.291  1.00  0.00     0.016 A 
ATOM     33  C   UNL A   1      35.827  31.193  29.402  1.00  0.00     0.010 A 
ATOM     34  C   UNL A   1      37.361  32.915  28.629  1.00  0.00     0.010 A 
ATOM     35  C   UNL A   1      37.135  31.661  29.228  1.00  0.00    -0.014 A 
BRANCH  35  36
ATOM     36  C   UNL A   1      38.242  30.940  29.895  1.00  0.00     0.031 A 
ATOM     37  C   UNL A   1      38.524  31.256  31.339  1.00  0.00     0.074 A 
ATOM     38  C   UNL A   1      38.937  29.990  29.251  1.00  0.00     0.049 A 
ATOM     39  N   UNL A   1      39.447  30.780  32.131  1.00  0.00    -0.248 NA
ATOM     40  C   UNL A   1      37.640  32.248  31.971  1.00  0.00     0.031 C 
ATOM     41  C   UNL A   1      38.701  29.559  27.874  1.00  0.00     0.029 A 
ATOM     42  N   UNL A   1      39.985  29.214  29.673  1.00  0.00    -0.354 N 
ATOM     43  C   UNL A   1      39.257  31.413  33.355  1.00  0.00     0.074 A 
ATOM     44  C   UNL A   1      38.158  32.337  33.185  1.00  0.00     0.031 C 
ATOM     45  C   UNL A   1      39.589  28.600  27.560  1.00  0.00     0.029 A 
ATOM     46  C   UNL A   1      40.478  28.377  28.700  1.00  0.00     0.049 A 
ATOM     47  H   UNL A   1      40.351  29.252  30.587  1.00  0.00     0.167 HD
ATOM     48  C   UNL A   1      39.935  31.233  34.515  1.00  0.00     0.034 A 
ATOM     49  C   UNL A   1      41.542  27.550  28.724  1.00  0.00     0.034 A 
ATOM     50  C   UNL A   1      41.044  30.321  34.653  1.00  0.00     0.049 A 
ATOM     51  C   UNL A   1      42.352  27.444  29.994  1.00  0.00     0.074 A 
ATOM     52  C   UNL A   1      41.809  30.056  35.775  1.00  0.00     0.029 A 
ATOM     53  N   UNL A   1      41.558  29.536  33.629  1.00  0.00    -0.354 N 
ATOM     54  N   UNL A   1      42.168  28.049  31.146  1.00  0.00    -0.248 NA
ATOM     55  C   UNL A   1      43.508  26.539  29.968  1.00  0.00     0.031 C 
ATOM     56  C   UNL A   1      42.831  29.172  35.409  1.00  0.00     0.029 A 
ATOM     57  C   UNL A   1      42.653  28.816  34.081  1.00  0.00     0.049 A 
ATOM     58  H   UNL A   1      41.197  29.497  32.714  1.00  0.00     0.167 HD
ATOM     59  C   UNL A   1      43.169  27.572  31.991  1.00  0.00     0.074 A 
ATOM     60  C   UNL A   1      43.942  26.622  31.217  1.00  0.00     0.031 C 
ATOM     61  C   UNL A   1      43.422  27.884  33.288  1.00  0.00     0.034 A 
BRANCH  48  62
ATOM     62  C   UNL A   1      39.530  32.090  35.690  1.00  0.00     0.023 A 
ATOM     63  C   UNL A   1      38.773  31.577  36.759  1.00  0.00     0.031 A 
ATOM     64  C   UNL A   1      39.854  33.458  35.714  1.00  0.00     0.131 A 
ATOM     65  C   UNL A   1      38.297  32.438  37.758  1.00  0.00     0.055 A 
ATOM     66  C   UNL A   1      39.450  34.295  36.756  1.00  0.00     0.041 A 
ATOM     67  F   UNL A   1      40.550  34.014  34.709  1.00  0.00    -0.206 F 
ATOM     68  C   UNL A   1      38.651  33.790  37.778  1.00  0.00     0.022 A 
BRANCH  65  69
ATOM     69  S   UNL A   1      37.071  31.806  38.936  1.00  0.00     0.124 S 
ATOM     70  O   UNL A   1      37.777  31.955  40.206  1.00  0.00    -0.237 OA
ATOM     71  O   UNL A   1      35.940  32.703  38.726  1.00  0.00    -0.237 OA
ATOM     72  O   UNL A   1      36.862  30.425  38.507  1.00  0.00    -0.744 OA
ENDBRANCH  65  69
ENDBRANCH  48  62
BRANCH  49  73
ATOM     73  C   UNL A   1      41.934  26.791  27.503  1.00  0.00     0.023 A 
ATOM     74  C   UNL A   1      41.729  25.406  27.410  1.00  0.00     0.031 A 
ATOM     75  C   UNL A   1      42.560  27.439  26.422  1.00  0.00     0.131 A 
ATOM     76  C   UNL A   1      42.184  24.706  26.280  1.00  0.00     0.055 A 
ATOM     77  C   UNL A   1      42.963  26.747  25.279  1.00  0.00     0.041 A 
ATOM     78  F   UNL A   1      42.781  28.763  26.460  1.00  0.00    -0.206 F 
ATOM     79  C   UNL A   1      42.786  25.369  25.208  1.00  0.00     0.022 A 
BRANCH  76  80
ATOM     80  S   UNL A   1      42.041  22.898  26.264  1.00  0.00     0.124 S 
ATOM     81  O   UNL A   1      40.601  22.712  26.401  1.00  0.00    -0.237 OA
ATOM     82  O   UNL A   1      42.612  22.561  24.964  1.00  0.00    -0.237 OA
ATOM     83  O   UNL A   1      42.838  22.484  27.418  1.00  0.00    -0.744 OA
ENDBRANCH  76  80
ENDBRANCH  49  73
BRANCH  61  84
ATOM     84  C   UNL A   1      44.559  27.151  33.962  1.00  0.00     0.023 A 
ATOM     85  C   UNL A   1      44.350  25.972  34.697  1.00  0.00     0.031 A 
ATOM     86  C   UNL A   1      45.872  27.647  33.866  1.00  0.00     0.131 A 
ATOM     87  C   UNL A   1      45.426  25.359  35.356  1.00  0.00     0.055 A 
ATOM     88  C   UNL A   1      46.949  26.997  34.469  1.00  0.00     0.041 A 
ATOM     89  F   UNL A   1      46.129  28.770  33.177  1.00  0.00    -0.206 F 
ATOM     90  C   UNL A   1      46.728  25.853  35.231  1.00  0.00     0.022 A 
BRANCH  87  91
ATOM     91  S   UNL A   1      45.091  23.958  36.458  1.00  0.00     0.124 S 
ATOM     92  O   UNL A   1      46.435  23.454  36.723  1.00  0.00    -0.237 OA
ATOM     93  O   UNL A   1      44.419  24.601  37.582  1.00  0.00    -0.237 OA
ATOM     94  O   UNL A   1      44.246  23.080  35.651  1.00  0.00    -0.744 OA
ENDBRANCH  87  91
ENDBRANCH  61  84
ENDBRANCH  35  36
ENDBRANCH  28  30
ENDBRANCH  27  28
ENDBRANCH  26  27
ENDBRANCH  25  26
ENDBRANCH   1  25
TORSDOF 21
ENDMDL
MODEL 3
REMARK VINA RESULT:     -10.4      1.650      8.254
REMARK SMILES C[C@@](NC(=O)NCC(N)=O)(C(=O)OCCOCCOC(=O)c1ccc(-c2c3nc(c(-c4cc(S(=O)(=O)[O-])ccc4F)c4ccc([nH]4)c(-c4cc(S(=O)(=O)[O-])ccc4F)c4nc(c(-c5cc(S(=O)(=O)[O-])ccc5F)c5ccc2[nH]5)C=C4)C=C3)cc1)C(F)(F)F
REMARK SMILES IDX 16 1 15 2 14 3 13 4 11 5 12 6 2 7 1 8 3 9 4 10 5 12 6 13
REMARK SMILES IDX 7 15 8 16 9 17 10 18 85 21 86 22 87 23 88 24 17 25 18 26
REMARK SMILES IDX 19 27 20 28 21 29 22 30 23 31 84 32 24 33 83 34 25 35 26 36
REMARK SMILES IDX 27 37 77 38 28 39 82 40 76 41 78 42 29 43 81 44 75 45 74 46
REMARK SMILES IDX 30 48 62 49 42 50 61 51 43 52 46 53 60 54 79 55 44 56 45 57
REMARK SMILES IDX 59 59 80 60 47 61 31 62 32 63 40 64 33 65 39 66 41 67 38 68
REMARK SMILES IDX 34 69 35 70 36 71 37 72 63 73 64 74 72 75 65 76 71 77 73 78
REMARK SMILES IDX 70 79 66 80 67 81 68 82 69 83 48 84 49 85 57 86 50 87 56 88
REMARK SMILES IDX 58 89 55 90 51 91 52 92 53 93 54 94
REMARK H PARENT 3 11 6 14 9 19 9 20 78 47 46 58
REMARK Flexibility Score: inf
ROOT
ATOM      1  O   UNL A   1      32.214  30.224  26.818  1.00  0.00    -0.374 OA
ENDROOT
BRANCH   1   2
ATOM      2  C   UNL A   1      32.558  29.097  26.041  1.00  0.00     0.202 C 
BRANCH   2   3
ATOM      3  C   UNL A   1      31.960  27.700  26.283  1.00  0.00     0.261 C 
BRANCH   3   4
ATOM      4  O   UNL A   1      32.247  26.610  25.402  1.00  0.00    -0.461 OA
BRANCH   4   5
ATOM      5  C   UNL A   1      31.198  25.855  24.971  1.00  0.00     0.341 C 
ATOM      6  O   UNL A   1      30.050  25.993  25.374  1.00  0.00    -0.249 OA
BRANCH   5   7
ATOM      7  C   UNL A   1      31.649  24.736  24.048  1.00  0.00     0.232 C 
ATOM      8  C   UNL A   1      30.388  24.200  23.319  1.00  0.00     0.058 C 
BRANCH   7   9
ATOM      9  N   UNL A   1      32.608  25.205  22.986  1.00  0.00    -0.315 N 
ATOM     10  C   UNL A   1      32.828  26.264  22.202  1.00  0.00     0.316 C 
ATOM     11  H   UNL A   1      33.288  24.513  22.816  1.00  0.00     0.166 HD
ATOM     12  O   UNL A   1      33.932  26.306  21.653  1.00  0.00    -0.249 OA
ATOM     13  N   UNL A   1      31.958  27.233  21.920  1.00  0.00    -0.329 N 
ATOM     14  H   UNL A   1      32.323  27.929  21.327  1.00  0.00     0.165 HD
BRANCH  13  15
ATOM     15  C   UNL A   1      30.593  27.465  22.310  1.00  0.00     0.217 C 
BRANCH  15  16
ATOM     16  C   UNL A   1      30.074  28.900  22.344  1.00  0.00     0.236 C 
ATOM     17  N   UNL A   1      30.955  29.835  21.863  1.00  0.00    -0.368 N 
ATOM     18  O   UNL A   1      28.966  29.220  22.759  1.00  0.00    -0.273 OA
ATOM     19  H   UNL A   1      31.839  29.554  21.534  1.00  0.00     0.159 HD
ATOM     20  H   UNL A   1      30.702  30.786  21.845  1.00  0.00     0.159 HD
ENDBRANCH  15  16
ENDBRANCH  13  15
ENDBRANCH   7   9
BRANCH   7  21
ATOM     21  C   UNL A   1      32.159  23.598  24.945  1.00  0.00     0.422 C 
ATOM     22  F   UNL A   1      32.298  22.440  24.251  1.00  0.00    -0.168 F 
ATOM     23  F   UNL A   1      33.397  23.894  25.428  1.00  0.00    -0.168 F 
ATOM     24  F   UNL A   1      31.382  23.346  26.015  1.00  0.00    -0.168 F 
ENDBRANCH   7  21
ENDBRANCH   5   7
ENDBRANCH   4   5
ENDBRANCH   3   4
ENDBRANCH   2   3
ENDBRANCH   1   2
BRANCH   1  25
ATOM     25  C   UNL A   1      31.433  31.282  26.288  1.00  0.00     0.202 C 
BRANCH  25  26
ATOM     26  C   UNL A   1      31.491  32.697  26.868  1.00  0.00     0.261 C 
BRANCH  26  27
ATOM     27  O   UNL A   1      32.756  33.354  26.735  1.00  0.00    -0.460 OA
BRANCH  27  28
ATOM     28  C   UNL A   1      33.265  33.801  27.906  1.00  0.00     0.338 C 
ATOM     29  O   UNL A   1      32.721  34.574  28.695  1.00  0.00    -0.246 OA
BRANCH  28  30
ATOM     30  C   UNL A   1      34.501  33.081  28.237  1.00  0.00     0.060 A 
ATOM     31  C   UNL A   1      34.377  31.810  28.812  1.00  0.00     0.016 A 
ATOM     32  C   UNL A   1      35.754  33.675  28.072  1.00  0.00     0.016 A 
ATOM     33  C   UNL A   1      35.503  31.147  29.282  1.00  0.00     0.010 A 
ATOM     34  C   UNL A   1      36.884  33.017  28.565  1.00  0.00     0.010 A 
ATOM     35  C   UNL A   1      36.753  31.774  29.213  1.00  0.00    -0.014 A 
BRANCH  35  36
ATOM     36  C   UNL A   1      37.864  31.236  30.030  1.00  0.00     0.031 A 
ATOM     37  C   UNL A   1      38.773  30.215  29.404  1.00  0.00     0.074 A 
ATOM     38  C   UNL A   1      38.090  31.688  31.274  1.00  0.00     0.049 A 
ATOM     39  N   UNL A   1      39.794  29.581  29.917  1.00  0.00    -0.248 NA
ATOM     40  C   UNL A   1      38.486  29.862  28.004  1.00  0.00     0.031 C 
ATOM     41  C   UNL A   1      37.311  32.723  31.950  1.00  0.00     0.029 A 
ATOM     42  N   UNL A   1      39.046  31.331  32.189  1.00  0.00    -0.354 N 
ATOM     43  C   UNL A   1      40.272  28.754  28.906  1.00  0.00     0.074 A 
ATOM     44  C   UNL A   1      39.403  28.937  27.765  1.00  0.00     0.031 C 
ATOM     45  C   UNL A   1      37.816  32.912  33.182  1.00  0.00     0.029 A 
ATOM     46  C   UNL A   1      38.927  31.984  33.393  1.00  0.00     0.049 A 
ATOM     47  H   UNL A   1      39.751  30.669  32.003  1.00  0.00     0.167 HD
ATOM     48  C   UNL A   1      41.344  27.924  28.928  1.00  0.00     0.034 A 
ATOM     49  C   UNL A   1      39.620  31.827  34.538  1.00  0.00     0.034 A 
ATOM     50  C   UNL A   1      42.183  27.741  30.086  1.00  0.00     0.049 A 
ATOM     51  C   UNL A   1      40.742  30.817  34.576  1.00  0.00     0.074 A 
ATOM     52  C   UNL A   1      43.293  26.927  30.228  1.00  0.00     0.029 A 
ATOM     53  N   UNL A   1      41.995  28.371  31.310  1.00  0.00    -0.354 N 
ATOM     54  N   UNL A   1      41.186  30.036  33.616  1.00  0.00    -0.248 NA
ATOM     55  C   UNL A   1      41.461  30.674  35.848  1.00  0.00     0.031 C 
ATOM     56  C   UNL A   1      43.726  27.007  31.557  1.00  0.00     0.029 A 
ATOM     57  C   UNL A   1      42.942  27.937  32.223  1.00  0.00     0.049 A 
ATOM     58  H   UNL A   1      41.290  29.032  31.501  1.00  0.00     0.167 HD
ATOM     59  C   UNL A   1      42.257  29.332  34.164  1.00  0.00     0.074 A 
ATOM     60  C   UNL A   1      42.396  29.791  35.530  1.00  0.00     0.031 C 
ATOM     61  C   UNL A   1      43.056  28.396  33.589  1.00  0.00     0.034 A 
BRANCH  48  62
ATOM     62  C   UNL A   1      41.611  27.112  27.683  1.00  0.00     0.023 A 
ATOM     63  C   UNL A   1      41.307  25.740  27.611  1.00  0.00     0.031 A 
ATOM     64  C   UNL A   1      42.233  27.705  26.570  1.00  0.00     0.131 A 
ATOM     65  C   UNL A   1      41.701  24.993  26.490  1.00  0.00     0.055 A 
ATOM     66  C   UNL A   1      42.545  26.974  25.422  1.00  0.00     0.041 A 
ATOM     67  F   UNL A   1      42.573  29.004  26.588  1.00  0.00    -0.206 F 
ATOM     68  C   UNL A   1      42.295  25.606  25.384  1.00  0.00     0.022 A 
BRANCH  65  69
ATOM     69  S   UNL A   1      41.580  23.184  26.568  1.00  0.00     0.124 S 
ATOM     70  O   UNL A   1      42.209  22.902  27.857  1.00  0.00    -0.237 OA
ATOM     71  O   UNL A   1      40.141  22.962  26.498  1.00  0.00    -0.237 OA
ATOM     72  O   UNL A   1      42.340  22.739  25.403  1.00  0.00    -0.744 OA
ENDBRANCH  65  69
ENDBRANCH  48  62
BRANCH  49  73
ATOM     73  C   UNL A   1      39.252  32.606  35.754  1.00  0.00     0.023 A 
ATOM     74  C   UNL A   1      39.687  33.928  35.931  1.00  0.00     0.031 A 
ATOM     75  C   UNL A   1      38.490  32.020  36.781  1.00  0.00     0.131 A 
ATOM     76  C   UNL A   1      39.393  34.607  37.125  1.00  0.00     0.055 A 
ATOM     77  C   UNL A   1      38.156  32.716  37.943  1.00  0.00     0.041 A 
ATOM     78  F   UNL A   1      38.049  30.757  36.663  1.00  0.00    -0.206 F 
ATOM     79  C   UNL A   1      38.619  34.016  38.125  1.00  0.00     0.022 A 
BRANCH  76  80
ATOM     80  S   UNL A   1      40.102  36.256  37.382  1.00  0.00     0.124 S 
ATOM     81  O   UNL A   1      39.965  36.850  36.057  1.00  0.00    -0.237 OA
ATOM     82  O   UNL A   1      39.236  36.800  38.422  1.00  0.00    -0.237 OA
ATOM     83  O   UNL A   1      41.474  35.975  37.802  1.00  0.00    -0.744 OA
ENDBRANCH  76  80
ENDBRANCH  49  73
BRANCH  61  84
ATOM     84  C   UNL A   1      44.182  27.843  34.430  1.00  0.00     0.023 A 
ATOM     85  C   UNL A   1      44.036  26.666  35.184  1.00  0.00     0.031 A 
ATOM     86  C   UNL A   1      45.419  28.510  34.479  1.00  0.00     0.131 A 
ATOM     87  C   UNL A   1      45.089  26.223  35.999  1.00  0.00     0.055 A 
ATOM     88  C   UNL A   1      46.485  28.029  35.241  1.00  0.00     0.041 A 
ATOM     89  F   UNL A   1      45.614  29.640  33.780  1.00  0.00    -0.206 F 
ATOM     90  C   UNL A   1      46.319  26.887  36.017  1.00  0.00     0.022 A 
BRANCH  87  91
ATOM     91  S   UNL A   1      44.801  24.819  37.110  1.00  0.00     0.124 S 
ATOM     92  O   UNL A   1      44.422  23.765  36.174  1.00  0.00    -0.237 OA
ATOM     93  O   UNL A   1      46.100  24.660  37.755  1.00  0.00    -0.237 OA
ATOM     94  O   UNL A   1      43.728  25.287  37.985  1.00  0.00    -0.744 OA
ENDBRANCH  87  91
ENDBRANCH  61  84
ENDBRANCH  35  36
ENDBRANCH  28  30
ENDBRANCH  27  28
ENDBRANCH  26  27
ENDBRANCH  25  26
ENDBRANCH   1  25
TORSDOF 21
ENDMDL
