MODEL 1
REMARK VINA RESULT:     -10.2      0.000      0.000
REMARK SMILES CCc1ccc(OCC(=O)Nc2cc(C)c(O)c(C(=O)OCCOCCOC(=O)c3ccc(-c4c5nc(c(-c6cc(S(=O)(=O)[O-])ccc6F)c6ccc([nH]6)c(-c6cc(S(=O)(=O)[O-])ccc6F)c6nc(c(-c7cc(S(=O)(=O)[O-])ccc7F)c7ccc4[nH]7)C=C6)C=C5)cc3)c2)cc1
REMARK SMILES IDX 23 1 22 2 21 3 19 4 20 5 18 6 12 7 13 8 93 9 14 10 15 11
REMARK SMILES IDX 16 12 11 13 9 14 10 15 8 17 7 18 6 19 3 20 4 21 95 22 5 23
REMARK SMILES IDX 94 24 2 25 1 26 17 27 24 29 25 30 26 31 27 32 28 33 29 34
REMARK SMILES IDX 30 35 31 36 92 37 32 38 91 39 33 40 34 41 35 42 85 43 36 44
REMARK SMILES IDX 90 45 84 46 86 47 37 48 89 49 83 50 82 51 38 53 70 54 50 55
REMARK SMILES IDX 69 56 51 57 54 58 68 59 87 60 52 61 53 62 67 64 88 65 55 66
REMARK SMILES IDX 39 67 40 68 48 69 41 70 47 71 49 72 46 73 42 74 43 75 44 76
REMARK SMILES IDX 45 77 71 78 72 79 80 80 73 81 79 82 81 83 78 84 74 85 75 86
REMARK SMILES IDX 76 87 77 88 56 89 57 90 65 91 58 92 64 93 66 94 63 95 59 96
REMARK SMILES IDX 60 97 61 98 62 99
REMARK H PARENT 11 16 17 28 86 52 54 63
REMARK Flexibility Score: inf
ROOT
ATOM      1  C   UNL A   1      34.129  29.792  27.198  1.00  0.00     0.202 C 
ENDROOT
BRANCH   1   2
ATOM      2  C   UNL A   1      33.067  28.885  26.569  1.00  0.00     0.261 C 
BRANCH   2   3
ATOM      3  O   UNL A   1      33.694  27.831  25.821  1.00  0.00    -0.460 OA
BRANCH   3   4
ATOM      4  C   UNL A   1      33.666  27.969  24.476  1.00  0.00     0.342 C 
ATOM      5  O   UNL A   1      33.802  29.001  23.836  1.00  0.00    -0.246 OA
BRANCH   4   6
ATOM      6  C   UNL A   1      33.643  26.641  23.814  1.00  0.00     0.104 A 
ATOM      7  C   UNL A   1      34.158  24.268  23.821  1.00  0.00     0.042 A 
ATOM      8  C   UNL A   1      33.733  24.202  22.485  1.00  0.00     0.033 A 
ATOM      9  C   UNL A   1      34.136  25.500  24.463  1.00  0.00     0.045 A 
ATOM     10  C   UNL A   1      33.236  25.331  21.813  1.00  0.00    -0.006 A 
ATOM     11  C   UNL A   1      32.723  25.182  20.409  1.00  0.00     0.048 C 
ATOM     12  C   UNL A   1      33.175  26.548  22.497  1.00  0.00     0.133 A 
BRANCH   7  13
ATOM     13  N   UNL A   1      34.597  23.064  24.393  1.00  0.00    -0.323 N 
ATOM     14  C   UNL A   1      34.190  22.320  25.463  1.00  0.00     0.262 C 
ATOM     15  O   UNL A   1      34.820  21.277  25.687  1.00  0.00    -0.271 OA
ATOM     16  H   UNL A   1      35.367  22.671  23.921  1.00  0.00     0.170 HD
BRANCH  14  17
ATOM     17  C   UNL A   1      32.931  22.648  26.279  1.00  0.00     0.329 C 
BRANCH  17  18
ATOM     18  O   UNL A   1      31.648  22.528  25.697  1.00  0.00    -0.484 OA
BRANCH  18  19
ATOM     19  C   UNL A   1      31.028  23.687  25.335  1.00  0.00     0.120 A 
ATOM     20  C   UNL A   1      29.736  25.984  24.372  1.00  0.00    -0.048 A 
ATOM     21  C   UNL A   1      30.032  24.916  23.519  1.00  0.00     0.007 A 
ATOM     22  C   UNL A   1      30.091  25.881  25.720  1.00  0.00     0.007 A 
ATOM     23  C   UNL A   1      30.665  23.772  23.996  1.00  0.00     0.047 A 
ATOM     24  C   UNL A   1      30.723  24.734  26.203  1.00  0.00     0.047 A 
BRANCH  20  25
ATOM     25  C   UNL A   1      29.020  27.210  23.866  1.00  0.00     0.032 C 
ATOM     26  C   UNL A   1      29.977  28.334  23.494  1.00  0.00     0.009 C 
ENDBRANCH  20  25
ENDBRANCH  18  19
ENDBRANCH  17  18
ENDBRANCH  14  17
ENDBRANCH   7  13
BRANCH  12  27
ATOM     27  O   UNL A   1      32.675  27.632  21.821  1.00  0.00    -0.507 OA
ATOM     28  H   UNL A   1      33.089  27.925  21.032  1.00  0.00     0.293 HD
ENDBRANCH  12  27
ENDBRANCH   4   6
ENDBRANCH   3   4
ENDBRANCH   2   3
ENDBRANCH   1   2
BRANCH   1  29
ATOM     29  O   UNL A   1      33.764  31.173  27.250  1.00  0.00    -0.374 OA
BRANCH  29  30
ATOM     30  C   UNL A   1      32.397  31.459  26.946  1.00  0.00     0.202 C 
BRANCH  30  31
ATOM     31  C   UNL A   1      31.927  32.883  27.265  1.00  0.00     0.261 C 
BRANCH  31  32
ATOM     32  O   UNL A   1      33.004  33.833  27.229  1.00  0.00    -0.460 OA
BRANCH  32  33
ATOM     33  C   UNL A   1      33.211  34.516  28.383  1.00  0.00     0.338 C 
ATOM     34  O   UNL A   1      32.532  35.419  28.842  1.00  0.00    -0.246 OA
BRANCH  33  35
ATOM     35  C   UNL A   1      34.326  33.876  29.106  1.00  0.00     0.060 A 
ATOM     36  C   UNL A   1      34.047  32.903  30.074  1.00  0.00     0.016 A 
ATOM     37  C   UNL A   1      35.641  34.234  28.830  1.00  0.00     0.016 A 
ATOM     38  C   UNL A   1      35.091  32.275  30.764  1.00  0.00     0.010 A 
ATOM     39  C   UNL A   1      36.677  33.598  29.519  1.00  0.00     0.010 A 
ATOM     40  C   UNL A   1      36.426  32.612  30.497  1.00  0.00    -0.014 A 
BRANCH  40  41
ATOM     41  C   UNL A   1      37.558  32.058  31.308  1.00  0.00     0.031 A 
ATOM     42  C   UNL A   1      38.403  30.958  30.706  1.00  0.00     0.074 A 
ATOM     43  C   UNL A   1      37.837  32.484  32.559  1.00  0.00     0.049 A 
ATOM     44  N   UNL A   1      39.326  30.214  31.259  1.00  0.00    -0.248 NA
ATOM     45  C   UNL A   1      38.125  30.619  29.301  1.00  0.00     0.031 C 
ATOM     46  C   UNL A   1      37.112  33.523  33.291  1.00  0.00     0.029 A 
ATOM     47  N   UNL A   1      38.817  32.087  33.444  1.00  0.00    -0.354 N 
ATOM     48  C   UNL A   1      39.709  29.303  30.280  1.00  0.00     0.074 A 
ATOM     49  C   UNL A   1      38.844  29.522  29.142  1.00  0.00     0.031 C 
ATOM     50  C   UNL A   1      37.694  33.706  34.491  1.00  0.00     0.029 A 
ATOM     51  C   UNL A   1      38.802  32.764  34.645  1.00  0.00     0.049 A 
ATOM     52  H   UNL A   1      39.471  31.382  33.236  1.00  0.00     0.167 HD
ATOM     53  C   UNL A   1      40.721  28.399  30.293  1.00  0.00     0.034 A 
ATOM     54  C   UNL A   1      39.580  32.633  35.743  1.00  0.00     0.034 A 
ATOM     55  C   UNL A   1      41.622  28.214  31.399  1.00  0.00     0.049 A 
ATOM     56  C   UNL A   1      40.676  31.585  35.754  1.00  0.00     0.074 A 
ATOM     57  C   UNL A   1      42.694  27.344  31.500  1.00  0.00     0.029 A 
ATOM     58  N   UNL A   1      41.573  28.926  32.589  1.00  0.00    -0.354 N 
ATOM     59  N   UNL A   1      41.028  30.741  34.811  1.00  0.00    -0.248 NA
ATOM     60  C   UNL A   1      41.484  31.476  36.979  1.00  0.00     0.031 C 
ATOM     61  C   UNL A   1      43.259  27.490  32.770  1.00  0.00     0.029 A 
ATOM     62  C   UNL A   1      42.590  28.506  33.432  1.00  0.00     0.049 A 
ATOM     63  H   UNL A   1      40.914  29.625  32.803  1.00  0.00     0.167 HD
ATOM     64  C   UNL A   1      42.129  30.046  35.314  1.00  0.00     0.074 A 
ATOM     65  C   UNL A   1      42.389  30.576  36.633  1.00  0.00     0.031 C 
ATOM     66  C   UNL A   1      42.861  29.059  34.737  1.00  0.00     0.034 A 
BRANCH  53  67
ATOM     67  C   UNL A   1      40.898  27.551  29.056  1.00  0.00     0.023 A 
ATOM     68  C   UNL A   1      41.846  27.885  28.073  1.00  0.00     0.031 A 
ATOM     69  C   UNL A   1      40.083  26.429  28.829  1.00  0.00     0.131 A 
ATOM     70  C   UNL A   1      41.883  27.175  26.867  1.00  0.00     0.055 A 
ATOM     71  C   UNL A   1      40.198  25.661  27.670  1.00  0.00     0.041 A 
ATOM     72  F   UNL A   1      39.148  26.071  29.723  1.00  0.00    -0.206 F 
ATOM     73  C   UNL A   1      41.088  26.045  26.670  1.00  0.00     0.022 A 
BRANCH  70  74
ATOM     74  S   UNL A   1      42.858  27.858  25.500  1.00  0.00     0.124 S 
ATOM     75  O   UNL A   1      42.979  26.697  24.621  1.00  0.00    -0.237 OA
ATOM     76  O   UNL A   1      42.010  28.941  25.015  1.00  0.00    -0.237 OA
ATOM     77  O   UNL A   1      44.103  28.277  26.143  1.00  0.00    -0.744 OA
ENDBRANCH  70  74
ENDBRANCH  53  67
BRANCH  54  78
ATOM     78  C   UNL A   1      39.372  33.487  36.956  1.00  0.00     0.023 A 
ATOM     79  C   UNL A   1      40.108  34.673  37.138  1.00  0.00     0.031 A 
ATOM     80  C   UNL A   1      38.539  33.071  38.010  1.00  0.00     0.131 A 
ATOM     81  C   UNL A   1      40.063  35.349  38.368  1.00  0.00     0.055 A 
ATOM     82  C   UNL A   1      38.441  33.789  39.205  1.00  0.00     0.041 A 
ATOM     83  F   UNL A   1      37.819  31.944  37.902  1.00  0.00    -0.206 F 
ATOM     84  C   UNL A   1      39.224  34.923  39.398  1.00  0.00     0.022 A 
BRANCH  81  85
ATOM     85  S   UNL A   1      41.234  36.707  38.657  1.00  0.00     0.124 S 
ATOM     86  O   UNL A   1      41.992  36.205  39.798  1.00  0.00    -0.237 OA
ATOM     87  O   UNL A   1      41.949  36.767  37.387  1.00  0.00    -0.237 OA
ATOM     88  O   UNL A   1      40.367  37.850  38.938  1.00  0.00    -0.744 OA
ENDBRANCH  81  85
ENDBRANCH  54  78
BRANCH  66  89
ATOM     89  C   UNL A   1      44.068  28.547  35.488  1.00  0.00     0.023 A 
ATOM     90  C   UNL A   1      43.979  27.516  36.438  1.00  0.00     0.031 A 
ATOM     91  C   UNL A   1      45.338  29.102  35.233  1.00  0.00     0.131 A 
ATOM     92  C   UNL A   1      45.126  27.106  37.136  1.00  0.00     0.055 A 
ATOM     93  C   UNL A   1      46.485  28.646  35.883  1.00  0.00     0.041 A 
ATOM     94  F   UNL A   1      45.484  30.090  34.336  1.00  0.00    -0.206 F 
ATOM     95  C   UNL A   1      46.381  27.651  36.850  1.00  0.00     0.022 A 
BRANCH  92  96
ATOM     96  S   UNL A   1      44.945  25.907  38.486  1.00  0.00     0.124 S 
ATOM     97  O   UNL A   1      44.083  24.898  37.883  1.00  0.00    -0.237 OA
ATOM     98  O   UNL A   1      46.326  25.503  38.731  1.00  0.00    -0.237 OA
ATOM     99  O   UNL A   1      44.330  26.688  39.558  1.00  0.00    -0.744 OA
ENDBRANCH  92  96
ENDBRANCH  66  89
ENDBRANCH  40  41
ENDBRANCH  33  35
ENDBRANCH  32  33
ENDBRANCH  31  32
ENDBRANCH  30  31
ENDBRANCH  29  30
ENDBRANCH   1  29
TORSDOF 23
ENDMDL
MODEL 2
REMARK VINA RESULT:     -10.2      1.788      3.135
REMARK SMILES CCc1ccc(OCC(=O)Nc2cc(C)c(O)c(C(=O)OCCOCCOC(=O)c3ccc(-c4c5nc(c(-c6cc(S(=O)(=O)[O-])ccc6F)c6ccc([nH]6)c(-c6cc(S(=O)(=O)[O-])ccc6F)c6nc(c(-c7cc(S(=O)(=O)[O-])ccc7F)c7ccc4[nH]7)C=C6)C=C5)cc3)c2)cc1
REMARK SMILES IDX 23 1 22 2 21 3 19 4 20 5 18 6 12 7 13 8 93 9 14 10 15 11
REMARK SMILES IDX 16 12 11 13 9 14 10 15 8 17 7 18 6 19 3 20 4 21 95 22 5 23
REMARK SMILES IDX 94 24 2 25 1 26 17 27 24 29 25 30 26 31 27 32 28 33 29 34
REMARK SMILES IDX 30 35 31 36 92 37 32 38 91 39 33 40 34 41 35 42 85 43 36 44
REMARK SMILES IDX 90 45 84 46 86 47 37 48 89 49 83 50 82 51 38 53 70 54 50 55
REMARK SMILES IDX 69 56 51 57 54 58 68 59 87 60 52 61 53 62 67 64 88 65 55 66
REMARK SMILES IDX 39 67 40 68 48 69 41 70 47 71 49 72 46 73 42 74 43 75 44 76
REMARK SMILES IDX 45 77 71 78 72 79 80 80 73 81 79 82 81 83 78 84 74 85 75 86
REMARK SMILES IDX 76 87 77 88 56 89 57 90 65 91 58 92 64 93 66 94 63 95 59 96
REMARK SMILES IDX 60 97 61 98 62 99
REMARK H PARENT 11 16 17 28 86 52 54 63
REMARK Flexibility Score: inf
ROOT
ATOM      1  C   UNL A   1      33.212  29.272  26.632  1.00  0.00     0.202 C 
ENDROOT
BRANCH   1   2
ATOM      2  C   UNL A   1      33.513  29.433  25.139  1.00  0.00     0.261 C 
BRANCH   2   3
ATOM      3  O   UNL A   1      33.879  28.167  24.567  1.00  0.00    -0.460 OA
BRANCH   3   4
ATOM      4  C   UNL A   1      33.157  27.778  23.492  1.00  0.00     0.342 C 
ATOM      5  O   UNL A   1      33.555  27.642  22.344  1.00  0.00    -0.246 OA
BRANCH   4   6
ATOM      6  C   UNL A   1      31.806  27.323  23.904  1.00  0.00     0.104 A 
ATOM      7  C   UNL A   1      30.377  25.842  25.195  1.00  0.00     0.042 A 
ATOM      8  C   UNL A   1      29.266  26.386  24.533  1.00  0.00     0.033 A 
ATOM      9  C   UNL A   1      31.644  26.299  24.848  1.00  0.00     0.045 A 
ATOM     10  C   UNL A   1      29.403  27.413  23.583  1.00  0.00    -0.006 A 
ATOM     11  C   UNL A   1      28.170  28.009  22.966  1.00  0.00     0.048 C 
ATOM     12  C   UNL A   1      30.682  27.892  23.290  1.00  0.00     0.133 A 
BRANCH   7  13
ATOM     13  N   UNL A   1      30.108  24.850  26.150  1.00  0.00    -0.323 N 
ATOM     14  C   UNL A   1      30.791  23.756  26.598  1.00  0.00     0.262 C 
ATOM     15  O   UNL A   1      30.242  23.081  27.479  1.00  0.00    -0.271 OA
ATOM     16  H   UNL A   1      29.236  24.967  26.592  1.00  0.00     0.170 HD
BRANCH  14  17
ATOM     17  C   UNL A   1      32.228  23.432  26.163  1.00  0.00     0.329 C 
BRANCH  17  18
ATOM     18  O   UNL A   1      32.490  22.950  24.860  1.00  0.00    -0.484 OA
BRANCH  18  19
ATOM     19  C   UNL A   1      33.073  21.721  24.767  1.00  0.00     0.120 A 
ATOM     20  C   UNL A   1      34.067  19.111  24.491  1.00  0.00    -0.048 A 
ATOM     21  C   UNL A   1      32.741  19.413  24.163  1.00  0.00     0.007 A 
ATOM     22  C   UNL A   1      34.891  20.140  24.953  1.00  0.00     0.007 A 
ATOM     23  C   UNL A   1      32.248  20.708  24.290  1.00  0.00     0.047 A 
ATOM     24  C   UNL A   1      34.402  21.441  25.080  1.00  0.00     0.047 A 
BRANCH  20  25
ATOM     25  C   UNL A   1      34.613  17.717  24.322  1.00  0.00     0.032 C 
ATOM     26  C   UNL A   1      33.594  16.758  23.721  1.00  0.00     0.009 C 
ENDBRANCH  20  25
ENDBRANCH  18  19
ENDBRANCH  17  18
ENDBRANCH  14  17
ENDBRANCH   7  13
BRANCH  12  27
ATOM     27  O   UNL A   1      30.786  28.902  22.367  1.00  0.00    -0.507 OA
ATOM     28  H   UNL A   1      30.013  29.271  21.987  1.00  0.00     0.293 HD
ENDBRANCH  12  27
ENDBRANCH   4   6
ENDBRANCH   3   4
ENDBRANCH   2   3
ENDBRANCH   1   2
BRANCH   1  29
ATOM     29  O   UNL A   1      32.903  30.496  27.304  1.00  0.00    -0.374 OA
BRANCH  29  30
ATOM     30  C   UNL A   1      31.833  31.254  26.737  1.00  0.00     0.202 C 
BRANCH  30  31
ATOM     31  C   UNL A   1      31.819  32.748  27.080  1.00  0.00     0.261 C 
BRANCH  31  32
ATOM     32  O   UNL A   1      33.139  33.267  27.305  1.00  0.00    -0.460 OA
BRANCH  32  33
ATOM     33  C   UNL A   1      33.252  34.129  28.347  1.00  0.00     0.338 C 
ATOM     34  O   UNL A   1      32.495  35.039  28.640  1.00  0.00    -0.246 OA
BRANCH  33  35
ATOM     35  C   UNL A   1      34.375  33.688  29.194  1.00  0.00     0.060 A 
ATOM     36  C   UNL A   1      35.648  34.232  28.983  1.00  0.00     0.016 A 
ATOM     37  C   UNL A   1      34.174  32.739  30.191  1.00  0.00     0.016 A 
ATOM     38  C   UNL A   1      36.726  33.834  29.783  1.00  0.00     0.010 A 
ATOM     39  C   UNL A   1      35.254  32.353  30.989  1.00  0.00     0.010 A 
ATOM     40  C   UNL A   1      36.547  32.888  30.801  1.00  0.00    -0.014 A 
BRANCH  40  41
ATOM     41  C   UNL A   1      37.702  32.343  31.586  1.00  0.00     0.031 A 
ATOM     42  C   UNL A   1      38.504  31.207  30.991  1.00  0.00     0.074 A 
ATOM     43  C   UNL A   1      38.039  32.809  32.808  1.00  0.00     0.049 A 
ATOM     44  N   UNL A   1      39.437  30.467  31.534  1.00  0.00    -0.248 NA
ATOM     45  C   UNL A   1      38.163  30.823  29.612  1.00  0.00     0.031 C 
ATOM     46  C   UNL A   1      37.362  33.886  33.530  1.00  0.00     0.029 A 
ATOM     47  N   UNL A   1      39.048  32.427  33.667  1.00  0.00    -0.354 N 
ATOM     48  C   UNL A   1      39.764  29.515  30.573  1.00  0.00     0.074 A 
ATOM     49  C   UNL A   1      38.857  29.708  29.464  1.00  0.00     0.031 C 
ATOM     50  C   UNL A   1      37.995  34.102  34.698  1.00  0.00     0.029 A 
ATOM     51  C   UNL A   1      39.093  33.147  34.842  1.00  0.00     0.049 A 
ATOM     52  H   UNL A   1      39.682  31.703  33.459  1.00  0.00     0.167 HD
ATOM     53  C   UNL A   1      40.761  28.594  30.579  1.00  0.00     0.034 A 
ATOM     54  C   UNL A   1      39.914  33.042  35.911  1.00  0.00     0.034 A 
ATOM     55  C   UNL A   1      41.704  28.433  31.653  1.00  0.00     0.049 A 
ATOM     56  C   UNL A   1      40.992  31.975  35.916  1.00  0.00     0.074 A 
ATOM     57  C   UNL A   1      42.764  27.549  31.743  1.00  0.00     0.029 A 
ATOM     58  N   UNL A   1      41.715  29.188  32.818  1.00  0.00    -0.354 N 
ATOM     59  N   UNL A   1      41.292  31.092  34.992  1.00  0.00    -0.248 NA
ATOM     60  C   UNL A   1      41.847  31.896  37.112  1.00  0.00     0.031 C 
ATOM     61  C   UNL A   1      43.383  27.730  32.984  1.00  0.00     0.029 A 
ATOM     62  C   UNL A   1      42.758  28.781  33.634  1.00  0.00     0.049 A 
ATOM     63  H   UNL A   1      41.077  29.906  33.032  1.00  0.00     0.167 HD
ATOM     64  C   UNL A   1      42.401  30.395  35.475  1.00  0.00     0.074 A 
ATOM     65  C   UNL A   1      42.723  30.968  36.763  1.00  0.00     0.031 C 
ATOM     66  C   UNL A   1      43.092  29.376  34.905  1.00  0.00     0.034 A 
BRANCH  53  67
ATOM     67  C   UNL A   1      40.873  27.699  29.368  1.00  0.00     0.023 A 
ATOM     68  C   UNL A   1      41.830  27.944  28.368  1.00  0.00     0.031 A 
ATOM     69  C   UNL A   1      39.989  26.623  29.183  1.00  0.00     0.131 A 
ATOM     70  C   UNL A   1      41.812  27.196  27.184  1.00  0.00     0.055 A 
ATOM     71  C   UNL A   1      40.044  25.815  28.047  1.00  0.00     0.041 A 
ATOM     72  F   UNL A   1      39.042  26.351  30.095  1.00  0.00    -0.206 F 
ATOM     73  C   UNL A   1      40.946  26.112  27.029  1.00  0.00     0.022 A 
BRANCH  70  74
ATOM     74  S   UNL A   1      42.813  27.775  25.788  1.00  0.00     0.124 S 
ATOM     75  O   UNL A   1      42.251  29.105  25.559  1.00  0.00    -0.237 OA
ATOM     76  O   UNL A   1      44.166  27.738  26.331  1.00  0.00    -0.237 OA
ATOM     77  O   UNL A   1      42.533  26.798  24.738  1.00  0.00    -0.744 OA
ENDBRANCH  70  74
ENDBRANCH  53  67
BRANCH  54  78
ATOM     78  C   UNL A   1      39.770  33.942  37.100  1.00  0.00     0.023 A 
ATOM     79  C   UNL A   1      39.223  33.463  38.306  1.00  0.00     0.031 A 
ATOM     80  C   UNL A   1      40.051  35.317  37.014  1.00  0.00     0.131 A 
ATOM     81  C   UNL A   1      38.896  34.360  39.337  1.00  0.00     0.055 A 
ATOM     82  C   UNL A   1      39.793  36.193  38.072  1.00  0.00     0.041 A 
ATOM     83  F   UNL A   1      40.564  35.837  35.889  1.00  0.00    -0.206 F 
ATOM     84  C   UNL A   1      39.191  35.719  39.234  1.00  0.00     0.022 A 
BRANCH  81  85
ATOM     85  S   UNL A   1      37.941  33.744  40.754  1.00  0.00     0.124 S 
ATOM     86  O   UNL A   1      38.988  33.151  41.579  1.00  0.00    -0.237 OA
ATOM     87  O   UNL A   1      37.335  34.968  41.266  1.00  0.00    -0.237 OA
ATOM     88  O   UNL A   1      37.010  32.793  40.148  1.00  0.00    -0.744 OA
ENDBRANCH  81  85
ENDBRANCH  54  78
BRANCH  66  89
ATOM     89  C   UNL A   1      44.321  28.870  35.625  1.00  0.00     0.023 A 
ATOM     90  C   UNL A   1      44.257  27.855  36.595  1.00  0.00     0.031 A 
ATOM     91  C   UNL A   1      45.584  29.413  35.320  1.00  0.00     0.131 A 
ATOM     92  C   UNL A   1      45.424  27.451  37.262  1.00  0.00     0.055 A 
ATOM     93  C   UNL A   1      46.749  28.962  35.941  1.00  0.00     0.041 A 
ATOM     94  F   UNL A   1      45.706  30.386  34.403  1.00  0.00    -0.206 F 
ATOM     95  C   UNL A   1      46.672  27.984  36.927  1.00  0.00     0.022 A 
BRANCH  92  96
ATOM     96  S   UNL A   1      45.282  26.276  38.638  1.00  0.00     0.124 S 
ATOM     97  O   UNL A   1      44.258  26.902  39.467  1.00  0.00    -0.237 OA
ATOM     98  O   UNL A   1      44.888  25.046  37.958  1.00  0.00    -0.237 OA
ATOM     99  O   UNL A   1      46.624  26.260  39.216  1.00  0.00    -0.744 OA
ENDBRANCH  92  96
ENDBRANCH  66  89
ENDBRANCH  40  41
ENDBRANCH  33  35
ENDBRANCH  32  33
ENDBRANCH  31  32
ENDBRANCH  30  31
ENDBRANCH  29  30
ENDBRANCH   1  29
TORSDOF 23
ENDMDL
MODEL 3
REMARK VINA RESULT:     -10.1      2.510      7.741
REMARK SMILES CCc1ccc(OCC(=O)Nc2cc(C)c(O)c(C(=O)OCCOCCOC(=O)c3ccc(-c4c5nc(c(-c6cc(S(=O)(=O)[O-])ccc6F)c6ccc([nH]6)c(-c6cc(S(=O)(=O)[O-])ccc6F)c6nc(c(-c7cc(S(=O)(=O)[O-])ccc7F)c7ccc4[nH]7)C=C6)C=C5)cc3)c2)cc1
REMARK SMILES IDX 23 1 22 2 21 3 19 4 20 5 18 6 12 7 13 8 93 9 14 10 15 11
REMARK SMILES IDX 16 12 11 13 9 14 10 15 8 17 7 18 6 19 3 20 4 21 95 22 5 23
REMARK SMILES IDX 94 24 2 25 1 26 17 27 24 29 25 30 26 31 27 32 28 33 29 34
REMARK SMILES IDX 30 35 31 36 92 37 32 38 91 39 33 40 34 41 35 42 85 43 36 44
REMARK SMILES IDX 90 45 84 46 86 47 37 48 89 49 83 50 82 51 38 53 70 54 50 55
REMARK SMILES IDX 69 56 51 57 54 58 68 59 87 60 52 61 53 62 67 64 88 65 55 66
REMARK SMILES IDX 39 67 40 68 48 69 41 70 47 71 49 72 46 73 42 74 43 75 44 76
REMARK SMILES IDX 45 77 71 78 72 79 80 80 73 81 79 82 81 83 78 84 74 85 75 86
REMARK SMILES IDX 76 87 77 88 56 89 57 90 65 91 58 92 64 93 66 94 63 95 59 96
REMARK SMILES IDX 60 97 61 98 62 99
REMARK H PARENT 11 16 17 28 86 52 54 63
REMARK Flexibility Score: inf
ROOT
ATOM      1  C   UNL A   1      34.231  29.639  27.005  1.00  0.00     0.202 C 
ENDROOT
BRANCH   1   2
ATOM      2  C   UNL A   1      33.188  28.599  26.586  1.00  0.00     0.261 C 
BRANCH   2   3
ATOM      3  O   UNL A   1      33.797  27.588  25.767  1.00  0.00    -0.460 OA
BRANCH   3   4
ATOM      4  C   UNL A   1      33.739  27.798  24.433  1.00  0.00     0.342 C 
ATOM      5  O   UNL A   1      33.928  28.852  23.842  1.00  0.00    -0.246 OA
BRANCH   4   6
ATOM      6  C   UNL A   1      33.605  26.513  23.705  1.00  0.00     0.104 A 
ATOM      7  C   UNL A   1      33.924  24.108  23.587  1.00  0.00     0.042 A 
ATOM      8  C   UNL A   1      33.489  24.145  22.254  1.00  0.00     0.033 A 
ATOM      9  C   UNL A   1      34.005  25.303  24.291  1.00  0.00     0.045 A 
ATOM     10  C   UNL A   1      33.083  25.344  21.644  1.00  0.00    -0.006 A 
ATOM     11  C   UNL A   1      32.553  25.309  20.238  1.00  0.00     0.048 C 
ATOM     12  C   UNL A   1      33.124  26.525  22.388  1.00  0.00     0.133 A 
BRANCH   7  13
ATOM     13  N   UNL A   1      34.265  22.844  24.094  1.00  0.00    -0.323 N 
ATOM     14  C   UNL A   1      33.785  22.071  25.111  1.00  0.00     0.262 C 
ATOM     15  O   UNL A   1      34.336  20.975  25.283  1.00  0.00    -0.271 OA
ATOM     16  H   UNL A   1      35.015  22.425  23.613  1.00  0.00     0.170 HD
BRANCH  14  17
ATOM     17  C   UNL A   1      32.536  22.441  25.925  1.00  0.00     0.329 C 
BRANCH  17  18
ATOM     18  O   UNL A   1      31.272  22.527  25.297  1.00  0.00    -0.484 OA
BRANCH  18  19
ATOM     19  C   UNL A   1      30.836  23.776  24.967  1.00  0.00     0.120 A 
ATOM     20  C   UNL A   1      30.006  26.416  24.503  1.00  0.00    -0.048 A 
ATOM     21  C   UNL A   1      30.548  26.040  25.736  1.00  0.00     0.007 A 
ATOM     22  C   UNL A   1      29.892  25.449  23.501  1.00  0.00     0.007 A 
ATOM     23  C   UNL A   1      30.969  24.733  25.966  1.00  0.00     0.047 A 
ATOM     24  C   UNL A   1      30.316  24.137  23.726  1.00  0.00     0.047 A 
BRANCH  20  25
ATOM     25  C   UNL A   1      29.581  27.837  24.239  1.00  0.00     0.032 C 
ATOM     26  C   UNL A   1      29.468  28.148  22.754  1.00  0.00     0.009 C 
ENDBRANCH  20  25
ENDBRANCH  18  19
ENDBRANCH  17  18
ENDBRANCH  14  17
ENDBRANCH   7  13
BRANCH  12  27
ATOM     27  O   UNL A   1      32.712  27.680  21.772  1.00  0.00    -0.507 OA
ATOM     28  H   UNL A   1      32.292  27.640  20.935  1.00  0.00     0.293 HD
ENDBRANCH  12  27
ENDBRANCH   4   6
ENDBRANCH   3   4
ENDBRANCH   2   3
ENDBRANCH   1   2
BRANCH   1  29
ATOM     29  O   UNL A   1      33.808  30.995  26.836  1.00  0.00    -0.374 OA
BRANCH  29  30
ATOM     30  C   UNL A   1      32.410  31.229  27.019  1.00  0.00     0.202 C 
BRANCH  30  31
ATOM     31  C   UNL A   1      31.996  32.695  27.182  1.00  0.00     0.261 C 
BRANCH  31  32
ATOM     32  O   UNL A   1      33.125  33.584  27.180  1.00  0.00    -0.460 OA
BRANCH  32  33
ATOM     33  C   UNL A   1      33.505  34.039  28.400  1.00  0.00     0.338 C 
ATOM     34  O   UNL A   1      32.936  34.864  29.093  1.00  0.00    -0.246 OA
BRANCH  33  35
ATOM     35  C   UNL A   1      34.662  33.243  28.851  1.00  0.00     0.060 A 
ATOM     36  C   UNL A   1      34.485  32.284  29.856  1.00  0.00     0.016 A 
ATOM     37  C   UNL A   1      35.916  33.442  28.284  1.00  0.00     0.016 A 
ATOM     38  C   UNL A   1      35.568  31.510  30.290  1.00  0.00     0.010 A 
ATOM     39  C   UNL A   1      36.989  32.661  28.720  1.00  0.00     0.010 A 
ATOM     40  C   UNL A   1      36.840  31.685  29.728  1.00  0.00    -0.014 A 
BRANCH  40  41
ATOM     41  C   UNL A   1      38.044  30.970  30.261  1.00  0.00     0.031 A 
ATOM     42  C   UNL A   1      38.531  31.316  31.650  1.00  0.00     0.074 A 
ATOM     43  C   UNL A   1      38.723  30.048  29.544  1.00  0.00     0.049 A 
ATOM     44  N   UNL A   1      39.628  30.958  32.267  1.00  0.00    -0.248 NA
ATOM     45  C   UNL A   1      37.684  32.237  32.425  1.00  0.00     0.031 C 
ATOM     46  C   UNL A   1      38.397  29.611  28.186  1.00  0.00     0.029 A 
ATOM     47  N   UNL A   1      39.841  29.308  29.863  1.00  0.00    -0.354 N 
ATOM     48  C   UNL A   1      39.614  31.637  33.481  1.00  0.00     0.074 A 
ATOM     49  C   UNL A   1      38.458  32.504  33.462  1.00  0.00     0.031 C 
ATOM     50  C   UNL A   1      39.269  28.657  27.808  1.00  0.00     0.029 A 
ATOM     51  C   UNL A   1      40.252  28.446  28.869  1.00  0.00     0.049 A 
ATOM     52  H   UNL A   1      40.307  29.388  30.727  1.00  0.00     0.167 HD
ATOM     53  C   UNL A   1      40.450  31.519  34.543  1.00  0.00     0.034 A 
ATOM     54  C   UNL A   1      41.302  27.596  28.814  1.00  0.00     0.034 A 
ATOM     55  C   UNL A   1      41.569  30.616  34.592  1.00  0.00     0.049 A 
ATOM     56  C   UNL A   1      42.251  27.514  29.995  1.00  0.00     0.074 A 
ATOM     57  C   UNL A   1      42.459  30.404  35.630  1.00  0.00     0.029 A 
ATOM     58  N   UNL A   1      41.941  29.759  33.566  1.00  0.00    -0.354 N 
ATOM     59  N   UNL A   1      42.212  28.157  31.139  1.00  0.00    -0.248 NA
ATOM     60  C   UNL A   1      43.384  26.582  29.877  1.00  0.00     0.031 C 
ATOM     61  C   UNL A   1      43.402  29.460  35.213  1.00  0.00     0.029 A 
ATOM     62  C   UNL A   1      43.054  29.025  33.945  1.00  0.00     0.049 A 
ATOM     63  H   UNL A   1      41.484  29.684  32.698  1.00  0.00     0.167 HD
ATOM     64  C   UNL A   1      43.282  27.666  31.889  1.00  0.00     0.074 A 
ATOM     65  C   UNL A   1      43.937  26.666  31.076  1.00  0.00     0.031 C 
ATOM     66  C   UNL A   1      43.685  28.008  33.139  1.00  0.00     0.034 A 
BRANCH  53  67
ATOM     67  C   UNL A   1      40.164  32.393  35.741  1.00  0.00     0.023 A 
ATOM     68  C   UNL A   1      39.210  32.020  36.703  1.00  0.00     0.031 A 
ATOM     69  C   UNL A   1      40.808  33.631  35.899  1.00  0.00     0.131 A 
ATOM     70  C   UNL A   1      38.851  32.917  37.717  1.00  0.00     0.055 A 
ATOM     71  C   UNL A   1      40.522  34.476  36.972  1.00  0.00     0.041 A 
ATOM     72  F   UNL A   1      41.715  34.050  35.002  1.00  0.00    -0.206 F 
ATOM     73  C   UNL A   1      39.522  34.130  37.878  1.00  0.00     0.022 A 
BRANCH  70  74
ATOM     74  S   UNL A   1      37.379  32.546  38.708  1.00  0.00     0.124 S 
ATOM     75  O   UNL A   1      37.438  31.088  38.782  1.00  0.00    -0.237 OA
ATOM     76  O   UNL A   1      37.645  33.260  39.951  1.00  0.00    -0.237 OA
ATOM     77  O   UNL A   1      36.282  33.079  37.902  1.00  0.00    -0.744 OA
ENDBRANCH  70  74
ENDBRANCH  53  67
BRANCH  54  78
ATOM     78  C   UNL A   1      41.561  26.748  27.607  1.00  0.00     0.023 A 
ATOM     79  C   UNL A   1      41.340  25.358  27.641  1.00  0.00     0.031 A 
ATOM     80  C   UNL A   1      42.154  27.283  26.450  1.00  0.00     0.131 A 
ATOM     81  C   UNL A   1      41.784  24.547  26.584  1.00  0.00     0.055 A 
ATOM     82  C   UNL A   1      42.526  26.480  25.369  1.00  0.00     0.041 A 
ATOM     83  F   UNL A   1      42.400  28.599  26.360  1.00  0.00    -0.206 F 
ATOM     84  C   UNL A   1      42.363  25.099  25.442  1.00  0.00     0.022 A 
BRANCH  81  85
ATOM     85  S   UNL A   1      41.733  22.743  26.792  1.00  0.00     0.124 S 
ATOM     86  O   UNL A   1      42.818  22.525  27.742  1.00  0.00    -0.237 OA
ATOM     87  O   UNL A   1      40.382  22.534  27.302  1.00  0.00    -0.237 OA
ATOM     88  O   UNL A   1      41.974  22.238  25.441  1.00  0.00    -0.744 OA
ENDBRANCH  81  85
ENDBRANCH  54  78
BRANCH  66  89
ATOM     89  C   UNL A   1      44.836  27.237  33.743  1.00  0.00     0.023 A 
ATOM     90  C   UNL A   1      46.170  27.662  33.623  1.00  0.00     0.031 A 
ATOM     91  C   UNL A   1      44.583  26.054  34.465  1.00  0.00     0.131 A 
ATOM     92  C   UNL A   1      47.204  26.885  34.169  1.00  0.00     0.055 A 
ATOM     93  C   UNL A   1      45.609  25.321  35.061  1.00  0.00     0.041 A 
ATOM     94  F   UNL A   1      43.328  25.599  34.613  1.00  0.00    -0.206 F 
ATOM     95  C   UNL A   1      46.930  25.729  34.904  1.00  0.00     0.022 A 
BRANCH  92  96
ATOM     96  S   UNL A   1      48.923  27.361  33.835  1.00  0.00     0.124 S 
ATOM     97  O   UNL A   1      49.480  26.126  33.293  1.00  0.00    -0.237 OA
ATOM     98  O   UNL A   1      48.764  28.459  32.887  1.00  0.00    -0.237 OA
ATOM     99  O   UNL A   1      49.433  27.747  35.149  1.00  0.00    -0.744 OA
ENDBRANCH  92  96
ENDBRANCH  66  89
ENDBRANCH  40  41
ENDBRANCH  33  35
ENDBRANCH  32  33
ENDBRANCH  31  32
ENDBRANCH  30  31
ENDBRANCH  29  30
ENDBRANCH   1  29
TORSDOF 23
ENDMDL
