MODEL 1
REMARK VINA RESULT:     -10.5      0.000      0.000
REMARK SMILES CCC[C@@]1(C(=O)OCCOCCOC(=O)c2ccc(-c3c4nc(c(-c5cc(S(=O)(=O)[O-])ccc5F)c5ccc([nH]5)c(-c5cc(S(=O)(=O)[O-])ccc5F)c5nc(c(-c6cc(S(=O)(=O)[O-])ccc6F)c6ccc3[nH]6)C=C5)C=C4)cc2)CCCN(C(=O)C[C@H]2CCCCO2)C1
REMARK SMILES IDX 10 1 9 2 8 3 7 4 5 5 6 6 4 7 79 8 92 9 80 10 82 11 81 12
REMARK SMILES IDX 3 13 2 14 1 15 83 16 84 17 85 18 86 19 87 20 91 21 88 22
REMARK SMILES IDX 90 23 89 24 11 25 12 26 13 27 14 28 15 29 16 30 17 31 78 32
REMARK SMILES IDX 18 33 77 34 19 35 20 36 21 37 71 38 22 39 76 40 70 41 72 42
REMARK SMILES IDX 23 43 75 44 69 45 68 46 24 48 56 49 36 50 55 51 37 52 40 53
REMARK SMILES IDX 54 54 73 55 38 56 39 57 53 59 74 60 41 61 25 62 26 63 34 64
REMARK SMILES IDX 27 65 33 66 35 67 32 68 28 69 29 70 30 71 31 72 57 73 58 74
REMARK SMILES IDX 66 75 59 76 65 77 67 78 64 79 60 80 61 81 62 82 63 83 42 84
REMARK SMILES IDX 43 85 51 86 44 87 50 88 52 89 49 90 45 91 46 92 47 93 48 94
REMARK H PARENT 72 47 40 58
REMARK Flexibility Score: inf
ROOT
ATOM      1  O   UNL A   1      32.173  30.188  27.296  1.00  0.00    -0.374 OA
ENDROOT
BRANCH   1   2
ATOM      2  C   UNL A   1      32.519  28.991  26.613  1.00  0.00     0.202 C 
BRANCH   2   3
ATOM      3  C   UNL A   1      31.754  27.698  26.919  1.00  0.00     0.261 C 
BRANCH   3   4
ATOM      4  O   UNL A   1      31.402  26.925  25.751  1.00  0.00    -0.463 OA
BRANCH   4   5
ATOM      5  C   UNL A   1      32.104  25.772  25.591  1.00  0.00     0.313 C 
ATOM      6  O   UNL A   1      33.022  25.436  26.337  1.00  0.00    -0.252 OA
BRANCH   5   7
ATOM      7  C   UNL A   1      31.735  24.946  24.334  1.00  0.00     0.086 C 
ATOM      8  C   UNL A   1      32.928  24.510  23.429  1.00  0.00     0.022 C 
ATOM      9  C   UNL A   1      30.705  25.822  23.572  1.00  0.00     0.138 C 
ATOM     10  C   UNL A   1      33.007  25.005  21.973  1.00  0.00     0.023 C 
ATOM     11  N   UNL A   1      31.304  26.697  22.551  1.00  0.00    -0.341 N 
ATOM     12  C   UNL A   1      31.942  25.970  21.476  1.00  0.00     0.119 C 
BRANCH   7  13
ATOM     13  C   UNL A   1      31.104  23.663  24.994  1.00  0.00     0.020 C 
BRANCH  13  14
ATOM     14  C   UNL A   1      31.814  22.314  24.853  1.00  0.00    -0.002 C 
ATOM     15  C   UNL A   1      32.647  21.894  26.047  1.00  0.00     0.004 C 
ENDBRANCH  13  14
ENDBRANCH   7  13
BRANCH  11  16
ATOM     16  C   UNL A   1      30.987  28.057  22.534  1.00  0.00     0.225 C 
ATOM     17  O   UNL A   1      31.870  28.918  22.570  1.00  0.00    -0.275 OA
BRANCH  16  18
ATOM     18  C   UNL A   1      29.520  28.501  22.524  1.00  0.00     0.132 C 
BRANCH  18  19
ATOM     19  C   UNL A   1      29.337  30.010  22.345  1.00  0.00     0.127 C 
ATOM     20  C   UNL A   1      28.195  30.352  21.386  1.00  0.00     0.033 C 
ATOM     21  O   UNL A   1      29.054  30.626  23.610  1.00  0.00    -0.378 OA
ATOM     22  C   UNL A   1      28.151  31.863  21.181  1.00  0.00     0.005 C 
ATOM     23  C   UNL A   1      28.999  32.057  23.557  1.00  0.00     0.160 C 
ATOM     24  C   UNL A   1      28.012  32.577  22.519  1.00  0.00     0.029 C 
ENDBRANCH  18  19
ENDBRANCH  16  18
ENDBRANCH  11  16
ENDBRANCH   5   7
ENDBRANCH   4   5
ENDBRANCH   3   4
ENDBRANCH   2   3
ENDBRANCH   1   2
BRANCH   1  25
ATOM     25  C   UNL A   1      31.574  31.230  26.548  1.00  0.00     0.202 C 
BRANCH  25  26
ATOM     26  C   UNL A   1      32.130  32.658  26.675  1.00  0.00     0.261 C 
BRANCH  26  27
ATOM     27  O   UNL A   1      32.816  32.975  27.879  1.00  0.00    -0.460 OA
BRANCH  27  28
ATOM     28  C   UNL A   1      33.950  33.694  27.688  1.00  0.00     0.338 C 
ATOM     29  O   UNL A   1      34.062  34.824  27.256  1.00  0.00    -0.246 OA
BRANCH  28  30
ATOM     30  C   UNL A   1      35.062  32.888  28.195  1.00  0.00     0.060 A 
ATOM     31  C   UNL A   1      34.798  31.581  28.613  1.00  0.00     0.016 A 
ATOM     32  C   UNL A   1      36.340  33.439  28.271  1.00  0.00     0.016 A 
ATOM     33  C   UNL A   1      35.829  30.808  29.128  1.00  0.00     0.010 A 
ATOM     34  C   UNL A   1      37.369  32.669  28.803  1.00  0.00     0.010 A 
ATOM     35  C   UNL A   1      37.109  31.362  29.254  1.00  0.00    -0.014 A 
BRANCH  35  36
ATOM     36  C   UNL A   1      38.148  30.643  30.017  1.00  0.00     0.031 A 
ATOM     37  C   UNL A   1      38.353  31.019  31.454  1.00  0.00     0.074 A 
ATOM     38  C   UNL A   1      38.890  29.690  29.429  1.00  0.00     0.049 A 
ATOM     39  N   UNL A   1      39.287  30.643  32.283  1.00  0.00    -0.248 NA
ATOM     40  C   UNL A   1      37.375  31.960  32.025  1.00  0.00     0.031 C 
ATOM     41  C   UNL A   1      38.715  29.213  28.058  1.00  0.00     0.029 A 
ATOM     42  N   UNL A   1      39.949  28.966  29.908  1.00  0.00    -0.354 N 
ATOM     43  C   UNL A   1      39.021  31.312  33.474  1.00  0.00     0.074 A 
ATOM     44  C   UNL A   1      37.857  32.140  33.245  1.00  0.00     0.031 C 
ATOM     45  C   UNL A   1      39.654  28.286  27.799  1.00  0.00     0.029 A 
ATOM     46  C   UNL A   1      40.526  28.150  28.964  1.00  0.00     0.049 A 
ATOM     47  H   UNL A   1      40.268  29.025  30.838  1.00  0.00     0.167 HD
ATOM     48  C   UNL A   1      39.694  31.235  34.646  1.00  0.00     0.034 A 
ATOM     49  C   UNL A   1      41.653  27.415  29.028  1.00  0.00     0.034 A 
ATOM     50  C   UNL A   1      40.859  30.409  34.833  1.00  0.00     0.049 A 
ATOM     51  C   UNL A   1      42.446  27.420  30.314  1.00  0.00     0.074 A 
ATOM     52  C   UNL A   1      41.627  30.244  35.971  1.00  0.00     0.029 A 
ATOM     53  N   UNL A   1      41.435  29.616  33.846  1.00  0.00    -0.354 N 
ATOM     54  N   UNL A   1      42.202  28.068  31.431  1.00  0.00    -0.248 NA
ATOM     55  C   UNL A   1      43.662  26.597  30.351  1.00  0.00     0.031 C 
ATOM     56  C   UNL A   1      42.709  29.418  35.651  1.00  0.00     0.029 A 
ATOM     57  C   UNL A   1      42.565  28.988  34.341  1.00  0.00     0.049 A 
ATOM     58  H   UNL A   1      41.090  29.517  32.929  1.00  0.00     0.167 HD
ATOM     59  C   UNL A   1      43.208  27.691  32.317  1.00  0.00     0.074 A 
ATOM     60  C   UNL A   1      44.065  26.768  31.603  1.00  0.00     0.031 C 
ATOM     61  C   UNL A   1      43.398  28.062  33.609  1.00  0.00     0.034 A 
BRANCH  48  62
ATOM     62  C   UNL A   1      39.223  32.113  35.779  1.00  0.00     0.023 A 
ATOM     63  C   UNL A   1      39.623  33.456  35.896  1.00  0.00     0.031 A 
ATOM     64  C   UNL A   1      38.387  31.587  36.780  1.00  0.00     0.131 A 
ATOM     65  C   UNL A   1      39.247  34.202  37.024  1.00  0.00     0.055 A 
ATOM     66  C   UNL A   1      37.946  32.360  37.854  1.00  0.00     0.041 A 
ATOM     67  F   UNL A   1      37.997  30.303  36.739  1.00  0.00    -0.206 F 
ATOM     68  C   UNL A   1      38.388  33.672  37.990  1.00  0.00     0.022 A 
BRANCH  65  69
ATOM     69  S   UNL A   1      40.020  35.821  37.287  1.00  0.00     0.124 S 
ATOM     70  O   UNL A   1      41.426  35.455  37.441  1.00  0.00    -0.237 OA
ATOM     71  O   UNL A   1      39.676  36.538  36.066  1.00  0.00    -0.237 OA
ATOM     72  O   UNL A   1      39.377  36.314  38.504  1.00  0.00    -0.744 OA
ENDBRANCH  65  69
ENDBRANCH  48  62
BRANCH  49  73
ATOM     73  C   UNL A   1      42.126  26.655  27.835  1.00  0.00     0.023 A 
ATOM     74  C   UNL A   1      41.747  25.320  27.630  1.00  0.00     0.031 A 
ATOM     75  C   UNL A   1      43.001  27.241  26.902  1.00  0.00     0.131 A 
ATOM     76  C   UNL A   1      42.278  24.600  26.547  1.00  0.00     0.055 A 
ATOM     77  C   UNL A   1      43.480  26.540  25.794  1.00  0.00     0.041 A 
ATOM     78  F   UNL A   1      43.398  28.515  27.050  1.00  0.00    -0.206 F 
ATOM     79  C   UNL A   1      43.129  25.206  25.620  1.00  0.00     0.022 A 
BRANCH  76  80
ATOM     80  S   UNL A   1      41.916  22.828  26.425  1.00  0.00     0.124 S 
ATOM     81  O   UNL A   1      42.482  22.500  25.121  1.00  0.00    -0.237 OA
ATOM     82  O   UNL A   1      42.623  22.295  27.585  1.00  0.00    -0.237 OA
ATOM     83  O   UNL A   1      40.459  22.773  26.505  1.00  0.00    -0.744 OA
ENDBRANCH  76  80
ENDBRANCH  49  73
BRANCH  61  84
ATOM     84  C   UNL A   1      44.527  27.406  34.365  1.00  0.00     0.023 A 
ATOM     85  C   UNL A   1      44.342  26.243  35.131  1.00  0.00     0.031 A 
ATOM     86  C   UNL A   1      45.826  27.938  34.267  1.00  0.00     0.131 A 
ATOM     87  C   UNL A   1      45.437  25.666  35.793  1.00  0.00     0.055 A 
ATOM     88  C   UNL A   1      46.919  27.328  34.880  1.00  0.00     0.041 A 
ATOM     89  F   UNL A   1      46.055  29.050  33.550  1.00  0.00    -0.206 F 
ATOM     90  C   UNL A   1      46.726  26.188  35.655  1.00  0.00     0.022 A 
BRANCH  87  91
ATOM     91  S   UNL A   1      45.148  24.248  36.886  1.00  0.00     0.124 S 
ATOM     92  O   UNL A   1      44.473  23.310  35.995  1.00  0.00    -0.237 OA
ATOM     93  O   UNL A   1      46.502  23.882  37.290  1.00  0.00    -0.237 OA
ATOM     94  O   UNL A   1      44.313  24.801  37.952  1.00  0.00    -0.744 OA
ENDBRANCH  87  91
ENDBRANCH  61  84
ENDBRANCH  35  36
ENDBRANCH  28  30
ENDBRANCH  27  28
ENDBRANCH  26  27
ENDBRANCH  25  26
ENDBRANCH   1  25
TORSDOF 22
ENDMDL
MODEL 2
REMARK VINA RESULT:     -10.0      2.555      8.831
REMARK SMILES CCC[C@@]1(C(=O)OCCOCCOC(=O)c2ccc(-c3c4nc(c(-c5cc(S(=O)(=O)[O-])ccc5F)c5ccc([nH]5)c(-c5cc(S(=O)(=O)[O-])ccc5F)c5nc(c(-c6cc(S(=O)(=O)[O-])ccc6F)c6ccc3[nH]6)C=C5)C=C4)cc2)CCCN(C(=O)C[C@H]2CCCCO2)C1
REMARK SMILES IDX 10 1 9 2 8 3 7 4 5 5 6 6 4 7 79 8 92 9 80 10 82 11 81 12
REMARK SMILES IDX 3 13 2 14 1 15 83 16 84 17 85 18 86 19 87 20 91 21 88 22
REMARK SMILES IDX 90 23 89 24 11 25 12 26 13 27 14 28 15 29 16 30 17 31 78 32
REMARK SMILES IDX 18 33 77 34 19 35 20 36 21 37 71 38 22 39 76 40 70 41 72 42
REMARK SMILES IDX 23 43 75 44 69 45 68 46 24 48 56 49 36 50 55 51 37 52 40 53
REMARK SMILES IDX 54 54 73 55 38 56 39 57 53 59 74 60 41 61 25 62 26 63 34 64
REMARK SMILES IDX 27 65 33 66 35 67 32 68 28 69 29 70 30 71 31 72 57 73 58 74
REMARK SMILES IDX 66 75 59 76 65 77 67 78 64 79 60 80 61 81 62 82 63 83 42 84
REMARK SMILES IDX 43 85 51 86 44 87 50 88 52 89 49 90 45 91 46 92 47 93 48 94
REMARK H PARENT 72 47 40 58
REMARK Flexibility Score: inf
ROOT
ATOM      1  O   UNL A   1      31.573  28.788  26.965  1.00  0.00    -0.374 OA
ENDROOT
BRANCH   1   2
ATOM      2  C   UNL A   1      32.171  27.508  26.802  1.00  0.00     0.202 C 
BRANCH   2   3
ATOM      3  C   UNL A   1      33.413  27.363  25.915  1.00  0.00     0.261 C 
BRANCH   3   4
ATOM      4  O   UNL A   1      33.147  26.818  24.605  1.00  0.00    -0.463 OA
BRANCH   4   5
ATOM      5  C   UNL A   1      33.303  25.471  24.499  1.00  0.00     0.313 C 
ATOM      6  O   UNL A   1      34.402  24.921  24.486  1.00  0.00    -0.252 OA
BRANCH   5   7
ATOM      7  C   UNL A   1      31.993  24.672  24.294  1.00  0.00     0.086 C 
ATOM      8  C   UNL A   1      31.108  24.470  25.562  1.00  0.00     0.022 C 
ATOM      9  C   UNL A   1      32.444  23.325  23.668  1.00  0.00     0.138 C 
ATOM     10  C   UNL A   1      30.831  23.049  26.086  1.00  0.00     0.023 C 
ATOM     11  N   UNL A   1      32.681  22.258  24.654  1.00  0.00    -0.341 N 
ATOM     12  C   UNL A   1      31.490  21.875  25.380  1.00  0.00     0.119 C 
BRANCH   7  13
ATOM     13  C   UNL A   1      31.226  25.608  23.285  1.00  0.00     0.020 C 
BRANCH  13  14
ATOM     14  C   UNL A   1      29.809  26.079  23.620  1.00  0.00    -0.002 C 
ATOM     15  C   UNL A   1      29.665  27.568  23.866  1.00  0.00     0.004 C 
ENDBRANCH  13  14
ENDBRANCH   7  13
BRANCH  11  16
ATOM     16  C   UNL A   1      33.878  21.538  24.621  1.00  0.00     0.225 C 
ATOM     17  O   UNL A   1      34.793  21.859  23.859  1.00  0.00    -0.275 OA
BRANCH  16  18
ATOM     18  C   UNL A   1      34.048  20.297  25.504  1.00  0.00     0.132 C 
BRANCH  18  19
ATOM     19  C   UNL A   1      33.644  18.992  24.813  1.00  0.00     0.127 C 
ATOM     20  C   UNL A   1      34.851  18.128  24.442  1.00  0.00     0.033 C 
ATOM     21  O   UNL A   1      32.794  18.221  25.674  1.00  0.00    -0.378 OA
ATOM     22  C   UNL A   1      34.370  16.906  23.666  1.00  0.00     0.005 C 
ATOM     23  C   UNL A   1      32.260  17.044  25.056  1.00  0.00     0.160 C 
ATOM     24  C   UNL A   1      33.336  16.135  24.476  1.00  0.00     0.029 C 
ENDBRANCH  18  19
ENDBRANCH  16  18
ENDBRANCH  11  16
ENDBRANCH   5   7
ENDBRANCH   4   5
ENDBRANCH   3   4
ENDBRANCH   2   3
ENDBRANCH   1   2
BRANCH   1  25
ATOM     25  C   UNL A   1      31.769  29.747  25.943  1.00  0.00     0.202 C 
BRANCH  25  26
ATOM     26  C   UNL A   1      32.709  30.936  26.204  1.00  0.00     0.261 C 
BRANCH  26  27
ATOM     27  O   UNL A   1      32.823  31.382  27.548  1.00  0.00    -0.460 OA
BRANCH  27  28
ATOM     28  C   UNL A   1      33.618  32.470  27.697  1.00  0.00     0.338 C 
ATOM     29  O   UNL A   1      33.330  33.640  27.544  1.00  0.00    -0.246 OA
BRANCH  28  30
ATOM     30  C   UNL A   1      34.914  31.994  28.184  1.00  0.00     0.060 A 
ATOM     31  C   UNL A   1      34.995  30.697  28.698  1.00  0.00     0.016 A 
ATOM     32  C   UNL A   1      36.023  32.839  28.147  1.00  0.00     0.016 A 
ATOM     33  C   UNL A   1      36.204  30.234  29.195  1.00  0.00     0.010 A 
ATOM     34  C   UNL A   1      37.230  32.379  28.661  1.00  0.00     0.010 A 
ATOM     35  C   UNL A   1      37.316  31.086  29.207  1.00  0.00    -0.014 A 
BRANCH  35  36
ATOM     36  C   UNL A   1      38.531  30.695  29.948  1.00  0.00     0.031 A 
ATOM     37  C   UNL A   1      39.461  29.709  29.304  1.00  0.00     0.074 A 
ATOM     38  C   UNL A   1      38.783  31.204  31.164  1.00  0.00     0.049 A 
ATOM     39  N   UNL A   1      40.502  29.104  29.805  1.00  0.00    -0.248 NA
ATOM     40  C   UNL A   1      39.160  29.348  27.909  1.00  0.00     0.031 C 
ATOM     41  C   UNL A   1      37.971  32.218  31.837  1.00  0.00     0.029 A 
ATOM     42  N   UNL A   1      39.785  30.925  32.056  1.00  0.00    -0.354 N 
ATOM     43  C   UNL A   1      40.977  28.278  28.792  1.00  0.00     0.074 A 
ATOM     44  C   UNL A   1      40.088  28.437  27.662  1.00  0.00     0.031 C 
ATOM     45  C   UNL A   1      38.499  32.460  33.050  1.00  0.00     0.029 A 
ATOM     46  C   UNL A   1      39.647  31.579  33.257  1.00  0.00     0.049 A 
ATOM     47  H   UNL A   1      40.531  30.314  31.856  1.00  0.00     0.167 HD
ATOM     48  C   UNL A   1      42.059  27.463  28.814  1.00  0.00     0.034 A 
ATOM     49  C   UNL A   1      40.344  31.444  34.402  1.00  0.00     0.034 A 
ATOM     50  C   UNL A   1      42.914  27.320  29.965  1.00  0.00     0.049 A 
ATOM     51  C   UNL A   1      41.487  30.455  34.438  1.00  0.00     0.074 A 
ATOM     52  C   UNL A   1      44.038  26.528  30.111  1.00  0.00     0.029 A 
ATOM     53  N   UNL A   1      42.728  27.975  31.177  1.00  0.00    -0.354 N 
ATOM     54  N   UNL A   1      41.921  29.662  33.484  1.00  0.00    -0.248 NA
ATOM     55  C   UNL A   1      42.233  30.343  35.697  1.00  0.00     0.031 C 
ATOM     56  C   UNL A   1      44.484  26.644  31.430  1.00  0.00     0.029 A 
ATOM     57  C   UNL A   1      43.698  27.581  32.083  1.00  0.00     0.049 A 
ATOM     58  H   UNL A   1      42.012  28.624  31.364  1.00  0.00     0.167 HD
ATOM     59  C   UNL A   1      43.021  28.994  34.016  1.00  0.00     0.074 A 
ATOM     60  C   UNL A   1      43.177  29.470  35.375  1.00  0.00     0.031 C 
ATOM     61  C   UNL A   1      43.838  28.081  33.431  1.00  0.00     0.034 A 
BRANCH  48  62
ATOM     62  C   UNL A   1      42.326  26.627  27.587  1.00  0.00     0.023 A 
ATOM     63  C   UNL A   1      41.977  25.266  27.524  1.00  0.00     0.031 A 
ATOM     64  C   UNL A   1      42.974  27.192  26.474  1.00  0.00     0.131 A 
ATOM     65  C   UNL A   1      42.343  24.502  26.405  1.00  0.00     0.055 A 
ATOM     66  C   UNL A   1      43.257  26.447  25.329  1.00  0.00     0.041 A 
ATOM     67  F   UNL A   1      43.359  28.478  26.488  1.00  0.00    -0.206 F 
ATOM     68  C   UNL A   1      42.955  25.089  25.295  1.00  0.00     0.022 A 
BRANCH  65  69
ATOM     69  S   UNL A   1      42.144  22.701  26.484  1.00  0.00     0.124 S 
ATOM     70  O   UNL A   1      42.387  22.316  25.097  1.00  0.00    -0.237 OA
ATOM     71  O   UNL A   1      43.169  22.312  27.445  1.00  0.00    -0.237 OA
ATOM     72  O   UNL A   1      40.765  22.528  26.938  1.00  0.00    -0.744 OA
ENDBRANCH  65  69
ENDBRANCH  48  62
BRANCH  49  73
ATOM     73  C   UNL A   1      39.960  32.220  35.615  1.00  0.00     0.023 A 
ATOM     74  C   UNL A   1      39.057  31.698  36.552  1.00  0.00     0.031 A 
ATOM     75  C   UNL A   1      40.461  33.516  35.835  1.00  0.00     0.131 A 
ATOM     76  C   UNL A   1      38.643  32.486  37.639  1.00  0.00     0.055 A 
ATOM     77  C   UNL A   1      40.094  34.273  36.949  1.00  0.00     0.041 A 
ATOM     78  F   UNL A   1      41.329  34.066  34.970  1.00  0.00    -0.206 F 
ATOM     79  C   UNL A   1      39.168  33.763  37.853  1.00  0.00     0.022 A 
BRANCH  76  80
ATOM     80  S   UNL A   1      37.332  31.851  38.719  1.00  0.00     0.124 S 
ATOM     81  O   UNL A   1      37.961  31.941  40.032  1.00  0.00    -0.237 OA
ATOM     82  O   UNL A   1      36.247  32.791  38.460  1.00  0.00    -0.237 OA
ATOM     83  O   UNL A   1      37.112  30.494  38.224  1.00  0.00    -0.744 OA
ENDBRANCH  76  80
ENDBRANCH  49  73
BRANCH  61  84
ATOM     84  C   UNL A   1      45.026  27.598  34.225  1.00  0.00     0.023 A 
ATOM     85  C   UNL A   1      46.260  28.270  34.214  1.00  0.00     0.031 A 
ATOM     86  C   UNL A   1      44.894  26.464  35.048  1.00  0.00     0.131 A 
ATOM     87  C   UNL A   1      47.322  27.784  34.991  1.00  0.00     0.055 A 
ATOM     88  C   UNL A   1      45.935  26.020  35.861  1.00  0.00     0.041 A 
ATOM     89  F   UNL A   1      43.737  25.784  35.092  1.00  0.00    -0.206 F 
ATOM     90  C   UNL A   1      47.161  26.678  35.830  1.00  0.00     0.022 A 
BRANCH  87  91
ATOM     91  S   UNL A   1      48.943  28.586  34.854  1.00  0.00     0.124 S 
ATOM     92  O   UNL A   1      48.635  29.960  35.238  1.00  0.00    -0.237 OA
ATOM     93  O   UNL A   1      49.751  27.826  35.802  1.00  0.00    -0.237 OA
ATOM     94  O   UNL A   1      49.300  28.400  33.448  1.00  0.00    -0.744 OA
ENDBRANCH  87  91
ENDBRANCH  61  84
ENDBRANCH  35  36
ENDBRANCH  28  30
ENDBRANCH  27  28
ENDBRANCH  26  27
ENDBRANCH  25  26
ENDBRANCH   1  25
TORSDOF 22
ENDMDL
MODEL 3
REMARK VINA RESULT:      -9.3      2.544      4.850
REMARK SMILES CCC[C@@]1(C(=O)OCCOCCOC(=O)c2ccc(-c3c4nc(c(-c5cc(S(=O)(=O)[O-])ccc5F)c5ccc([nH]5)c(-c5cc(S(=O)(=O)[O-])ccc5F)c5nc(c(-c6cc(S(=O)(=O)[O-])ccc6F)c6ccc3[nH]6)C=C5)C=C4)cc2)CCCN(C(=O)C[C@H]2CCCCO2)C1
REMARK SMILES IDX 10 1 9 2 8 3 7 4 5 5 6 6 4 7 79 8 92 9 80 10 82 11 81 12
REMARK SMILES IDX 3 13 2 14 1 15 83 16 84 17 85 18 86 19 87 20 91 21 88 22
REMARK SMILES IDX 90 23 89 24 11 25 12 26 13 27 14 28 15 29 16 30 17 31 78 32
REMARK SMILES IDX 18 33 77 34 19 35 20 36 21 37 71 38 22 39 76 40 70 41 72 42
REMARK SMILES IDX 23 43 75 44 69 45 68 46 24 48 56 49 36 50 55 51 37 52 40 53
REMARK SMILES IDX 54 54 73 55 38 56 39 57 53 59 74 60 41 61 25 62 26 63 34 64
REMARK SMILES IDX 27 65 33 66 35 67 32 68 28 69 29 70 30 71 31 72 57 73 58 74
REMARK SMILES IDX 66 75 59 76 65 77 67 78 64 79 60 80 61 81 62 82 63 83 42 84
REMARK SMILES IDX 43 85 51 86 44 87 50 88 52 89 49 90 45 91 46 92 47 93 48 94
REMARK H PARENT 72 47 40 58
REMARK Flexibility Score: inf
ROOT
ATOM      1  O   UNL A   1      31.481  29.018  27.095  1.00  0.00    -0.374 OA
ENDROOT
BRANCH   1   2
ATOM      2  C   UNL A   1      31.598  27.879  26.251  1.00  0.00     0.202 C 
BRANCH   2   3
ATOM      3  C   UNL A   1      32.804  26.946  26.405  1.00  0.00     0.261 C 
BRANCH   3   4
ATOM      4  O   UNL A   1      33.643  26.861  25.233  1.00  0.00    -0.463 OA
BRANCH   4   5
ATOM      5  C   UNL A   1      33.974  25.599  24.852  1.00  0.00     0.313 C 
ATOM      6  O   UNL A   1      34.905  24.969  25.350  1.00  0.00    -0.252 OA
BRANCH   5   7
ATOM      7  C   UNL A   1      33.155  25.034  23.665  1.00  0.00     0.086 C 
ATOM      8  C   UNL A   1      31.647  24.754  23.947  1.00  0.00     0.022 C 
ATOM      9  C   UNL A   1      33.921  23.757  23.227  1.00  0.00     0.138 C 
ATOM     10  C   UNL A   1      31.099  23.320  23.835  1.00  0.00     0.023 C 
ATOM     11  N   UNL A   1      33.435  22.521  23.863  1.00  0.00    -0.341 N 
ATOM     12  C   UNL A   1      32.070  22.195  23.513  1.00  0.00     0.119 C 
BRANCH   7  13
ATOM     13  C   UNL A   1      33.267  26.220  22.633  1.00  0.00     0.020 C 
BRANCH  13  14
ATOM     14  C   UNL A   1      32.019  26.683  21.879  1.00  0.00    -0.002 C 
ATOM     15  C   UNL A   1      31.315  27.887  22.473  1.00  0.00     0.004 C 
ENDBRANCH  13  14
ENDBRANCH   7  13
BRANCH  11  16
ATOM     16  C   UNL A   1      34.344  21.657  24.478  1.00  0.00     0.225 C 
ATOM     17  O   UNL A   1      35.550  21.712  24.223  1.00  0.00    -0.275 OA
BRANCH  16  18
ATOM     18  C   UNL A   1      33.841  20.583  25.450  1.00  0.00     0.132 C 
BRANCH  18  19
ATOM     19  C   UNL A   1      33.537  19.242  24.776  1.00  0.00     0.127 C 
ATOM     20  C   UNL A   1      34.796  18.402  24.552  1.00  0.00     0.033 C 
ATOM     21  O   UNL A   1      32.633  18.477  25.587  1.00  0.00    -0.378 OA
ATOM     22  C   UNL A   1      34.422  17.138  23.784  1.00  0.00     0.005 C 
ATOM     23  C   UNL A   1      32.190  17.263  24.970  1.00  0.00     0.160 C 
ATOM     24  C   UNL A   1      33.340  16.366  24.528  1.00  0.00     0.029 C 
ENDBRANCH  18  19
ENDBRANCH  16  18
ENDBRANCH  11  16
ENDBRANCH   5   7
ENDBRANCH   4   5
ENDBRANCH   3   4
ENDBRANCH   2   3
ENDBRANCH   1   2
BRANCH   1  25
ATOM     25  C   UNL A   1      31.858  30.276  26.567  1.00  0.00     0.202 C 
BRANCH  25  26
ATOM     26  C   UNL A   1      33.222  30.871  26.954  1.00  0.00     0.261 C 
BRANCH  26  27
ATOM     27  O   UNL A   1      33.211  31.981  27.840  1.00  0.00    -0.460 OA
BRANCH  27  28
ATOM     28  C   UNL A   1      34.286  32.796  27.708  1.00  0.00     0.338 C 
ATOM     29  O   UNL A   1      34.325  33.929  27.270  1.00  0.00    -0.246 OA
BRANCH  28  30
ATOM     30  C   UNL A   1      35.432  32.095  28.290  1.00  0.00     0.060 A 
ATOM     31  C   UNL A   1      35.239  30.800  28.781  1.00  0.00     0.016 A 
ATOM     32  C   UNL A   1      36.672  32.729  28.361  1.00  0.00     0.016 A 
ATOM     33  C   UNL A   1      36.302  30.127  29.365  1.00  0.00     0.010 A 
ATOM     34  C   UNL A   1      37.732  32.060  28.963  1.00  0.00     0.010 A 
ATOM     35  C   UNL A   1      37.541  30.768  29.487  1.00  0.00    -0.014 A 
BRANCH  35  36
ATOM     36  C   UNL A   1      38.602  30.163  30.316  1.00  0.00     0.031 A 
ATOM     37  C   UNL A   1      38.740  30.633  31.734  1.00  0.00     0.074 A 
ATOM     38  C   UNL A   1      39.421  29.230  29.803  1.00  0.00     0.049 A 
ATOM     39  N   UNL A   1      39.673  30.367  32.606  1.00  0.00    -0.248 NA
ATOM     40  C   UNL A   1      37.687  31.537  32.224  1.00  0.00     0.031 C 
ATOM     41  C   UNL A   1      39.317  28.666  28.458  1.00  0.00     0.029 A 
ATOM     42  N   UNL A   1      40.510  28.606  30.350  1.00  0.00    -0.354 N 
ATOM     43  C   UNL A   1      39.329  31.083  33.749  1.00  0.00     0.074 A 
ATOM     44  C   UNL A   1      38.121  31.818  33.443  1.00  0.00     0.031 C 
ATOM     45  C   UNL A   1      40.321  27.790  28.277  1.00  0.00     0.029 A 
ATOM     46  C   UNL A   1      41.165  27.778  29.470  1.00  0.00     0.049 A 
ATOM     47  H   UNL A   1      40.797  28.738  31.283  1.00  0.00     0.167 HD
ATOM     48  C   UNL A   1      39.972  31.116  34.940  1.00  0.00     0.034 A 
ATOM     49  C   UNL A   1      42.336  27.123  29.604  1.00  0.00     0.034 A 
ATOM     50  C   UNL A   1      41.182  30.381  35.204  1.00  0.00     0.049 A 
ATOM     51  C   UNL A   1      43.089  27.253  30.907  1.00  0.00     0.074 A 
ATOM     52  C   UNL A   1      41.926  30.332  36.369  1.00  0.00     0.029 A 
ATOM     53  N   UNL A   1      41.836  29.574  34.280  1.00  0.00    -0.354 N 
ATOM     54  N   UNL A   1      42.772  27.946  31.978  1.00  0.00    -0.248 NA
ATOM     55  C   UNL A   1      44.354  26.517  31.024  1.00  0.00     0.031 C 
ATOM     56  C   UNL A   1      43.067  29.563  36.125  1.00  0.00     0.029 A 
ATOM     57  C   UNL A   1      42.990  29.051  34.839  1.00  0.00     0.049 A 
ATOM     58  H   UNL A   1      41.525  29.400  33.362  1.00  0.00     0.167 HD
ATOM     59  C   UNL A   1      43.773  27.687  32.910  1.00  0.00     0.074 A 
ATOM     60  C   UNL A   1      44.709  26.784  32.273  1.00  0.00     0.031 C 
ATOM     61  C   UNL A   1      43.901  28.142  34.183  1.00  0.00     0.034 A 
BRANCH  48  62
ATOM     62  C   UNL A   1      39.412  32.023  36.008  1.00  0.00     0.023 A 
ATOM     63  C   UNL A   1      39.924  33.313  36.232  1.00  0.00     0.031 A 
ATOM     64  C   UNL A   1      38.371  31.576  36.841  1.00  0.00     0.131 A 
ATOM     65  C   UNL A   1      39.446  34.079  37.306  1.00  0.00     0.055 A 
ATOM     66  C   UNL A   1      37.840  32.376  37.852  1.00  0.00     0.041 A 
ATOM     67  F   UNL A   1      37.863  30.342  36.696  1.00  0.00    -0.206 F 
ATOM     68  C   UNL A   1      38.388  33.631  38.101  1.00  0.00     0.022 A 
BRANCH  65  69
ATOM     69  S   UNL A   1      40.328  35.602  37.745  1.00  0.00     0.124 S 
ATOM     70  O   UNL A   1      39.709  36.571  36.843  1.00  0.00    -0.237 OA
ATOM     71  O   UNL A   1      40.014  35.754  39.160  1.00  0.00    -0.237 OA
ATOM     72  O   UNL A   1      41.724  35.288  37.445  1.00  0.00    -0.744 OA
ENDBRANCH  65  69
ENDBRANCH  48  62
BRANCH  49  73
ATOM     73  C   UNL A   1      42.891  26.331  28.471  1.00  0.00     0.023 A 
ATOM     74  C   UNL A   1      44.001  26.786  27.744  1.00  0.00     0.031 A 
ATOM     75  C   UNL A   1      42.292  25.122  28.069  1.00  0.00     0.131 A 
ATOM     76  C   UNL A   1      44.448  26.065  26.625  1.00  0.00     0.055 A 
ATOM     77  C   UNL A   1      42.777  24.378  26.992  1.00  0.00     0.041 A 
ATOM     78  F   UNL A   1      41.227  24.639  28.728  1.00  0.00    -0.206 F 
ATOM     79  C   UNL A   1      43.854  24.856  26.254  1.00  0.00     0.022 A 
BRANCH  76  80
ATOM     80  S   UNL A   1      45.760  26.784  25.600  1.00  0.00     0.124 S 
ATOM     81  O   UNL A   1      45.871  25.799  24.529  1.00  0.00    -0.237 OA
ATOM     82  O   UNL A   1      45.184  28.072  25.232  1.00  0.00    -0.237 OA
ATOM     83  O   UNL A   1      46.903  26.849  26.508  1.00  0.00    -0.744 OA
ENDBRANCH  76  80
ENDBRANCH  49  73
BRANCH  61  84
ATOM     84  C   UNL A   1      45.048  27.605  35.004  1.00  0.00     0.023 A 
ATOM     85  C   UNL A   1      46.328  28.183  34.972  1.00  0.00     0.031 A 
ATOM     86  C   UNL A   1      44.830  26.519  35.871  1.00  0.00     0.131 A 
ATOM     87  C   UNL A   1      47.350  27.652  35.774  1.00  0.00     0.055 A 
ATOM     88  C   UNL A   1      45.833  26.033  36.708  1.00  0.00     0.041 A 
ATOM     89  F   UNL A   1      43.625  25.930  35.936  1.00  0.00    -0.206 F 
ATOM     90  C   UNL A   1      47.105  26.596  36.657  1.00  0.00     0.022 A 
BRANCH  87  91
ATOM     91  S   UNL A   1      49.026  28.325  35.614  1.00  0.00     0.124 S 
ATOM     92  O   UNL A   1      49.450  28.418  37.007  1.00  0.00    -0.237 OA
ATOM     93  O   UNL A   1      49.698  27.308  34.811  1.00  0.00    -0.237 OA
ATOM     94  O   UNL A   1      48.818  29.606  34.942  1.00  0.00    -0.744 OA
ENDBRANCH  87  91
ENDBRANCH  61  84
ENDBRANCH  35  36
ENDBRANCH  28  30
ENDBRANCH  27  28
ENDBRANCH  26  27
ENDBRANCH  25  26
ENDBRANCH   1  25
TORSDOF 22
ENDMDL
