MODEL 1
REMARK VINA RESULT:     -11.5      0.000      0.000
REMARK SMILES Cc1cc(Br)cc2c1O[C@H](C(F)(F)F)C(C(=O)OCCOCCOC(=O)c1ccc(-c3c4nc(c(-c5cc(S(=O)(=O)[O-])ccc5F)c5ccc([nH]5)c(-c5cc(S(=O)(=O)[O-])ccc5F)c5nc(c(-c6cc(S(=O)(=O)[O-])ccc6F)c6ccc3[nH]6)C=C5)C=C4)cc1)=C2
REMARK SMILES IDX 22 1 21 2 20 3 19 4 18 5 16 6 17 7 15 8 1 9 2 10 3 11 8 12
REMARK SMILES IDX 4 13 7 14 9 15 5 16 6 17 90 18 10 19 11 20 12 21 13 22 14 23
REMARK SMILES IDX 23 24 24 25 25 26 26 27 27 28 28 29 89 30 29 31 88 32 30 33
REMARK SMILES IDX 31 34 32 35 82 36 33 37 87 38 81 39 83 40 34 41 86 42 80 43
REMARK SMILES IDX 79 44 35 46 67 47 47 48 66 49 48 50 51 51 65 52 84 53 49 54
REMARK SMILES IDX 50 55 64 57 85 58 52 59 36 60 37 61 45 62 38 63 44 64 46 65
REMARK SMILES IDX 43 66 39 67 40 68 41 69 42 70 68 71 69 72 77 73 70 74 76 75
REMARK SMILES IDX 78 76 75 77 71 78 72 79 73 80 74 81 53 82 54 83 62 84 55 85
REMARK SMILES IDX 61 86 63 87 60 88 56 89 57 90 58 91 59 92
REMARK H PARENT 83 45 51 56
REMARK Flexibility Score: inf
ROOT
ATOM      1  C   UNL A   1      31.060  31.321  25.926  1.00  0.00     0.202 C 
ENDROOT
BRANCH   1   2
ATOM      2  O   UNL A   1      31.733  30.092  26.199  1.00  0.00    -0.374 OA
BRANCH   2   3
ATOM      3  C   UNL A   1      32.747  29.673  25.286  1.00  0.00     0.202 C 
BRANCH   3   4
ATOM      4  C   UNL A   1      32.633  28.246  24.745  1.00  0.00     0.261 C 
BRANCH   4   5
ATOM      5  O   UNL A   1      33.063  27.276  25.715  1.00  0.00    -0.460 OA
BRANCH   5   6
ATOM      6  C   UNL A   1      32.085  26.465  26.176  1.00  0.00     0.338 C 
ATOM      7  O   UNL A   1      31.037  26.804  26.708  1.00  0.00    -0.246 OA
BRANCH   6   8
ATOM      8  C   UNL A   1      32.390  25.064  25.833  1.00  0.00     0.087 C 
ATOM      9  C   UNL A   1      32.531  20.298  23.879  1.00  0.00     0.048 C 
ATOM     10  C   UNL A   1      33.494  21.244  24.541  1.00  0.00    -0.007 A 
ATOM     11  C   UNL A   1      34.842  20.862  24.643  1.00  0.00     0.023 A 
ATOM     12  C   UNL A   1      33.095  22.491  25.052  1.00  0.00     0.130 A 
ATOM     13  C   UNL A   1      35.773  21.711  25.240  1.00  0.00     0.019 A 
ATOM     14  C   UNL A   1      34.044  23.350  25.619  1.00  0.00     0.019 A 
ATOM     15  O   UNL A   1      31.767  22.804  24.986  1.00  0.00    -0.475 OA
ATOM     16  Br  UNL A   1      37.585  21.185  25.364  1.00  0.00    -0.051 Br
ATOM     17  C   UNL A   1      35.381  22.953  25.726  1.00  0.00     0.027 A 
ATOM     18  C   UNL A   1      33.655  24.682  26.044  1.00  0.00     0.027 C 
ATOM     19  C   UNL A   1      31.329  24.164  25.265  1.00  0.00     0.316 C 
BRANCH  19  20
ATOM     20  C   UNL A   1      30.693  24.735  23.990  1.00  0.00     0.430 C 
ATOM     21  F   UNL A   1      31.596  25.441  23.267  1.00  0.00    -0.167 F 
ATOM     22  F   UNL A   1      30.220  23.760  23.180  1.00  0.00    -0.167 F 
ATOM     23  F   UNL A   1      29.663  25.566  24.271  1.00  0.00    -0.167 F 
ENDBRANCH  19  20
ENDBRANCH   6   8
ENDBRANCH   5   6
ENDBRANCH   4   5
ENDBRANCH   3   4
ENDBRANCH   2   3
ENDBRANCH   1   2
BRANCH   1  24
ATOM     24  C   UNL A   1      31.571  32.580  26.637  1.00  0.00     0.261 C 
BRANCH  24  25
ATOM     25  O   UNL A   1      32.510  32.275  27.683  1.00  0.00    -0.460 OA
BRANCH  25  26
ATOM     26  C   UNL A   1      33.454  33.226  27.885  1.00  0.00     0.338 C 
ATOM     27  O   UNL A   1      33.270  34.433  27.988  1.00  0.00    -0.246 OA
BRANCH  26  28
ATOM     28  C   UNL A   1      34.759  32.601  28.159  1.00  0.00     0.060 A 
ATOM     29  C   UNL A   1      34.786  31.212  28.343  1.00  0.00     0.016 A 
ATOM     30  C   UNL A   1      35.914  33.366  28.336  1.00  0.00     0.016 A 
ATOM     31  C   UNL A   1      35.958  30.587  28.759  1.00  0.00     0.010 A 
ATOM     32  C   UNL A   1      37.087  32.737  28.769  1.00  0.00     0.010 A 
ATOM     33  C   UNL A   1      37.102  31.353  29.021  1.00  0.00    -0.014 A 
BRANCH  33  34
ATOM     34  C   UNL A   1      38.242  30.731  29.735  1.00  0.00     0.031 A 
ATOM     35  C   UNL A   1      38.469  31.092  31.179  1.00  0.00     0.074 A 
ATOM     36  C   UNL A   1      39.023  29.817  29.133  1.00  0.00     0.049 A 
ATOM     37  N   UNL A   1      39.422  30.713  31.989  1.00  0.00    -0.248 NA
ATOM     38  C   UNL A   1      37.482  31.998  31.792  1.00  0.00     0.031 C 
ATOM     39  C   UNL A   1      38.851  29.329  27.765  1.00  0.00     0.029 A 
ATOM     40  N   UNL A   1      40.115  29.131  29.601  1.00  0.00    -0.354 N 
ATOM     41  C   UNL A   1      39.150  31.328  33.206  1.00  0.00     0.074 A 
ATOM     42  C   UNL A   1      37.961  32.130  33.019  1.00  0.00     0.031 C 
ATOM     43  C   UNL A   1      39.805  28.417  27.506  1.00  0.00     0.029 A 
ATOM     44  C   UNL A   1      40.677  28.288  28.672  1.00  0.00     0.049 A 
ATOM     45  H   UNL A   1      40.463  29.232  30.516  1.00  0.00     0.167 HD
ATOM     46  C   UNL A   1      39.827  31.226  34.376  1.00  0.00     0.034 A 
ATOM     47  C   UNL A   1      41.781  27.516  28.749  1.00  0.00     0.034 A 
ATOM     48  C   UNL A   1      41.015  30.431  34.550  1.00  0.00     0.049 A 
ATOM     49  C   UNL A   1      42.584  27.509  30.025  1.00  0.00     0.074 A 
ATOM     50  C   UNL A   1      41.786  30.274  35.687  1.00  0.00     0.029 A 
ATOM     51  N   UNL A   1      41.606  29.661  33.558  1.00  0.00    -0.354 N 
ATOM     52  N   UNL A   1      42.348  28.140  31.152  1.00  0.00    -0.248 NA
ATOM     53  C   UNL A   1      43.806  26.692  30.037  1.00  0.00     0.031 C 
ATOM     54  C   UNL A   1      42.875  29.455  35.368  1.00  0.00     0.029 A 
ATOM     55  C   UNL A   1      42.748  29.050  34.049  1.00  0.00     0.049 A 
ATOM     56  H   UNL A   1      41.264  29.563  32.639  1.00  0.00     0.167 HD
ATOM     57  C   UNL A   1      43.383  27.782  32.012  1.00  0.00     0.074 A 
ATOM     58  C   UNL A   1      44.239  26.873  31.277  1.00  0.00     0.031 C 
ATOM     59  C   UNL A   1      43.603  28.165  33.295  1.00  0.00     0.034 A 
BRANCH  46  60
ATOM     60  C   UNL A   1      39.320  32.029  35.543  1.00  0.00     0.023 A 
ATOM     61  C   UNL A   1      38.592  31.433  36.586  1.00  0.00     0.031 A 
ATOM     62  C   UNL A   1      39.577  33.409  35.617  1.00  0.00     0.131 A 
ATOM     63  C   UNL A   1      38.110  32.223  37.640  1.00  0.00     0.055 A 
ATOM     64  C   UNL A   1      39.146  34.180  36.698  1.00  0.00     0.041 A 
ATOM     65  F   UNL A   1      40.249  34.031  34.634  1.00  0.00    -0.206 F 
ATOM     66  C   UNL A   1      38.402  33.589  37.714  1.00  0.00     0.022 A 
BRANCH  63  67
ATOM     67  S   UNL A   1      37.027  31.460  38.879  1.00  0.00     0.124 S 
ATOM     68  O   UNL A   1      36.868  30.112  38.340  1.00  0.00    -0.237 OA
ATOM     69  O   UNL A   1      37.815  31.571  40.101  1.00  0.00    -0.237 OA
ATOM     70  O   UNL A   1      35.824  32.289  38.838  1.00  0.00    -0.744 OA
ENDBRANCH  63  67
ENDBRANCH  46  60
BRANCH  47  71
ATOM     71  C   UNL A   1      42.221  26.721  27.570  1.00  0.00     0.023 A 
ATOM     72  C   UNL A   1      41.949  25.347  27.480  1.00  0.00     0.031 A 
ATOM     73  C   UNL A   1      42.946  27.324  26.526  1.00  0.00     0.131 A 
ATOM     74  C   UNL A   1      42.419  24.615  26.379  1.00  0.00     0.055 A 
ATOM     75  C   UNL A   1      43.378  26.599  25.415  1.00  0.00     0.041 A 
ATOM     76  F   UNL A   1      43.231  28.635  26.567  1.00  0.00    -0.206 F 
ATOM     77  C   UNL A   1      43.120  25.234  25.340  1.00  0.00     0.022 A 
BRANCH  74  78
ATOM     78  S   UNL A   1      42.130  22.824  26.336  1.00  0.00     0.124 S 
ATOM     79  O   UNL A   1      40.683  22.754  26.499  1.00  0.00    -0.237 OA
ATOM     80  O   UNL A   1      42.646  22.464  25.019  1.00  0.00    -0.237 OA
ATOM     81  O   UNL A   1      42.912  22.326  27.465  1.00  0.00    -0.744 OA
ENDBRANCH  74  78
ENDBRANCH  47  71
BRANCH  59  82
ATOM     82  C   UNL A   1      44.806  27.587  33.993  1.00  0.00     0.023 A 
ATOM     83  C   UNL A   1      44.713  26.421  34.770  1.00  0.00     0.031 A 
ATOM     84  C   UNL A   1      46.067  28.194  33.851  1.00  0.00     0.131 A 
ATOM     85  C   UNL A   1      45.856  25.915  35.406  1.00  0.00     0.055 A 
ATOM     86  C   UNL A   1      47.210  27.659  34.447  1.00  0.00     0.041 A 
ATOM     87  F   UNL A   1      46.208  29.309  33.117  1.00  0.00    -0.206 F 
ATOM     88  C   UNL A   1      47.106  26.516  35.236  1.00  0.00     0.022 A 
BRANCH  85  89
ATOM     89  S   UNL A   1      45.680  24.479  36.500  1.00  0.00     0.124 S 
ATOM     90  O   UNL A   1      46.368  23.437  35.744  1.00  0.00    -0.237 OA
ATOM     91  O   UNL A   1      46.346  24.927  37.719  1.00  0.00    -0.237 OA
ATOM     92  O   UNL A   1      44.233  24.309  36.614  1.00  0.00    -0.744 OA
ENDBRANCH  85  89
ENDBRANCH  59  82
ENDBRANCH  33  34
ENDBRANCH  26  28
ENDBRANCH  25  26
ENDBRANCH  24  25
ENDBRANCH   1  24
TORSDOF 18
ENDMDL
MODEL 2
REMARK VINA RESULT:     -11.5      5.847     10.250
REMARK SMILES Cc1cc(Br)cc2c1O[C@H](C(F)(F)F)C(C(=O)OCCOCCOC(=O)c1ccc(-c3c4nc(c(-c5cc(S(=O)(=O)[O-])ccc5F)c5ccc([nH]5)c(-c5cc(S(=O)(=O)[O-])ccc5F)c5nc(c(-c6cc(S(=O)(=O)[O-])ccc6F)c6ccc3[nH]6)C=C5)C=C4)cc1)=C2
REMARK SMILES IDX 22 1 21 2 20 3 19 4 18 5 16 6 17 7 15 8 1 9 2 10 3 11 8 12
REMARK SMILES IDX 4 13 7 14 9 15 5 16 6 17 90 18 10 19 11 20 12 21 13 22 14 23
REMARK SMILES IDX 23 24 24 25 25 26 26 27 27 28 28 29 89 30 29 31 88 32 30 33
REMARK SMILES IDX 31 34 32 35 82 36 33 37 87 38 81 39 83 40 34 41 86 42 80 43
REMARK SMILES IDX 79 44 35 46 67 47 47 48 66 49 48 50 51 51 65 52 84 53 49 54
REMARK SMILES IDX 50 55 64 57 85 58 52 59 36 60 37 61 45 62 38 63 44 64 46 65
REMARK SMILES IDX 43 66 39 67 40 68 41 69 42 70 68 71 69 72 77 73 70 74 76 75
REMARK SMILES IDX 78 76 75 77 71 78 72 79 73 80 74 81 53 82 54 83 62 84 55 85
REMARK SMILES IDX 61 86 63 87 60 88 56 89 57 90 58 91 59 92
REMARK H PARENT 83 45 51 56
REMARK Flexibility Score: inf
ROOT
ATOM      1  C   UNL A   1      41.570  19.668  27.512  1.00  0.00     0.202 C 
ENDROOT
BRANCH   1   2
ATOM      2  O   UNL A   1      42.818  19.149  27.051  1.00  0.00    -0.374 OA
BRANCH   2   3
ATOM      3  C   UNL A   1      42.893  18.703  25.697  1.00  0.00     0.202 C 
BRANCH   3   4
ATOM      4  C   UNL A   1      43.719  19.563  24.738  1.00  0.00     0.261 C 
BRANCH   4   5
ATOM      5  O   UNL A   1      44.565  20.484  25.449  1.00  0.00    -0.460 OA
BRANCH   5   6
ATOM      6  C   UNL A   1      44.098  21.750  25.511  1.00  0.00     0.338 C 
ATOM      7  O   UNL A   1      43.093  22.192  24.970  1.00  0.00    -0.246 OA
BRANCH   6   8
ATOM      8  C   UNL A   1      44.911  22.541  26.453  1.00  0.00     0.087 C 
ATOM      9  C   UNL A   1      48.281  25.698  28.740  1.00  0.00     0.048 C 
ATOM     10  C   UNL A   1      46.941  25.098  29.064  1.00  0.00    -0.007 A 
ATOM     11  C   UNL A   1      46.304  25.489  30.254  1.00  0.00     0.023 A 
ATOM     12  C   UNL A   1      46.306  24.170  28.222  1.00  0.00     0.130 A 
ATOM     13  C   UNL A   1      45.056  24.968  30.591  1.00  0.00     0.019 A 
ATOM     14  C   UNL A   1      45.038  23.678  28.553  1.00  0.00     0.019 A 
ATOM     15  O   UNL A   1      46.981  23.771  27.102  1.00  0.00    -0.475 OA
ATOM     16  Br  UNL A   1      44.209  25.509  32.192  1.00  0.00    -0.051 Br
ATOM     17  C   UNL A   1      44.420  24.066  29.746  1.00  0.00     0.027 A 
ATOM     18  C   UNL A   1      44.332  22.808  27.629  1.00  0.00     0.027 C 
ATOM     19  C   UNL A   1      46.286  23.014  26.071  1.00  0.00     0.316 C 
BRANCH  19  20
ATOM     20  C   UNL A   1      46.284  23.848  24.782  1.00  0.00     0.430 C 
ATOM     21  F   UNL A   1      46.640  23.097  23.712  1.00  0.00    -0.167 F 
ATOM     22  F   UNL A   1      45.060  24.358  24.512  1.00  0.00    -0.167 F 
ATOM     23  F   UNL A   1      47.150  24.885  24.853  1.00  0.00    -0.167 F 
ENDBRANCH  19  20
ENDBRANCH   6   8
ENDBRANCH   5   6
ENDBRANCH   4   5
ENDBRANCH   3   4
ENDBRANCH   2   3
ENDBRANCH   1   2
BRANCH   1  24
ATOM     24  C   UNL A   1      40.482  19.931  26.463  1.00  0.00     0.261 C 
BRANCH  24  25
ATOM     25  O   UNL A   1      40.535  21.272  25.944  1.00  0.00    -0.460 OA
BRANCH  25  26
ATOM     26  C   UNL A   1      39.431  22.014  26.196  1.00  0.00     0.338 C 
ATOM     27  O   UNL A   1      38.264  21.655  26.090  1.00  0.00    -0.246 OA
BRANCH  26  28
ATOM     28  C   UNL A   1      39.807  23.298  26.810  1.00  0.00     0.060 A 
ATOM     29  C   UNL A   1      39.321  24.469  26.213  1.00  0.00     0.016 A 
ATOM     30  C   UNL A   1      40.698  23.363  27.883  1.00  0.00     0.016 A 
ATOM     31  C   UNL A   1      39.767  25.712  26.652  1.00  0.00     0.010 A 
ATOM     32  C   UNL A   1      41.158  24.613  28.312  1.00  0.00     0.010 A 
ATOM     33  C   UNL A   1      40.725  25.789  27.672  1.00  0.00    -0.014 A 
BRANCH  33  34
ATOM     34  C   UNL A   1      41.407  27.080  27.930  1.00  0.00     0.031 A 
ATOM     35  C   UNL A   1      40.665  28.146  28.692  1.00  0.00     0.074 A 
ATOM     36  C   UNL A   1      42.681  27.279  27.549  1.00  0.00     0.049 A 
ATOM     37  N   UNL A   1      41.038  29.361  28.993  1.00  0.00    -0.248 NA
ATOM     38  C   UNL A   1      39.324  27.787  29.184  1.00  0.00     0.031 C 
ATOM     39  C   UNL A   1      43.526  26.293  26.877  1.00  0.00     0.029 A 
ATOM     40  N   UNL A   1      43.489  28.380  27.683  1.00  0.00    -0.354 N 
ATOM     41  C   UNL A   1      39.983  29.912  29.713  1.00  0.00     0.074 A 
ATOM     42  C   UNL A   1      38.944  28.909  29.775  1.00  0.00     0.031 C 
ATOM     43  C   UNL A   1      44.738  26.835  26.660  1.00  0.00     0.029 A 
ATOM     44  C   UNL A   1      44.741  28.216  27.139  1.00  0.00     0.049 A 
ATOM     45  H   UNL A   1      43.200  29.209  28.127  1.00  0.00     0.167 HD
ATOM     46  C   UNL A   1      39.895  31.141  30.278  1.00  0.00     0.034 A 
ATOM     47  C   UNL A   1      45.763  29.088  27.024  1.00  0.00     0.034 A 
ATOM     48  C   UNL A   1      40.933  32.136  30.203  1.00  0.00     0.049 A 
ATOM     49  C   UNL A   1      45.598  30.488  27.559  1.00  0.00     0.074 A 
ATOM     50  C   UNL A   1      40.936  33.417  30.725  1.00  0.00     0.029 A 
ATOM     51  N   UNL A   1      42.153  31.963  29.565  1.00  0.00    -0.354 N 
ATOM     52  N   UNL A   1      44.573  31.016  28.188  1.00  0.00    -0.248 NA
ATOM     53  C   UNL A   1      46.723  31.413  27.360  1.00  0.00     0.031 C 
ATOM     54  C   UNL A   1      42.133  34.039  30.353  1.00  0.00     0.029 A 
ATOM     55  C   UNL A   1      42.904  33.124  29.654  1.00  0.00     0.049 A 
ATOM     56  H   UNL A   1      42.442  31.137  29.113  1.00  0.00     0.167 HD
ATOM     57  C   UNL A   1      44.938  32.328  28.476  1.00  0.00     0.074 A 
ATOM     58  C   UNL A   1      46.280  32.510  27.959  1.00  0.00     0.031 C 
ATOM     59  C   UNL A   1      44.231  33.294  29.113  1.00  0.00     0.034 A 
BRANCH  46  60
ATOM     60  C   UNL A   1      38.613  31.487  30.987  1.00  0.00     0.023 A 
ATOM     61  C   UNL A   1      37.494  31.972  30.288  1.00  0.00     0.031 A 
ATOM     62  C   UNL A   1      38.508  31.322  32.378  1.00  0.00     0.131 A 
ATOM     63  C   UNL A   1      36.329  32.313  30.991  1.00  0.00     0.055 A 
ATOM     64  C   UNL A   1      37.326  31.608  33.064  1.00  0.00     0.041 A 
ATOM     65  F   UNL A   1      39.556  30.884  33.094  1.00  0.00    -0.206 F 
ATOM     66  C   UNL A   1      36.230  32.113  32.371  1.00  0.00     0.022 A 
BRANCH  63  67
ATOM     67  S   UNL A   1      34.965  33.099  30.090  1.00  0.00     0.124 S 
ATOM     68  O   UNL A   1      34.075  33.485  31.182  1.00  0.00    -0.237 OA
ATOM     69  O   UNL A   1      35.633  34.191  29.392  1.00  0.00    -0.237 OA
ATOM     70  O   UNL A   1      34.462  32.028  29.231  1.00  0.00    -0.744 OA
ENDBRANCH  63  67
ENDBRANCH  46  60
BRANCH  47  71
ATOM     71  C   UNL A   1      47.019  28.682  26.336  1.00  0.00     0.023 A 
ATOM     72  C   UNL A   1      47.052  28.479  24.948  1.00  0.00     0.031 A 
ATOM     73  C   UNL A   1      48.202  28.466  27.066  1.00  0.00     0.131 A 
ATOM     74  C   UNL A   1      48.239  28.050  24.334  1.00  0.00     0.055 A 
ATOM     75  C   UNL A   1      49.390  28.076  26.446  1.00  0.00     0.041 A 
ATOM     76  F   UNL A   1      48.220  28.646  28.396  1.00  0.00    -0.206 F 
ATOM     77  C   UNL A   1      49.411  27.860  25.072  1.00  0.00     0.022 A 
BRANCH  74  78
ATOM     78  S   UNL A   1      48.225  27.710  22.552  1.00  0.00     0.124 S 
ATOM     79  O   UNL A   1      48.453  26.270  22.524  1.00  0.00    -0.237 OA
ATOM     80  O   UNL A   1      46.890  28.158  22.166  1.00  0.00    -0.237 OA
ATOM     81  O   UNL A   1      49.323  28.527  22.042  1.00  0.00    -0.744 OA
ENDBRANCH  74  78
ENDBRANCH  47  71
BRANCH  59  82
ATOM     82  C   UNL A   1      44.901  34.630  29.307  1.00  0.00     0.023 A 
ATOM     83  C   UNL A   1      44.745  35.669  28.376  1.00  0.00     0.031 A 
ATOM     84  C   UNL A   1      45.678  34.873  30.453  1.00  0.00     0.131 A 
ATOM     85  C   UNL A   1      45.386  36.898  28.590  1.00  0.00     0.055 A 
ATOM     86  C   UNL A   1      46.275  36.113  30.685  1.00  0.00     0.041 A 
ATOM     87  F   UNL A   1      45.856  33.912  31.374  1.00  0.00    -0.206 F 
ATOM     88  C   UNL A   1      46.135  37.132  29.746  1.00  0.00     0.022 A 
BRANCH  85  89
ATOM     89  S   UNL A   1      45.264  38.179  27.312  1.00  0.00     0.124 S 
ATOM     90  O   UNL A   1      43.864  38.078  26.915  1.00  0.00    -0.237 OA
ATOM     91  O   UNL A   1      45.635  39.388  28.040  1.00  0.00    -0.237 OA
ATOM     92  O   UNL A   1      46.229  37.747  26.301  1.00  0.00    -0.744 OA
ENDBRANCH  85  89
ENDBRANCH  59  82
ENDBRANCH  33  34
ENDBRANCH  26  28
ENDBRANCH  25  26
ENDBRANCH  24  25
ENDBRANCH   1  24
TORSDOF 18
ENDMDL
MODEL 3
REMARK VINA RESULT:     -11.4      1.500      7.695
REMARK SMILES Cc1cc(Br)cc2c1O[C@H](C(F)(F)F)C(C(=O)OCCOCCOC(=O)c1ccc(-c3c4nc(c(-c5cc(S(=O)(=O)[O-])ccc5F)c5ccc([nH]5)c(-c5cc(S(=O)(=O)[O-])ccc5F)c5nc(c(-c6cc(S(=O)(=O)[O-])ccc6F)c6ccc3[nH]6)C=C5)C=C4)cc1)=C2
REMARK SMILES IDX 22 1 21 2 20 3 19 4 18 5 16 6 17 7 15 8 1 9 2 10 3 11 8 12
REMARK SMILES IDX 4 13 7 14 9 15 5 16 6 17 90 18 10 19 11 20 12 21 13 22 14 23
REMARK SMILES IDX 23 24 24 25 25 26 26 27 27 28 28 29 89 30 29 31 88 32 30 33
REMARK SMILES IDX 31 34 32 35 82 36 33 37 87 38 81 39 83 40 34 41 86 42 80 43
REMARK SMILES IDX 79 44 35 46 67 47 47 48 66 49 48 50 51 51 65 52 84 53 49 54
REMARK SMILES IDX 50 55 64 57 85 58 52 59 36 60 37 61 45 62 38 63 44 64 46 65
REMARK SMILES IDX 43 66 39 67 40 68 41 69 42 70 68 71 69 72 77 73 70 74 76 75
REMARK SMILES IDX 78 76 75 77 71 78 72 79 73 80 74 81 53 82 54 83 62 84 55 85
REMARK SMILES IDX 61 86 63 87 60 88 56 89 57 90 58 91 59 92
REMARK H PARENT 83 45 51 56
REMARK Flexibility Score: inf
ROOT
ATOM      1  C   UNL A   1      31.219  29.539  24.990  1.00  0.00     0.202 C 
ENDROOT
BRANCH   1   2
ATOM      2  O   UNL A   1      32.164  29.014  24.057  1.00  0.00    -0.374 OA
BRANCH   2   3
ATOM      3  C   UNL A   1      31.683  28.113  23.061  1.00  0.00     0.202 C 
BRANCH   3   4
ATOM      4  C   UNL A   1      32.615  26.962  22.673  1.00  0.00     0.261 C 
BRANCH   4   5
ATOM      5  O   UNL A   1      31.925  25.701  22.668  1.00  0.00    -0.460 OA
BRANCH   5   6
ATOM      6  C   UNL A   1      31.786  25.127  23.884  1.00  0.00     0.338 C 
ATOM      7  O   UNL A   1      30.959  25.407  24.740  1.00  0.00    -0.246 OA
BRANCH   6   8
ATOM      8  C   UNL A   1      32.713  23.986  24.010  1.00  0.00     0.087 C 
ATOM      9  C   UNL A   1      36.628  20.800  25.042  1.00  0.00     0.048 C 
ATOM     10  C   UNL A   1      35.159  20.678  24.745  1.00  0.00    -0.007 A 
ATOM     11  C   UNL A   1      34.568  19.404  24.811  1.00  0.00     0.023 A 
ATOM     12  C   UNL A   1      34.362  21.785  24.412  1.00  0.00     0.130 A 
ATOM     13  C   UNL A   1      33.208  19.243  24.554  1.00  0.00     0.019 A 
ATOM     14  C   UNL A   1      32.990  21.618  24.189  1.00  0.00     0.019 A 
ATOM     15  O   UNL A   1      34.983  22.998  24.302  1.00  0.00    -0.475 OA
ATOM     16  Br  UNL A   1      32.426  17.525  24.654  1.00  0.00    -0.051 Br
ATOM     17  C   UNL A   1      32.416  20.344  24.245  1.00  0.00     0.027 A 
ATOM     18  C   UNL A   1      32.146  22.776  23.956  1.00  0.00     0.027 C 
ATOM     19  C   UNL A   1      34.186  24.212  24.207  1.00  0.00     0.316 C 
BRANCH  19  20
ATOM     20  C   UNL A   1      34.488  25.083  25.435  1.00  0.00     0.430 C 
ATOM     21  F   UNL A   1      34.350  26.400  25.148  1.00  0.00    -0.167 F 
ATOM     22  F   UNL A   1      33.650  24.816  26.463  1.00  0.00    -0.167 F 
ATOM     23  F   UNL A   1      35.751  24.897  25.884  1.00  0.00    -0.167 F 
ENDBRANCH  19  20
ENDBRANCH   6   8
ENDBRANCH   5   6
ENDBRANCH   4   5
ENDBRANCH   3   4
ENDBRANCH   2   3
ENDBRANCH   1   2
BRANCH   1  24
ATOM     24  C   UNL A   1      31.696  30.656  25.927  1.00  0.00     0.261 C 
BRANCH  24  25
ATOM     25  O   UNL A   1      32.984  30.374  26.504  1.00  0.00    -0.460 OA
BRANCH  25  26
ATOM     26  C   UNL A   1      33.515  31.395  27.218  1.00  0.00     0.338 C 
ATOM     27  O   UNL A   1      32.934  32.405  27.599  1.00  0.00    -0.246 OA
BRANCH  26  28
ATOM     28  C   UNL A   1      34.878  31.056  27.660  1.00  0.00     0.060 A 
ATOM     29  C   UNL A   1      35.173  29.702  27.871  1.00  0.00     0.016 A 
ATOM     30  C   UNL A   1      35.817  32.044  27.962  1.00  0.00     0.016 A 
ATOM     31  C   UNL A   1      36.390  29.333  28.436  1.00  0.00     0.010 A 
ATOM     32  C   UNL A   1      37.033  31.673  28.546  1.00  0.00     0.010 A 
ATOM     33  C   UNL A   1      37.307  30.320  28.822  1.00  0.00    -0.014 A 
BRANCH  33  34
ATOM     34  C   UNL A   1      38.456  29.946  29.680  1.00  0.00     0.031 A 
ATOM     35  C   UNL A   1      39.464  28.964  29.145  1.00  0.00     0.074 A 
ATOM     36  C   UNL A   1      38.634  30.513  30.886  1.00  0.00     0.049 A 
ATOM     37  N   UNL A   1      40.516  28.455  29.729  1.00  0.00    -0.248 NA
ATOM     38  C   UNL A   1      39.257  28.499  27.763  1.00  0.00     0.031 C 
ATOM     39  C   UNL A   1      37.770  31.535  31.475  1.00  0.00     0.029 A 
ATOM     40  N   UNL A   1      39.611  30.314  31.829  1.00  0.00    -0.354 N 
ATOM     41  C   UNL A   1      41.101  27.615  28.787  1.00  0.00     0.074 A 
ATOM     42  C   UNL A   1      40.268  27.658  27.606  1.00  0.00     0.031 C 
ATOM     43  C   UNL A   1      38.258  31.875  32.681  1.00  0.00     0.029 A 
ATOM     44  C   UNL A   1      39.443  31.068  32.966  1.00  0.00     0.049 A 
ATOM     45  H   UNL A   1      40.361  29.689  31.703  1.00  0.00     0.167 HD
ATOM     46  C   UNL A   1      42.235  26.881  28.895  1.00  0.00     0.034 A 
ATOM     47  C   UNL A   1      40.154  31.088  34.112  1.00  0.00     0.034 A 
ATOM     48  C   UNL A   1      43.053  26.838  30.079  1.00  0.00     0.049 A 
ATOM     49  C   UNL A   1      41.346  30.176  34.253  1.00  0.00     0.074 A 
ATOM     50  C   UNL A   1      44.211  26.114  30.300  1.00  0.00     0.029 A 
ATOM     51  N   UNL A   1      42.801  27.548  31.245  1.00  0.00    -0.354 N 
ATOM     52  N   UNL A   1      41.856  29.343  33.375  1.00  0.00    -0.248 NA
ATOM     53  C   UNL A   1      42.053  30.200  35.542  1.00  0.00     0.031 C 
ATOM     54  C   UNL A   1      44.626  26.340  31.617  1.00  0.00     0.029 A 
ATOM     55  C   UNL A   1      43.764  27.257  32.197  1.00  0.00     0.049 A 
ATOM     56  H   UNL A   1      42.047  28.168  31.376  1.00  0.00     0.167 HD
ATOM     57  C   UNL A   1      42.954  28.757  34.000  1.00  0.00     0.074 A 
ATOM     58  C   UNL A   1      43.038  29.338  35.325  1.00  0.00     0.031 C 
ATOM     59  C   UNL A   1      43.819  27.828  33.521  1.00  0.00     0.034 A 
BRANCH  46  60
ATOM     60  C   UNL A   1      42.628  26.032  27.717  1.00  0.00     0.023 A 
ATOM     61  C   UNL A   1      42.154  24.718  27.566  1.00  0.00     0.031 A 
ATOM     62  C   UNL A   1      43.480  26.549  26.726  1.00  0.00     0.131 A 
ATOM     63  C   UNL A   1      42.569  23.949  26.468  1.00  0.00     0.055 A 
ATOM     64  C   UNL A   1      43.843  25.800  25.605  1.00  0.00     0.041 A 
ATOM     65  F   UNL A   1      43.978  27.791  26.835  1.00  0.00    -0.206 F 
ATOM     66  C   UNL A   1      43.392  24.490  25.476  1.00  0.00     0.022 A 
BRANCH  63  67
ATOM     67  S   UNL A   1      42.083  22.204  26.391  1.00  0.00     0.124 S 
ATOM     68  O   UNL A   1      40.633  22.309  26.253  1.00  0.00    -0.237 OA
ATOM     69  O   UNL A   1      42.805  21.725  25.218  1.00  0.00    -0.237 OA
ATOM     70  O   UNL A   1      42.545  21.664  27.669  1.00  0.00    -0.744 OA
ENDBRANCH  63  67
ENDBRANCH  46  60
BRANCH  47  71
ATOM     71  C   UNL A   1      39.735  31.968  35.237  1.00  0.00     0.023 A 
ATOM     72  C   UNL A   1      38.904  31.488  36.261  1.00  0.00     0.031 A 
ATOM     73  C   UNL A   1      40.141  33.314  35.288  1.00  0.00     0.131 A 
ATOM     74  C   UNL A   1      38.487  32.355  37.283  1.00  0.00     0.055 A 
ATOM     75  C   UNL A   1      39.754  34.161  36.327  1.00  0.00     0.041 A 
ATOM     76  F   UNL A   1      40.934  33.819  34.330  1.00  0.00    -0.206 F 
ATOM     77  C   UNL A   1      38.916  33.684  37.330  1.00  0.00     0.022 A 
BRANCH  74  78
ATOM     78  S   UNL A   1      37.341  31.729  38.544  1.00  0.00     0.124 S 
ATOM     79  O   UNL A   1      37.104  30.368  38.078  1.00  0.00    -0.237 OA
ATOM     80  O   UNL A   1      38.129  31.862  39.765  1.00  0.00    -0.237 OA
ATOM     81  O   UNL A   1      36.198  32.633  38.443  1.00  0.00    -0.744 OA
ENDBRANCH  74  78
ENDBRANCH  47  71
BRANCH  59  82
ATOM     82  C   UNL A   1      44.942  27.395  34.427  1.00  0.00     0.023 A 
ATOM     83  C   UNL A   1      44.825  26.262  35.248  1.00  0.00     0.031 A 
ATOM     84  C   UNL A   1      46.154  28.107  34.442  1.00  0.00     0.131 A 
ATOM     85  C   UNL A   1      45.893  25.891  36.078  1.00  0.00     0.055 A 
ATOM     86  C   UNL A   1      47.230  27.705  35.234  1.00  0.00     0.041 A 
ATOM     87  F   UNL A   1      46.316  29.195  33.673  1.00  0.00    -0.206 F 
ATOM     88  C   UNL A   1      47.100  26.595  36.064  1.00  0.00     0.022 A 
BRANCH  85  89
ATOM     89  S   UNL A   1      45.668  24.496  37.216  1.00  0.00     0.124 S 
ATOM     90  O   UNL A   1      44.671  25.020  38.142  1.00  0.00    -0.237 OA
ATOM     91  O   UNL A   1      45.216  23.432  36.326  1.00  0.00    -0.237 OA
ATOM     92  O   UNL A   1      47.001  24.300  37.785  1.00  0.00    -0.744 OA
ENDBRANCH  85  89
ENDBRANCH  59  82
ENDBRANCH  33  34
ENDBRANCH  26  28
ENDBRANCH  25  26
ENDBRANCH  24  25
ENDBRANCH   1  24
TORSDOF 18
ENDMDL
