MODEL 1
REMARK VINA RESULT:     -10.3      0.000      0.000
REMARK SMILES O=C(NC[C@@H]1CC[C@@H](C(=O)OCCOCCOC(=O)c2ccc(-c3c4nc(c(-c5cc(S(=O)(=O)[O-])ccc5F)c5ccc([nH]5)c(-c5cc(S(=O)(=O)[O-])ccc5F)c5nc(c(-c6cc(S(=O)(=O)[O-])ccc6F)c6ccc3[nH]6)C=C5)C=C4)cc2)O1)NC1CC1
REMARK SMILES IDX 14 1 13 2 12 3 11 4 9 5 10 6 8 7 5 8 6 9 83 10 7 11 4 12
REMARK SMILES IDX 3 13 1 14 2 15 84 16 85 19 86 20 87 21 15 22 16 23 17 24
REMARK SMILES IDX 18 25 19 26 20 27 21 28 82 29 22 30 81 31 23 32 24 33 25 34
REMARK SMILES IDX 75 35 26 36 80 37 74 38 76 39 27 40 79 41 73 42 72 43 28 45
REMARK SMILES IDX 60 46 40 47 59 48 41 49 44 50 58 51 77 52 42 53 43 54 57 56
REMARK SMILES IDX 78 57 45 58 29 59 30 60 38 61 31 62 37 63 39 64 36 65 32 66
REMARK SMILES IDX 33 67 34 68 35 69 61 70 62 71 70 72 63 73 69 74 71 75 68 76
REMARK SMILES IDX 64 77 65 78 66 79 67 80 46 81 47 82 55 83 48 84 54 85 56 86
REMARK SMILES IDX 53 87 49 88 50 89 51 90 52 91
REMARK H PARENT 3 17 84 18 76 44 44 55
REMARK Flexibility Score: inf
ROOT
ATOM      1  O   UNL A   1      32.756  28.377  25.147  1.00  0.00    -0.374 OA
ENDROOT
BRANCH   1   2
ATOM      2  C   UNL A   1      33.113  27.127  25.746  1.00  0.00     0.202 C 
BRANCH   2   3
ATOM      3  C   UNL A   1      32.116  25.986  25.517  1.00  0.00     0.261 C 
BRANCH   3   4
ATOM      4  O   UNL A   1      31.778  25.360  26.769  1.00  0.00    -0.461 OA
BRANCH   4   5
ATOM      5  C   UNL A   1      31.825  24.000  26.796  1.00  0.00     0.335 C 
ATOM      6  O   UNL A   1      31.120  23.287  27.501  1.00  0.00    -0.249 OA
BRANCH   5   7
ATOM      7  C   UNL A   1      32.806  23.437  25.761  1.00  0.00     0.228 C 
ATOM      8  C   UNL A   1      34.721  22.095  25.696  1.00  0.00     0.138 C 
ATOM      9  C   UNL A   1      33.779  21.666  24.583  1.00  0.00     0.037 C 
ATOM     10  O   UNL A   1      34.146  23.283  26.272  1.00  0.00    -0.361 OA
ATOM     11  C   UNL A   1      32.445  22.088  25.157  1.00  0.00     0.047 C 
BRANCH   8  12
ATOM     12  C   UNL A   1      36.180  22.321  25.274  1.00  0.00     0.149 C 
BRANCH  12  13
ATOM     13  N   UNL A   1      36.862  23.350  26.051  1.00  0.00    -0.336 N 
ATOM     14  O   UNL A   1      38.488  24.401  27.159  1.00  0.00    -0.249 OA
ATOM     15  C   UNL A   1      38.156  23.448  26.459  1.00  0.00     0.315 C 
ATOM     16  N   UNL A   1      39.018  22.473  26.048  1.00  0.00    -0.335 N 
ATOM     17  H   UNL A   1      36.289  24.101  26.327  1.00  0.00     0.165 HD
ATOM     18  H   UNL A   1      38.679  21.771  25.447  1.00  0.00     0.165 HD
BRANCH  16  19
ATOM     19  C   UNL A   1      40.389  22.423  26.447  1.00  0.00     0.084 C 
ATOM     20  C   UNL A   1      40.799  21.614  27.652  1.00  0.00     0.027 C 
ATOM     21  C   UNL A   1      41.197  21.167  26.276  1.00  0.00     0.027 C 
ENDBRANCH  16  19
ENDBRANCH  12  13
ENDBRANCH   8  12
ENDBRANCH   5   7
ENDBRANCH   4   5
ENDBRANCH   3   4
ENDBRANCH   2   3
ENDBRANCH   1   2
BRANCH   1  22
ATOM     22  C   UNL A   1      31.642  29.062  25.717  1.00  0.00     0.202 C 
BRANCH  22  23
ATOM     23  C   UNL A   1      31.959  30.362  26.465  1.00  0.00     0.261 C 
BRANCH  23  24
ATOM     24  O   UNL A   1      33.070  30.212  27.365  1.00  0.00    -0.460 OA
BRANCH  24  25
ATOM     25  C   UNL A   1      33.772  31.355  27.563  1.00  0.00     0.338 C 
ATOM     26  O   UNL A   1      33.321  32.495  27.569  1.00  0.00    -0.246 OA
BRANCH  25  27
ATOM     27  C   UNL A   1      35.167  31.058  27.945  1.00  0.00     0.060 A 
ATOM     28  C   UNL A   1      35.489  29.713  28.161  1.00  0.00     0.016 A 
ATOM     29  C   UNL A   1      36.116  32.059  28.175  1.00  0.00     0.016 A 
ATOM     30  C   UNL A   1      36.731  29.368  28.688  1.00  0.00     0.010 A 
ATOM     31  C   UNL A   1      37.365  31.710  28.704  1.00  0.00     0.010 A 
ATOM     32  C   UNL A   1      37.656  30.369  29.013  1.00  0.00    -0.014 A 
BRANCH  32  33
ATOM     33  C   UNL A   1      38.826  30.006  29.853  1.00  0.00     0.031 A 
ATOM     34  C   UNL A   1      38.927  30.581  31.242  1.00  0.00     0.074 A 
ATOM     35  C   UNL A   1      39.743  29.124  29.418  1.00  0.00     0.049 A 
ATOM     36  N   UNL A   1      39.826  30.371  32.168  1.00  0.00    -0.248 NA
ATOM     37  C   UNL A   1      37.870  31.526  31.630  1.00  0.00     0.031 C 
ATOM     38  C   UNL A   1      39.739  28.483  28.105  1.00  0.00     0.029 A 
ATOM     39  N   UNL A   1      40.854  28.613  30.041  1.00  0.00    -0.354 N 
ATOM     40  C   UNL A   1      39.441  31.152  33.253  1.00  0.00     0.074 A 
ATOM     41  C   UNL A   1      38.262  31.886  32.841  1.00  0.00     0.031 C 
ATOM     42  C   UNL A   1      40.806  27.671  28.015  1.00  0.00     0.029 A 
ATOM     43  C   UNL A   1      41.577  27.750  29.255  1.00  0.00     0.049 A 
ATOM     44  H   UNL A   1      41.108  28.845  30.963  1.00  0.00     0.167 HD
ATOM     45  C   UNL A   1      40.002  31.235  34.486  1.00  0.00     0.034 A 
ATOM     46  C   UNL A   1      42.737  27.109  29.501  1.00  0.00     0.034 A 
ATOM     47  C   UNL A   1      41.189  30.511  34.874  1.00  0.00     0.049 A 
ATOM     48  C   UNL A   1      43.384  27.256  30.855  1.00  0.00     0.074 A 
ATOM     49  C   UNL A   1      41.844  30.512  36.094  1.00  0.00     0.029 A 
ATOM     50  N   UNL A   1      41.912  29.664  34.041  1.00  0.00    -0.354 N 
ATOM     51  N   UNL A   1      42.998  27.978  31.883  1.00  0.00    -0.248 NA
ATOM     52  C   UNL A   1      44.609  26.483  31.090  1.00  0.00     0.031 C 
ATOM     53  C   UNL A   1      42.997  29.727  35.976  1.00  0.00     0.029 A 
ATOM     54  C   UNL A   1      43.021  29.165  34.709  1.00  0.00     0.049 A 
ATOM     55  H   UNL A   1      41.671  29.450  33.111  1.00  0.00     0.167 HD
ATOM     56  C   UNL A   1      43.922  27.726  32.894  1.00  0.00     0.074 A 
ATOM     57  C   UNL A   1      44.873  26.774  32.356  1.00  0.00     0.031 C 
ATOM     58  C   UNL A   1      43.977  28.232  34.155  1.00  0.00     0.034 A 
BRANCH  45  59
ATOM     59  C   UNL A   1      39.356  32.185  35.471  1.00  0.00     0.023 A 
ATOM     60  C   UNL A   1      39.745  33.534  35.557  1.00  0.00     0.031 A 
ATOM     61  C   UNL A   1      38.394  31.720  36.385  1.00  0.00     0.131 A 
ATOM     62  C   UNL A   1      39.253  34.341  36.595  1.00  0.00     0.055 A 
ATOM     63  C   UNL A   1      37.838  32.554  37.357  1.00  0.00     0.041 A 
ATOM     64  F   UNL A   1      37.999  30.439  36.369  1.00  0.00    -0.206 F 
ATOM     65  C   UNL A   1      38.282  33.868  37.481  1.00  0.00     0.022 A 
BRANCH  62  66
ATOM     66  S   UNL A   1      40.039  35.950  36.889  1.00  0.00     0.124 S 
ATOM     67  O   UNL A   1      41.421  35.558  37.157  1.00  0.00    -0.237 OA
ATOM     68  O   UNL A   1      39.805  36.648  35.630  1.00  0.00    -0.237 OA
ATOM     69  O   UNL A   1      39.316  36.480  38.042  1.00  0.00    -0.744 OA
ENDBRANCH  62  66
ENDBRANCH  45  59
BRANCH  46  70
ATOM     70  C   UNL A   1      43.379  26.298  28.428  1.00  0.00     0.023 A 
ATOM     71  C   UNL A   1      44.358  26.837  27.580  1.00  0.00     0.031 A 
ATOM     72  C   UNL A   1      42.995  24.958  28.228  1.00  0.00     0.131 A 
ATOM     73  C   UNL A   1      44.899  26.049  26.550  1.00  0.00     0.055 A 
ATOM     74  C   UNL A   1      43.568  24.168  27.232  1.00  0.00     0.041 A 
ATOM     75  F   UNL A   1      42.066  24.394  29.016  1.00  0.00    -0.206 F 
ATOM     76  C   UNL A   1      44.519  24.716  26.380  1.00  0.00     0.022 A 
BRANCH  73  77
ATOM     77  S   UNL A   1      46.074  26.810  25.397  1.00  0.00     0.124 S 
ATOM     78  O   UNL A   1      46.346  25.710  24.479  1.00  0.00    -0.237 OA
ATOM     79  O   UNL A   1      45.294  27.919  24.857  1.00  0.00    -0.237 OA
ATOM     80  O   UNL A   1      47.191  27.199  26.256  1.00  0.00    -0.744 OA
ENDBRANCH  73  77
ENDBRANCH  46  70
BRANCH  58  81
ATOM     81  C   UNL A   1      45.088  27.730  35.048  1.00  0.00     0.023 A 
ATOM     82  C   UNL A   1      44.942  26.575  35.836  1.00  0.00     0.031 A 
ATOM     83  C   UNL A   1      46.305  28.431  35.125  1.00  0.00     0.131 A 
ATOM     84  C   UNL A   1      45.968  26.191  36.714  1.00  0.00     0.055 A 
ATOM     85  C   UNL A   1      47.347  28.009  35.952  1.00  0.00     0.041 A 
ATOM     86  F   UNL A   1      46.501  29.543  34.397  1.00  0.00    -0.206 F 
ATOM     87  C   UNL A   1      47.175  26.892  36.765  1.00  0.00     0.022 A 
BRANCH  84  88
ATOM     88  S   UNL A   1      45.663  24.826  37.869  1.00  0.00     0.124 S 
ATOM     89  O   UNL A   1      46.624  25.107  38.931  1.00  0.00    -0.237 OA
ATOM     90  O   UNL A   1      44.259  25.017  38.213  1.00  0.00    -0.237 OA
ATOM     91  O   UNL A   1      45.949  23.633  37.073  1.00  0.00    -0.744 OA
ENDBRANCH  84  88
ENDBRANCH  58  81
ENDBRANCH  32  33
ENDBRANCH  25  27
ENDBRANCH  24  25
ENDBRANCH  23  24
ENDBRANCH  22  23
ENDBRANCH   1  22
TORSDOF 20
ENDMDL
MODEL 2
REMARK VINA RESULT:     -10.3      2.548      3.542
REMARK SMILES O=C(NC[C@@H]1CC[C@@H](C(=O)OCCOCCOC(=O)c2ccc(-c3c4nc(c(-c5cc(S(=O)(=O)[O-])ccc5F)c5ccc([nH]5)c(-c5cc(S(=O)(=O)[O-])ccc5F)c5nc(c(-c6cc(S(=O)(=O)[O-])ccc6F)c6ccc3[nH]6)C=C5)C=C4)cc2)O1)NC1CC1
REMARK SMILES IDX 14 1 13 2 12 3 11 4 9 5 10 6 8 7 5 8 6 9 83 10 7 11 4 12
REMARK SMILES IDX 3 13 1 14 2 15 84 16 85 19 86 20 87 21 15 22 16 23 17 24
REMARK SMILES IDX 18 25 19 26 20 27 21 28 82 29 22 30 81 31 23 32 24 33 25 34
REMARK SMILES IDX 75 35 26 36 80 37 74 38 76 39 27 40 79 41 73 42 72 43 28 45
REMARK SMILES IDX 60 46 40 47 59 48 41 49 44 50 58 51 77 52 42 53 43 54 57 56
REMARK SMILES IDX 78 57 45 58 29 59 30 60 38 61 31 62 37 63 39 64 36 65 32 66
REMARK SMILES IDX 33 67 34 68 35 69 61 70 62 71 70 72 63 73 69 74 71 75 68 76
REMARK SMILES IDX 64 77 65 78 66 79 67 80 46 81 47 82 55 83 48 84 54 85 56 86
REMARK SMILES IDX 53 87 49 88 50 89 51 90 52 91
REMARK H PARENT 3 17 84 18 76 44 44 55
REMARK Flexibility Score: inf
ROOT
ATOM      1  O   UNL A   1      32.692  29.595  25.181  1.00  0.00    -0.374 OA
ENDROOT
BRANCH   1   2
ATOM      2  C   UNL A   1      32.461  28.937  23.932  1.00  0.00     0.202 C 
BRANCH   2   3
ATOM      3  C   UNL A   1      33.705  28.330  23.275  1.00  0.00     0.261 C 
BRANCH   3   4
ATOM      4  O   UNL A   1      33.766  26.914  23.534  1.00  0.00    -0.461 OA
BRANCH   4   5
ATOM      5  C   UNL A   1      33.446  26.096  22.495  1.00  0.00     0.335 C 
ATOM      6  O   UNL A   1      33.741  26.303  21.323  1.00  0.00    -0.249 OA
BRANCH   5   7
ATOM      7  C   UNL A   1      32.746  24.815  22.963  1.00  0.00     0.228 C 
ATOM      8  C   UNL A   1      31.961  23.862  24.950  1.00  0.00     0.138 C 
ATOM      9  C   UNL A   1      30.917  23.668  23.863  1.00  0.00     0.037 C 
ATOM     10  O   UNL A   1      33.118  24.420  24.300  1.00  0.00    -0.361 OA
ATOM     11  C   UNL A   1      31.225  24.840  22.957  1.00  0.00     0.047 C 
BRANCH   8  12
ATOM     12  C   UNL A   1      32.316  22.603  25.754  1.00  0.00     0.149 C 
BRANCH  12  13
ATOM     13  N   UNL A   1      33.622  22.044  25.421  1.00  0.00    -0.336 N 
ATOM     14  O   UNL A   1      35.198  20.529  24.981  1.00  0.00    -0.249 OA
ATOM     15  C   UNL A   1      34.012  20.761  25.199  1.00  0.00     0.315 C 
ATOM     16  N   UNL A   1      33.044  19.799  25.220  1.00  0.00    -0.335 N 
ATOM     17  H   UNL A   1      34.344  22.710  25.345  1.00  0.00     0.165 HD
ATOM     18  H   UNL A   1      32.109  20.078  25.354  1.00  0.00     0.165 HD
BRANCH  16  19
ATOM     19  C   UNL A   1      33.321  18.407  25.057  1.00  0.00     0.084 C 
ATOM     20  C   UNL A   1      32.314  17.507  24.388  1.00  0.00     0.027 C 
ATOM     21  C   UNL A   1      33.605  17.832  23.697  1.00  0.00     0.027 C 
ENDBRANCH  16  19
ENDBRANCH  12  13
ENDBRANCH   8  12
ENDBRANCH   5   7
ENDBRANCH   4   5
ENDBRANCH   3   4
ENDBRANCH   2   3
ENDBRANCH   1   2
BRANCH   1  22
ATOM     22  C   UNL A   1      31.621  30.387  25.693  1.00  0.00     0.202 C 
BRANCH  22  23
ATOM     23  C   UNL A   1      31.980  31.356  26.825  1.00  0.00     0.261 C 
BRANCH  23  24
ATOM     24  O   UNL A   1      33.158  30.944  27.539  1.00  0.00    -0.460 OA
BRANCH  24  25
ATOM     25  C   UNL A   1      33.990  31.965  27.859  1.00  0.00     0.338 C 
ATOM     26  O   UNL A   1      33.666  33.124  28.087  1.00  0.00    -0.246 OA
BRANCH  25  27
ATOM     27  C   UNL A   1      35.368  31.478  28.066  1.00  0.00     0.060 A 
ATOM     28  C   UNL A   1      35.546  30.090  28.119  1.00  0.00     0.016 A 
ATOM     29  C   UNL A   1      36.447  32.339  28.292  1.00  0.00     0.016 A 
ATOM     30  C   UNL A   1      36.780  29.557  28.481  1.00  0.00     0.010 A 
ATOM     31  C   UNL A   1      37.688  31.800  28.655  1.00  0.00     0.010 A 
ATOM     32  C   UNL A   1      37.843  30.409  28.804  1.00  0.00    -0.014 A 
BRANCH  32  33
ATOM     33  C   UNL A   1      39.033  29.833  29.481  1.00  0.00     0.031 A 
ATOM     34  C   UNL A   1      39.401  30.337  30.852  1.00  0.00     0.074 A 
ATOM     35  C   UNL A   1      39.729  28.828  28.921  1.00  0.00     0.049 A 
ATOM     36  N   UNL A   1      40.362  29.953  31.652  1.00  0.00    -0.248 NA
ATOM     37  C   UNL A   1      38.573  31.429  31.384  1.00  0.00     0.031 C 
ATOM     38  C   UNL A   1      39.454  28.240  27.612  1.00  0.00     0.029 A 
ATOM     39  N   UNL A   1      40.808  28.123  29.389  1.00  0.00    -0.354 N 
ATOM     40  C   UNL A   1      40.250  30.751  32.787  1.00  0.00     0.074 A 
ATOM     41  C   UNL A   1      39.168  31.681  32.539  1.00  0.00     0.031 C 
ATOM     42  C   UNL A   1      40.351  27.268  27.376  1.00  0.00     0.029 A 
ATOM     43  C   UNL A   1      41.274  27.179  28.506  1.00  0.00     0.049 A 
ATOM     44  H   UNL A   1      41.211  28.279  30.274  1.00  0.00     0.167 HD
ATOM     45  C   UNL A   1      40.968  30.700  33.938  1.00  0.00     0.034 A 
ATOM     46  C   UNL A   1      42.333  26.349  28.593  1.00  0.00     0.034 A 
ATOM     47  C   UNL A   1      42.057  29.780  34.161  1.00  0.00     0.049 A 
ATOM     48  C   UNL A   1      43.160  26.344  29.854  1.00  0.00     0.074 A 
ATOM     49  C   UNL A   1      42.850  29.634  35.286  1.00  0.00     0.029 A 
ATOM     50  N   UNL A   1      42.519  28.854  33.232  1.00  0.00    -0.354 N 
ATOM     51  N   UNL A   1      43.031  27.085  30.932  1.00  0.00    -0.248 NA
ATOM     52  C   UNL A   1      44.259  25.374  29.920  1.00  0.00     0.031 C 
ATOM     53  C   UNL A   1      43.834  28.674  35.011  1.00  0.00     0.029 A 
ATOM     54  C   UNL A   1      43.605  28.159  33.745  1.00  0.00     0.049 A 
ATOM     55  H   UNL A   1      42.132  28.713  32.338  1.00  0.00     0.167 HD
ATOM     56  C   UNL A   1      44.019  26.653  31.812  1.00  0.00     0.074 A 
ATOM     57  C   UNL A   1      44.724  25.576  31.145  1.00  0.00     0.031 C 
ATOM     58  C   UNL A   1      44.315  27.101  33.061  1.00  0.00     0.034 A 
BRANCH  45  59
ATOM     59  C   UNL A   1      40.617  31.710  35.009  1.00  0.00     0.023 A 
ATOM     60  C   UNL A   1      39.607  31.462  35.956  1.00  0.00     0.031 A 
ATOM     61  C   UNL A   1      41.249  32.966  35.038  1.00  0.00     0.131 A 
ATOM     62  C   UNL A   1      39.189  32.485  36.820  1.00  0.00     0.055 A 
ATOM     63  C   UNL A   1      40.891  33.949  35.963  1.00  0.00     0.041 A 
ATOM     64  F   UNL A   1      42.203  33.273  34.147  1.00  0.00    -0.206 F 
ATOM     65  C   UNL A   1      39.841  33.720  36.848  1.00  0.00     0.022 A 
BRANCH  62  66
ATOM     66  S   UNL A   1      37.661  32.247  37.770  1.00  0.00     0.124 S 
ATOM     67  O   UNL A   1      37.450  30.807  37.632  1.00  0.00    -0.237 OA
ATOM     68  O   UNL A   1      38.041  32.714  39.098  1.00  0.00    -0.237 OA
ATOM     69  O   UNL A   1      36.687  33.080  37.068  1.00  0.00    -0.744 OA
ENDBRANCH  62  66
ENDBRANCH  45  59
BRANCH  46  70
ATOM     70  C   UNL A   1      42.691  25.480  27.437  1.00  0.00     0.023 A 
ATOM     71  C   UNL A   1      42.240  24.155  27.341  1.00  0.00     0.031 A 
ATOM     72  C   UNL A   1      43.517  25.974  26.409  1.00  0.00     0.131 A 
ATOM     73  C   UNL A   1      42.644  23.358  26.257  1.00  0.00     0.055 A 
ATOM     74  C   UNL A   1      43.879  25.191  25.313  1.00  0.00     0.041 A 
ATOM     75  F   UNL A   1      43.971  27.237  26.452  1.00  0.00    -0.206 F 
ATOM     76  C   UNL A   1      43.449  23.872  25.237  1.00  0.00     0.022 A 
BRANCH  73  77
ATOM     77  S   UNL A   1      42.144  21.615  26.223  1.00  0.00     0.124 S 
ATOM     78  O   UNL A   1      42.415  21.199  27.595  1.00  0.00    -0.237 OA
ATOM     79  O   UNL A   1      40.737  21.711  25.848  1.00  0.00    -0.237 OA
ATOM     80  O   UNL A   1      43.017  21.030  25.208  1.00  0.00    -0.744 OA
ENDBRANCH  73  77
ENDBRANCH  46  70
BRANCH  58  81
ATOM     81  C   UNL A   1      45.430  26.395  33.797  1.00  0.00     0.023 A 
ATOM     82  C   UNL A   1      45.181  25.318  34.667  1.00  0.00     0.031 A 
ATOM     83  C   UNL A   1      46.762  26.821  33.640  1.00  0.00     0.131 A 
ATOM     84  C   UNL A   1      46.236  24.746  35.394  1.00  0.00     0.055 A 
ATOM     85  C   UNL A   1      47.816  26.205  34.318  1.00  0.00     0.041 A 
ATOM     86  F   UNL A   1      47.061  27.845  32.825  1.00  0.00    -0.206 F 
ATOM     87  C   UNL A   1      47.554  25.173  35.213  1.00  0.00     0.022 A 
BRANCH  84  88
ATOM     88  S   UNL A   1      45.850  23.508  36.663  1.00  0.00     0.124 S 
ATOM     89  O   UNL A   1      45.313  22.411  35.863  1.00  0.00    -0.237 OA
ATOM     90  O   UNL A   1      47.153  23.273  37.275  1.00  0.00    -0.237 OA
ATOM     91  O   UNL A   1      44.877  24.186  37.518  1.00  0.00    -0.744 OA
ENDBRANCH  84  88
ENDBRANCH  58  81
ENDBRANCH  32  33
ENDBRANCH  25  27
ENDBRANCH  24  25
ENDBRANCH  23  24
ENDBRANCH  22  23
ENDBRANCH   1  22
TORSDOF 20
ENDMDL
MODEL 3
REMARK VINA RESULT:     -10.2      2.386      3.216
REMARK SMILES O=C(NC[C@@H]1CC[C@@H](C(=O)OCCOCCOC(=O)c2ccc(-c3c4nc(c(-c5cc(S(=O)(=O)[O-])ccc5F)c5ccc([nH]5)c(-c5cc(S(=O)(=O)[O-])ccc5F)c5nc(c(-c6cc(S(=O)(=O)[O-])ccc6F)c6ccc3[nH]6)C=C5)C=C4)cc2)O1)NC1CC1
REMARK SMILES IDX 14 1 13 2 12 3 11 4 9 5 10 6 8 7 5 8 6 9 83 10 7 11 4 12
REMARK SMILES IDX 3 13 1 14 2 15 84 16 85 19 86 20 87 21 15 22 16 23 17 24
REMARK SMILES IDX 18 25 19 26 20 27 21 28 82 29 22 30 81 31 23 32 24 33 25 34
REMARK SMILES IDX 75 35 26 36 80 37 74 38 76 39 27 40 79 41 73 42 72 43 28 45
REMARK SMILES IDX 60 46 40 47 59 48 41 49 44 50 58 51 77 52 42 53 43 54 57 56
REMARK SMILES IDX 78 57 45 58 29 59 30 60 38 61 31 62 37 63 39 64 36 65 32 66
REMARK SMILES IDX 33 67 34 68 35 69 61 70 62 71 70 72 63 73 69 74 71 75 68 76
REMARK SMILES IDX 64 77 65 78 66 79 67 80 46 81 47 82 55 83 48 84 54 85 56 86
REMARK SMILES IDX 53 87 49 88 50 89 51 90 52 91
REMARK H PARENT 3 17 84 18 76 44 44 55
REMARK Flexibility Score: inf
ROOT
ATOM      1  O   UNL A   1      32.138  29.793  25.338  1.00  0.00    -0.374 OA
ENDROOT
BRANCH   1   2
ATOM      2  C   UNL A   1      32.329  29.246  24.030  1.00  0.00     0.202 C 
BRANCH   2   3
ATOM      3  C   UNL A   1      33.382  28.136  23.935  1.00  0.00     0.261 C 
BRANCH   3   4
ATOM      4  O   UNL A   1      32.758  26.886  23.582  1.00  0.00    -0.461 OA
BRANCH   4   5
ATOM      5  C   UNL A   1      32.481  26.039  24.610  1.00  0.00     0.335 C 
ATOM      6  O   UNL A   1      32.128  26.388  25.731  1.00  0.00    -0.249 OA
BRANCH   5   7
ATOM      7  C   UNL A   1      32.565  24.569  24.185  1.00  0.00     0.228 C 
ATOM      8  C   UNL A   1      31.646  22.504  24.791  1.00  0.00     0.138 C 
ATOM      9  C   UNL A   1      31.641  22.622  23.276  1.00  0.00     0.037 C 
ATOM     10  O   UNL A   1      32.371  23.648  25.279  1.00  0.00    -0.361 OA
ATOM     11  C   UNL A   1      31.591  24.124  23.105  1.00  0.00     0.047 C 
BRANCH   8  12
ATOM     12  C   UNL A   1      32.219  21.193  25.348  1.00  0.00     0.149 C 
BRANCH  12  13
ATOM     13  N   UNL A   1      33.668  21.088  25.225  1.00  0.00    -0.336 N 
ATOM     14  O   UNL A   1      35.680  20.179  24.903  1.00  0.00    -0.249 OA
ATOM     15  C   UNL A   1      34.461  20.035  24.888  1.00  0.00     0.315 C 
ATOM     16  N   UNL A   1      33.840  18.871  24.538  1.00  0.00    -0.335 N 
ATOM     17  H   UNL A   1      34.157  21.920  25.419  1.00  0.00     0.165 HD
ATOM     18  H   UNL A   1      32.856  18.856  24.506  1.00  0.00     0.165 HD
BRANCH  16  19
ATOM     19  C   UNL A   1      34.550  17.673  24.216  1.00  0.00     0.084 C 
ATOM     20  C   UNL A   1      33.936  16.327  24.506  1.00  0.00     0.027 C 
ATOM     21  C   UNL A   1      34.096  16.788  23.088  1.00  0.00     0.027 C 
ENDBRANCH  16  19
ENDBRANCH  12  13
ENDBRANCH   8  12
ENDBRANCH   5   7
ENDBRANCH   4   5
ENDBRANCH   3   4
ENDBRANCH   2   3
ENDBRANCH   1   2
BRANCH   1  22
ATOM     22  C   UNL A   1      31.173  30.837  25.458  1.00  0.00     0.202 C 
BRANCH  22  23
ATOM     23  C   UNL A   1      31.426  31.867  26.564  1.00  0.00     0.261 C 
BRANCH  23  24
ATOM     24  O   UNL A   1      32.552  31.515  27.387  1.00  0.00    -0.460 OA
BRANCH  24  25
ATOM     25  C   UNL A   1      33.384  32.552  27.651  1.00  0.00     0.338 C 
ATOM     26  O   UNL A   1      33.063  33.727  27.782  1.00  0.00    -0.246 OA
BRANCH  25  27
ATOM     27  C   UNL A   1      34.751  32.072  27.933  1.00  0.00     0.060 A 
ATOM     28  C   UNL A   1      34.911  30.694  28.123  1.00  0.00     0.016 A 
ATOM     29  C   UNL A   1      35.836  32.940  28.098  1.00  0.00     0.016 A 
ATOM     30  C   UNL A   1      36.130  30.186  28.561  1.00  0.00     0.010 A 
ATOM     31  C   UNL A   1      37.063  32.425  28.537  1.00  0.00     0.010 A 
ATOM     32  C   UNL A   1      37.198  31.054  28.822  1.00  0.00    -0.014 A 
BRANCH  32  33
ATOM     33  C   UNL A   1      38.367  30.534  29.577  1.00  0.00     0.031 A 
ATOM     34  C   UNL A   1      38.556  30.966  31.007  1.00  0.00     0.074 A 
ATOM     35  C   UNL A   1      39.201  29.635  29.026  1.00  0.00     0.049 A 
ATOM     36  N   UNL A   1      39.469  30.608  31.872  1.00  0.00    -0.248 NA
ATOM     37  C   UNL A   1      37.586  31.942  31.522  1.00  0.00     0.031 C 
ATOM     38  C   UNL A   1      39.106  29.122  27.661  1.00  0.00     0.029 A 
ATOM     39  N   UNL A   1      40.292  28.992  29.553  1.00  0.00    -0.354 N 
ATOM     40  C   UNL A   1      39.179  31.309  33.039  1.00  0.00     0.074 A 
ATOM     41  C   UNL A   1      38.044  32.159  32.745  1.00  0.00     0.031 C 
ATOM     42  C   UNL A   1      40.107  28.250  27.453  1.00  0.00     0.029 A 
ATOM     43  C   UNL A   1      40.924  28.158  28.662  1.00  0.00     0.049 A 
ATOM     44  H   UNL A   1      40.594  29.117  30.482  1.00  0.00     0.167 HD
ATOM     45  C   UNL A   1      39.787  31.235  34.251  1.00  0.00     0.034 A 
ATOM     46  C   UNL A   1      42.041  27.418  28.801  1.00  0.00     0.034 A 
ATOM     47  C   UNL A   1      40.931  30.398  34.522  1.00  0.00     0.049 A 
ATOM     48  C   UNL A   1      42.743  27.391  30.136  1.00  0.00     0.074 A 
ATOM     49  C   UNL A   1      41.625  30.239  35.709  1.00  0.00     0.029 A 
ATOM     50  N   UNL A   1      41.561  29.585  33.586  1.00  0.00    -0.354 N 
ATOM     51  N   UNL A   1      42.447  28.038  31.240  1.00  0.00    -0.248 NA
ATOM     52  C   UNL A   1      43.916  26.516  30.248  1.00  0.00     0.031 C 
ATOM     53  C   UNL A   1      42.714  29.389  35.473  1.00  0.00     0.029 A 
ATOM     54  C   UNL A   1      42.653  28.949  34.159  1.00  0.00     0.049 A 
ATOM     55  H   UNL A   1      41.273  29.477  32.651  1.00  0.00     0.167 HD
ATOM     56  C   UNL A   1      43.383  27.629  32.185  1.00  0.00     0.074 A 
ATOM     57  C   UNL A   1      44.243  26.668  31.524  1.00  0.00     0.031 C 
ATOM     58  C   UNL A   1      43.518  28.009  33.483  1.00  0.00     0.034 A 
BRANCH  45  59
ATOM     59  C   UNL A   1      39.247  32.131  35.344  1.00  0.00     0.023 A 
ATOM     60  C   UNL A   1      39.649  33.474  35.464  1.00  0.00     0.031 A 
ATOM     61  C   UNL A   1      38.377  31.618  36.322  1.00  0.00     0.131 A 
ATOM     62  C   UNL A   1      39.265  34.224  36.587  1.00  0.00     0.055 A 
ATOM     63  C   UNL A   1      37.924  32.398  37.388  1.00  0.00     0.041 A 
ATOM     64  F   UNL A   1      37.975  30.339  36.277  1.00  0.00    -0.206 F 
ATOM     65  C   UNL A   1      38.385  33.703  37.538  1.00  0.00     0.022 A 
BRANCH  62  66
ATOM     66  S   UNL A   1      40.085  35.815  36.887  1.00  0.00     0.124 S 
ATOM     67  O   UNL A   1      39.713  36.568  35.691  1.00  0.00    -0.237 OA
ATOM     68  O   UNL A   1      39.473  36.253  38.136  1.00  0.00    -0.237 OA
ATOM     69  O   UNL A   1      41.500  35.461  36.974  1.00  0.00    -0.744 OA
ENDBRANCH  62  66
ENDBRANCH  45  59
BRANCH  46  70
ATOM     70  C   UNL A   1      42.585  26.669  27.633  1.00  0.00     0.023 A 
ATOM     71  C   UNL A   1      42.250  25.327  27.395  1.00  0.00     0.031 A 
ATOM     72  C   UNL A   1      43.473  27.297  26.740  1.00  0.00     0.131 A 
ATOM     73  C   UNL A   1      42.826  24.647  26.309  1.00  0.00     0.055 A 
ATOM     74  C   UNL A   1      44.007  26.630  25.638  1.00  0.00     0.041 A 
ATOM     75  F   UNL A   1      43.820  28.582  26.921  1.00  0.00    -0.206 F 
ATOM     76  C   UNL A   1      43.691  25.293  25.423  1.00  0.00     0.022 A 
BRANCH  73  77
ATOM     77  S   UNL A   1      42.468  22.881  26.097  1.00  0.00     0.124 S 
ATOM     78  O   UNL A   1      42.970  22.634  24.751  1.00  0.00    -0.237 OA
ATOM     79  O   UNL A   1      43.232  22.285  27.188  1.00  0.00    -0.237 OA
ATOM     80  O   UNL A   1      41.015  22.809  26.246  1.00  0.00    -0.744 OA
ENDBRANCH  73  77
ENDBRANCH  46  70
BRANCH  58  81
ATOM     81  C   UNL A   1      44.619  27.348  34.280  1.00  0.00     0.023 A 
ATOM     82  C   UNL A   1      45.910  27.901  34.364  1.00  0.00     0.031 A 
ATOM     83  C   UNL A   1      44.378  26.135  34.950  1.00  0.00     0.131 A 
ATOM     84  C   UNL A   1      46.924  27.212  35.046  1.00  0.00     0.055 A 
ATOM     85  C   UNL A   1      45.374  25.486  35.681  1.00  0.00     0.041 A 
ATOM     86  F   UNL A   1      43.166  25.558  34.904  1.00  0.00    -0.206 F 
ATOM     87  C   UNL A   1      46.661  26.016  35.718  1.00  0.00     0.022 A 
BRANCH  84  88
ATOM     88  S   UNL A   1      48.623  27.844  34.953  1.00  0.00     0.124 S 
ATOM     89  O   UNL A   1      48.431  29.134  34.298  1.00  0.00    -0.237 OA
ATOM     90  O   UNL A   1      49.014  27.893  36.357  1.00  0.00    -0.237 OA
ATOM     91  O   UNL A   1      49.319  26.839  34.150  1.00  0.00    -0.744 OA
ENDBRANCH  84  88
ENDBRANCH  58  81
ENDBRANCH  32  33
ENDBRANCH  25  27
ENDBRANCH  24  25
ENDBRANCH  23  24
ENDBRANCH  22  23
ENDBRANCH   1  22
TORSDOF 20
ENDMDL
