MODEL 1
REMARK VINA RESULT:     -10.8      0.000      0.000
REMARK SMILES Cc1csc([C@H](C)Nc2cc(C)c(N)c(C(=O)OCCOCCOC(=O)c3ccc(-c4c5nc(c(-c6cc(S(=O)(=O)[O-])ccc6F)c6ccc([nH]6)c(-c6cc(S(=O)(=O)[O-])ccc6F)c6nc(c(-c7cc(S(=O)(=O)[O-])ccc7F)c7ccc4[nH]7)C=C6)C=C5)cc3)c2)n1
REMARK SMILES IDX 21 1 20 2 19 3 18 4 16 5 17 6 15 7 9 8 10 9 90 10 11 11
REMARK SMILES IDX 12 12 13 13 8 14 6 16 7 17 5 18 1 19 2 20 3 21 91 22 4 23
REMARK SMILES IDX 14 24 22 27 23 28 24 29 25 30 26 31 27 32 28 33 89 34 29 35
REMARK SMILES IDX 88 36 30 37 31 38 32 39 82 40 33 41 87 42 81 43 83 44 34 45
REMARK SMILES IDX 86 46 80 47 79 48 35 50 67 51 47 52 66 53 48 54 51 55 65 56
REMARK SMILES IDX 84 57 49 58 50 59 64 61 85 62 52 63 36 64 37 65 45 66 38 67
REMARK SMILES IDX 44 68 46 69 43 70 39 71 40 72 41 73 42 74 68 75 69 76 77 77
REMARK SMILES IDX 70 78 76 79 78 80 75 81 71 82 72 83 73 84 74 85 53 86 54 87
REMARK SMILES IDX 62 88 55 89 61 90 63 91 60 92 56 93 57 94 58 95 59 96
REMARK H PARENT 8 15 14 25 14 26 83 49 51 60
REMARK Flexibility Score: inf
ROOT
ATOM      1  O   UNL A   1      35.544  22.294  24.146  1.00  0.00    -0.374 OA
ENDROOT
BRANCH   1   2
ATOM      2  C   UNL A   1      35.015  23.392  24.892  1.00  0.00     0.202 C 
BRANCH   2   3
ATOM      3  C   UNL A   1      33.571  23.233  25.379  1.00  0.00     0.261 C 
BRANCH   3   4
ATOM      4  O   UNL A   1      33.327  24.026  26.554  1.00  0.00    -0.460 OA
BRANCH   4   5
ATOM      5  C   UNL A   1      32.099  24.600  26.611  1.00  0.00     0.340 C 
ATOM      6  O   UNL A   1      31.128  24.170  27.219  1.00  0.00    -0.246 OA
BRANCH   5   7
ATOM      7  C   UNL A   1      32.117  25.939  25.967  1.00  0.00     0.085 A 
ATOM      8  C   UNL A   1      33.193  28.107  25.632  1.00  0.00     0.036 A 
ATOM      9  C   UNL A   1      32.153  28.433  24.757  1.00  0.00     0.031 A 
ATOM     10  C   UNL A   1      33.160  26.843  26.232  1.00  0.00     0.043 A 
ATOM     11  C   UNL A   1      31.098  27.544  24.474  1.00  0.00    -0.025 A 
ATOM     12  C   UNL A   1      30.019  27.979  23.519  1.00  0.00     0.047 C 
ATOM     13  C   UNL A   1      31.065  26.282  25.089  1.00  0.00     0.049 A 
BRANCH   8  14
ATOM     14  N   UNL A   1      34.184  28.996  26.001  1.00  0.00    -0.376 N 
ATOM     15  H   UNL A   1      34.792  29.307  25.293  1.00  0.00     0.161 HD
BRANCH  14  16
ATOM     16  C   UNL A   1      34.411  29.520  27.357  1.00  0.00     0.135 C 
ATOM     17  C   UNL A   1      35.896  29.270  27.667  1.00  0.00     0.039 C 
BRANCH  16  18
ATOM     18  C   UNL A   1      33.996  30.978  27.574  1.00  0.00     0.115 A 
ATOM     19  C   UNL A   1      34.839  34.284  28.758  1.00  0.00     0.067 C 
ATOM     20  C   UNL A   1      34.124  33.128  28.161  1.00  0.00     0.049 A 
ATOM     21  C   UNL A   1      32.861  33.133  27.609  1.00  0.00     0.090 A 
ATOM     22  N   UNL A   1      34.762  31.900  28.131  1.00  0.00    -0.244 NA
ATOM     23  S   UNL A   1      32.479  31.582  27.001  1.00  0.00    -0.125 S 
ENDBRANCH  16  18
ENDBRANCH  14  16
ENDBRANCH   8  14
BRANCH  13  24
ATOM     24  N   UNL A   1      29.924  25.477  24.980  1.00  0.00    -0.398 N 
ATOM     25  H   UNL A   1      29.132  25.809  24.498  1.00  0.00     0.156 HD
ATOM     26  H   UNL A   1      29.914  24.579  25.384  1.00  0.00     0.156 HD
ENDBRANCH  13  24
ENDBRANCH   5   7
ENDBRANCH   4   5
ENDBRANCH   3   4
ENDBRANCH   2   3
ENDBRANCH   1   2
BRANCH   1  27
ATOM     27  C   UNL A   1      35.767  21.079  24.867  1.00  0.00     0.202 C 
BRANCH  27  28
ATOM     28  C   UNL A   1      37.224  20.762  25.227  1.00  0.00     0.261 C 
BRANCH  28  29
ATOM     29  O   UNL A   1      37.799  21.768  26.080  1.00  0.00    -0.460 OA
BRANCH  29  30
ATOM     30  C   UNL A   1      39.135  21.658  26.272  1.00  0.00     0.338 C 
ATOM     31  O   UNL A   1      39.853  20.731  25.920  1.00  0.00    -0.246 OA
BRANCH  30  32
ATOM     32  C   UNL A   1      39.674  22.923  26.812  1.00  0.00     0.060 A 
ATOM     33  C   UNL A   1      39.047  24.111  26.420  1.00  0.00     0.016 A 
ATOM     34  C   UNL A   1      40.797  22.956  27.642  1.00  0.00     0.016 A 
ATOM     35  C   UNL A   1      39.569  25.342  26.814  1.00  0.00     0.010 A 
ATOM     36  C   UNL A   1      41.325  24.194  28.031  1.00  0.00     0.010 A 
ATOM     37  C   UNL A   1      40.733  25.392  27.591  1.00  0.00    -0.014 A 
BRANCH  37  38
ATOM     38  C   UNL A   1      41.415  26.693  27.808  1.00  0.00     0.031 A 
ATOM     39  C   UNL A   1      42.784  26.901  27.222  1.00  0.00     0.074 A 
ATOM     40  C   UNL A   1      40.809  27.687  28.483  1.00  0.00     0.049 A 
ATOM     41  N   UNL A   1      43.580  27.935  27.310  1.00  0.00    -0.248 NA
ATOM     42  C   UNL A   1      43.330  25.786  26.434  1.00  0.00     0.031 C 
ATOM     43  C   UNL A   1      39.463  27.622  29.053  1.00  0.00     0.029 A 
ATOM     44  N   UNL A   1      41.250  28.945  28.806  1.00  0.00    -0.354 N 
ATOM     45  C   UNL A   1      44.721  27.598  26.588  1.00  0.00     0.074 A 
ATOM     46  C   UNL A   1      44.528  26.246  26.108  1.00  0.00     0.031 C 
ATOM     47  C   UNL A   1      39.191  28.789  29.660  1.00  0.00     0.029 A 
ATOM     48  C   UNL A   1      40.354  29.668  29.558  1.00  0.00     0.049 A 
ATOM     49  H   UNL A   1      42.125  29.298  28.525  1.00  0.00     0.167 HD
ATOM     50  C   UNL A   1      45.821  28.352  26.337  1.00  0.00     0.034 A 
ATOM     51  C   UNL A   1      40.470  30.890  30.118  1.00  0.00     0.034 A 
ATOM     52  C   UNL A   1      46.005  29.694  26.837  1.00  0.00     0.049 A 
ATOM     53  C   UNL A   1      41.746  31.672  29.912  1.00  0.00     0.074 A 
ATOM     54  C   UNL A   1      47.077  30.548  26.644  1.00  0.00     0.029 A 
ATOM     55  N   UNL A   1      45.100  30.372  27.644  1.00  0.00    -0.354 N 
ATOM     56  N   UNL A   1      42.817  31.344  29.226  1.00  0.00    -0.248 NA
ATOM     57  C   UNL A   1      41.824  32.993  30.552  1.00  0.00     0.031 C 
ATOM     58  C   UNL A   1      46.852  31.712  27.388  1.00  0.00     0.029 A 
ATOM     59  C   UNL A   1      45.603  31.620  27.983  1.00  0.00     0.049 A 
ATOM     60  H   UNL A   1      44.227  30.020  27.932  1.00  0.00     0.167 HD
ATOM     61  C   UNL A   1      43.680  32.433  29.324  1.00  0.00     0.074 A 
ATOM     62  C   UNL A   1      43.000  33.430  30.127  1.00  0.00     0.031 C 
ATOM     63  C   UNL A   1      44.920  32.600  28.794  1.00  0.00     0.034 A 
BRANCH  50  64
ATOM     64  C   UNL A   1      46.927  27.712  25.532  1.00  0.00     0.023 A 
ATOM     65  C   UNL A   1      47.180  28.081  24.198  1.00  0.00     0.031 A 
ATOM     66  C   UNL A   1      47.713  26.689  26.091  1.00  0.00     0.131 A 
ATOM     67  C   UNL A   1      48.136  27.380  23.447  1.00  0.00     0.055 A 
ATOM     68  C   UNL A   1      48.720  26.051  25.364  1.00  0.00     0.041 A 
ATOM     69  F   UNL A   1      47.503  26.278  27.352  1.00  0.00    -0.206 F 
ATOM     70  C   UNL A   1      48.924  26.384  24.028  1.00  0.00     0.022 A 
BRANCH  67  71
ATOM     71  S   UNL A   1      48.228  27.683  21.661  1.00  0.00     0.124 S 
ATOM     72  O   UNL A   1      49.335  28.632  21.578  1.00  0.00    -0.237 OA
ATOM     73  O   UNL A   1      48.485  26.350  21.128  1.00  0.00    -0.237 OA
ATOM     74  O   UNL A   1      46.915  28.239  21.340  1.00  0.00    -0.744 OA
ENDBRANCH  67  71
ENDBRANCH  50  64
BRANCH  51  75
ATOM     75  C   UNL A   1      39.371  31.444  30.960  1.00  0.00     0.023 A 
ATOM     76  C   UNL A   1      39.422  31.373  32.361  1.00  0.00     0.031 A 
ATOM     77  C   UNL A   1      38.221  32.000  30.370  1.00  0.00     0.131 A 
ATOM     78  C   UNL A   1      38.327  31.809  33.124  1.00  0.00     0.055 A 
ATOM     79  C   UNL A   1      37.157  32.480  31.135  1.00  0.00     0.041 A 
ATOM     80  F   UNL A   1      38.119  32.089  29.034  1.00  0.00    -0.206 F 
ATOM     81  C   UNL A   1      37.201  32.374  32.521  1.00  0.00     0.022 A 
BRANCH  78  82
ATOM     82  S   UNL A   1      38.359  31.546  34.919  1.00  0.00     0.124 S 
ATOM     83  O   UNL A   1      38.302  30.091  35.007  1.00  0.00    -0.237 OA
ATOM     84  O   UNL A   1      39.629  32.162  35.292  1.00  0.00    -0.237 OA
ATOM     85  O   UNL A   1      37.166  32.249  35.386  1.00  0.00    -0.744 OA
ENDBRANCH  78  82
ENDBRANCH  51  75
BRANCH  63  86
ATOM     86  C   UNL A   1      45.594  33.930  29.027  1.00  0.00     0.023 A 
ATOM     87  C   UNL A   1      45.462  34.999  28.123  1.00  0.00     0.031 A 
ATOM     88  C   UNL A   1      46.391  34.126  30.170  1.00  0.00     0.131 A 
ATOM     89  C   UNL A   1      46.160  36.196  28.349  1.00  0.00     0.055 A 
ATOM     90  C   UNL A   1      47.035  35.339  30.419  1.00  0.00     0.041 A 
ATOM     91  F   UNL A   1      46.554  33.140  31.067  1.00  0.00    -0.206 F 
ATOM     92  C   UNL A   1      46.932  36.379  29.498  1.00  0.00     0.022 A 
BRANCH  89  93
ATOM     93  S   UNL A   1      46.120  37.484  27.071  1.00  0.00     0.124 S 
ATOM     94  O   UNL A   1      44.690  37.760  26.964  1.00  0.00    -0.237 OA
ATOM     95  O   UNL A   1      46.930  38.540  27.667  1.00  0.00    -0.237 OA
ATOM     96  O   UNL A   1      46.714  36.830  25.906  1.00  0.00    -0.744 OA
ENDBRANCH  89  93
ENDBRANCH  63  86
ENDBRANCH  37  38
ENDBRANCH  30  32
ENDBRANCH  29  30
ENDBRANCH  28  29
ENDBRANCH  27  28
ENDBRANCH   1  27
TORSDOF 21
ENDMDL
MODEL 2
REMARK VINA RESULT:     -10.6      1.354      7.802
REMARK SMILES Cc1csc([C@H](C)Nc2cc(C)c(N)c(C(=O)OCCOCCOC(=O)c3ccc(-c4c5nc(c(-c6cc(S(=O)(=O)[O-])ccc6F)c6ccc([nH]6)c(-c6cc(S(=O)(=O)[O-])ccc6F)c6nc(c(-c7cc(S(=O)(=O)[O-])ccc7F)c7ccc4[nH]7)C=C6)C=C5)cc3)c2)n1
REMARK SMILES IDX 21 1 20 2 19 3 18 4 16 5 17 6 15 7 9 8 10 9 90 10 11 11
REMARK SMILES IDX 12 12 13 13 8 14 6 16 7 17 5 18 1 19 2 20 3 21 91 22 4 23
REMARK SMILES IDX 14 24 22 27 23 28 24 29 25 30 26 31 27 32 28 33 89 34 29 35
REMARK SMILES IDX 88 36 30 37 31 38 32 39 82 40 33 41 87 42 81 43 83 44 34 45
REMARK SMILES IDX 86 46 80 47 79 48 35 50 67 51 47 52 66 53 48 54 51 55 65 56
REMARK SMILES IDX 84 57 49 58 50 59 64 61 85 62 52 63 36 64 37 65 45 66 38 67
REMARK SMILES IDX 44 68 46 69 43 70 39 71 40 72 41 73 42 74 68 75 69 76 77 77
REMARK SMILES IDX 70 78 76 79 78 80 75 81 71 82 72 83 73 84 74 85 53 86 54 87
REMARK SMILES IDX 62 88 55 89 61 90 63 91 60 92 56 93 57 94 58 95 59 96
REMARK H PARENT 8 15 14 25 14 26 83 49 51 60
REMARK Flexibility Score: inf
ROOT
ATOM      1  O   UNL A   1      35.119  22.157  23.917  1.00  0.00    -0.374 OA
ENDROOT
BRANCH   1   2
ATOM      2  C   UNL A   1      34.254  23.202  24.362  1.00  0.00     0.202 C 
BRANCH   2   3
ATOM      3  C   UNL A   1      33.659  23.025  25.762  1.00  0.00     0.261 C 
BRANCH   3   4
ATOM      4  O   UNL A   1      33.505  24.291  26.429  1.00  0.00    -0.460 OA
BRANCH   4   5
ATOM      5  C   UNL A   1      32.224  24.711  26.569  1.00  0.00     0.340 C 
ATOM      6  O   UNL A   1      31.359  24.179  27.252  1.00  0.00    -0.246 OA
BRANCH   5   7
ATOM      7  C   UNL A   1      32.030  26.029  25.908  1.00  0.00     0.085 A 
ATOM      8  C   UNL A   1      32.770  28.324  25.518  1.00  0.00     0.036 A 
ATOM      9  C   UNL A   1      31.671  28.482  24.668  1.00  0.00     0.031 A 
ATOM     10  C   UNL A   1      32.937  27.078  26.133  1.00  0.00     0.043 A 
ATOM     11  C   UNL A   1      30.750  27.444  24.425  1.00  0.00    -0.025 A 
ATOM     12  C   UNL A   1      29.596  27.704  23.495  1.00  0.00     0.047 C 
ATOM     13  C   UNL A   1      30.917  26.201  25.056  1.00  0.00     0.049 A 
BRANCH   8  14
ATOM     14  N   UNL A   1      33.630  29.353  25.848  1.00  0.00    -0.376 N 
ATOM     15  H   UNL A   1      34.031  29.858  25.104  1.00  0.00     0.161 HD
BRANCH  14  16
ATOM     16  C   UNL A   1      34.000  29.763  27.212  1.00  0.00     0.135 C 
ATOM     17  C   UNL A   1      35.460  29.322  27.408  1.00  0.00     0.039 C 
BRANCH  16  18
ATOM     18  C   UNL A   1      33.778  31.244  27.533  1.00  0.00     0.115 A 
ATOM     19  C   UNL A   1      35.112  34.373  28.747  1.00  0.00     0.067 C 
ATOM     20  C   UNL A   1      34.211  33.334  28.188  1.00  0.00     0.049 A 
ATOM     21  C   UNL A   1      32.904  33.505  27.783  1.00  0.00     0.090 A 
ATOM     22  N   UNL A   1      34.699  32.048  28.037  1.00  0.00    -0.244 NA
ATOM     23  S   UNL A   1      32.286  32.038  27.160  1.00  0.00    -0.125 S 
ENDBRANCH  16  18
ENDBRANCH  14  16
ENDBRANCH   8  14
BRANCH  13  24
ATOM     24  N   UNL A   1      29.903  25.238  24.988  1.00  0.00    -0.398 N 
ATOM     25  H   UNL A   1      30.123  24.283  25.082  1.00  0.00     0.156 HD
ATOM     26  H   UNL A   1      28.968  25.516  24.849  1.00  0.00     0.156 HD
ENDBRANCH  13  24
ENDBRANCH   5   7
ENDBRANCH   4   5
ENDBRANCH   3   4
ENDBRANCH   2   3
ENDBRANCH   1   2
BRANCH   1  27
ATOM     27  C   UNL A   1      35.421  21.128  24.865  1.00  0.00     0.202 C 
BRANCH  27  28
ATOM     28  C   UNL A   1      36.908  20.817  25.075  1.00  0.00     0.261 C 
BRANCH  28  29
ATOM     29  O   UNL A   1      37.623  21.942  25.617  1.00  0.00    -0.460 OA
BRANCH  29  30
ATOM     30  C   UNL A   1      38.841  21.652  26.131  1.00  0.00     0.338 C 
ATOM     31  O   UNL A   1      39.430  20.580  26.061  1.00  0.00    -0.246 OA
BRANCH  30  32
ATOM     32  C   UNL A   1      39.481  22.881  26.641  1.00  0.00     0.060 A 
ATOM     33  C   UNL A   1      39.029  24.104  26.132  1.00  0.00     0.016 A 
ATOM     34  C   UNL A   1      40.535  22.843  27.558  1.00  0.00     0.016 A 
ATOM     35  C   UNL A   1      39.659  25.292  26.499  1.00  0.00     0.010 A 
ATOM     36  C   UNL A   1      41.173  24.037  27.919  1.00  0.00     0.010 A 
ATOM     37  C   UNL A   1      40.759  25.262  27.365  1.00  0.00    -0.014 A 
BRANCH  37  38
ATOM     38  C   UNL A   1      41.569  26.491  27.564  1.00  0.00     0.031 A 
ATOM     39  C   UNL A   1      40.984  27.622  28.364  1.00  0.00     0.074 A 
ATOM     40  C   UNL A   1      42.818  26.583  27.073  1.00  0.00     0.049 A 
ATOM     41  N   UNL A   1      41.489  28.797  28.638  1.00  0.00    -0.248 NA
ATOM     42  C   UNL A   1      39.643  27.396  28.926  1.00  0.00     0.031 C 
ATOM     43  C   UNL A   1      43.511  25.534  26.327  1.00  0.00     0.029 A 
ATOM     44  N   UNL A   1      43.725  27.612  27.127  1.00  0.00    -0.354 N 
ATOM     45  C   UNL A   1      40.530  29.452  29.406  1.00  0.00     0.074 A 
ATOM     46  C   UNL A   1      39.398  28.557  29.513  1.00  0.00     0.031 C 
ATOM     47  C   UNL A   1      44.734  25.975  25.989  1.00  0.00     0.029 A 
ATOM     48  C   UNL A   1      44.897  27.350  26.458  1.00  0.00     0.049 A 
ATOM     49  H   UNL A   1      43.553  28.457  27.602  1.00  0.00     0.167 HD
ATOM     50  C   UNL A   1      40.595  30.681  29.979  1.00  0.00     0.034 A 
ATOM     51  C   UNL A   1      45.968  28.139  26.231  1.00  0.00     0.034 A 
ATOM     52  C   UNL A   1      41.726  31.568  29.848  1.00  0.00     0.049 A 
ATOM     53  C   UNL A   1      45.976  29.542  26.792  1.00  0.00     0.074 A 
ATOM     54  C   UNL A   1      41.899  32.831  30.387  1.00  0.00     0.029 A 
ATOM     55  N   UNL A   1      42.873  31.291  29.114  1.00  0.00    -0.354 N 
ATOM     56  N   UNL A   1      45.065  30.149  27.518  1.00  0.00    -0.248 NA
ATOM     57  C   UNL A   1      47.162  30.361  26.508  1.00  0.00     0.031 C 
ATOM     58  C   UNL A   1      43.115  33.344  29.922  1.00  0.00     0.029 A 
ATOM     59  C   UNL A   1      43.741  32.372  29.158  1.00  0.00     0.049 A 
ATOM     60  H   UNL A   1      43.044  30.449  28.633  1.00  0.00     0.167 HD
ATOM     61  C   UNL A   1      45.585  31.409  27.804  1.00  0.00     0.074 A 
ATOM     62  C   UNL A   1      46.892  31.470  27.181  1.00  0.00     0.031 C 
ATOM     63  C   UNL A   1      45.037  32.423  28.523  1.00  0.00     0.034 A 
BRANCH  50  64
ATOM     64  C   UNL A   1      39.382  31.147  30.748  1.00  0.00     0.023 A 
ATOM     65  C   UNL A   1      39.402  31.287  32.148  1.00  0.00     0.031 A 
ATOM     66  C   UNL A   1      38.176  31.416  30.078  1.00  0.00     0.131 A 
ATOM     67  C   UNL A   1      38.222  31.608  32.836  1.00  0.00     0.055 A 
ATOM     68  C   UNL A   1      37.025  31.815  30.762  1.00  0.00     0.041 A 
ATOM     69  F   UNL A   1      38.088  31.277  28.746  1.00  0.00    -0.206 F 
ATOM     70  C   UNL A   1      37.040  31.896  32.152  1.00  0.00     0.022 A 
BRANCH  67  71
ATOM     71  S   UNL A   1      38.216  31.491  34.646  1.00  0.00     0.124 S 
ATOM     72  O   UNL A   1      37.013  32.245  34.988  1.00  0.00    -0.237 OA
ATOM     73  O   UNL A   1      38.155  30.051  34.870  1.00  0.00    -0.237 OA
ATOM     74  O   UNL A   1      39.472  32.129  35.035  1.00  0.00    -0.744 OA
ENDBRANCH  67  71
ENDBRANCH  50  64
BRANCH  51  75
ATOM     75  C   UNL A   1      47.108  27.647  25.406  1.00  0.00     0.023 A 
ATOM     76  C   UNL A   1      47.229  27.993  24.052  1.00  0.00     0.031 A 
ATOM     77  C   UNL A   1      48.066  26.771  25.950  1.00  0.00     0.131 A 
ATOM     78  C   UNL A   1      48.254  27.433  23.274  1.00  0.00     0.055 A 
ATOM     79  C   UNL A   1      49.115  26.258  25.186  1.00  0.00     0.041 A 
ATOM     80  F   UNL A   1      47.997  26.405  27.240  1.00  0.00    -0.206 F 
ATOM     81  C   UNL A   1      49.206  26.578  23.836  1.00  0.00     0.022 A 
BRANCH  78  82
ATOM     82  S   UNL A   1      48.277  27.769  21.492  1.00  0.00     0.124 S 
ATOM     83  O   UNL A   1      49.295  28.808  21.398  1.00  0.00    -0.237 OA
ATOM     84  O   UNL A   1      48.637  26.465  20.943  1.00  0.00    -0.237 OA
ATOM     85  O   UNL A   1      46.911  28.205  21.211  1.00  0.00    -0.744 OA
ENDBRANCH  78  82
ENDBRANCH  51  75
BRANCH  63  86
ATOM     86  C   UNL A   1      45.877  33.664  28.713  1.00  0.00     0.023 A 
ATOM     87  C   UNL A   1      46.718  33.828  29.827  1.00  0.00     0.031 A 
ATOM     88  C   UNL A   1      45.825  34.703  27.765  1.00  0.00     0.131 A 
ATOM     89  C   UNL A   1      47.431  35.026  29.994  1.00  0.00     0.055 A 
ATOM     90  C   UNL A   1      46.581  35.866  27.907  1.00  0.00     0.041 A 
ATOM     91  F   UNL A   1      45.037  34.601  26.683  1.00  0.00    -0.206 F 
ATOM     92  C   UNL A   1      47.381  36.039  29.034  1.00  0.00     0.022 A 
BRANCH  89  93
ATOM     93  S   UNL A   1      48.358  35.282  31.533  1.00  0.00     0.124 S 
ATOM     94  O   UNL A   1      48.087  34.046  32.260  1.00  0.00    -0.237 OA
ATOM     95  O   UNL A   1      49.724  35.451  31.050  1.00  0.00    -0.237 OA
ATOM     96  O   UNL A   1      47.750  36.483  32.104  1.00  0.00    -0.744 OA
ENDBRANCH  89  93
ENDBRANCH  63  86
ENDBRANCH  37  38
ENDBRANCH  30  32
ENDBRANCH  29  30
ENDBRANCH  28  29
ENDBRANCH  27  28
ENDBRANCH   1  27
TORSDOF 21
ENDMDL
MODEL 3
REMARK VINA RESULT:     -10.6      1.883      2.492
REMARK SMILES Cc1csc([C@H](C)Nc2cc(C)c(N)c(C(=O)OCCOCCOC(=O)c3ccc(-c4c5nc(c(-c6cc(S(=O)(=O)[O-])ccc6F)c6ccc([nH]6)c(-c6cc(S(=O)(=O)[O-])ccc6F)c6nc(c(-c7cc(S(=O)(=O)[O-])ccc7F)c7ccc4[nH]7)C=C6)C=C5)cc3)c2)n1
REMARK SMILES IDX 21 1 20 2 19 3 18 4 16 5 17 6 15 7 9 8 10 9 90 10 11 11
REMARK SMILES IDX 12 12 13 13 8 14 6 16 7 17 5 18 1 19 2 20 3 21 91 22 4 23
REMARK SMILES IDX 14 24 22 27 23 28 24 29 25 30 26 31 27 32 28 33 89 34 29 35
REMARK SMILES IDX 88 36 30 37 31 38 32 39 82 40 33 41 87 42 81 43 83 44 34 45
REMARK SMILES IDX 86 46 80 47 79 48 35 50 67 51 47 52 66 53 48 54 51 55 65 56
REMARK SMILES IDX 84 57 49 58 50 59 64 61 85 62 52 63 36 64 37 65 45 66 38 67
REMARK SMILES IDX 44 68 46 69 43 70 39 71 40 72 41 73 42 74 68 75 69 76 77 77
REMARK SMILES IDX 70 78 76 79 78 80 75 81 71 82 72 83 73 84 74 85 53 86 54 87
REMARK SMILES IDX 62 88 55 89 61 90 63 91 60 92 56 93 57 94 58 95 59 96
REMARK H PARENT 8 15 14 25 14 26 83 49 51 60
REMARK Flexibility Score: inf
ROOT
ATOM      1  O   UNL A   1      35.780  21.725  25.270  1.00  0.00    -0.374 OA
ENDROOT
BRANCH   1   2
ATOM      2  C   UNL A   1      35.296  22.039  26.577  1.00  0.00     0.202 C 
BRANCH   2   3
ATOM      3  C   UNL A   1      34.033  21.293  27.018  1.00  0.00     0.261 C 
BRANCH   3   4
ATOM      4  O   UNL A   1      32.855  22.091  26.805  1.00  0.00    -0.460 OA
BRANCH   4   5
ATOM      5  C   UNL A   1      32.253  21.911  25.602  1.00  0.00     0.340 C 
ATOM      6  O   UNL A   1      31.421  21.057  25.331  1.00  0.00    -0.246 OA
BRANCH   5   7
ATOM      7  C   UNL A   1      32.611  23.012  24.669  1.00  0.00     0.085 A 
ATOM      8  C   UNL A   1      33.139  25.366  24.284  1.00  0.00     0.036 A 
ATOM      9  C   UNL A   1      33.286  25.061  22.928  1.00  0.00     0.031 A 
ATOM     10  C   UNL A   1      32.801  24.318  25.149  1.00  0.00     0.043 A 
ATOM     11  C   UNL A   1      33.101  23.758  22.423  1.00  0.00    -0.025 A 
ATOM     12  C   UNL A   1      33.278  23.521  20.948  1.00  0.00     0.047 C 
ATOM     13  C   UNL A   1      32.749  22.715  23.296  1.00  0.00     0.049 A 
BRANCH   8  14
ATOM     14  N   UNL A   1      33.218  26.649  24.788  1.00  0.00    -0.376 N 
ATOM     15  H   UNL A   1      33.999  26.864  25.347  1.00  0.00     0.161 HD
BRANCH  14  16
ATOM     16  C   UNL A   1      32.240  27.725  24.563  1.00  0.00     0.135 C 
ATOM     17  C   UNL A   1      30.855  27.062  24.631  1.00  0.00     0.039 C 
BRANCH  16  18
ATOM     18  C   UNL A   1      32.368  28.932  25.498  1.00  0.00     0.115 A 
ATOM     19  C   UNL A   1      31.194  32.197  26.501  1.00  0.00     0.067 C 
ATOM     20  C   UNL A   1      31.943  30.917  26.426  1.00  0.00     0.049 A 
ATOM     21  C   UNL A   1      32.960  30.505  27.262  1.00  0.00     0.090 A 
ATOM     22  N   UNL A   1      31.611  30.014  25.432  1.00  0.00    -0.244 NA
ATOM     23  S   UNL A   1      33.483  28.939  26.821  1.00  0.00    -0.125 S 
ENDBRANCH  16  18
ENDBRANCH  14  16
ENDBRANCH   8  14
BRANCH  13  24
ATOM     24  N   UNL A   1      32.362  21.472  22.782  1.00  0.00    -0.398 N 
ATOM     25  H   UNL A   1      33.020  20.743  22.708  1.00  0.00     0.156 HD
ATOM     26  H   UNL A   1      31.431  21.325  22.495  1.00  0.00     0.156 HD
ENDBRANCH  13  24
ENDBRANCH   5   7
ENDBRANCH   4   5
ENDBRANCH   3   4
ENDBRANCH   2   3
ENDBRANCH   1   2
BRANCH   1  27
ATOM     27  C   UNL A   1      36.087  20.350  25.014  1.00  0.00     0.202 C 
BRANCH  27  28
ATOM     28  C   UNL A   1      37.576  19.984  24.982  1.00  0.00     0.261 C 
BRANCH  28  29
ATOM     29  O   UNL A   1      38.418  21.136  25.165  1.00  0.00    -0.460 OA
BRANCH  29  30
ATOM     30  C   UNL A   1      39.462  20.952  26.008  1.00  0.00     0.338 C 
ATOM     31  O   UNL A   1      40.097  19.918  26.174  1.00  0.00    -0.246 OA
BRANCH  30  32
ATOM     32  C   UNL A   1      39.879  22.245  26.587  1.00  0.00     0.060 A 
ATOM     33  C   UNL A   1      39.197  23.392  26.164  1.00  0.00     0.016 A 
ATOM     34  C   UNL A   1      40.945  22.347  27.485  1.00  0.00     0.016 A 
ATOM     35  C   UNL A   1      39.608  24.651  26.597  1.00  0.00     0.010 A 
ATOM     36  C   UNL A   1      41.362  23.614  27.912  1.00  0.00     0.010 A 
ATOM     37  C   UNL A   1      40.717  24.773  27.444  1.00  0.00    -0.014 A 
BRANCH  37  38
ATOM     38  C   UNL A   1      41.292  26.116  27.710  1.00  0.00     0.031 A 
ATOM     39  C   UNL A   1      42.649  26.446  27.150  1.00  0.00     0.074 A 
ATOM     40  C   UNL A   1      40.603  27.038  28.405  1.00  0.00     0.049 A 
ATOM     41  N   UNL A   1      43.361  27.536  27.281  1.00  0.00    -0.248 NA
ATOM     42  C   UNL A   1      43.289  25.401  26.337  1.00  0.00     0.031 C 
ATOM     43  C   UNL A   1      39.260  26.852  28.953  1.00  0.00     0.029 A 
ATOM     44  N   UNL A   1      40.941  28.316  28.773  1.00  0.00    -0.354 N 
ATOM     45  C   UNL A   1      44.533  27.310  26.566  1.00  0.00     0.074 A 
ATOM     46  C   UNL A   1      44.451  25.963  26.043  1.00  0.00     0.031 C 
ATOM     47  C   UNL A   1      38.890  27.975  29.591  1.00  0.00     0.029 A 
ATOM     48  C   UNL A   1      39.983  28.944  29.532  1.00  0.00     0.049 A 
ATOM     49  H   UNL A   1      41.790  28.744  28.515  1.00  0.00     0.167 HD
ATOM     50  C   UNL A   1      45.575  28.154  26.354  1.00  0.00     0.034 A 
ATOM     51  C   UNL A   1      39.997  30.154  30.130  1.00  0.00     0.034 A 
ATOM     52  C   UNL A   1      45.648  29.490  26.897  1.00  0.00     0.049 A 
ATOM     53  C   UNL A   1      41.211  31.038  29.967  1.00  0.00     0.074 A 
ATOM     54  C   UNL A   1      46.652  30.429  26.744  1.00  0.00     0.029 A 
ATOM     55  N   UNL A   1      44.683  30.071  27.709  1.00  0.00    -0.354 N 
ATOM     56  N   UNL A   1      42.313  30.814  29.287  1.00  0.00    -0.248 NA
ATOM     57  C   UNL A   1      41.178  32.340  30.646  1.00  0.00     0.031 C 
ATOM     58  C   UNL A   1      46.329  31.549  27.520  1.00  0.00     0.029 A 
ATOM     59  C   UNL A   1      45.084  31.342  28.093  1.00  0.00     0.049 A 
ATOM     60  H   UNL A   1      43.837  29.644  27.974  1.00  0.00     0.167 HD
ATOM     61  C   UNL A   1      43.087  31.963  29.430  1.00  0.00     0.074 A 
ATOM     62  C   UNL A   1      42.322  32.879  30.253  1.00  0.00     0.031 C 
ATOM     63  C   UNL A   1      44.317  32.241  28.924  1.00  0.00     0.034 A 
BRANCH  50  64
ATOM     64  C   UNL A   1      46.737  27.626  25.546  1.00  0.00     0.023 A 
ATOM     65  C   UNL A   1      46.971  28.048  24.225  1.00  0.00     0.031 A 
ATOM     66  C   UNL A   1      47.597  26.656  26.089  1.00  0.00     0.131 A 
ATOM     67  C   UNL A   1      47.989  27.447  23.468  1.00  0.00     0.055 A 
ATOM     68  C   UNL A   1      48.660  26.121  25.358  1.00  0.00     0.041 A 
ATOM     69  F   UNL A   1      47.409  26.197  27.337  1.00  0.00    -0.206 F 
ATOM     70  C   UNL A   1      48.850  26.504  24.033  1.00  0.00     0.022 A 
BRANCH  67  71
ATOM     71  S   UNL A   1      48.073  27.801  21.692  1.00  0.00     0.124 S 
ATOM     72  O   UNL A   1      49.213  28.711  21.625  1.00  0.00    -0.237 OA
ATOM     73  O   UNL A   1      48.276  26.477  21.115  1.00  0.00    -0.237 OA
ATOM     74  O   UNL A   1      46.778  28.415  21.403  1.00  0.00    -0.744 OA
ENDBRANCH  67  71
ENDBRANCH  50  64
BRANCH  51  75
ATOM     75  C   UNL A   1      38.848  30.594  30.972  1.00  0.00     0.023 A 
ATOM     76  C   UNL A   1      37.755  31.274  30.412  1.00  0.00     0.031 A 
ATOM     77  C   UNL A   1      38.856  30.394  32.364  1.00  0.00     0.131 A 
ATOM     78  C   UNL A   1      36.737  31.767  31.244  1.00  0.00     0.055 A 
ATOM     79  C   UNL A   1      37.816  30.840  33.181  1.00  0.00     0.041 A 
ATOM     80  F   UNL A   1      39.879  29.753  32.953  1.00  0.00    -0.206 F 
ATOM     81  C   UNL A   1      36.754  31.543  32.623  1.00  0.00     0.022 A 
BRANCH  78  82
ATOM     82  S   UNL A   1      35.429  32.786  30.506  1.00  0.00     0.124 S 
ATOM     83  O   UNL A   1      35.403  32.288  29.136  1.00  0.00    -0.237 OA
ATOM     84  O   UNL A   1      34.277  32.444  31.336  1.00  0.00    -0.237 OA
ATOM     85  O   UNL A   1      35.928  34.149  30.668  1.00  0.00    -0.744 OA
ENDBRANCH  78  82
ENDBRANCH  51  75
BRANCH  63  86
ATOM     86  C   UNL A   1      44.883  33.612  29.206  1.00  0.00     0.023 A 
ATOM     87  C   UNL A   1      44.635  34.708  28.361  1.00  0.00     0.031 A 
ATOM     88  C   UNL A   1      45.694  33.820  30.337  1.00  0.00     0.131 A 
ATOM     89  C   UNL A   1      45.235  35.948  28.629  1.00  0.00     0.055 A 
ATOM     90  C   UNL A   1      46.240  35.070  30.630  1.00  0.00     0.041 A 
ATOM     91  F   UNL A   1      45.967  32.810  31.178  1.00  0.00    -0.206 F 
ATOM     92  C   UNL A   1      46.023  36.140  29.766  1.00  0.00     0.022 A 
BRANCH  89  93
ATOM     93  S   UNL A   1      45.048  37.288  27.419  1.00  0.00     0.124 S 
ATOM     94  O   UNL A   1      43.719  37.024  26.877  1.00  0.00    -0.237 OA
ATOM     95  O   UNL A   1      45.173  38.479  28.251  1.00  0.00    -0.237 OA
ATOM     96  O   UNL A   1      46.153  37.065  26.487  1.00  0.00    -0.744 OA
ENDBRANCH  89  93
ENDBRANCH  63  86
ENDBRANCH  37  38
ENDBRANCH  30  32
ENDBRANCH  29  30
ENDBRANCH  28  29
ENDBRANCH  27  28
ENDBRANCH   1  27
TORSDOF 21
ENDMDL
