MODEL 1
REMARK VINA RESULT:     -11.0      0.000      0.000
REMARK SMILES C#CC[N@H+](CC(=O)OCCOCCOC(=O)c1ccc(-c2c3nc(c(-c4cc(S(=O)(=O)[O-])ccc4F)c4ccc([nH]4)c(-c4cc(S(=O)(=O)[O-])ccc4F)c4nc(c(-c5cc(S(=O)(=O)[O-])ccc5F)c5ccc2[nH]5)C=C4)C=C3)cc1)Cc1cccc2ccccc12
REMARK SMILES IDX 11 1 10 2 9 3 8 4 6 5 7 6 5 7 4 8 3 10 2 11 1 12 80 13 81 14
REMARK SMILES IDX 82 15 90 16 83 17 85 18 89 19 84 20 86 21 88 22 87 23 12 24
REMARK SMILES IDX 13 25 14 26 15 27 16 28 17 29 18 30 79 31 19 32 78 33 20 34
REMARK SMILES IDX 21 35 22 36 72 37 23 38 77 39 71 40 73 41 24 42 76 43 70 44
REMARK SMILES IDX 69 45 25 47 57 48 37 49 56 50 38 51 41 52 55 53 74 54 39 55
REMARK SMILES IDX 40 56 54 58 75 59 42 60 26 61 27 62 35 63 28 64 34 65 36 66
REMARK SMILES IDX 33 67 29 68 30 69 31 70 32 71 58 72 59 73 67 74 60 75 66 76
REMARK SMILES IDX 68 77 65 78 61 79 62 80 63 81 64 82 43 83 44 84 52 85 45 86
REMARK SMILES IDX 51 87 53 88 50 89 46 90 47 91 48 92 49 93
REMARK H PARENT 4 9 73 46 41 57
REMARK Flexibility Score: inf
ROOT
ATOM      1  O   UNL A   1      30.733  29.226  24.497  1.00  0.00    -0.374 OA
ENDROOT
BRANCH   1   2
ATOM      2  C   UNL A   1      30.776  28.966  23.092  1.00  0.00     0.202 C 
BRANCH   2   3
ATOM      3  C   UNL A   1      30.395  27.535  22.690  1.00  0.00     0.261 C 
BRANCH   3   4
ATOM      4  O   UNL A   1      31.549  26.789  22.268  1.00  0.00    -0.459 OA
BRANCH   4   5
ATOM      5  C   UNL A   1      32.393  26.370  23.249  1.00  0.00     0.361 C 
ATOM      6  O   UNL A   1      33.569  26.707  23.348  1.00  0.00    -0.245 OA
BRANCH   5   7
ATOM      7  C   UNL A   1      31.698  25.531  24.329  1.00  0.00     0.387 C 
BRANCH   7   8
ATOM      8  N   UNL A   1      32.379  24.265  24.705  1.00  0.00    -0.312 N 
ATOM      9  H   UNL A   1      33.357  24.421  24.948  1.00  0.00     0.349 HD
BRANCH   8  10
ATOM     10  C   UNL A   1      31.779  23.735  25.937  1.00  0.00     0.354 C 
BRANCH  10  11
ATOM     11  C   UNL A   1      32.655  23.045  26.969  1.00  0.00    -0.047 C 
ATOM     12  C   UNL A   1      33.406  22.453  27.854  1.00  0.00     0.010 C 
ENDBRANCH  10  11
ENDBRANCH   8  10
BRANCH   8  13
ATOM     13  C   UNL A   1      32.482  23.356  23.552  1.00  0.00     0.300 C 
BRANCH  13  14
ATOM     14  C   UNL A   1      33.308  22.120  23.900  1.00  0.00     0.014 A 
ATOM     15  C   UNL A   1      32.614  20.905  24.053  1.00  0.00     0.010 A 
ATOM     16  C   UNL A   1      34.711  22.158  24.177  1.00  0.00    -0.010 A 
ATOM     17  C   UNL A   1      33.246  19.762  24.527  1.00  0.00     0.001 A 
ATOM     18  C   UNL A   1      35.332  20.985  24.689  1.00  0.00    -0.018 A 
ATOM     19  C   UNL A   1      35.537  23.298  24.021  1.00  0.00     0.009 A 
ATOM     20  C   UNL A   1      34.592  19.808  24.857  1.00  0.00     0.009 A 
ATOM     21  C   UNL A   1      36.678  21.007  25.090  1.00  0.00     0.009 A 
ATOM     22  C   UNL A   1      36.883  23.300  24.409  1.00  0.00     0.001 A 
ATOM     23  C   UNL A   1      37.447  22.160  24.964  1.00  0.00     0.001 A 
ENDBRANCH  13  14
ENDBRANCH   8  13
ENDBRANCH   7   8
ENDBRANCH   5   7
ENDBRANCH   4   5
ENDBRANCH   3   4
ENDBRANCH   2   3
ENDBRANCH   1   2
BRANCH   1  24
ATOM     24  C   UNL A   1      31.948  29.673  25.104  1.00  0.00     0.202 C 
BRANCH  24  25
ATOM     25  C   UNL A   1      31.806  30.725  26.201  1.00  0.00     0.261 C 
BRANCH  25  26
ATOM     26  O   UNL A   1      32.738  30.576  27.281  1.00  0.00    -0.460 OA
BRANCH  26  27
ATOM     27  C   UNL A   1      33.437  31.718  27.492  1.00  0.00     0.338 C 
ATOM     28  O   UNL A   1      32.990  32.845  27.622  1.00  0.00    -0.246 OA
BRANCH  27  29
ATOM     29  C   UNL A   1      34.830  31.406  27.821  1.00  0.00     0.060 A 
ATOM     30  C   UNL A   1      35.092  30.092  28.216  1.00  0.00     0.016 A 
ATOM     31  C   UNL A   1      35.797  32.407  27.949  1.00  0.00     0.016 A 
ATOM     32  C   UNL A   1      36.315  29.785  28.798  1.00  0.00     0.010 A 
ATOM     33  C   UNL A   1      37.039  32.087  28.511  1.00  0.00     0.010 A 
ATOM     34  C   UNL A   1      37.286  30.783  28.972  1.00  0.00    -0.014 A 
BRANCH  34  35
ATOM     35  C   UNL A   1      38.534  30.414  29.685  1.00  0.00     0.031 A 
ATOM     36  C   UNL A   1      38.741  30.837  31.112  1.00  0.00     0.074 A 
ATOM     37  C   UNL A   1      39.405  29.594  29.070  1.00  0.00     0.049 A 
ATOM     38  N   UNL A   1      39.667  30.467  31.959  1.00  0.00    -0.248 NA
ATOM     39  C   UNL A   1      37.777  31.804  31.658  1.00  0.00     0.031 C 
ATOM     40  C   UNL A   1      39.272  29.126  27.688  1.00  0.00     0.029 A 
ATOM     41  N   UNL A   1      40.539  28.976  29.526  1.00  0.00    -0.354 N 
ATOM     42  C   UNL A   1      39.395  31.148  33.142  1.00  0.00     0.074 A 
ATOM     43  C   UNL A   1      38.240  31.982  32.888  1.00  0.00     0.031 C 
ATOM     44  C   UNL A   1      40.264  28.261  27.423  1.00  0.00     0.029 A 
ATOM     45  C   UNL A   1      41.111  28.131  28.603  1.00  0.00     0.049 A 
ATOM     46  H   UNL A   1      40.908  29.123  30.426  1.00  0.00     0.167 HD
ATOM     47  C   UNL A   1      40.051  31.073  34.329  1.00  0.00     0.034 A 
ATOM     48  C   UNL A   1      42.189  27.329  28.707  1.00  0.00     0.034 A 
ATOM     49  C   UNL A   1      41.217  30.245  34.540  1.00  0.00     0.049 A 
ATOM     50  C   UNL A   1      42.898  27.261  30.033  1.00  0.00     0.074 A 
ATOM     51  C   UNL A   1      41.987  30.101  35.682  1.00  0.00     0.029 A 
ATOM     52  N   UNL A   1      41.789  29.424  33.574  1.00  0.00    -0.354 N 
ATOM     53  N   UNL A   1      42.622  27.899  31.147  1.00  0.00    -0.248 NA
ATOM     54  C   UNL A   1      44.047  26.354  30.122  1.00  0.00     0.031 C 
ATOM     55  C   UNL A   1      43.051  29.236  35.389  1.00  0.00     0.029 A 
ATOM     56  C   UNL A   1      42.911  28.789  34.084  1.00  0.00     0.049 A 
ATOM     57  H   UNL A   1      41.445  29.309  32.658  1.00  0.00     0.167 HD
ATOM     58  C   UNL A   1      43.561  27.464  32.075  1.00  0.00     0.074 A 
ATOM     59  C   UNL A   1      44.390  26.487  31.395  1.00  0.00     0.031 C 
ATOM     60  C   UNL A   1      43.731  27.839  33.370  1.00  0.00     0.034 A 
BRANCH  47  61
ATOM     61  C   UNL A   1      39.552  31.951  35.454  1.00  0.00     0.023 A 
ATOM     62  C   UNL A   1      38.820  31.430  36.538  1.00  0.00     0.031 A 
ATOM     63  C   UNL A   1      39.774  33.340  35.422  1.00  0.00     0.131 A 
ATOM     64  C   UNL A   1      38.280  32.297  37.504  1.00  0.00     0.055 A 
ATOM     65  C   UNL A   1      39.294  34.189  36.424  1.00  0.00     0.041 A 
ATOM     66  F   UNL A   1      40.447  33.902  34.405  1.00  0.00    -0.206 F 
ATOM     67  C   UNL A   1      38.530  33.671  37.464  1.00  0.00     0.022 A 
BRANCH  64  68
ATOM     68  S   UNL A   1      37.134  31.624  38.740  1.00  0.00     0.124 S 
ATOM     69  O   UNL A   1      36.020  32.565  38.653  1.00  0.00    -0.237 OA
ATOM     70  O   UNL A   1      36.877  30.280  38.233  1.00  0.00    -0.237 OA
ATOM     71  O   UNL A   1      37.897  31.685  39.985  1.00  0.00    -0.744 OA
ENDBRANCH  64  68
ENDBRANCH  47  61
BRANCH  48  72
ATOM     72  C   UNL A   1      42.645  26.538  27.529  1.00  0.00     0.023 A 
ATOM     73  C   UNL A   1      42.300  25.188  27.371  1.00  0.00     0.031 A 
ATOM     74  C   UNL A   1      43.432  27.140  26.528  1.00  0.00     0.131 A 
ATOM     75  C   UNL A   1      42.755  24.477  26.248  1.00  0.00     0.055 A 
ATOM     76  C   UNL A   1      43.846  26.441  25.394  1.00  0.00     0.041 A 
ATOM     77  F   UNL A   1      43.783  28.432  26.627  1.00  0.00    -0.206 F 
ATOM     78  C   UNL A   1      43.513  25.098  25.253  1.00  0.00     0.022 A 
BRANCH  75  79
ATOM     79  S   UNL A   1      42.385  22.705  26.126  1.00  0.00     0.124 S 
ATOM     80  O   UNL A   1      43.228  22.147  27.177  1.00  0.00    -0.237 OA
ATOM     81  O   UNL A   1      40.947  22.680  26.376  1.00  0.00    -0.237 OA
ATOM     82  O   UNL A   1      42.784  22.367  24.761  1.00  0.00    -0.744 OA
ENDBRANCH  75  79
ENDBRANCH  48  72
BRANCH  60  83
ATOM     83  C   UNL A   1      44.857  27.169  34.114  1.00  0.00     0.023 A 
ATOM     84  C   UNL A   1      44.636  26.013  34.882  1.00  0.00     0.031 A 
ATOM     85  C   UNL A   1      46.151  27.714  34.084  1.00  0.00     0.131 A 
ATOM     86  C   UNL A   1      45.682  25.473  35.644  1.00  0.00     0.055 A 
ATOM     87  C   UNL A   1      47.202  27.140  34.803  1.00  0.00     0.041 A 
ATOM     88  F   UNL A   1      46.413  28.817  33.367  1.00  0.00    -0.206 F 
ATOM     89  C   UNL A   1      46.967  26.022  35.599  1.00  0.00     0.022 A 
BRANCH  86  90
ATOM     90  S   UNL A   1      45.316  24.098  36.768  1.00  0.00     0.124 S 
ATOM     91  O   UNL A   1      44.747  23.108  35.861  1.00  0.00    -0.237 OA
ATOM     92  O   UNL A   1      46.633  23.782  37.313  1.00  0.00    -0.237 OA
ATOM     93  O   UNL A   1      44.373  24.678  37.724  1.00  0.00    -0.744 OA
ENDBRANCH  86  90
ENDBRANCH  60  83
ENDBRANCH  34  35
ENDBRANCH  27  29
ENDBRANCH  26  27
ENDBRANCH  25  26
ENDBRANCH  24  25
ENDBRANCH   1  24
TORSDOF 22
ENDMDL
MODEL 2
REMARK VINA RESULT:     -10.8      1.503      1.771
REMARK SMILES C#CC[N@H+](CC(=O)OCCOCCOC(=O)c1ccc(-c2c3nc(c(-c4cc(S(=O)(=O)[O-])ccc4F)c4ccc([nH]4)c(-c4cc(S(=O)(=O)[O-])ccc4F)c4nc(c(-c5cc(S(=O)(=O)[O-])ccc5F)c5ccc2[nH]5)C=C4)C=C3)cc1)Cc1cccc2ccccc12
REMARK SMILES IDX 11 1 10 2 9 3 8 4 6 5 7 6 5 7 4 8 3 10 2 11 1 12 80 13 81 14
REMARK SMILES IDX 82 15 90 16 83 17 85 18 89 19 84 20 86 21 88 22 87 23 12 24
REMARK SMILES IDX 13 25 14 26 15 27 16 28 17 29 18 30 79 31 19 32 78 33 20 34
REMARK SMILES IDX 21 35 22 36 72 37 23 38 77 39 71 40 73 41 24 42 76 43 70 44
REMARK SMILES IDX 69 45 25 47 57 48 37 49 56 50 38 51 41 52 55 53 74 54 39 55
REMARK SMILES IDX 40 56 54 58 75 59 42 60 26 61 27 62 35 63 28 64 34 65 36 66
REMARK SMILES IDX 33 67 29 68 30 69 31 70 32 71 58 72 59 73 67 74 60 75 66 76
REMARK SMILES IDX 68 77 65 78 61 79 62 80 63 81 64 82 43 83 44 84 52 85 45 86
REMARK SMILES IDX 51 87 53 88 50 89 46 90 47 91 48 92 49 93
REMARK H PARENT 4 9 73 46 41 57
REMARK Flexibility Score: inf
ROOT
ATOM      1  O   UNL A   1      31.012  28.496  25.154  1.00  0.00    -0.374 OA
ENDROOT
BRANCH   1   2
ATOM      2  C   UNL A   1      30.969  29.180  23.898  1.00  0.00     0.202 C 
BRANCH   2   3
ATOM      3  C   UNL A   1      31.398  28.336  22.691  1.00  0.00     0.261 C 
BRANCH   3   4
ATOM      4  O   UNL A   1      32.282  27.273  23.087  1.00  0.00    -0.459 OA
BRANCH   4   5
ATOM      5  C   UNL A   1      32.859  26.559  22.084  1.00  0.00     0.361 C 
ATOM      6  O   UNL A   1      33.941  26.826  21.570  1.00  0.00    -0.245 OA
BRANCH   5   7
ATOM      7  C   UNL A   1      32.093  25.276  21.735  1.00  0.00     0.387 C 
BRANCH   7   8
ATOM      8  N   UNL A   1      32.179  24.178  22.731  1.00  0.00    -0.312 N 
ATOM      9  H   UNL A   1      32.860  24.383  23.462  1.00  0.00     0.349 HD
BRANCH   8  10
ATOM     10  C   UNL A   1      30.901  24.067  23.448  1.00  0.00     0.354 C 
BRANCH  10  11
ATOM     11  C   UNL A   1      30.892  23.858  24.953  1.00  0.00    -0.047 C 
ATOM     12  C   UNL A   1      30.885  23.679  26.244  1.00  0.00     0.010 C 
ENDBRANCH  10  11
ENDBRANCH   8  10
BRANCH   8  13
ATOM     13  C   UNL A   1      32.727  22.954  22.124  1.00  0.00     0.300 C 
BRANCH  13  14
ATOM     14  C   UNL A   1      33.243  21.995  23.194  1.00  0.00     0.014 A 
ATOM     15  C   UNL A   1      32.372  20.973  23.617  1.00  0.00     0.010 A 
ATOM     16  C   UNL A   1      34.505  22.146  23.850  1.00  0.00    -0.010 A 
ATOM     17  C   UNL A   1      32.681  20.154  24.694  1.00  0.00     0.001 A 
ATOM     18  C   UNL A   1      34.790  21.316  24.970  1.00  0.00    -0.018 A 
ATOM     19  C   UNL A   1      35.493  23.098  23.497  1.00  0.00     0.009 A 
ATOM     20  C   UNL A   1      33.876  20.336  25.375  1.00  0.00     0.009 A 
ATOM     21  C   UNL A   1      35.961  21.508  25.722  1.00  0.00     0.009 A 
ATOM     22  C   UNL A   1      36.665  23.266  24.246  1.00  0.00     0.001 A 
ATOM     23  C   UNL A   1      36.888  22.484  25.371  1.00  0.00     0.001 A 
ENDBRANCH  13  14
ENDBRANCH   8  13
ENDBRANCH   7   8
ENDBRANCH   5   7
ENDBRANCH   4   5
ENDBRANCH   3   4
ENDBRANCH   2   3
ENDBRANCH   1   2
BRANCH   1  24
ATOM     24  C   UNL A   1      31.983  28.953  26.099  1.00  0.00     0.202 C 
BRANCH  24  25
ATOM     25  C   UNL A   1      32.134  30.467  26.232  1.00  0.00     0.261 C 
BRANCH  25  26
ATOM     26  O   UNL A   1      32.496  30.907  27.547  1.00  0.00    -0.460 OA
BRANCH  26  27
ATOM     27  C   UNL A   1      33.273  32.016  27.501  1.00  0.00     0.338 C 
ATOM     28  O   UNL A   1      32.903  33.176  27.419  1.00  0.00    -0.246 OA
BRANCH  27  29
ATOM     29  C   UNL A   1      34.658  31.680  27.837  1.00  0.00     0.060 A 
ATOM     30  C   UNL A   1      34.890  30.368  28.259  1.00  0.00     0.016 A 
ATOM     31  C   UNL A   1      35.648  32.660  27.945  1.00  0.00     0.016 A 
ATOM     32  C   UNL A   1      36.105  30.045  28.848  1.00  0.00     0.010 A 
ATOM     33  C   UNL A   1      36.883  32.323  28.514  1.00  0.00     0.010 A 
ATOM     34  C   UNL A   1      37.100  31.023  29.002  1.00  0.00    -0.014 A 
BRANCH  34  35
ATOM     35  C   UNL A   1      38.339  30.640  29.723  1.00  0.00     0.031 A 
ATOM     36  C   UNL A   1      38.550  31.078  31.145  1.00  0.00     0.074 A 
ATOM     37  C   UNL A   1      39.195  29.796  29.121  1.00  0.00     0.049 A 
ATOM     38  N   UNL A   1      39.466  30.702  31.999  1.00  0.00    -0.248 NA
ATOM     39  C   UNL A   1      37.603  32.069  31.676  1.00  0.00     0.031 C 
ATOM     40  C   UNL A   1      39.057  29.313  27.745  1.00  0.00     0.029 A 
ATOM     41  N   UNL A   1      40.316  29.163  29.589  1.00  0.00    -0.354 N 
ATOM     42  C   UNL A   1      39.205  31.402  33.173  1.00  0.00     0.074 A 
ATOM     43  C   UNL A   1      38.066  32.255  32.905  1.00  0.00     0.031 C 
ATOM     44  C   UNL A   1      40.033  28.426  27.494  1.00  0.00     0.029 A 
ATOM     45  C   UNL A   1      40.875  28.296  28.678  1.00  0.00     0.049 A 
ATOM     46  H   UNL A   1      40.686  29.315  30.487  1.00  0.00     0.167 HD
ATOM     47  C   UNL A   1      39.856  31.331  34.363  1.00  0.00     0.034 A 
ATOM     48  C   UNL A   1      41.937  27.475  28.795  1.00  0.00     0.034 A 
ATOM     49  C   UNL A   1      41.006  30.484  34.587  1.00  0.00     0.049 A 
ATOM     50  C   UNL A   1      42.642  27.411  30.123  1.00  0.00     0.074 A 
ATOM     51  C   UNL A   1      41.770  30.340  35.733  1.00  0.00     0.029 A 
ATOM     52  N   UNL A   1      41.565  29.640  33.633  1.00  0.00    -0.354 N 
ATOM     53  N   UNL A   1      42.375  28.068  31.229  1.00  0.00    -0.248 NA
ATOM     54  C   UNL A   1      43.773  26.483  30.227  1.00  0.00     0.031 C 
ATOM     55  C   UNL A   1      42.818  29.452  35.454  1.00  0.00     0.029 A 
ATOM     56  C   UNL A   1      42.674  28.991  34.155  1.00  0.00     0.049 A 
ATOM     57  H   UNL A   1      41.221  29.520  32.718  1.00  0.00     0.167 HD
ATOM     58  C   UNL A   1      43.303  27.628  32.165  1.00  0.00     0.074 A 
ATOM     59  C   UNL A   1      44.115  26.627  31.500  1.00  0.00     0.031 C 
ATOM     60  C   UNL A   1      43.478  28.016  33.456  1.00  0.00     0.034 A 
BRANCH  47  61
ATOM     61  C   UNL A   1      39.371  32.233  35.475  1.00  0.00     0.023 A 
ATOM     62  C   UNL A   1      39.776  33.577  35.574  1.00  0.00     0.031 A 
ATOM     63  C   UNL A   1      38.524  31.729  36.478  1.00  0.00     0.131 A 
ATOM     64  C   UNL A   1      39.391  34.348  36.685  1.00  0.00     0.055 A 
ATOM     65  C   UNL A   1      38.087  32.522  37.544  1.00  0.00     0.041 A 
ATOM     66  F   UNL A   1      38.119  30.449  36.453  1.00  0.00    -0.206 F 
ATOM     67  C   UNL A   1      38.532  33.834  37.659  1.00  0.00     0.022 A 
BRANCH  64  68
ATOM     68  S   UNL A   1      40.134  35.988  36.910  1.00  0.00     0.124 S 
ATOM     69  O   UNL A   1      41.538  35.649  37.132  1.00  0.00    -0.237 OA
ATOM     70  O   UNL A   1      39.828  36.650  35.647  1.00  0.00    -0.237 OA
ATOM     71  O   UNL A   1      39.438  36.523  38.078  1.00  0.00    -0.744 OA
ENDBRANCH  64  68
ENDBRANCH  47  61
BRANCH  48  72
ATOM     72  C   UNL A   1      42.382  26.660  27.629  1.00  0.00     0.023 A 
ATOM     73  C   UNL A   1      42.025  25.310  27.496  1.00  0.00     0.031 A 
ATOM     74  C   UNL A   1      43.167  27.239  26.613  1.00  0.00     0.131 A 
ATOM     75  C   UNL A   1      42.470  24.577  26.383  1.00  0.00     0.055 A 
ATOM     76  C   UNL A   1      43.571  26.517  25.489  1.00  0.00     0.041 A 
ATOM     77  F   UNL A   1      43.529  28.530  26.688  1.00  0.00    -0.206 F 
ATOM     78  C   UNL A   1      43.227  25.174  25.373  1.00  0.00     0.022 A 
BRANCH  75  79
ATOM     79  S   UNL A   1      42.086  22.806  26.294  1.00  0.00     0.124 S 
ATOM     80  O   UNL A   1      42.670  22.434  25.010  1.00  0.00    -0.237 OA
ATOM     81  O   UNL A   1      42.763  22.291  27.481  1.00  0.00    -0.237 OA
ATOM     82  O   UNL A   1      40.626  22.770  26.348  1.00  0.00    -0.744 OA
ENDBRANCH  75  79
ENDBRANCH  48  72
BRANCH  60  83
ATOM     83  C   UNL A   1      44.589  27.335  34.211  1.00  0.00     0.023 A 
ATOM     84  C   UNL A   1      44.373  26.121  34.886  1.00  0.00     0.031 A 
ATOM     85  C   UNL A   1      45.861  27.924  34.287  1.00  0.00     0.131 A 
ATOM     86  C   UNL A   1      45.398  25.566  35.663  1.00  0.00     0.055 A 
ATOM     87  C   UNL A   1      46.895  27.339  35.020  1.00  0.00     0.041 A 
ATOM     88  F   UNL A   1      46.116  29.084  33.661  1.00  0.00    -0.206 F 
ATOM     89  C   UNL A   1      46.662  26.160  35.725  1.00  0.00     0.022 A 
BRANCH  86  90
ATOM     90  S   UNL A   1      45.029  24.104  36.671  1.00  0.00     0.124 S 
ATOM     91  O   UNL A   1      44.155  23.340  35.787  1.00  0.00    -0.237 OA
ATOM     92  O   UNL A   1      46.355  23.540  36.902  1.00  0.00    -0.237 OA
ATOM     93  O   UNL A   1      44.378  24.660  37.857  1.00  0.00    -0.744 OA
ENDBRANCH  86  90
ENDBRANCH  60  83
ENDBRANCH  34  35
ENDBRANCH  27  29
ENDBRANCH  26  27
ENDBRANCH  25  26
ENDBRANCH  24  25
ENDBRANCH   1  24
TORSDOF 22
ENDMDL
MODEL 3
REMARK VINA RESULT:     -10.3      4.987      8.102
REMARK SMILES C#CC[N@H+](CC(=O)OCCOCCOC(=O)c1ccc(-c2c3nc(c(-c4cc(S(=O)(=O)[O-])ccc4F)c4ccc([nH]4)c(-c4cc(S(=O)(=O)[O-])ccc4F)c4nc(c(-c5cc(S(=O)(=O)[O-])ccc5F)c5ccc2[nH]5)C=C4)C=C3)cc1)Cc1cccc2ccccc12
REMARK SMILES IDX 11 1 10 2 9 3 8 4 6 5 7 6 5 7 4 8 3 10 2 11 1 12 80 13 81 14
REMARK SMILES IDX 82 15 90 16 83 17 85 18 89 19 84 20 86 21 88 22 87 23 12 24
REMARK SMILES IDX 13 25 14 26 15 27 16 28 17 29 18 30 79 31 19 32 78 33 20 34
REMARK SMILES IDX 21 35 22 36 72 37 23 38 77 39 71 40 73 41 24 42 76 43 70 44
REMARK SMILES IDX 69 45 25 47 57 48 37 49 56 50 38 51 41 52 55 53 74 54 39 55
REMARK SMILES IDX 40 56 54 58 75 59 42 60 26 61 27 62 35 63 28 64 34 65 36 66
REMARK SMILES IDX 33 67 29 68 30 69 31 70 32 71 58 72 59 73 67 74 60 75 66 76
REMARK SMILES IDX 68 77 65 78 61 79 62 80 63 81 64 82 43 83 44 84 52 85 45 86
REMARK SMILES IDX 51 87 53 88 50 89 46 90 47 91 48 92 49 93
REMARK H PARENT 4 9 73 46 41 57
REMARK Flexibility Score: inf
ROOT
ATOM      1  O   UNL A   1      36.734  21.838  25.409  1.00  0.00    -0.374 OA
ENDROOT
BRANCH   1   2
ATOM      2  C   UNL A   1      35.634  22.591  24.892  1.00  0.00     0.202 C 
BRANCH   2   3
ATOM      3  C   UNL A   1      34.347  21.785  24.673  1.00  0.00     0.261 C 
BRANCH   3   4
ATOM      4  O   UNL A   1      33.380  22.061  25.700  1.00  0.00    -0.459 OA
BRANCH   4   5
ATOM      5  C   UNL A   1      32.102  21.667  25.452  1.00  0.00     0.361 C 
ATOM      6  O   UNL A   1      31.782  20.556  25.040  1.00  0.00    -0.245 OA
BRANCH   5   7
ATOM      7  C   UNL A   1      31.055  22.705  25.874  1.00  0.00     0.387 C 
BRANCH   7   8
ATOM      8  N   UNL A   1      31.111  24.009  25.163  1.00  0.00    -0.312 N 
ATOM      9  H   UNL A   1      31.981  24.505  25.354  1.00  0.00     0.349 HD
BRANCH   8  10
ATOM     10  C   UNL A   1      31.139  23.773  23.713  1.00  0.00     0.354 C 
BRANCH  10  11
ATOM     11  C   UNL A   1      32.093  24.567  22.835  1.00  0.00    -0.047 C 
ATOM     12  C   UNL A   1      32.911  25.247  22.083  1.00  0.00     0.010 C 
ENDBRANCH  10  11
ENDBRANCH   8  10
BRANCH   8  13
ATOM     13  C   UNL A   1      30.097  24.940  25.682  1.00  0.00     0.300 C 
BRANCH  13  14
ATOM     14  C   UNL A   1      30.261  26.328  25.068  1.00  0.00     0.014 A 
ATOM     15  C   UNL A   1      29.327  26.712  24.087  1.00  0.00     0.010 A 
ATOM     16  C   UNL A   1      31.359  27.198  25.360  1.00  0.00    -0.010 A 
ATOM     17  C   UNL A   1      29.483  27.881  23.354  1.00  0.00     0.001 A 
ATOM     18  C   UNL A   1      31.515  28.376  24.577  1.00  0.00    -0.018 A 
ATOM     19  C   UNL A   1      32.341  26.958  26.352  1.00  0.00     0.009 A 
ATOM     20  C   UNL A   1      30.579  28.698  23.588  1.00  0.00     0.009 A 
ATOM     21  C   UNL A   1      32.642  29.198  24.743  1.00  0.00     0.009 A 
ATOM     22  C   UNL A   1      33.450  27.797  26.517  1.00  0.00     0.001 A 
ATOM     23  C   UNL A   1      33.611  28.906  25.698  1.00  0.00     0.001 A 
ENDBRANCH  13  14
ENDBRANCH   8  13
ENDBRANCH   7   8
ENDBRANCH   5   7
ENDBRANCH   4   5
ENDBRANCH   3   4
ENDBRANCH   2   3
ENDBRANCH   1   2
BRANCH   1  24
ATOM     24  C   UNL A   1      37.306  20.859  24.538  1.00  0.00     0.202 C 
BRANCH  24  25
ATOM     25  C   UNL A   1      38.350  19.933  25.158  1.00  0.00     0.261 C 
BRANCH  25  26
ATOM     26  O   UNL A   1      38.754  20.307  26.481  1.00  0.00    -0.460 OA
BRANCH  26  27
ATOM     27  C   UNL A   1      40.095  20.492  26.555  1.00  0.00     0.338 C 
ATOM     28  O   UNL A   1      40.967  19.763  26.112  1.00  0.00    -0.246 OA
BRANCH  27  29
ATOM     29  C   UNL A   1      40.396  21.849  27.015  1.00  0.00     0.060 A 
ATOM     30  C   UNL A   1      39.756  22.888  26.335  1.00  0.00     0.016 A 
ATOM     31  C   UNL A   1      41.423  22.106  27.927  1.00  0.00     0.016 A 
ATOM     32  C   UNL A   1      40.186  24.195  26.524  1.00  0.00     0.010 A 
ATOM     33  C   UNL A   1      41.835  23.428  28.135  1.00  0.00     0.010 A 
ATOM     34  C   UNL A   1      41.243  24.472  27.404  1.00  0.00    -0.014 A 
BRANCH  34  35
ATOM     35  C   UNL A   1      41.718  25.875  27.492  1.00  0.00     0.031 A 
ATOM     36  C   UNL A   1      40.947  26.883  28.297  1.00  0.00     0.074 A 
ATOM     37  C   UNL A   1      42.908  26.184  26.947  1.00  0.00     0.049 A 
ATOM     38  N   UNL A   1      41.286  28.097  28.645  1.00  0.00    -0.248 NA
ATOM     39  C   UNL A   1      39.619  26.469  28.773  1.00  0.00     0.031 C 
ATOM     40  C   UNL A   1      43.726  25.258  26.160  1.00  0.00     0.029 A 
ATOM     41  N   UNL A   1      43.655  27.330  27.002  1.00  0.00    -0.354 N 
ATOM     42  C   UNL A   1      40.219  28.593  29.389  1.00  0.00     0.074 A 
ATOM     43  C   UNL A   1      39.207  27.558  29.407  1.00  0.00     0.031 C 
ATOM     44  C   UNL A   1      44.882  25.862  25.840  1.00  0.00     0.029 A 
ATOM     45  C   UNL A   1      44.877  27.218  26.378  1.00  0.00     0.049 A 
ATOM     46  H   UNL A   1      43.347  28.154  27.442  1.00  0.00     0.167 HD
ATOM     47  C   UNL A   1      40.105  29.799  30.003  1.00  0.00     0.034 A 
ATOM     48  C   UNL A   1      45.884  28.106  26.271  1.00  0.00     0.034 A 
ATOM     49  C   UNL A   1      41.129  30.819  29.944  1.00  0.00     0.049 A 
ATOM     50  C   UNL A   1      45.736  29.435  26.961  1.00  0.00     0.074 A 
ATOM     51  C   UNL A   1      41.125  32.088  30.497  1.00  0.00     0.029 A 
ATOM     52  N   UNL A   1      42.343  30.683  29.278  1.00  0.00    -0.354 N 
ATOM     53  N   UNL A   1      44.728  29.885  27.673  1.00  0.00    -0.248 NA
ATOM     54  C   UNL A   1      46.865  30.365  26.852  1.00  0.00     0.031 C 
ATOM     55  C   UNL A   1      42.310  32.735  30.121  1.00  0.00     0.029 A 
ATOM     56  C   UNL A   1      43.084  31.849  29.386  1.00  0.00     0.049 A 
ATOM     57  H   UNL A   1      42.634  29.874  28.798  1.00  0.00     0.167 HD
ATOM     58  C   UNL A   1      45.104  31.152  28.103  1.00  0.00     0.074 A 
ATOM     59  C   UNL A   1      46.444  31.378  27.596  1.00  0.00     0.031 C 
ATOM     60  C   UNL A   1      44.408  32.052  28.846  1.00  0.00     0.034 A 
BRANCH  47  61
ATOM     61  C   UNL A   1      38.812  30.089  30.729  1.00  0.00     0.023 A 
ATOM     62  C   UNL A   1      37.759  30.801  30.122  1.00  0.00     0.031 A 
ATOM     63  C   UNL A   1      38.643  29.685  32.066  1.00  0.00     0.131 A 
ATOM     64  C   UNL A   1      36.620  31.145  30.870  1.00  0.00     0.055 A 
ATOM     65  C   UNL A   1      37.476  29.969  32.783  1.00  0.00     0.041 A 
ATOM     66  F   UNL A   1      39.617  29.021  32.708  1.00  0.00    -0.206 F 
ATOM     67  C   UNL A   1      36.463  30.715  32.190  1.00  0.00     0.022 A 
BRANCH  64  68
ATOM     68  S   UNL A   1      35.403  32.274  30.138  1.00  0.00     0.124 S 
ATOM     69  O   UNL A   1      34.931  31.498  28.993  1.00  0.00    -0.237 OA
ATOM     70  O   UNL A   1      34.446  32.456  31.225  1.00  0.00    -0.237 OA
ATOM     71  O   UNL A   1      36.191  33.456  29.798  1.00  0.00    -0.744 OA
ENDBRANCH  64  68
ENDBRANCH  47  61
BRANCH  48  72
ATOM     72  C   UNL A   1      47.104  27.757  25.487  1.00  0.00     0.023 A 
ATOM     73  C   UNL A   1      47.168  27.957  24.100  1.00  0.00     0.031 A 
ATOM     74  C   UNL A   1      48.237  27.227  26.132  1.00  0.00     0.131 A 
ATOM     75  C   UNL A   1      48.335  27.610  23.398  1.00  0.00     0.055 A 
ATOM     76  C   UNL A   1      49.409  26.923  25.436  1.00  0.00     0.041 A 
ATOM     77  F   UNL A   1      48.230  27.024  27.459  1.00  0.00    -0.206 F 
ATOM     78  C   UNL A   1      49.459  27.108  24.059  1.00  0.00     0.022 A 
BRANCH  75  79
ATOM     79  S   UNL A   1      48.350  27.776  21.592  1.00  0.00     0.124 S 
ATOM     80  O   UNL A   1      49.440  28.724  21.384  1.00  0.00    -0.237 OA
ATOM     81  O   UNL A   1      48.604  26.403  21.165  1.00  0.00    -0.237 OA
ATOM     82  O   UNL A   1      47.015  28.285  21.285  1.00  0.00    -0.744 OA
ENDBRANCH  75  79
ENDBRANCH  48  72
BRANCH  60  83
ATOM     83  C   UNL A   1      45.109  33.351  29.145  1.00  0.00     0.023 A 
ATOM     84  C   UNL A   1      45.096  34.414  28.226  1.00  0.00     0.031 A 
ATOM     85  C   UNL A   1      45.826  33.512  30.342  1.00  0.00     0.131 A 
ATOM     86  C   UNL A   1      45.842  35.571  28.490  1.00  0.00     0.055 A 
ATOM     87  C   UNL A   1      46.524  34.688  30.623  1.00  0.00     0.041 A 
ATOM     88  F   UNL A   1      45.870  32.526  31.251  1.00  0.00    -0.206 F 
ATOM     89  C   UNL A   1      46.546  35.721  29.688  1.00  0.00     0.022 A 
BRANCH  86  90
ATOM     90  S   UNL A   1      45.957  36.842  27.201  1.00  0.00     0.124 S 
ATOM     91  O   UNL A   1      46.349  36.057  26.036  1.00  0.00    -0.237 OA
ATOM     92  O   UNL A   1      44.603  37.387  27.178  1.00  0.00    -0.237 OA
ATOM     93  O   UNL A   1      46.982  37.754  27.709  1.00  0.00    -0.744 OA
ENDBRANCH  86  90
ENDBRANCH  60  83
ENDBRANCH  34  35
ENDBRANCH  27  29
ENDBRANCH  26  27
ENDBRANCH  25  26
ENDBRANCH  24  25
ENDBRANCH   1  24
TORSDOF 22
ENDMDL
