MODEL 1
REMARK VINA RESULT:     -11.9      0.000      0.000
REMARK SMILES Nc1c(C(=O)OCCOCCOC(=O)c2ccc(-c3c4nc(c(-c5cc(S(=O)(=O)[O-])ccc5F)c5ccc([nH]5)c(-c5cc(S(=O)(=O)[O-])ccc5F)c5nc(c(-c6cc(S(=O)(=O)[O-])ccc6F)c6ccc3[nH]6)C=C5)C=C4)cc2)cccc1-c1cc(F)c(F)c(F)c1
REMARK SMILES IDX 10 1 9 2 8 3 7 4 6 5 4 6 5 7 3 8 2 9 81 10 78 11 80 12 79 13
REMARK SMILES IDX 1 14 82 17 83 18 90 19 84 20 88 21 85 22 86 23 89 24 87 25
REMARK SMILES IDX 11 26 12 27 13 28 14 29 15 30 16 31 77 32 17 33 76 34 18 35
REMARK SMILES IDX 19 36 20 37 70 38 21 39 75 40 69 41 71 42 22 43 74 44 68 45
REMARK SMILES IDX 67 46 23 48 55 49 35 50 54 51 36 52 39 53 53 54 72 55 37 56
REMARK SMILES IDX 38 57 52 59 73 60 40 61 24 62 25 63 33 64 26 65 32 66 34 67
REMARK SMILES IDX 31 68 27 69 28 70 29 71 30 72 56 73 57 74 65 75 58 76 64 77
REMARK SMILES IDX 66 78 63 79 59 80 60 81 61 82 62 83 41 84 42 85 50 86 43 87
REMARK SMILES IDX 49 88 51 89 48 90 44 91 45 92 46 93 47 94
REMARK H PARENT 1 15 1 16 71 47 39 58
REMARK Flexibility Score: inf
ROOT
ATOM      1  C   UNL A   1      31.789  31.381  26.857  1.00  0.00     0.202 C 
ENDROOT
BRANCH   1   2
ATOM      2  O   UNL A   1      32.812  30.491  26.413  1.00  0.00    -0.374 OA
BRANCH   2   3
ATOM      3  C   UNL A   1      33.052  29.327  27.206  1.00  0.00     0.202 C 
BRANCH   3   4
ATOM      4  C   UNL A   1      32.572  28.004  26.604  1.00  0.00     0.261 C 
BRANCH   4   5
ATOM      5  O   UNL A   1      33.079  27.845  25.267  1.00  0.00    -0.460 OA
BRANCH   5   6
ATOM      6  C   UNL A   1      32.434  26.929  24.503  1.00  0.00     0.340 C 
ATOM      7  O   UNL A   1      32.839  25.811  24.220  1.00  0.00    -0.246 OA
BRANCH   6   8
ATOM      8  C   UNL A   1      31.054  27.378  24.179  1.00  0.00     0.083 A 
ATOM      9  C   UNL A   1      30.702  28.696  23.807  1.00  0.00     0.054 A 
ATOM     10  C   UNL A   1      29.379  28.931  23.337  1.00  0.00     0.006 A 
ATOM     11  C   UNL A   1      30.074  26.373  24.267  1.00  0.00     0.018 A 
ATOM     12  C   UNL A   1      28.419  27.901  23.453  1.00  0.00     0.011 A 
ATOM     13  C   UNL A   1      28.755  26.641  23.938  1.00  0.00     0.002 A 
BRANCH   9  14
ATOM     14  N   UNL A   1      31.663  29.716  23.750  1.00  0.00    -0.398 N 
ATOM     15  H   UNL A   1      32.619  29.490  23.704  1.00  0.00     0.156 HD
ATOM     16  H   UNL A   1      31.380  30.659  23.755  1.00  0.00     0.156 HD
ENDBRANCH   9  14
BRANCH  10  17
ATOM     17  C   UNL A   1      28.979  30.180  22.645  1.00  0.00    -0.010 A 
ATOM     18  C   UNL A   1      29.086  31.438  23.261  1.00  0.00     0.051 A 
ATOM     19  C   UNL A   1      28.387  30.124  21.367  1.00  0.00     0.051 A 
ATOM     20  C   UNL A   1      28.612  32.585  22.622  1.00  0.00     0.162 A 
ATOM     21  C   UNL A   1      27.930  31.280  20.737  1.00  0.00     0.162 A 
ATOM     22  F   UNL A   1      28.699  33.765  23.252  1.00  0.00    -0.204 F 
ATOM     23  C   UNL A   1      28.034  32.511  21.363  1.00  0.00     0.194 A 
ATOM     24  F   UNL A   1      27.362  31.183  19.527  1.00  0.00    -0.204 F 
ATOM     25  F   UNL A   1      27.566  33.616  20.767  1.00  0.00    -0.200 F 
ENDBRANCH  10  17
ENDBRANCH   6   8
ENDBRANCH   5   6
ENDBRANCH   4   5
ENDBRANCH   3   4
ENDBRANCH   2   3
ENDBRANCH   1   2
BRANCH   1  26
ATOM     26  C   UNL A   1      32.077  32.882  26.725  1.00  0.00     0.261 C 
BRANCH  26  27
ATOM     27  O   UNL A   1      32.205  33.527  28.004  1.00  0.00    -0.460 OA
BRANCH  27  28
ATOM     28  C   UNL A   1      33.311  34.295  28.140  1.00  0.00     0.338 C 
ATOM     29  O   UNL A   1      33.360  35.519  28.128  1.00  0.00    -0.246 OA
BRANCH  28  30
ATOM     30  C   UNL A   1      34.469  33.456  28.500  1.00  0.00     0.060 A 
ATOM     31  C   UNL A   1      34.226  32.320  29.284  1.00  0.00     0.016 A 
ATOM     32  C   UNL A   1      35.773  33.802  28.138  1.00  0.00     0.016 A 
ATOM     33  C   UNL A   1      35.290  31.552  29.749  1.00  0.00     0.010 A 
ATOM     34  C   UNL A   1      36.842  33.032  28.613  1.00  0.00     0.010 A 
ATOM     35  C   UNL A   1      36.607  31.924  29.448  1.00  0.00    -0.014 A 
BRANCH  35  36
ATOM     36  C   UNL A   1      37.735  31.238  30.128  1.00  0.00     0.031 A 
ATOM     37  C   UNL A   1      38.046  31.592  31.556  1.00  0.00     0.074 A 
ATOM     38  C   UNL A   1      38.450  30.294  29.491  1.00  0.00     0.049 A 
ATOM     39  N   UNL A   1      38.999  31.148  32.336  1.00  0.00    -0.248 NA
ATOM     40  C   UNL A   1      37.165  32.585  32.188  1.00  0.00     0.031 C 
ATOM     41  C   UNL A   1      38.212  29.835  28.124  1.00  0.00     0.029 A 
ATOM     42  N   UNL A   1      39.526  29.553  29.913  1.00  0.00    -0.354 N 
ATOM     43  C   UNL A   1      38.837  31.811  33.548  1.00  0.00     0.074 A 
ATOM     44  C   UNL A   1      37.719  32.716  33.383  1.00  0.00     0.031 C 
ATOM     45  C   UNL A   1      39.120  28.892  27.817  1.00  0.00     0.029 A 
ATOM     46  C   UNL A   1      40.026  28.710  28.950  1.00  0.00     0.049 A 
ATOM     47  H   UNL A   1      39.903  29.620  30.820  1.00  0.00     0.167 HD
ATOM     48  C   UNL A   1      39.550  31.669  34.693  1.00  0.00     0.034 A 
ATOM     49  C   UNL A   1      41.105  27.902  28.972  1.00  0.00     0.034 A 
ATOM     50  C   UNL A   1      40.668  30.768  34.836  1.00  0.00     0.049 A 
ATOM     51  C   UNL A   1      41.940  27.828  30.228  1.00  0.00     0.074 A 
ATOM     52  C   UNL A   1      41.445  30.529  35.956  1.00  0.00     0.029 A 
ATOM     53  N   UNL A   1      41.182  29.971  33.821  1.00  0.00    -0.354 N 
ATOM     54  N   UNL A   1      41.771  28.450  31.372  1.00  0.00    -0.248 NA
ATOM     55  C   UNL A   1      43.108  26.939  30.194  1.00  0.00     0.031 C 
ATOM     56  C   UNL A   1      42.473  29.648  35.598  1.00  0.00     0.029 A 
ATOM     57  C   UNL A   1      42.289  29.270  34.277  1.00  0.00     0.049 A 
ATOM     58  H   UNL A   1      40.814  29.911  32.910  1.00  0.00     0.167 HD
ATOM     59  C   UNL A   1      42.793  28.000  32.205  1.00  0.00     0.074 A 
ATOM     60  C   UNL A   1      43.566  27.048  31.433  1.00  0.00     0.031 C 
ATOM     61  C   UNL A   1      43.063  28.335  33.492  1.00  0.00     0.034 A 
BRANCH  48  62
ATOM     62  C   UNL A   1      39.170  32.555  35.858  1.00  0.00     0.023 A 
ATOM     63  C   UNL A   1      39.592  33.894  35.943  1.00  0.00     0.031 A 
ATOM     64  C   UNL A   1      38.407  32.038  36.919  1.00  0.00     0.131 A 
ATOM     65  C   UNL A   1      39.319  34.642  37.098  1.00  0.00     0.055 A 
ATOM     66  C   UNL A   1      38.067  32.815  38.030  1.00  0.00     0.041 A 
ATOM     67  F   UNL A   1      37.994  30.761  36.908  1.00  0.00    -0.206 F 
ATOM     68  C   UNL A   1      38.538  34.120  38.131  1.00  0.00     0.022 A 
BRANCH  65  69
ATOM     69  S   UNL A   1      40.134  36.250  37.302  1.00  0.00     0.124 S 
ATOM     70  O   UNL A   1      41.477  35.851  37.714  1.00  0.00    -0.237 OA
ATOM     71  O   UNL A   1      40.020  36.831  35.969  1.00  0.00    -0.237 OA
ATOM     72  O   UNL A   1      39.343  36.907  38.340  1.00  0.00    -0.744 OA
ENDBRANCH  65  69
ENDBRANCH  48  62
BRANCH  49  73
ATOM     73  C   UNL A   1      41.487  27.122  27.760  1.00  0.00     0.023 A 
ATOM     74  C   UNL A   1      41.282  25.736  27.694  1.00  0.00     0.031 A 
ATOM     75  C   UNL A   1      42.106  27.751  26.665  1.00  0.00     0.131 A 
ATOM     76  C   UNL A   1      41.727  25.016  26.574  1.00  0.00     0.055 A 
ATOM     77  C   UNL A   1      42.503  27.038  25.532  1.00  0.00     0.041 A 
ATOM     78  F   UNL A   1      42.327  29.075  26.677  1.00  0.00    -0.206 F 
ATOM     79  C   UNL A   1      42.325  25.660  25.488  1.00  0.00     0.022 A 
BRANCH  76  80
ATOM     80  S   UNL A   1      41.582  23.208  26.589  1.00  0.00     0.124 S 
ATOM     81  O   UNL A   1      42.379  22.836  25.426  1.00  0.00    -0.237 OA
ATOM     82  O   UNL A   1      42.149  22.870  27.891  1.00  0.00    -0.237 OA
ATOM     83  O   UNL A   1      40.144  22.981  26.460  1.00  0.00    -0.744 OA
ENDBRANCH  76  80
ENDBRANCH  49  73
BRANCH  61  84
ATOM     84  C   UNL A   1      44.221  27.630  34.160  1.00  0.00     0.023 A 
ATOM     85  C   UNL A   1      44.055  26.412  34.842  1.00  0.00     0.031 A 
ATOM     86  C   UNL A   1      45.509  28.195  34.120  1.00  0.00     0.131 A 
ATOM     87  C   UNL A   1      45.147  25.826  35.502  1.00  0.00     0.055 A 
ATOM     88  C   UNL A   1      46.603  27.577  34.726  1.00  0.00     0.041 A 
ATOM     89  F   UNL A   1      45.725  29.359  33.485  1.00  0.00    -0.206 F 
ATOM     90  C   UNL A   1      46.423  26.392  35.433  1.00  0.00     0.022 A 
BRANCH  87  91
ATOM     91  S   UNL A   1      44.860  24.361  36.533  1.00  0.00     0.124 S 
ATOM     92  O   UNL A   1      46.222  23.913  36.809  1.00  0.00    -0.237 OA
ATOM     93  O   UNL A   1      44.129  24.915  37.667  1.00  0.00    -0.237 OA
ATOM     94  O   UNL A   1      44.082  23.478  35.666  1.00  0.00    -0.744 OA
ENDBRANCH  87  91
ENDBRANCH  61  84
ENDBRANCH  35  36
ENDBRANCH  28  30
ENDBRANCH  27  28
ENDBRANCH  26  27
ENDBRANCH   1  26
TORSDOF 19
ENDMDL
MODEL 2
REMARK VINA RESULT:     -11.9      4.324      9.974
REMARK SMILES Nc1c(C(=O)OCCOCCOC(=O)c2ccc(-c3c4nc(c(-c5cc(S(=O)(=O)[O-])ccc5F)c5ccc([nH]5)c(-c5cc(S(=O)(=O)[O-])ccc5F)c5nc(c(-c6cc(S(=O)(=O)[O-])ccc6F)c6ccc3[nH]6)C=C5)C=C4)cc2)cccc1-c1cc(F)c(F)c(F)c1
REMARK SMILES IDX 10 1 9 2 8 3 7 4 6 5 4 6 5 7 3 8 2 9 81 10 78 11 80 12 79 13
REMARK SMILES IDX 1 14 82 17 83 18 90 19 84 20 88 21 85 22 86 23 89 24 87 25
REMARK SMILES IDX 11 26 12 27 13 28 14 29 15 30 16 31 77 32 17 33 76 34 18 35
REMARK SMILES IDX 19 36 20 37 70 38 21 39 75 40 69 41 71 42 22 43 74 44 68 45
REMARK SMILES IDX 67 46 23 48 55 49 35 50 54 51 36 52 39 53 53 54 72 55 37 56
REMARK SMILES IDX 38 57 52 59 73 60 40 61 24 62 25 63 33 64 26 65 32 66 34 67
REMARK SMILES IDX 31 68 27 69 28 70 29 71 30 72 56 73 57 74 65 75 58 76 64 77
REMARK SMILES IDX 66 78 63 79 59 80 60 81 61 82 62 83 41 84 42 85 50 86 43 87
REMARK SMILES IDX 49 88 51 89 48 90 44 91 45 92 46 93 47 94
REMARK H PARENT 1 15 1 16 71 47 39 58
REMARK Flexibility Score: inf
ROOT
ATOM      1  C   UNL A   1      45.020  21.267  24.667  1.00  0.00     0.202 C 
ENDROOT
BRANCH   1   2
ATOM      2  O   UNL A   1      44.358  20.109  24.160  1.00  0.00    -0.374 OA
BRANCH   2   3
ATOM      3  C   UNL A   1      43.457  19.435  25.040  1.00  0.00     0.202 C 
BRANCH   3   4
ATOM      4  C   UNL A   1      42.784  20.312  26.099  1.00  0.00     0.261 C 
BRANCH   4   5
ATOM      5  O   UNL A   1      41.408  20.554  25.753  1.00  0.00    -0.460 OA
BRANCH   5   6
ATOM      6  C   UNL A   1      40.589  20.849  26.793  1.00  0.00     0.340 C 
ATOM      7  O   UNL A   1      40.752  20.517  27.958  1.00  0.00    -0.246 OA
BRANCH   6   8
ATOM      8  C   UNL A   1      39.523  21.801  26.381  1.00  0.00     0.083 A 
ATOM      9  C   UNL A   1      38.429  21.474  25.547  1.00  0.00     0.054 A 
ATOM     10  C   UNL A   1      37.386  22.433  25.401  1.00  0.00     0.006 A 
ATOM     11  C   UNL A   1      39.671  23.103  26.892  1.00  0.00     0.018 A 
ATOM     12  C   UNL A   1      37.576  23.735  25.916  1.00  0.00     0.011 A 
ATOM     13  C   UNL A   1      38.719  24.077  26.632  1.00  0.00     0.002 A 
BRANCH   9  14
ATOM     14  N   UNL A   1      38.288  20.190  25.004  1.00  0.00    -0.398 N 
ATOM     15  H   UNL A   1      38.221  20.072  24.029  1.00  0.00     0.156 HD
ATOM     16  H   UNL A   1      38.256  19.405  25.598  1.00  0.00     0.156 HD
ENDBRANCH   9  14
BRANCH  10  17
ATOM     17  C   UNL A   1      36.066  22.105  24.810  1.00  0.00    -0.010 A 
ATOM     18  C   UNL A   1      35.534  22.833  23.732  1.00  0.00     0.051 A 
ATOM     19  C   UNL A   1      35.263  21.099  25.382  1.00  0.00     0.051 A 
ATOM     20  C   UNL A   1      34.248  22.564  23.259  1.00  0.00     0.162 A 
ATOM     21  C   UNL A   1      33.986  20.835  24.891  1.00  0.00     0.162 A 
ATOM     22  F   UNL A   1      33.757  23.299  22.252  1.00  0.00    -0.204 F 
ATOM     23  C   UNL A   1      33.472  21.568  23.835  1.00  0.00     0.194 A 
ATOM     24  F   UNL A   1      33.249  19.877  25.470  1.00  0.00    -0.204 F 
ATOM     25  F   UNL A   1      32.232  21.331  23.384  1.00  0.00    -0.200 F 
ENDBRANCH  10  17
ENDBRANCH   6   8
ENDBRANCH   5   6
ENDBRANCH   4   5
ENDBRANCH   3   4
ENDBRANCH   2   3
ENDBRANCH   1   2
BRANCH   1  26
ATOM     26  C   UNL A   1      44.802  22.577  23.901  1.00  0.00     0.261 C 
BRANCH  26  27
ATOM     27  O   UNL A   1      43.974  23.502  24.626  1.00  0.00    -0.460 OA
BRANCH  27  28
ATOM     28  C   UNL A   1      44.610  24.624  25.039  1.00  0.00     0.338 C 
ATOM     29  O   UNL A   1      45.677  25.059  24.620  1.00  0.00    -0.246 OA
BRANCH  28  30
ATOM     30  C   UNL A   1      43.746  25.388  25.957  1.00  0.00     0.060 A 
ATOM     31  C   UNL A   1      43.958  26.769  26.048  1.00  0.00     0.016 A 
ATOM     32  C   UNL A   1      42.790  24.763  26.763  1.00  0.00     0.016 A 
ATOM     33  C   UNL A   1      43.250  27.526  26.978  1.00  0.00     0.010 A 
ATOM     34  C   UNL A   1      42.084  25.524  27.702  1.00  0.00     0.010 A 
ATOM     35  C   UNL A   1      42.335  26.903  27.836  1.00  0.00    -0.014 A 
BRANCH  35  36
ATOM     36  C   UNL A   1      41.755  27.669  28.968  1.00  0.00     0.031 A 
ATOM     37  C   UNL A   1      42.465  27.656  30.295  1.00  0.00     0.074 A 
ATOM     38  C   UNL A   1      40.631  28.388  28.808  1.00  0.00     0.049 A 
ATOM     39  N   UNL A   1      42.127  28.222  31.425  1.00  0.00    -0.248 NA
ATOM     40  C   UNL A   1      43.723  26.897  30.353  1.00  0.00     0.031 C 
ATOM     41  C   UNL A   1      39.882  28.514  27.559  1.00  0.00     0.029 A 
ATOM     42  N   UNL A   1      39.921  29.148  29.703  1.00  0.00    -0.354 N 
ATOM     43  C   UNL A   1      43.127  27.885  32.332  1.00  0.00     0.074 A 
ATOM     44  C   UNL A   1      44.059  27.030  31.627  1.00  0.00     0.031 C 
ATOM     45  C   UNL A   1      38.813  29.301  27.769  1.00  0.00     0.029 A 
ATOM     46  C   UNL A   1      38.780  29.702  29.174  1.00  0.00     0.049 A 
ATOM     47  H   UNL A   1      40.202  29.283  30.637  1.00  0.00     0.167 HD
ATOM     48  C   UNL A   1      43.257  28.260  33.629  1.00  0.00     0.034 A 
ATOM     49  C   UNL A   1      37.809  30.429  29.762  1.00  0.00     0.034 A 
ATOM     50  C   UNL A   1      42.312  29.105  34.319  1.00  0.00     0.049 A 
ATOM     51  C   UNL A   1      37.927  30.760  31.230  1.00  0.00     0.074 A 
ATOM     52  C   UNL A   1      42.358  29.565  35.623  1.00  0.00     0.029 A 
ATOM     53  N   UNL A   1      41.137  29.601  33.766  1.00  0.00    -0.354 N 
ATOM     54  N   UNL A   1      38.883  30.445  32.075  1.00  0.00    -0.248 NA
ATOM     55  C   UNL A   1      36.838  31.547  31.822  1.00  0.00     0.031 C 
ATOM     56  C   UNL A   1      41.179  30.274  35.881  1.00  0.00     0.029 A 
ATOM     57  C   UNL A   1      40.433  30.328  34.714  1.00  0.00     0.049 A 
ATOM     58  H   UNL A   1      40.848  29.458  32.836  1.00  0.00     0.167 HD
ATOM     59  C   UNL A   1      38.523  31.026  33.290  1.00  0.00     0.074 A 
ATOM     60  C   UNL A   1      37.270  31.717  33.063  1.00  0.00     0.031 C 
ATOM     61  C   UNL A   1      39.175  30.999  34.481  1.00  0.00     0.034 A 
BRANCH  48  62
ATOM     62  C   UNL A   1      44.438  27.707  34.393  1.00  0.00     0.023 A 
ATOM     63  C   UNL A   1      44.372  26.481  35.080  1.00  0.00     0.031 A 
ATOM     64  C   UNL A   1      45.637  28.438  34.469  1.00  0.00     0.131 A 
ATOM     65  C   UNL A   1      45.450  26.065  35.876  1.00  0.00     0.055 A 
ATOM     66  C   UNL A   1      46.737  27.977  35.196  1.00  0.00     0.041 A 
ATOM     67  F   UNL A   1      45.754  29.626  33.855  1.00  0.00    -0.206 F 
ATOM     68  C   UNL A   1      46.642  26.792  35.919  1.00  0.00     0.022 A 
BRANCH  65  69
ATOM     69  S   UNL A   1      45.215  24.645  36.980  1.00  0.00     0.124 S 
ATOM     70  O   UNL A   1      45.682  25.183  38.256  1.00  0.00    -0.237 OA
ATOM     71  O   UNL A   1      43.782  24.399  36.875  1.00  0.00    -0.237 OA
ATOM     72  O   UNL A   1      46.071  23.613  36.399  1.00  0.00    -0.744 OA
ENDBRANCH  65  69
ENDBRANCH  48  62
BRANCH  49  73
ATOM     73  C   UNL A   1      36.618  30.869  28.980  1.00  0.00     0.023 A 
ATOM     74  C   UNL A   1      35.715  29.936  28.447  1.00  0.00     0.031 A 
ATOM     75  C   UNL A   1      36.392  32.232  28.718  1.00  0.00     0.131 A 
ATOM     76  C   UNL A   1      34.649  30.375  27.645  1.00  0.00     0.055 A 
ATOM     77  C   UNL A   1      35.302  32.667  27.962  1.00  0.00     0.041 A 
ATOM     78  F   UNL A   1      37.225  33.165  29.204  1.00  0.00    -0.206 F 
ATOM     79  C   UNL A   1      34.430  31.734  27.410  1.00  0.00     0.022 A 
BRANCH  76  80
ATOM     80  S   UNL A   1      33.593  29.135  26.850  1.00  0.00     0.124 S 
ATOM     81  O   UNL A   1      33.375  29.728  25.535  1.00  0.00    -0.237 OA
ATOM     82  O   UNL A   1      34.440  27.947  26.886  1.00  0.00    -0.237 OA
ATOM     83  O   UNL A   1      32.416  29.084  27.715  1.00  0.00    -0.744 OA
ENDBRANCH  76  80
ENDBRANCH  49  73
BRANCH  61  84
ATOM     84  C   UNL A   1      38.560  31.780  35.619  1.00  0.00     0.023 A 
ATOM     85  C   UNL A   1      38.019  31.144  36.750  1.00  0.00     0.031 A 
ATOM     86  C   UNL A   1      38.505  33.185  35.563  1.00  0.00     0.131 A 
ATOM     87  C   UNL A   1      37.400  31.906  37.753  1.00  0.00     0.055 A 
ATOM     88  C   UNL A   1      37.944  33.942  36.592  1.00  0.00     0.041 A 
ATOM     89  F   UNL A   1      39.004  33.846  34.505  1.00  0.00    -0.206 F 
ATOM     90  C   UNL A   1      37.375  33.302  37.688  1.00  0.00     0.022 A 
BRANCH  87  91
ATOM     91  S   UNL A   1      36.543  31.046  39.101  1.00  0.00     0.124 S 
ATOM     92  O   UNL A   1      35.392  31.914  39.331  1.00  0.00    -0.237 OA
ATOM     93  O   UNL A   1      36.252  29.745  38.507  1.00  0.00    -0.237 OA
ATOM     94  O   UNL A   1      37.531  31.027  40.179  1.00  0.00    -0.744 OA
ENDBRANCH  87  91
ENDBRANCH  61  84
ENDBRANCH  35  36
ENDBRANCH  28  30
ENDBRANCH  27  28
ENDBRANCH  26  27
ENDBRANCH   1  26
TORSDOF 19
ENDMDL
MODEL 3
REMARK VINA RESULT:     -11.8      1.698      7.716
REMARK SMILES Nc1c(C(=O)OCCOCCOC(=O)c2ccc(-c3c4nc(c(-c5cc(S(=O)(=O)[O-])ccc5F)c5ccc([nH]5)c(-c5cc(S(=O)(=O)[O-])ccc5F)c5nc(c(-c6cc(S(=O)(=O)[O-])ccc6F)c6ccc3[nH]6)C=C5)C=C4)cc2)cccc1-c1cc(F)c(F)c(F)c1
REMARK SMILES IDX 10 1 9 2 8 3 7 4 6 5 4 6 5 7 3 8 2 9 81 10 78 11 80 12 79 13
REMARK SMILES IDX 1 14 82 17 83 18 90 19 84 20 88 21 85 22 86 23 89 24 87 25
REMARK SMILES IDX 11 26 12 27 13 28 14 29 15 30 16 31 77 32 17 33 76 34 18 35
REMARK SMILES IDX 19 36 20 37 70 38 21 39 75 40 69 41 71 42 22 43 74 44 68 45
REMARK SMILES IDX 67 46 23 48 55 49 35 50 54 51 36 52 39 53 53 54 72 55 37 56
REMARK SMILES IDX 38 57 52 59 73 60 40 61 24 62 25 63 33 64 26 65 32 66 34 67
REMARK SMILES IDX 31 68 27 69 28 70 29 71 30 72 56 73 57 74 65 75 58 76 64 77
REMARK SMILES IDX 66 78 63 79 59 80 60 81 61 82 62 83 41 84 42 85 50 86 43 87
REMARK SMILES IDX 49 88 51 89 48 90 44 91 45 92 46 93 47 94
REMARK H PARENT 1 15 1 16 71 47 39 58
REMARK Flexibility Score: inf
ROOT
ATOM      1  C   UNL A   1      31.992  29.341  26.023  1.00  0.00     0.202 C 
ENDROOT
BRANCH   1   2
ATOM      2  O   UNL A   1      33.181  28.831  25.422  1.00  0.00    -0.374 OA
BRANCH   2   3
ATOM      3  C   UNL A   1      33.650  27.561  25.878  1.00  0.00     0.202 C 
BRANCH   3   4
ATOM      4  C   UNL A   1      33.651  26.441  24.836  1.00  0.00     0.261 C 
BRANCH   4   5
ATOM      5  O   UNL A   1      33.334  26.964  23.533  1.00  0.00    -0.460 OA
BRANCH   5   6
ATOM      6  C   UNL A   1      32.334  26.327  22.876  1.00  0.00     0.340 C 
ATOM      7  O   UNL A   1      32.420  25.255  22.294  1.00  0.00    -0.246 OA
BRANCH   6   8
ATOM      8  C   UNL A   1      31.030  27.008  23.094  1.00  0.00     0.083 A 
ATOM      9  C   UNL A   1      30.782  28.376  22.832  1.00  0.00     0.054 A 
ATOM     10  C   UNL A   1      29.438  28.840  22.901  1.00  0.00     0.006 A 
ATOM     11  C   UNL A   1      30.011  26.179  23.596  1.00  0.00     0.018 A 
ATOM     12  C   UNL A   1      28.444  27.982  23.424  1.00  0.00     0.011 A 
ATOM     13  C   UNL A   1      28.731  26.672  23.794  1.00  0.00     0.002 A 
BRANCH   9  14
ATOM     14  N   UNL A   1      31.798  29.221  22.363  1.00  0.00    -0.398 N 
ATOM     15  H   UNL A   1      32.478  29.566  22.985  1.00  0.00     0.156 HD
ATOM     16  H   UNL A   1      31.830  29.471  21.411  1.00  0.00     0.156 HD
ENDBRANCH   9  14
BRANCH  10  17
ATOM     17  C   UNL A   1      29.010  30.155  22.366  1.00  0.00    -0.010 A 
ATOM     18  C   UNL A   1      29.134  31.338  23.116  1.00  0.00     0.051 A 
ATOM     19  C   UNL A   1      28.376  30.238  21.111  1.00  0.00     0.051 A 
ATOM     20  C   UNL A   1      28.635  32.545  22.624  1.00  0.00     0.162 A 
ATOM     21  C   UNL A   1      27.894  31.453  20.630  1.00  0.00     0.162 A 
ATOM     22  F   UNL A   1      28.740  33.648  23.378  1.00  0.00    -0.204 F 
ATOM     23  C   UNL A   1      28.015  32.608  21.385  1.00  0.00     0.194 A 
ATOM     24  F   UNL A   1      27.286  31.488  19.436  1.00  0.00    -0.204 F 
ATOM     25  F   UNL A   1      27.523  33.769  20.931  1.00  0.00    -0.200 F 
ENDBRANCH  10  17
ENDBRANCH   6   8
ENDBRANCH   5   6
ENDBRANCH   4   5
ENDBRANCH   3   4
ENDBRANCH   2   3
ENDBRANCH   1   2
BRANCH   1  26
ATOM     26  C   UNL A   1      32.007  30.818  26.435  1.00  0.00     0.261 C 
BRANCH  26  27
ATOM     27  O   UNL A   1      32.771  31.043  27.632  1.00  0.00    -0.460 OA
BRANCH  27  28
ATOM     28  C   UNL A   1      33.678  32.045  27.542  1.00  0.00     0.338 C 
ATOM     29  O   UNL A   1      33.448  33.221  27.287  1.00  0.00    -0.246 OA
BRANCH  28  30
ATOM     30  C   UNL A   1      35.002  31.571  27.984  1.00  0.00     0.060 A 
ATOM     31  C   UNL A   1      35.112  30.231  28.378  1.00  0.00     0.016 A 
ATOM     32  C   UNL A   1      36.101  32.429  28.077  1.00  0.00     0.016 A 
ATOM     33  C   UNL A   1      36.307  29.754  28.910  1.00  0.00     0.010 A 
ATOM     34  C   UNL A   1      37.299  31.949  28.619  1.00  0.00     0.010 A 
ATOM     35  C   UNL A   1      37.397  30.619  29.068  1.00  0.00    -0.014 A 
BRANCH  35  36
ATOM     36  C   UNL A   1      38.584  30.167  29.838  1.00  0.00     0.031 A 
ATOM     37  C   UNL A   1      39.491  29.131  29.235  1.00  0.00     0.074 A 
ATOM     38  C   UNL A   1      38.863  30.695  31.043  1.00  0.00     0.049 A 
ATOM     39  N   UNL A   1      40.561  28.567  29.735  1.00  0.00    -0.248 NA
ATOM     40  C   UNL A   1      39.140  28.664  27.885  1.00  0.00     0.031 C 
ATOM     41  C   UNL A   1      38.084  31.737  31.708  1.00  0.00     0.029 A 
ATOM     42  N   UNL A   1      39.881  30.423  31.923  1.00  0.00    -0.354 N 
ATOM     43  C   UNL A   1      41.009  27.675  28.766  1.00  0.00     0.074 A 
ATOM     44  C   UNL A   1      40.069  27.746  27.667  1.00  0.00     0.031 C 
ATOM     45  C   UNL A   1      38.650  32.014  32.896  1.00  0.00     0.029 A 
ATOM     46  C   UNL A   1      39.807  31.142  33.091  1.00  0.00     0.049 A 
ATOM     47  H   UNL A   1      40.597  29.773  31.734  1.00  0.00     0.167 HD
ATOM     48  C   UNL A   1      42.106  26.879  28.789  1.00  0.00     0.034 A 
ATOM     49  C   UNL A   1      40.571  31.086  34.201  1.00  0.00     0.034 A 
ATOM     50  C   UNL A   1      43.027  26.814  29.898  1.00  0.00     0.049 A 
ATOM     51  C   UNL A   1      41.735  30.126  34.241  1.00  0.00     0.074 A 
ATOM     52  C   UNL A   1      44.182  26.061  30.017  1.00  0.00     0.029 A 
ATOM     53  N   UNL A   1      42.889  27.516  31.090  1.00  0.00    -0.354 N 
ATOM     54  N   UNL A   1      42.157  29.295  33.314  1.00  0.00    -0.248 NA
ATOM     55  C   UNL A   1      42.529  30.099  35.477  1.00  0.00     0.031 C 
ATOM     56  C   UNL A   1      44.698  26.248  31.305  1.00  0.00     0.029 A 
ATOM     57  C   UNL A   1      43.914  27.182  31.962  1.00  0.00     0.049 A 
ATOM     58  H   UNL A   1      42.168  28.157  31.285  1.00  0.00     0.167 HD
ATOM     59  C   UNL A   1      43.285  28.674  33.845  1.00  0.00     0.074 A 
ATOM     60  C   UNL A   1      43.482  29.232  35.167  1.00  0.00     0.031 C 
ATOM     61  C   UNL A   1      44.090  27.734  33.287  1.00  0.00     0.034 A 
BRANCH  48  62
ATOM     62  C   UNL A   1      42.330  25.975  27.598  1.00  0.00     0.023 A 
ATOM     63  C   UNL A   1      41.879  24.643  27.579  1.00  0.00     0.031 A 
ATOM     64  C   UNL A   1      43.042  26.443  26.480  1.00  0.00     0.131 A 
ATOM     65  C   UNL A   1      42.214  23.805  26.505  1.00  0.00     0.055 A 
ATOM     66  C   UNL A   1      43.301  25.626  25.376  1.00  0.00     0.041 A 
ATOM     67  F   UNL A   1      43.519  27.697  26.447  1.00  0.00    -0.206 F 
ATOM     68  C   UNL A   1      42.900  24.294  25.392  1.00  0.00     0.022 A 
BRANCH  65  69
ATOM     69  S   UNL A   1      41.880  22.028  26.656  1.00  0.00     0.124 S 
ATOM     70  O   UNL A   1      41.769  21.870  28.104  1.00  0.00    -0.237 OA
ATOM     71  O   UNL A   1      40.644  21.875  25.899  1.00  0.00    -0.237 OA
ATOM     72  O   UNL A   1      43.060  21.406  26.059  1.00  0.00    -0.744 OA
ENDBRANCH  65  69
ENDBRANCH  48  62
BRANCH  49  73
ATOM     73  C   UNL A   1      40.246  31.934  35.383  1.00  0.00     0.023 A 
ATOM     74  C   UNL A   1      39.257  31.552  36.302  1.00  0.00     0.031 A 
ATOM     75  C   UNL A   1      40.895  33.165  35.586  1.00  0.00     0.131 A 
ATOM     76  C   UNL A   1      38.915  32.410  37.359  1.00  0.00     0.055 A 
ATOM     77  C   UNL A   1      40.587  33.993  36.667  1.00  0.00     0.041 A 
ATOM     78  F   UNL A   1      41.849  33.579  34.737  1.00  0.00    -0.206 F 
ATOM     79  C   UNL A   1      39.582  33.621  37.555  1.00  0.00     0.022 A 
BRANCH  76  80
ATOM     80  S   UNL A   1      37.530  31.953  38.436  1.00  0.00     0.124 S 
ATOM     81  O   UNL A   1      37.263  30.583  38.012  1.00  0.00    -0.237 OA
ATOM     82  O   UNL A   1      38.114  32.111  39.764  1.00  0.00    -0.237 OA
ATOM     83  O   UNL A   1      36.496  32.927  38.093  1.00  0.00    -0.744 OA
ENDBRANCH  76  80
ENDBRANCH  49  73
BRANCH  61  84
ATOM     84  C   UNL A   1      45.287  27.285  34.093  1.00  0.00     0.023 A 
ATOM     85  C   UNL A   1      45.228  26.176  34.954  1.00  0.00     0.031 A 
ATOM     86  C   UNL A   1      46.502  27.989  34.005  1.00  0.00     0.131 A 
ATOM     87  C   UNL A   1      46.346  25.835  35.734  1.00  0.00     0.055 A 
ATOM     88  C   UNL A   1      47.628  27.609  34.735  1.00  0.00     0.041 A 
ATOM     89  F   UNL A   1      46.615  29.059  33.200  1.00  0.00    -0.206 F 
ATOM     90  C   UNL A   1      47.550  26.534  35.615  1.00  0.00     0.022 A 
BRANCH  87  91
ATOM     91  S   UNL A   1      46.178  24.522  36.974  1.00  0.00     0.124 S 
ATOM     92  O   UNL A   1      44.742  24.264  36.950  1.00  0.00    -0.237 OA
ATOM     93  O   UNL A   1      47.025  23.466  36.427  1.00  0.00    -0.237 OA
ATOM     94  O   UNL A   1      46.676  25.142  38.200  1.00  0.00    -0.744 OA
ENDBRANCH  87  91
ENDBRANCH  61  84
ENDBRANCH  35  36
ENDBRANCH  28  30
ENDBRANCH  27  28
ENDBRANCH  26  27
ENDBRANCH   1  26
TORSDOF 19
ENDMDL
