MODEL 1
REMARK VINA RESULT:     -11.6      0.000      0.000
REMARK SMILES CCCc1cc(OC(F)(F)F)cc2c1O[C@H](C(F)(F)F)C(C(=O)OCCOCCOC(=O)c1ccc(-c3c4nc(c(-c5cc(S(=O)(=O)[O-])ccc5F)c5ccc([nH]5)c(-c5cc(S(=O)(=O)[O-])ccc5F)c5nc(c(-c6cc(S(=O)(=O)[O-])ccc6F)c6ccc3[nH]6)C=C5)C=C4)cc1)=C2
REMARK SMILES IDX 28 1 27 2 26 3 25 4 24 5 22 6 23 7 21 8 4 9 5 10 14 11 6 12
REMARK SMILES IDX 13 13 15 14 12 15 96 16 16 17 3 18 2 19 1 20 7 21 8 22 9 23
REMARK SMILES IDX 10 24 11 25 17 26 18 27 19 28 20 29 29 30 30 31 31 32 32 33
REMARK SMILES IDX 33 34 34 35 95 36 35 37 94 38 36 39 37 40 38 41 88 42 39 43
REMARK SMILES IDX 93 44 87 45 89 46 40 47 92 48 86 49 85 50 41 52 73 53 53 54
REMARK SMILES IDX 72 55 54 56 57 57 71 58 90 59 55 60 56 61 70 63 91 64 58 65
REMARK SMILES IDX 42 66 43 67 51 68 44 69 50 70 52 71 49 72 45 73 46 74 47 75
REMARK SMILES IDX 48 76 74 77 75 78 83 79 76 80 82 81 84 82 81 83 77 84 78 85
REMARK SMILES IDX 79 86 80 87 59 88 60 89 68 90 61 91 67 92 69 93 66 94 62 95
REMARK SMILES IDX 63 96 64 97 65 98
REMARK H PARENT 89 51 57 62
REMARK Flexibility Score: inf
ROOT
ATOM      1  C   UNL A   1      35.564  20.182  24.922  1.00  0.00     0.202 C 
ENDROOT
BRANCH   1   2
ATOM      2  O   UNL A   1      34.989  21.344  25.508  1.00  0.00    -0.374 OA
BRANCH   2   3
ATOM      3  C   UNL A   1      33.716  21.216  26.140  1.00  0.00     0.202 C 
BRANCH   3   4
ATOM      4  C   UNL A   1      32.510  20.826  25.279  1.00  0.00     0.261 C 
BRANCH   4   5
ATOM      5  O   UNL A   1      31.733  21.967  24.861  1.00  0.00    -0.460 OA
BRANCH   5   6
ATOM      6  C   UNL A   1      32.114  22.486  23.673  1.00  0.00     0.338 C 
ATOM      7  O   UNL A   1      32.276  21.862  22.632  1.00  0.00    -0.246 OA
BRANCH   6   8
ATOM      8  C   UNL A   1      32.201  23.959  23.697  1.00  0.00     0.087 C 
ATOM      9  C   UNL A   1      31.247  27.713  25.162  1.00  0.00    -0.002 A 
ATOM     10  C   UNL A   1      30.690  28.669  24.297  1.00  0.00     0.054 A 
ATOM     11  C   UNL A   1      31.552  26.459  24.631  1.00  0.00     0.131 A 
ATOM     12  C   UNL A   1      30.437  28.367  22.950  1.00  0.00     0.130 A 
ATOM     13  C   UNL A   1      31.291  26.124  23.291  1.00  0.00     0.021 A 
ATOM     14  O   UNL A   1      32.097  25.560  25.502  1.00  0.00    -0.475 OA
ATOM     15  C   UNL A   1      30.737  27.090  22.454  1.00  0.00     0.058 A 
ATOM     16  C   UNL A   1      31.488  24.733  22.864  1.00  0.00     0.027 C 
ATOM     17  C   UNL A   1      32.896  24.529  24.909  1.00  0.00     0.316 C 
BRANCH   9  18
ATOM     18  C   UNL A   1      31.606  28.067  26.593  1.00  0.00     0.039 C 
BRANCH  18  19
ATOM     19  C   UNL A   1      32.573  29.245  26.827  1.00  0.00     0.001 C 
ATOM     20  C   UNL A   1      34.058  28.900  26.927  1.00  0.00     0.004 C 
ENDBRANCH  18  19
ENDBRANCH   9  18
BRANCH  12  21
ATOM     21  O   UNL A   1      29.903  29.216  22.020  1.00  0.00    -0.406 OA
BRANCH  21  22
ATOM     22  C   UNL A   1      28.549  29.603  22.172  1.00  0.00     0.573 C 
ATOM     23  F   UNL A   1      28.015  29.988  20.993  1.00  0.00    -0.132 F 
ATOM     24  F   UNL A   1      27.810  28.598  22.690  1.00  0.00    -0.132 F 
ATOM     25  F   UNL A   1      28.485  30.650  23.024  1.00  0.00    -0.132 F 
ENDBRANCH  21  22
ENDBRANCH  12  21
BRANCH  17  26
ATOM     26  C   UNL A   1      34.331  25.052  24.718  1.00  0.00     0.430 C 
ATOM     27  F   UNL A   1      35.168  24.137  24.180  1.00  0.00    -0.167 F 
ATOM     28  F   UNL A   1      34.334  26.126  23.886  1.00  0.00    -0.167 F 
ATOM     29  F   UNL A   1      34.897  25.466  25.871  1.00  0.00    -0.167 F 
ENDBRANCH  17  26
ENDBRANCH   6   8
ENDBRANCH   5   6
ENDBRANCH   4   5
ENDBRANCH   3   4
ENDBRANCH   2   3
ENDBRANCH   1   2
BRANCH   1  30
ATOM     30  C   UNL A   1      37.084  19.993  24.956  1.00  0.00     0.261 C 
BRANCH  30  31
ATOM     31  O   UNL A   1      37.787  21.157  25.411  1.00  0.00    -0.460 OA
BRANCH  31  32
ATOM     32  C   UNL A   1      39.007  20.895  25.937  1.00  0.00     0.338 C 
ATOM     33  O   UNL A   1      39.666  19.872  25.796  1.00  0.00    -0.246 OA
BRANCH  32  34
ATOM     34  C   UNL A   1      39.545  22.114  26.556  1.00  0.00     0.060 A 
ATOM     35  C   UNL A   1      39.045  23.347  26.112  1.00  0.00     0.016 A 
ATOM     36  C   UNL A   1      40.556  22.055  27.516  1.00  0.00     0.016 A 
ATOM     37  C   UNL A   1      39.587  24.532  26.599  1.00  0.00     0.010 A 
ATOM     38  C   UNL A   1      41.107  23.245  27.993  1.00  0.00     0.010 A 
ATOM     39  C   UNL A   1      40.646  24.485  27.511  1.00  0.00    -0.014 A 
BRANCH  39  40
ATOM     40  C   UNL A   1      41.392  25.721  27.838  1.00  0.00     0.031 A 
ATOM     41  C   UNL A   1      40.669  26.820  28.565  1.00  0.00     0.074 A 
ATOM     42  C   UNL A   1      42.683  25.856  27.493  1.00  0.00     0.049 A 
ATOM     43  N   UNL A   1      41.071  28.027  28.858  1.00  0.00    -0.248 NA
ATOM     44  C   UNL A   1      39.302  26.513  29.015  1.00  0.00     0.031 C 
ATOM     45  C   UNL A   1      43.492  24.828  26.837  1.00  0.00     0.029 A 
ATOM     46  N   UNL A   1      43.537  26.920  27.632  1.00  0.00    -0.354 N 
ATOM     47  C   UNL A   1      40.004  28.632  29.513  1.00  0.00     0.074 A 
ATOM     48  C   UNL A   1      38.926  27.667  29.544  1.00  0.00     0.031 C 
ATOM     49  C   UNL A   1      44.722  25.321  26.615  1.00  0.00     0.029 A 
ATOM     50  C   UNL A   1      44.773  26.710  27.067  1.00  0.00     0.049 A 
ATOM     51  H   UNL A   1      43.289  27.753  28.093  1.00  0.00     0.167 HD
ATOM     52  C   UNL A   1      39.937  29.876  30.046  1.00  0.00     0.034 A 
ATOM     53  C   UNL A   1      45.808  27.558  26.902  1.00  0.00     0.034 A 
ATOM     54  C   UNL A   1      41.024  30.822  29.993  1.00  0.00     0.049 A 
ATOM     55  C   UNL A   1      45.676  28.973  27.415  1.00  0.00     0.074 A 
ATOM     56  C   UNL A   1      41.076  32.107  30.503  1.00  0.00     0.029 A 
ATOM     57  N   UNL A   1      42.249  30.590  29.379  1.00  0.00    -0.354 N 
ATOM     58  N   UNL A   1      44.662  29.537  28.031  1.00  0.00    -0.248 NA
ATOM     59  C   UNL A   1      46.828  29.862  27.215  1.00  0.00     0.031 C 
ATOM     60  C   UNL A   1      42.298  32.676  30.133  1.00  0.00     0.029 A 
ATOM     61  C   UNL A   1      43.048  31.719  29.468  1.00  0.00     0.049 A 
ATOM     62  H   UNL A   1      42.511  29.746  28.943  1.00  0.00     0.167 HD
ATOM     63  C   UNL A   1      45.072  30.836  28.326  1.00  0.00     0.074 A 
ATOM     64  C   UNL A   1      46.424  30.967  27.824  1.00  0.00     0.031 C 
ATOM     65  C   UNL A   1      44.396  31.829  28.960  1.00  0.00     0.034 A 
BRANCH  52  66
ATOM     66  C   UNL A   1      38.631  30.295  30.675  1.00  0.00     0.023 A 
ATOM     67  C   UNL A   1      37.665  31.027  29.962  1.00  0.00     0.031 A 
ATOM     68  C   UNL A   1      38.359  29.983  32.019  1.00  0.00     0.131 A 
ATOM     69  C   UNL A   1      36.508  31.481  30.615  1.00  0.00     0.055 A 
ATOM     70  C   UNL A   1      37.169  30.367  32.640  1.00  0.00     0.041 A 
ATOM     71  F   UNL A   1      39.256  29.309  32.759  1.00  0.00    -0.206 F 
ATOM     72  C   UNL A   1      36.242  31.133  31.941  1.00  0.00     0.022 A 
BRANCH  69  73
ATOM     73  S   UNL A   1      35.428  32.653  29.750  1.00  0.00     0.124 S 
ATOM     74  O   UNL A   1      34.846  33.396  30.865  1.00  0.00    -0.237 OA
ATOM     75  O   UNL A   1      36.369  33.390  28.914  1.00  0.00    -0.237 OA
ATOM     76  O   UNL A   1      34.494  31.792  29.029  1.00  0.00    -0.744 OA
ENDBRANCH  69  73
ENDBRANCH  52  66
BRANCH  53  77
ATOM     77  C   UNL A   1      47.039  27.118  26.185  1.00  0.00     0.023 A 
ATOM     78  C   UNL A   1      48.064  26.434  26.857  1.00  0.00     0.031 A 
ATOM     79  C   UNL A   1      47.235  27.425  24.826  1.00  0.00     0.131 A 
ATOM     80  C   UNL A   1      49.256  26.123  26.186  1.00  0.00     0.055 A 
ATOM     81  C   UNL A   1      48.398  27.062  24.147  1.00  0.00     0.041 A 
ATOM     82  F   UNL A   1      46.289  28.079  24.133  1.00  0.00    -0.206 F 
ATOM     83  C   UNL A   1      49.425  26.419  24.831  1.00  0.00     0.022 A 
BRANCH  80  84
ATOM     84  S   UNL A   1      50.626  25.411  27.137  1.00  0.00     0.124 S 
ATOM     85  O   UNL A   1      51.015  26.534  27.982  1.00  0.00    -0.237 OA
ATOM     86  O   UNL A   1      49.975  24.293  27.812  1.00  0.00    -0.237 OA
ATOM     87  O   UNL A   1      51.595  25.037  26.108  1.00  0.00    -0.744 OA
ENDBRANCH  80  84
ENDBRANCH  53  77
BRANCH  65  88
ATOM     88  C   UNL A   1      45.135  33.122  29.204  1.00  0.00     0.023 A 
ATOM     89  C   UNL A   1      44.999  34.231  28.351  1.00  0.00     0.031 A 
ATOM     90  C   UNL A   1      45.976  33.248  30.325  1.00  0.00     0.131 A 
ATOM     91  C   UNL A   1      45.730  35.401  28.606  1.00  0.00     0.055 A 
ATOM     92  C   UNL A   1      46.653  34.435  30.607  1.00  0.00     0.041 A 
ATOM     93  F   UNL A   1      46.143  32.221  31.172  1.00  0.00    -0.206 F 
ATOM     94  C   UNL A   1      46.539  35.517  29.739  1.00  0.00     0.022 A 
BRANCH  91  95
ATOM     95  S   UNL A   1      45.669  36.749  27.395  1.00  0.00     0.124 S 
ATOM     96  O   UNL A   1      46.739  36.378  26.474  1.00  0.00    -0.237 OA
ATOM     97  O   UNL A   1      44.311  36.639  26.871  1.00  0.00    -0.237 OA
ATOM     98  O   UNL A   1      45.928  37.944  28.197  1.00  0.00    -0.744 OA
ENDBRANCH  91  95
ENDBRANCH  65  88
ENDBRANCH  39  40
ENDBRANCH  32  34
ENDBRANCH  31  32
ENDBRANCH  30  31
ENDBRANCH   1  30
TORSDOF 22
ENDMDL
MODEL 2
REMARK VINA RESULT:     -11.4      4.282      9.770
REMARK SMILES CCCc1cc(OC(F)(F)F)cc2c1O[C@H](C(F)(F)F)C(C(=O)OCCOCCOC(=O)c1ccc(-c3c4nc(c(-c5cc(S(=O)(=O)[O-])ccc5F)c5ccc([nH]5)c(-c5cc(S(=O)(=O)[O-])ccc5F)c5nc(c(-c6cc(S(=O)(=O)[O-])ccc6F)c6ccc3[nH]6)C=C5)C=C4)cc1)=C2
REMARK SMILES IDX 28 1 27 2 26 3 25 4 24 5 22 6 23 7 21 8 4 9 5 10 14 11 6 12
REMARK SMILES IDX 13 13 15 14 12 15 96 16 16 17 3 18 2 19 1 20 7 21 8 22 9 23
REMARK SMILES IDX 10 24 11 25 17 26 18 27 19 28 20 29 29 30 30 31 31 32 32 33
REMARK SMILES IDX 33 34 34 35 95 36 35 37 94 38 36 39 37 40 38 41 88 42 39 43
REMARK SMILES IDX 93 44 87 45 89 46 40 47 92 48 86 49 85 50 41 52 73 53 53 54
REMARK SMILES IDX 72 55 54 56 57 57 71 58 90 59 55 60 56 61 70 63 91 64 58 65
REMARK SMILES IDX 42 66 43 67 51 68 44 69 50 70 52 71 49 72 45 73 46 74 47 75
REMARK SMILES IDX 48 76 74 77 75 78 83 79 76 80 82 81 84 82 81 83 77 84 78 85
REMARK SMILES IDX 79 86 80 87 59 88 60 89 68 90 61 91 67 92 69 93 66 94 62 95
REMARK SMILES IDX 63 96 64 97 65 98
REMARK H PARENT 89 51 57 62
REMARK Flexibility Score: inf
ROOT
ATOM      1  C   UNL A   1      31.709  29.377  24.681  1.00  0.00     0.202 C 
ENDROOT
BRANCH   1   2
ATOM      2  O   UNL A   1      30.697  29.312  23.682  1.00  0.00    -0.374 OA
BRANCH   2   3
ATOM      3  C   UNL A   1      30.823  28.319  22.666  1.00  0.00     0.202 C 
BRANCH   3   4
ATOM      4  C   UNL A   1      31.132  26.878  23.088  1.00  0.00     0.261 C 
BRANCH   4   5
ATOM      5  O   UNL A   1      31.239  25.981  21.965  1.00  0.00    -0.460 OA
BRANCH   5   6
ATOM      6  C   UNL A   1      32.492  25.524  21.744  1.00  0.00     0.338 C 
ATOM      7  O   UNL A   1      33.238  25.876  20.840  1.00  0.00    -0.246 OA
BRANCH   6   8
ATOM      8  C   UNL A   1      32.962  24.614  22.806  1.00  0.00     0.087 C 
ATOM      9  C   UNL A   1      35.629  21.927  24.485  1.00  0.00    -0.002 A 
ATOM     10  C   UNL A   1      35.180  20.646  24.847  1.00  0.00     0.054 A 
ATOM     11  C   UNL A   1      34.701  22.802  23.920  1.00  0.00     0.131 A 
ATOM     12  C   UNL A   1      33.849  20.258  24.633  1.00  0.00     0.130 A 
ATOM     13  C   UNL A   1      33.366  22.432  23.677  1.00  0.00     0.021 A 
ATOM     14  O   UNL A   1      35.174  24.038  23.588  1.00  0.00    -0.475 OA
ATOM     15  C   UNL A   1      32.947  21.156  24.044  1.00  0.00     0.058 A 
ATOM     16  C   UNL A   1      32.507  23.357  22.927  1.00  0.00     0.027 C 
ATOM     17  C   UNL A   1      34.195  25.084  23.538  1.00  0.00     0.316 C 
BRANCH   9  18
ATOM     18  C   UNL A   1      37.043  22.379  24.800  1.00  0.00     0.039 C 
BRANCH  18  19
ATOM     19  C   UNL A   1      37.315  22.990  26.189  1.00  0.00     0.001 C 
ATOM     20  C   UNL A   1      38.465  23.991  26.282  1.00  0.00     0.004 C 
ENDBRANCH  18  19
ENDBRANCH   9  18
BRANCH  12  21
ATOM     21  O   UNL A   1      33.303  19.043  24.946  1.00  0.00    -0.406 OA
BRANCH  21  22
ATOM     22  C   UNL A   1      33.528  17.963  24.058  1.00  0.00     0.573 C 
ATOM     23  F   UNL A   1      34.846  17.692  23.941  1.00  0.00    -0.132 F 
ATOM     24  F   UNL A   1      32.878  16.852  24.469  1.00  0.00    -0.132 F 
ATOM     25  F   UNL A   1      33.058  18.295  22.836  1.00  0.00    -0.132 F 
ENDBRANCH  21  22
ENDBRANCH  12  21
BRANCH  17  26
ATOM     26  C   UNL A   1      33.999  25.657  24.953  1.00  0.00     0.430 C 
ATOM     27  F   UNL A   1      32.839  25.271  25.532  1.00  0.00    -0.167 F 
ATOM     28  F   UNL A   1      35.004  25.246  25.771  1.00  0.00    -0.167 F 
ATOM     29  F   UNL A   1      34.017  27.006  24.982  1.00  0.00    -0.167 F 
ENDBRANCH  17  26
ENDBRANCH   6   8
ENDBRANCH   5   6
ENDBRANCH   4   5
ENDBRANCH   3   4
ENDBRANCH   2   3
ENDBRANCH   1   2
BRANCH   1  30
ATOM     30  C   UNL A   1      31.566  30.374  25.836  1.00  0.00     0.261 C 
BRANCH  30  31
ATOM     31  O   UNL A   1      32.604  30.252  26.817  1.00  0.00    -0.460 OA
BRANCH  31  32
ATOM     32  C   UNL A   1      33.159  31.431  27.185  1.00  0.00     0.338 C 
ATOM     33  O   UNL A   1      32.591  32.511  27.294  1.00  0.00    -0.246 OA
BRANCH  32  34
ATOM     34  C   UNL A   1      34.536  31.202  27.645  1.00  0.00     0.060 A 
ATOM     35  C   UNL A   1      34.916  29.884  27.936  1.00  0.00     0.016 A 
ATOM     36  C   UNL A   1      35.422  32.263  27.838  1.00  0.00     0.016 A 
ATOM     37  C   UNL A   1      36.177  29.626  28.463  1.00  0.00     0.010 A 
ATOM     38  C   UNL A   1      36.682  32.002  28.378  1.00  0.00     0.010 A 
ATOM     39  C   UNL A   1      37.050  30.688  28.722  1.00  0.00    -0.014 A 
BRANCH  39  40
ATOM     40  C   UNL A   1      38.281  30.454  29.510  1.00  0.00     0.031 A 
ATOM     41  C   UNL A   1      39.339  29.557  28.931  1.00  0.00     0.074 A 
ATOM     42  C   UNL A   1      38.446  31.029  30.713  1.00  0.00     0.049 A 
ATOM     43  N   UNL A   1      40.441  29.115  29.475  1.00  0.00    -0.248 NA
ATOM     44  C   UNL A   1      39.116  29.092  27.554  1.00  0.00     0.031 C 
ATOM     45  C   UNL A   1      37.506  31.959  31.339  1.00  0.00     0.029 A 
ATOM     46  N   UNL A   1      39.458  30.903  31.630  1.00  0.00    -0.354 N 
ATOM     47  C   UNL A   1      41.038  28.307  28.513  1.00  0.00     0.074 A 
ATOM     48  C   UNL A   1      40.157  28.296  27.366  1.00  0.00     0.031 C 
ATOM     49  C   UNL A   1      37.980  32.307  32.548  1.00  0.00     0.029 A 
ATOM     50  C   UNL A   1      39.227  31.587  32.801  1.00  0.00     0.049 A 
ATOM     51  H   UNL A   1      40.271  30.374  31.466  1.00  0.00     0.167 HD
ATOM     52  C   UNL A   1      42.218  27.644  28.583  1.00  0.00     0.034 A 
ATOM     53  C   UNL A   1      39.925  31.596  33.953  1.00  0.00     0.034 A 
ATOM     54  C   UNL A   1      43.073  27.665  29.743  1.00  0.00     0.049 A 
ATOM     55  C   UNL A   1      41.187  30.771  34.045  1.00  0.00     0.074 A 
ATOM     56  C   UNL A   1      44.293  27.040  29.927  1.00  0.00     0.029 A 
ATOM     57  N   UNL A   1      42.790  28.338  30.926  1.00  0.00    -0.354 N 
ATOM     58  N   UNL A   1      41.742  30.007  33.132  1.00  0.00    -0.248 NA
ATOM     59  C   UNL A   1      41.917  30.811  35.319  1.00  0.00     0.031 C 
ATOM     60  C   UNL A   1      44.709  27.271  31.242  1.00  0.00     0.029 A 
ATOM     61  C   UNL A   1      43.795  28.114  31.853  1.00  0.00     0.049 A 
ATOM     62  H   UNL A   1      41.991  28.893  31.082  1.00  0.00     0.167 HD
ATOM     63  C   UNL A   1      42.908  29.508  33.710  1.00  0.00     0.074 A 
ATOM     64  C   UNL A   1      42.975  30.061  35.047  1.00  0.00     0.031 C 
ATOM     65  C   UNL A   1      43.843  28.676  33.184  1.00  0.00     0.034 A 
BRANCH  52  66
ATOM     66  C   UNL A   1      42.614  26.802  27.395  1.00  0.00     0.023 A 
ATOM     67  C   UNL A   1      42.410  25.411  27.370  1.00  0.00     0.031 A 
ATOM     68  C   UNL A   1      43.234  27.395  26.281  1.00  0.00     0.131 A 
ATOM     69  C   UNL A   1      42.883  24.653  26.288  1.00  0.00     0.055 A 
ATOM     70  C   UNL A   1      43.630  26.646  25.171  1.00  0.00     0.041 A 
ATOM     71  F   UNL A   1      43.481  28.715  26.258  1.00  0.00    -0.206 F 
ATOM     72  C   UNL A   1      43.468  25.264  25.176  1.00  0.00     0.022 A 
BRANCH  69  73
ATOM     73  S   UNL A   1      42.856  22.844  26.419  1.00  0.00     0.124 S 
ATOM     74  O   UNL A   1      42.702  22.449  25.021  1.00  0.00    -0.237 OA
ATOM     75  O   UNL A   1      44.149  22.553  27.027  1.00  0.00    -0.237 OA
ATOM     76  O   UNL A   1      41.694  22.579  27.265  1.00  0.00    -0.744 OA
ENDBRANCH  69  73
ENDBRANCH  52  66
BRANCH  53  77
ATOM     77  C   UNL A   1      39.434  32.371  35.129  1.00  0.00     0.023 A 
ATOM     78  C   UNL A   1      38.807  31.731  36.208  1.00  0.00     0.031 A 
ATOM     79  C   UNL A   1      39.535  33.775  35.165  1.00  0.00     0.131 A 
ATOM     80  C   UNL A   1      38.261  32.492  37.254  1.00  0.00     0.055 A 
ATOM     81  C   UNL A   1      39.043  34.523  36.235  1.00  0.00     0.041 A 
ATOM     82  F   UNL A   1      40.124  34.440  34.159  1.00  0.00    -0.206 F 
ATOM     83  C   UNL A   1      38.387  33.883  37.282  1.00  0.00     0.022 A 
BRANCH  80  84
ATOM     84  S   UNL A   1      37.295  31.642  38.532  1.00  0.00     0.124 S 
ATOM     85  O   UNL A   1      37.167  30.304  37.965  1.00  0.00    -0.237 OA
ATOM     86  O   UNL A   1      38.162  31.767  39.698  1.00  0.00    -0.237 OA
ATOM     87  O   UNL A   1      36.057  32.417  38.592  1.00  0.00    -0.744 OA
ENDBRANCH  80  84
ENDBRANCH  53  77
BRANCH  65  88
ATOM     88  C   UNL A   1      45.050  28.365  34.034  1.00  0.00     0.023 A 
ATOM     89  C   UNL A   1      46.222  29.139  33.977  1.00  0.00     0.031 A 
ATOM     90  C   UNL A   1      45.015  27.283  34.933  1.00  0.00     0.131 A 
ATOM     91  C   UNL A   1      47.326  28.792  34.769  1.00  0.00     0.055 A 
ATOM     92  C   UNL A   1      46.094  26.980  35.762  1.00  0.00     0.041 A 
ATOM     93  F   UNL A   1      43.921  26.510  35.028  1.00  0.00    -0.206 F 
ATOM     94  C   UNL A   1      47.263  27.730  35.676  1.00  0.00     0.022 A 
BRANCH  91  95
ATOM     95  S   UNL A   1      48.880  29.701  34.546  1.00  0.00     0.124 S 
ATOM     96  O   UNL A   1      49.663  28.769  33.740  1.00  0.00    -0.237 OA
ATOM     97  O   UNL A   1      48.438  30.915  33.867  1.00  0.00    -0.237 OA
ATOM     98  O   UNL A   1      49.363  29.896  35.911  1.00  0.00    -0.744 OA
ENDBRANCH  91  95
ENDBRANCH  65  88
ENDBRANCH  39  40
ENDBRANCH  32  34
ENDBRANCH  31  32
ENDBRANCH  30  31
ENDBRANCH   1  30
TORSDOF 22
ENDMDL
MODEL 3
REMARK VINA RESULT:     -11.4      4.618     10.131
REMARK SMILES CCCc1cc(OC(F)(F)F)cc2c1O[C@H](C(F)(F)F)C(C(=O)OCCOCCOC(=O)c1ccc(-c3c4nc(c(-c5cc(S(=O)(=O)[O-])ccc5F)c5ccc([nH]5)c(-c5cc(S(=O)(=O)[O-])ccc5F)c5nc(c(-c6cc(S(=O)(=O)[O-])ccc6F)c6ccc3[nH]6)C=C5)C=C4)cc1)=C2
REMARK SMILES IDX 28 1 27 2 26 3 25 4 24 5 22 6 23 7 21 8 4 9 5 10 14 11 6 12
REMARK SMILES IDX 13 13 15 14 12 15 96 16 16 17 3 18 2 19 1 20 7 21 8 22 9 23
REMARK SMILES IDX 10 24 11 25 17 26 18 27 19 28 20 29 29 30 30 31 31 32 32 33
REMARK SMILES IDX 33 34 34 35 95 36 35 37 94 38 36 39 37 40 38 41 88 42 39 43
REMARK SMILES IDX 93 44 87 45 89 46 40 47 92 48 86 49 85 50 41 52 73 53 53 54
REMARK SMILES IDX 72 55 54 56 57 57 71 58 90 59 55 60 56 61 70 63 91 64 58 65
REMARK SMILES IDX 42 66 43 67 51 68 44 69 50 70 52 71 49 72 45 73 46 74 47 75
REMARK SMILES IDX 48 76 74 77 75 78 83 79 76 80 82 81 84 82 81 83 77 84 78 85
REMARK SMILES IDX 79 86 80 87 59 88 60 89 68 90 61 91 67 92 69 93 66 94 62 95
REMARK SMILES IDX 63 96 64 97 65 98
REMARK H PARENT 89 51 57 62
REMARK Flexibility Score: inf
ROOT
ATOM      1  C   UNL A   1      31.509  29.286  24.929  1.00  0.00     0.202 C 
ENDROOT
BRANCH   1   2
ATOM      2  O   UNL A   1      30.821  29.289  23.683  1.00  0.00    -0.374 OA
BRANCH   2   3
ATOM      3  C   UNL A   1      31.244  28.365  22.682  1.00  0.00     0.202 C 
BRANCH   3   4
ATOM      4  C   UNL A   1      30.910  26.880  22.872  1.00  0.00     0.261 C 
BRANCH   4   5
ATOM      5  O   UNL A   1      31.421  26.055  21.806  1.00  0.00    -0.460 OA
BRANCH   5   6
ATOM      6  C   UNL A   1      32.669  25.584  22.024  1.00  0.00     0.338 C 
ATOM      7  O   UNL A   1      33.706  26.063  21.586  1.00  0.00    -0.246 OA
BRANCH   6   8
ATOM      8  C   UNL A   1      32.695  24.465  22.986  1.00  0.00     0.087 C 
ATOM      9  C   UNL A   1      34.555  21.436  25.111  1.00  0.00    -0.002 A 
ATOM     10  C   UNL A   1      34.089  20.117  24.982  1.00  0.00     0.054 A 
ATOM     11  C   UNL A   1      33.904  22.427  24.376  1.00  0.00     0.131 A 
ATOM     12  C   UNL A   1      33.015  19.809  24.132  1.00  0.00     0.130 A 
ATOM     13  C   UNL A   1      32.839  22.143  23.503  1.00  0.00     0.021 A 
ATOM     14  O   UNL A   1      34.382  23.696  24.534  1.00  0.00    -0.475 OA
ATOM     15  C   UNL A   1      32.397  20.827  23.392  1.00  0.00     0.058 A 
ATOM     16  C   UNL A   1      32.326  23.220  22.647  1.00  0.00     0.027 C 
ATOM     17  C   UNL A   1      33.448  24.749  24.262  1.00  0.00     0.316 C 
BRANCH   9  18
ATOM     18  C   UNL A   1      35.653  21.785  26.098  1.00  0.00     0.039 C 
BRANCH  18  19
ATOM     19  C   UNL A   1      37.116  21.626  25.638  1.00  0.00     0.001 C 
ATOM     20  C   UNL A   1      37.389  21.820  24.148  1.00  0.00     0.004 C 
ENDBRANCH  18  19
ENDBRANCH   9  18
BRANCH  12  21
ATOM     21  O   UNL A   1      32.479  18.567  23.930  1.00  0.00    -0.406 OA
BRANCH  21  22
ATOM     22  C   UNL A   1      33.327  17.442  24.077  1.00  0.00     0.573 C 
ATOM     23  F   UNL A   1      34.540  17.669  23.528  1.00  0.00    -0.132 F 
ATOM     24  F   UNL A   1      33.480  17.115  25.379  1.00  0.00    -0.132 F 
ATOM     25  F   UNL A   1      32.771  16.387  23.444  1.00  0.00    -0.132 F 
ENDBRANCH  21  22
ENDBRANCH  12  21
BRANCH  17  26
ATOM     26  C   UNL A   1      32.615  25.021  25.527  1.00  0.00     0.430 C 
ATOM     27  F   UNL A   1      31.388  24.452  25.494  1.00  0.00    -0.167 F 
ATOM     28  F   UNL A   1      33.249  24.528  26.623  1.00  0.00    -0.167 F 
ATOM     29  F   UNL A   1      32.426  26.337  25.760  1.00  0.00    -0.167 F 
ENDBRANCH  17  26
ENDBRANCH   6   8
ENDBRANCH   5   6
ENDBRANCH   4   5
ENDBRANCH   3   4
ENDBRANCH   2   3
ENDBRANCH   1   2
BRANCH   1  30
ATOM     30  C   UNL A   1      31.567  30.571  25.762  1.00  0.00     0.261 C 
BRANCH  30  31
ATOM     31  O   UNL A   1      32.435  30.465  26.899  1.00  0.00    -0.460 OA
BRANCH  31  32
ATOM     32  C   UNL A   1      33.068  31.619  27.218  1.00  0.00     0.338 C 
ATOM     33  O   UNL A   1      32.579  32.741  27.262  1.00  0.00    -0.246 OA
BRANCH  32  34
ATOM     34  C   UNL A   1      34.416  31.314  27.718  1.00  0.00     0.060 A 
ATOM     35  C   UNL A   1      34.719  29.975  28.004  1.00  0.00     0.016 A 
ATOM     36  C   UNL A   1      35.349  32.326  27.952  1.00  0.00     0.016 A 
ATOM     37  C   UNL A   1      35.948  29.647  28.566  1.00  0.00     0.010 A 
ATOM     38  C   UNL A   1      36.576  31.994  28.528  1.00  0.00     0.010 A 
ATOM     39  C   UNL A   1      36.865  30.660  28.866  1.00  0.00    -0.014 A 
BRANCH  39  40
ATOM     40  C   UNL A   1      38.058  30.354  29.689  1.00  0.00     0.031 A 
ATOM     41  C   UNL A   1      39.064  29.375  29.151  1.00  0.00     0.074 A 
ATOM     42  C   UNL A   1      38.234  30.938  30.885  1.00  0.00     0.049 A 
ATOM     43  N   UNL A   1      40.118  28.866  29.730  1.00  0.00    -0.248 NA
ATOM     44  C   UNL A   1      38.841  28.902  27.776  1.00  0.00     0.031 C 
ATOM     45  C   UNL A   1      37.348  31.943  31.472  1.00  0.00     0.029 A 
ATOM     46  N   UNL A   1      39.212  30.758  31.830  1.00  0.00    -0.354 N 
ATOM     47  C   UNL A   1      40.679  28.001  28.796  1.00  0.00     0.074 A 
ATOM     48  C   UNL A   1      39.827  28.031  27.628  1.00  0.00     0.031 C 
ATOM     49  C   UNL A   1      37.815  32.278  32.686  1.00  0.00     0.029 A 
ATOM     50  C   UNL A   1      39.002  31.477  32.983  1.00  0.00     0.049 A 
ATOM     51  H   UNL A   1      39.990  30.170  31.695  1.00  0.00     0.167 HD
ATOM     52  C   UNL A   1      41.807  27.258  28.907  1.00  0.00     0.034 A 
ATOM     53  C   UNL A   1      39.671  31.458  34.152  1.00  0.00     0.034 A 
ATOM     54  C   UNL A   1      42.634  27.240  30.088  1.00  0.00     0.049 A 
ATOM     55  C   UNL A   1      40.869  30.548  34.290  1.00  0.00     0.074 A 
ATOM     56  C   UNL A   1      43.802  26.534  30.313  1.00  0.00     0.029 A 
ATOM     57  N   UNL A   1      42.370  27.952  31.252  1.00  0.00    -0.354 N 
ATOM     58  N   UNL A   1      41.391  29.730  33.403  1.00  0.00    -0.248 NA
ATOM     59  C   UNL A   1      41.569  30.559  35.581  1.00  0.00     0.031 C 
ATOM     60  C   UNL A   1      44.201  26.759  31.634  1.00  0.00     0.029 A 
ATOM     61  C   UNL A   1      43.334  27.675  32.208  1.00  0.00     0.049 A 
ATOM     62  H   UNL A   1      41.609  28.564  31.379  1.00  0.00     0.167 HD
ATOM     63  C   UNL A   1      42.504  29.162  34.019  1.00  0.00     0.074 A 
ATOM     64  C   UNL A   1      42.578  29.733  35.348  1.00  0.00     0.031 C 
ATOM     65  C   UNL A   1      43.390  28.256  33.530  1.00  0.00     0.034 A 
BRANCH  52  66
ATOM     66  C   UNL A   1      42.171  26.368  27.743  1.00  0.00     0.023 A 
ATOM     67  C   UNL A   1      41.845  25.001  27.724  1.00  0.00     0.031 A 
ATOM     68  C   UNL A   1      42.884  26.890  26.649  1.00  0.00     0.131 A 
ATOM     69  C   UNL A   1      42.289  24.190  26.668  1.00  0.00     0.055 A 
ATOM     70  C   UNL A   1      43.253  26.094  25.562  1.00  0.00     0.041 A 
ATOM     71  F   UNL A   1      43.248  28.182  26.623  1.00  0.00    -0.206 F 
ATOM     72  C   UNL A   1      42.968  24.732  25.575  1.00  0.00     0.022 A 
BRANCH  69  73
ATOM     73  S   UNL A   1      42.095  22.393  26.815  1.00  0.00     0.124 S 
ATOM     74  O   UNL A   1      40.952  22.147  25.940  1.00  0.00    -0.237 OA
ATOM     75  O   UNL A   1      43.381  21.897  26.340  1.00  0.00    -0.237 OA
ATOM     76  O   UNL A   1      41.835  22.191  28.239  1.00  0.00    -0.744 OA
ENDBRANCH  69  73
ENDBRANCH  52  66
BRANCH  53  77
ATOM     77  C   UNL A   1      39.208  32.287  35.303  1.00  0.00     0.023 A 
ATOM     78  C   UNL A   1      39.675  33.597  35.486  1.00  0.00     0.031 A 
ATOM     79  C   UNL A   1      38.331  31.760  36.269  1.00  0.00     0.131 A 
ATOM     80  C   UNL A   1      39.304  34.319  36.632  1.00  0.00     0.055 A 
ATOM     81  C   UNL A   1      37.919  32.502  37.376  1.00  0.00     0.041 A 
ATOM     82  F   UNL A   1      37.853  30.511  36.144  1.00  0.00    -0.206 F 
ATOM     83  C   UNL A   1      38.419  33.786  37.571  1.00  0.00     0.022 A 
BRANCH  80  84
ATOM     84  S   UNL A   1      40.078  35.933  36.927  1.00  0.00     0.124 S 
ATOM     85  O   UNL A   1      41.489  35.574  37.004  1.00  0.00    -0.237 OA
ATOM     86  O   UNL A   1      39.668  36.684  35.746  1.00  0.00    -0.237 OA
ATOM     87  O   UNL A   1      39.475  36.373  38.184  1.00  0.00    -0.744 OA
ENDBRANCH  80  84
ENDBRANCH  53  77
BRANCH  65  88
ATOM     88  C   UNL A   1      44.552  27.877  34.416  1.00  0.00     0.023 A 
ATOM     89  C   UNL A   1      44.502  26.768  35.277  1.00  0.00     0.031 A 
ATOM     90  C   UNL A   1      45.737  28.636  34.380  1.00  0.00     0.131 A 
ATOM     91  C   UNL A   1      45.600  26.475  36.100  1.00  0.00     0.055 A 
ATOM     92  C   UNL A   1      46.847  28.303  35.156  1.00  0.00     0.041 A 
ATOM     93  F   UNL A   1      45.838  29.706  33.577  1.00  0.00    -0.206 F 
ATOM     94  C   UNL A   1      46.778  27.222  36.031  1.00  0.00     0.022 A 
BRANCH  91  95
ATOM     95  S   UNL A   1      45.442  25.145  37.323  1.00  0.00     0.124 S 
ATOM     96  O   UNL A   1      44.776  24.100  36.552  1.00  0.00    -0.237 OA
ATOM     97  O   UNL A   1      46.832  24.883  37.682  1.00  0.00    -0.237 OA
ATOM     98  O   UNL A   1      44.633  25.746  38.382  1.00  0.00    -0.744 OA
ENDBRANCH  91  95
ENDBRANCH  65  88
ENDBRANCH  39  40
ENDBRANCH  32  34
ENDBRANCH  31  32
ENDBRANCH  30  31
ENDBRANCH   1  30
TORSDOF 22
ENDMDL
