MODEL 1
REMARK VINA RESULT:     -11.7      0.000      0.000
REMARK SMILES O=C(Nc1ccccc1C(=O)OCCOCCOC(=O)c1ccc(-c2c3nc(c(-c4cc(S(=O)(=O)[O-])ccc4F)c4ccc([nH]4)c(-c4cc(S(=O)(=O)[O-])ccc4F)c4nc(c(-c5cc(S(=O)(=O)[O-])ccc5F)c5ccc2[nH]5)C=C4)C=C3)cc1)c1ccc(C[NH+]2CCOCC2)cc1
REMARK SMILES IDX 14 1 13 2 12 3 10 4 11 5 9 6 4 7 5 8 6 9 8 10 7 11 3 12 1 13
REMARK SMILES IDX 2 14 84 16 85 17 96 18 86 19 95 20 87 21 88 22 89 23 90 24
REMARK SMILES IDX 94 25 91 27 93 28 92 29 15 30 16 31 17 32 18 33 19 34 20 35
REMARK SMILES IDX 21 36 22 37 83 38 23 39 82 40 24 41 25 42 26 43 76 44 27 45
REMARK SMILES IDX 81 46 75 47 77 48 28 49 80 50 74 51 73 52 29 54 61 55 41 56
REMARK SMILES IDX 60 57 42 58 45 59 59 60 78 61 43 62 44 63 58 65 79 66 46 67
REMARK SMILES IDX 30 68 31 69 39 70 32 71 38 72 40 73 37 74 33 75 34 76 35 77
REMARK SMILES IDX 36 78 62 79 63 80 71 81 64 82 70 83 72 84 69 85 65 86 66 87
REMARK SMILES IDX 67 88 68 89 47 90 48 91 56 92 49 93 55 94 57 95 54 96 50 97
REMARK SMILES IDX 51 98 52 99 53 100
REMARK H PARENT 3 15 89 26 77 53 45 64
REMARK Flexibility Score: inf
ROOT
ATOM      1  C   UNL A   1      29.849  29.661  23.321  1.00  0.00     0.202 C 
ENDROOT
BRANCH   1   2
ATOM      2  C   UNL A   1      29.496  28.291  22.725  1.00  0.00     0.261 C 
BRANCH   2   3
ATOM      3  O   UNL A   1      29.591  27.140  23.589  1.00  0.00    -0.460 OA
BRANCH   3   4
ATOM      4  C   UNL A   1      30.749  26.461  23.432  1.00  0.00     0.340 C 
ATOM      5  O   UNL A   1      30.971  25.677  22.522  1.00  0.00    -0.246 OA
BRANCH   4   6
ATOM      6  C   UNL A   1      31.838  26.807  24.356  1.00  0.00     0.083 A 
ATOM      7  C   UNL A   1      31.840  26.584  25.738  1.00  0.00     0.056 A 
ATOM      8  C   UNL A   1      32.955  27.030  26.473  1.00  0.00     0.027 A 
ATOM      9  C   UNL A   1      34.082  27.573  25.838  1.00  0.00     0.002 A 
ATOM     10  C   UNL A   1      32.976  27.359  23.726  1.00  0.00     0.018 A 
ATOM     11  C   UNL A   1      34.099  27.724  24.459  1.00  0.00     0.001 A 
BRANCH   7  12
ATOM     12  N   UNL A   1      30.843  25.918  26.485  1.00  0.00    -0.321 N 
ATOM     13  O   UNL A   1      29.373  24.275  26.995  1.00  0.00    -0.269 OA
ATOM     14  C   UNL A   1      30.457  24.590  26.514  1.00  0.00     0.255 C 
ATOM     15  H   UNL A   1      30.333  26.500  27.092  1.00  0.00     0.170 HD
BRANCH  14  16
ATOM     16  C   UNL A   1      31.381  23.523  26.050  1.00  0.00     0.040 A 
ATOM     17  C   UNL A   1      31.222  22.914  24.806  1.00  0.00     0.014 A 
ATOM     18  C   UNL A   1      32.394  23.082  26.902  1.00  0.00     0.014 A 
ATOM     19  C   UNL A   1      31.952  21.760  24.499  1.00  0.00     0.010 A 
ATOM     20  C   UNL A   1      33.075  21.888  26.613  1.00  0.00     0.010 A 
ATOM     21  C   UNL A   1      32.799  21.156  25.442  1.00  0.00     0.006 A 
BRANCH  21  22
ATOM     22  C   UNL A   1      33.503  19.833  25.182  1.00  0.00     0.299 C 
BRANCH  22  23
ATOM     23  N   UNL A   1      32.769  18.629  24.770  1.00  0.00    -0.327 N 
ATOM     24  C   UNL A   1      32.659  17.493  25.678  1.00  0.00     0.291 C 
ATOM     25  C   UNL A   1      32.893  18.176  23.381  1.00  0.00     0.291 C 
ATOM     26  H   UNL A   1      31.871  19.104  24.850  1.00  0.00     0.348 HD
ATOM     27  C   UNL A   1      33.721  16.411  25.434  1.00  0.00     0.221 C 
ATOM     28  C   UNL A   1      33.848  16.998  23.140  1.00  0.00     0.221 C 
ATOM     29  O   UNL A   1      33.675  15.930  24.084  1.00  0.00    -0.370 OA
ENDBRANCH  22  23
ENDBRANCH  21  22
ENDBRANCH  14  16
ENDBRANCH   7  12
ENDBRANCH   4   6
ENDBRANCH   3   4
ENDBRANCH   2   3
ENDBRANCH   1   2
BRANCH   1  30
ATOM     30  O   UNL A   1      30.630  29.738  24.501  1.00  0.00    -0.374 OA
BRANCH  30  31
ATOM     31  C   UNL A   1      30.837  31.008  25.103  1.00  0.00     0.202 C 
BRANCH  31  32
ATOM     32  C   UNL A   1      31.347  31.118  26.551  1.00  0.00     0.261 C 
BRANCH  32  33
ATOM     33  O   UNL A   1      32.761  30.914  26.730  1.00  0.00    -0.460 OA
BRANCH  33  34
ATOM     34  C   UNL A   1      33.420  31.949  27.310  1.00  0.00     0.338 C 
ATOM     35  O   UNL A   1      32.964  33.052  27.564  1.00  0.00    -0.246 OA
BRANCH  34  36
ATOM     36  C   UNL A   1      34.768  31.538  27.748  1.00  0.00     0.060 A 
ATOM     37  C   UNL A   1      34.977  30.207  28.133  1.00  0.00     0.016 A 
ATOM     38  C   UNL A   1      35.761  32.496  27.950  1.00  0.00     0.016 A 
ATOM     39  C   UNL A   1      36.168  29.837  28.761  1.00  0.00     0.010 A 
ATOM     40  C   UNL A   1      36.948  32.125  28.591  1.00  0.00     0.010 A 
ATOM     41  C   UNL A   1      37.144  30.804  29.034  1.00  0.00    -0.014 A 
BRANCH  41  42
ATOM     42  C   UNL A   1      38.290  30.475  29.923  1.00  0.00     0.031 A 
ATOM     43  C   UNL A   1      39.307  29.467  29.456  1.00  0.00     0.074 A 
ATOM     44  C   UNL A   1      38.437  31.078  31.117  1.00  0.00     0.049 A 
ATOM     45  N   UNL A   1      40.318  28.943  30.102  1.00  0.00    -0.248 NA
ATOM     46  C   UNL A   1      39.160  28.979  28.076  1.00  0.00     0.031 C 
ATOM     47  C   UNL A   1      37.551  32.110  31.655  1.00  0.00     0.029 A 
ATOM     48  N   UNL A   1      39.379  30.897  32.101  1.00  0.00    -0.354 N 
ATOM     49  C   UNL A   1      40.927  28.067  29.209  1.00  0.00     0.074 A 
ATOM     50  C   UNL A   1      40.144  28.097  27.992  1.00  0.00     0.031 C 
ATOM     51  C   UNL A   1      37.983  32.458  32.880  1.00  0.00     0.029 A 
ATOM     52  C   UNL A   1      39.139  31.638  33.235  1.00  0.00     0.049 A 
ATOM     53  H   UNL A   1      40.152  30.296  32.004  1.00  0.00     0.167 HD
ATOM     54  C   UNL A   1      42.044  27.318  29.384  1.00  0.00     0.034 A 
ATOM     55  C   UNL A   1      39.754  31.622  34.437  1.00  0.00     0.034 A 
ATOM     56  C   UNL A   1      42.808  27.286  30.608  1.00  0.00     0.049 A 
ATOM     57  C   UNL A   1      40.929  30.691  34.647  1.00  0.00     0.074 A 
ATOM     58  C   UNL A   1      43.942  26.548  30.899  1.00  0.00     0.029 A 
ATOM     59  N   UNL A   1      42.513  28.023  31.749  1.00  0.00    -0.354 N 
ATOM     60  N   UNL A   1      41.486  29.855  33.800  1.00  0.00    -0.248 NA
ATOM     61  C   UNL A   1      41.566  30.711  35.972  1.00  0.00     0.031 C 
ATOM     62  C   UNL A   1      44.291  26.783  32.232  1.00  0.00     0.029 A 
ATOM     63  C   UNL A   1      43.429  27.736  32.750  1.00  0.00     0.049 A 
ATOM     64  H   UNL A   1      41.764  28.655  31.835  1.00  0.00     0.167 HD
ATOM     65  C   UNL A   1      42.559  29.282  34.481  1.00  0.00     0.074 A 
ATOM     66  C   UNL A   1      42.583  29.881  35.797  1.00  0.00     0.031 C 
ATOM     67  C   UNL A   1      43.448  28.346  34.058  1.00  0.00     0.034 A 
BRANCH  54  68
ATOM     68  C   UNL A   1      42.487  26.444  28.236  1.00  0.00     0.023 A 
ATOM     69  C   UNL A   1      42.062  25.108  28.121  1.00  0.00     0.031 A 
ATOM     70  C   UNL A   1      43.342  26.950  27.241  1.00  0.00     0.131 A 
ATOM     71  C   UNL A   1      42.535  24.311  27.068  1.00  0.00     0.055 A 
ATOM     72  C   UNL A   1      43.747  26.174  26.153  1.00  0.00     0.041 A 
ATOM     73  F   UNL A   1      43.801  28.210  27.310  1.00  0.00    -0.206 F 
ATOM     74  C   UNL A   1      43.351  24.843  26.067  1.00  0.00     0.022 A 
BRANCH  71  75
ATOM     75  S   UNL A   1      42.165  22.537  27.089  1.00  0.00     0.124 S 
ATOM     76  O   UNL A   1      41.447  22.370  25.828  1.00  0.00    -0.237 OA
ATOM     77  O   UNL A   1      43.492  21.936  27.153  1.00  0.00    -0.237 OA
ATOM     78  O   UNL A   1      41.347  22.371  28.289  1.00  0.00    -0.744 OA
ENDBRANCH  71  75
ENDBRANCH  54  68
BRANCH  55  79
ATOM     79  C   UNL A   1      39.246  32.457  35.567  1.00  0.00     0.023 A 
ATOM     80  C   UNL A   1      39.642  33.795  35.719  1.00  0.00     0.031 A 
ATOM     81  C   UNL A   1      38.436  31.895  36.571  1.00  0.00     0.131 A 
ATOM     82  C   UNL A   1      39.291  34.502  36.881  1.00  0.00     0.055 A 
ATOM     83  C   UNL A   1      38.025  32.627  37.687  1.00  0.00     0.041 A 
ATOM     84  F   UNL A   1      38.038  30.616  36.489  1.00  0.00    -0.206 F 
ATOM     85  C   UNL A   1      38.471  33.934  37.857  1.00  0.00     0.022 A 
BRANCH  82  86
ATOM     86  S   UNL A   1      40.048  36.126  37.167  1.00  0.00     0.124 S 
ATOM     87  O   UNL A   1      39.828  36.784  35.884  1.00  0.00    -0.237 OA
ATOM     88  O   UNL A   1      39.266  36.632  38.291  1.00  0.00    -0.237 OA
ATOM     89  O   UNL A   1      41.440  35.803  37.473  1.00  0.00    -0.744 OA
ENDBRANCH  82  86
ENDBRANCH  55  79
BRANCH  67  90
ATOM     90  C   UNL A   1      44.561  27.966  35.007  1.00  0.00     0.023 A 
ATOM     91  C   UNL A   1      44.354  27.096  36.092  1.00  0.00     0.031 A 
ATOM     92  C   UNL A   1      45.853  28.494  34.824  1.00  0.00     0.131 A 
ATOM     93  C   UNL A   1      45.403  26.828  36.985  1.00  0.00     0.055 A 
ATOM     94  C   UNL A   1      46.910  28.168  35.674  1.00  0.00     0.041 A 
ATOM     95  F   UNL A   1      46.111  29.332  33.807  1.00  0.00    -0.206 F 
ATOM     96  C   UNL A   1      46.684  27.342  36.771  1.00  0.00     0.022 A 
BRANCH  93  97
ATOM     97  S   UNL A   1      45.047  25.878  38.489  1.00  0.00     0.124 S 
ATOM     98  O   UNL A   1      45.021  24.509  37.984  1.00  0.00    -0.237 OA
ATOM     99  O   UNL A   1      46.176  26.219  39.349  1.00  0.00    -0.237 OA
ATOM    100  O   UNL A   1      43.755  26.402  38.928  1.00  0.00    -0.744 OA
ENDBRANCH  93  97
ENDBRANCH  67  90
ENDBRANCH  41  42
ENDBRANCH  34  36
ENDBRANCH  33  34
ENDBRANCH  32  33
ENDBRANCH  31  32
ENDBRANCH  30  31
ENDBRANCH   1  30
TORSDOF 21
ENDMDL
MODEL 2
REMARK VINA RESULT:     -11.4      1.842      2.112
REMARK SMILES O=C(Nc1ccccc1C(=O)OCCOCCOC(=O)c1ccc(-c2c3nc(c(-c4cc(S(=O)(=O)[O-])ccc4F)c4ccc([nH]4)c(-c4cc(S(=O)(=O)[O-])ccc4F)c4nc(c(-c5cc(S(=O)(=O)[O-])ccc5F)c5ccc2[nH]5)C=C4)C=C3)cc1)c1ccc(C[NH+]2CCOCC2)cc1
REMARK SMILES IDX 14 1 13 2 12 3 10 4 11 5 9 6 4 7 5 8 6 9 8 10 7 11 3 12 1 13
REMARK SMILES IDX 2 14 84 16 85 17 96 18 86 19 95 20 87 21 88 22 89 23 90 24
REMARK SMILES IDX 94 25 91 27 93 28 92 29 15 30 16 31 17 32 18 33 19 34 20 35
REMARK SMILES IDX 21 36 22 37 83 38 23 39 82 40 24 41 25 42 26 43 76 44 27 45
REMARK SMILES IDX 81 46 75 47 77 48 28 49 80 50 74 51 73 52 29 54 61 55 41 56
REMARK SMILES IDX 60 57 42 58 45 59 59 60 78 61 43 62 44 63 58 65 79 66 46 67
REMARK SMILES IDX 30 68 31 69 39 70 32 71 38 72 40 73 37 74 33 75 34 76 35 77
REMARK SMILES IDX 36 78 62 79 63 80 71 81 64 82 70 83 72 84 69 85 65 86 66 87
REMARK SMILES IDX 67 88 68 89 47 90 48 91 56 92 49 93 55 94 57 95 54 96 50 97
REMARK SMILES IDX 51 98 52 99 53 100
REMARK H PARENT 3 15 89 26 77 53 45 64
REMARK Flexibility Score: inf
ROOT
ATOM      1  C   UNL A   1      29.905  29.704  23.450  1.00  0.00     0.202 C 
ENDROOT
BRANCH   1   2
ATOM      2  C   UNL A   1      29.359  28.348  22.983  1.00  0.00     0.261 C 
BRANCH   2   3
ATOM      3  O   UNL A   1      29.437  27.240  23.904  1.00  0.00    -0.460 OA
BRANCH   3   4
ATOM      4  C   UNL A   1      30.497  26.436  23.669  1.00  0.00     0.340 C 
ATOM      5  O   UNL A   1      30.552  25.613  22.768  1.00  0.00    -0.246 OA
BRANCH   4   6
ATOM      6  C   UNL A   1      31.695  26.681  24.483  1.00  0.00     0.083 A 
ATOM      7  C   UNL A   1      31.850  26.343  25.833  1.00  0.00     0.056 A 
ATOM      8  C   UNL A   1      33.056  26.703  26.466  1.00  0.00     0.027 A 
ATOM      9  C   UNL A   1      34.118  27.274  25.749  1.00  0.00     0.002 A 
ATOM     10  C   UNL A   1      32.770  27.259  23.770  1.00  0.00     0.018 A 
ATOM     11  C   UNL A   1      33.980  27.538  24.393  1.00  0.00     0.001 A 
BRANCH   7  12
ATOM     12  N   UNL A   1      30.927  25.639  26.636  1.00  0.00    -0.321 N 
ATOM     13  O   UNL A   1      29.530  23.955  27.212  1.00  0.00    -0.269 OA
ATOM     14  C   UNL A   1      30.568  24.303  26.658  1.00  0.00     0.255 C 
ATOM     15  H   UNL A   1      30.454  26.195  27.296  1.00  0.00     0.170 HD
BRANCH  14  16
ATOM     16  C   UNL A   1      31.472  23.267  26.096  1.00  0.00     0.040 A 
ATOM     17  C   UNL A   1      31.235  22.695  24.847  1.00  0.00     0.014 A 
ATOM     18  C   UNL A   1      32.549  22.816  26.860  1.00  0.00     0.014 A 
ATOM     19  C   UNL A   1      31.958  21.564  24.451  1.00  0.00     0.010 A 
ATOM     20  C   UNL A   1      33.225  21.644  26.484  1.00  0.00     0.010 A 
ATOM     21  C   UNL A   1      32.877  20.945  25.313  1.00  0.00     0.006 A 
BRANCH  21  22
ATOM     22  C   UNL A   1      33.581  19.643  24.960  1.00  0.00     0.299 C 
BRANCH  22  23
ATOM     23  N   UNL A   1      32.837  18.442  24.557  1.00  0.00    -0.327 N 
ATOM     24  C   UNL A   1      32.532  17.406  25.538  1.00  0.00     0.291 C 
ATOM     25  C   UNL A   1      33.123  17.850  23.246  1.00  0.00     0.291 C 
ATOM     26  H   UNL A   1      31.968  18.966  24.464  1.00  0.00     0.348 HD
ATOM     27  C   UNL A   1      33.548  16.255  25.546  1.00  0.00     0.221 C 
ATOM     28  C   UNL A   1      34.027  16.609  23.251  1.00  0.00     0.221 C 
ATOM     29  O   UNL A   1      33.659  15.647  24.252  1.00  0.00    -0.370 OA
ENDBRANCH  22  23
ENDBRANCH  21  22
ENDBRANCH  14  16
ENDBRANCH   7  12
ENDBRANCH   4   6
ENDBRANCH   3   4
ENDBRANCH   2   3
ENDBRANCH   1   2
BRANCH   1  30
ATOM     30  O   UNL A   1      30.672  29.786  24.638  1.00  0.00    -0.374 OA
BRANCH  30  31
ATOM     31  C   UNL A   1      30.839  31.052  25.259  1.00  0.00     0.202 C 
BRANCH  31  32
ATOM     32  C   UNL A   1      31.388  31.158  26.693  1.00  0.00     0.261 C 
BRANCH  32  33
ATOM     33  O   UNL A   1      32.800  30.921  26.839  1.00  0.00    -0.460 OA
BRANCH  33  34
ATOM     34  C   UNL A   1      33.499  31.942  27.396  1.00  0.00     0.338 C 
ATOM     35  O   UNL A   1      33.074  33.055  27.663  1.00  0.00    -0.246 OA
BRANCH  34  36
ATOM     36  C   UNL A   1      34.851  31.504  27.793  1.00  0.00     0.060 A 
ATOM     37  C   UNL A   1      35.050  30.162  28.146  1.00  0.00     0.016 A 
ATOM     38  C   UNL A   1      35.862  32.443  27.989  1.00  0.00     0.016 A 
ATOM     39  C   UNL A   1      36.250  29.763  28.737  1.00  0.00     0.010 A 
ATOM     40  C   UNL A   1      37.060  32.043  28.593  1.00  0.00     0.010 A 
ATOM     41  C   UNL A   1      37.247  30.711  29.005  1.00  0.00    -0.014 A 
BRANCH  41  42
ATOM     42  C   UNL A   1      38.409  30.348  29.859  1.00  0.00     0.031 A 
ATOM     43  C   UNL A   1      39.408  29.346  29.340  1.00  0.00     0.074 A 
ATOM     44  C   UNL A   1      38.587  30.915  31.066  1.00  0.00     0.049 A 
ATOM     45  N   UNL A   1      40.429  28.797  29.948  1.00  0.00    -0.248 NA
ATOM     46  C   UNL A   1      39.227  28.900  27.950  1.00  0.00     0.031 C 
ATOM     47  C   UNL A   1      37.721  31.937  31.653  1.00  0.00     0.029 A 
ATOM     48  N   UNL A   1      39.549  30.698  32.023  1.00  0.00    -0.354 N 
ATOM     49  C   UNL A   1      41.012  27.943  29.017  1.00  0.00     0.074 A 
ATOM     50  C   UNL A   1      40.202  28.014  27.819  1.00  0.00     0.031 C 
ATOM     51  C   UNL A   1      38.182  32.245  32.878  1.00  0.00     0.029 A 
ATOM     52  C   UNL A   1      39.339  31.407  33.183  1.00  0.00     0.049 A 
ATOM     53  H   UNL A   1      40.315  30.094  31.891  1.00  0.00     0.167 HD
ATOM     54  C   UNL A   1      42.126  27.181  29.145  1.00  0.00     0.034 A 
ATOM     55  C   UNL A   1      39.981  31.352  34.371  1.00  0.00     0.034 A 
ATOM     56  C   UNL A   1      42.916  27.108  30.351  1.00  0.00     0.049 A 
ATOM     57  C   UNL A   1      41.153  30.407  34.527  1.00  0.00     0.074 A 
ATOM     58  C   UNL A   1      44.051  26.354  30.594  1.00  0.00     0.029 A 
ATOM     59  N   UNL A   1      42.653  27.813  31.519  1.00  0.00    -0.354 N 
ATOM     60  N   UNL A   1      41.684  29.592  33.645  1.00  0.00    -0.248 NA
ATOM     61  C   UNL A   1      41.818  30.383  35.838  1.00  0.00     0.031 C 
ATOM     62  C   UNL A   1      44.431  26.548  31.927  1.00  0.00     0.029 A 
ATOM     63  C   UNL A   1      43.588  27.491  32.490  1.00  0.00     0.049 A 
ATOM     64  H   UNL A   1      41.910  28.448  31.639  1.00  0.00     0.167 HD
ATOM     65  C   UNL A   1      42.768  28.992  34.285  1.00  0.00     0.074 A 
ATOM     66  C   UNL A   1      42.826  29.552  35.617  1.00  0.00     0.031 C 
ATOM     67  C   UNL A   1      43.640  28.063  33.815  1.00  0.00     0.034 A 
BRANCH  54  68
ATOM     68  C   UNL A   1      42.538  26.338  27.963  1.00  0.00     0.023 A 
ATOM     69  C   UNL A   1      42.135  24.996  27.840  1.00  0.00     0.031 A 
ATOM     70  C   UNL A   1      43.339  26.880  26.943  1.00  0.00     0.131 A 
ATOM     71  C   UNL A   1      42.578  24.229  26.752  1.00  0.00     0.055 A 
ATOM     72  C   UNL A   1      43.713  26.133  25.823  1.00  0.00     0.041 A 
ATOM     73  F   UNL A   1      43.775  28.147  27.017  1.00  0.00    -0.206 F 
ATOM     74  C   UNL A   1      43.340  24.796  25.729  1.00  0.00     0.022 A 
BRANCH  71  75
ATOM     75  S   UNL A   1      42.245  22.447  26.755  1.00  0.00     0.124 S 
ATOM     76  O   UNL A   1      41.197  22.344  27.768  1.00  0.00    -0.237 OA
ATOM     77  O   UNL A   1      41.830  22.200  25.379  1.00  0.00    -0.237 OA
ATOM     78  O   UNL A   1      43.527  21.858  27.135  1.00  0.00    -0.744 OA
ENDBRANCH  71  75
ENDBRANCH  54  68
BRANCH  55  79
ATOM     79  C   UNL A   1      39.503  32.157  35.535  1.00  0.00     0.023 A 
ATOM     80  C   UNL A   1      38.809  31.560  36.598  1.00  0.00     0.031 A 
ATOM     81  C   UNL A   1      39.645  33.557  35.549  1.00  0.00     0.131 A 
ATOM     82  C   UNL A   1      38.220  32.362  37.590  1.00  0.00     0.055 A 
ATOM     83  C   UNL A   1      39.124  34.343  36.579  1.00  0.00     0.041 A 
ATOM     84  F   UNL A   1      40.285  34.187  34.552  1.00  0.00    -0.206 F 
ATOM     85  C   UNL A   1      38.388  33.747  37.597  1.00  0.00     0.022 A 
BRANCH  82  86
ATOM     86  S   UNL A   1      37.105  31.577  38.787  1.00  0.00     0.124 S 
ATOM     87  O   UNL A   1      36.941  30.248  38.211  1.00  0.00    -0.237 OA
ATOM     88  O   UNL A   1      37.882  31.652  40.020  1.00  0.00    -0.237 OA
ATOM     89  O   UNL A   1      35.915  32.425  38.750  1.00  0.00    -0.744 OA
ENDBRANCH  82  86
ENDBRANCH  55  79
BRANCH  67  90
ATOM     90  C   UNL A   1      44.770  27.647  34.728  1.00  0.00     0.023 A 
ATOM     91  C   UNL A   1      46.003  28.322  34.745  1.00  0.00     0.031 A 
ATOM     92  C   UNL A   1      44.610  26.547  35.591  1.00  0.00     0.131 A 
ATOM     93  C   UNL A   1      47.046  27.855  35.561  1.00  0.00     0.055 A 
ATOM     94  C   UNL A   1      45.627  26.130  36.451  1.00  0.00     0.041 A 
ATOM     95  F   UNL A   1      43.456  25.861  35.616  1.00  0.00    -0.206 F 
ATOM     96  C   UNL A   1      46.858  26.776  36.429  1.00  0.00     0.022 A 
BRANCH  93  97
ATOM     97  S   UNL A   1      48.686  28.614  35.400  1.00  0.00     0.124 S 
ATOM     98  O   UNL A   1      48.839  28.704  33.952  1.00  0.00    -0.237 OA
ATOM     99  O   UNL A   1      48.514  29.882  36.103  1.00  0.00    -0.237 OA
ATOM    100  O   UNL A   1      49.573  27.657  36.060  1.00  0.00    -0.744 OA
ENDBRANCH  93  97
ENDBRANCH  67  90
ENDBRANCH  41  42
ENDBRANCH  34  36
ENDBRANCH  33  34
ENDBRANCH  32  33
ENDBRANCH  31  32
ENDBRANCH  30  31
ENDBRANCH   1  30
TORSDOF 21
ENDMDL
MODEL 3
REMARK VINA RESULT:     -11.4      1.973      2.371
REMARK SMILES O=C(Nc1ccccc1C(=O)OCCOCCOC(=O)c1ccc(-c2c3nc(c(-c4cc(S(=O)(=O)[O-])ccc4F)c4ccc([nH]4)c(-c4cc(S(=O)(=O)[O-])ccc4F)c4nc(c(-c5cc(S(=O)(=O)[O-])ccc5F)c5ccc2[nH]5)C=C4)C=C3)cc1)c1ccc(C[NH+]2CCOCC2)cc1
REMARK SMILES IDX 14 1 13 2 12 3 10 4 11 5 9 6 4 7 5 8 6 9 8 10 7 11 3 12 1 13
REMARK SMILES IDX 2 14 84 16 85 17 96 18 86 19 95 20 87 21 88 22 89 23 90 24
REMARK SMILES IDX 94 25 91 27 93 28 92 29 15 30 16 31 17 32 18 33 19 34 20 35
REMARK SMILES IDX 21 36 22 37 83 38 23 39 82 40 24 41 25 42 26 43 76 44 27 45
REMARK SMILES IDX 81 46 75 47 77 48 28 49 80 50 74 51 73 52 29 54 61 55 41 56
REMARK SMILES IDX 60 57 42 58 45 59 59 60 78 61 43 62 44 63 58 65 79 66 46 67
REMARK SMILES IDX 30 68 31 69 39 70 32 71 38 72 40 73 37 74 33 75 34 76 35 77
REMARK SMILES IDX 36 78 62 79 63 80 71 81 64 82 70 83 72 84 69 85 65 86 66 87
REMARK SMILES IDX 67 88 68 89 47 90 48 91 56 92 49 93 55 94 57 95 54 96 50 97
REMARK SMILES IDX 51 98 52 99 53 100
REMARK H PARENT 3 15 89 26 77 53 45 64
REMARK Flexibility Score: inf
ROOT
ATOM      1  C   UNL A   1      29.602  30.365  23.520  1.00  0.00     0.202 C 
ENDROOT
BRANCH   1   2
ATOM      2  C   UNL A   1      29.213  29.089  22.760  1.00  0.00     0.261 C 
BRANCH   2   3
ATOM      3  O   UNL A   1      29.504  27.822  23.386  1.00  0.00    -0.460 OA
BRANCH   3   4
ATOM      4  C   UNL A   1      30.698  27.314  23.009  1.00  0.00     0.340 C 
ATOM      5  O   UNL A   1      30.963  26.942  21.876  1.00  0.00    -0.246 OA
BRANCH   4   6
ATOM      6  C   UNL A   1      31.767  27.343  24.017  1.00  0.00     0.083 A 
ATOM      7  C   UNL A   1      31.619  27.037  25.375  1.00  0.00     0.056 A 
ATOM      8  C   UNL A   1      32.750  27.169  26.204  1.00  0.00     0.027 A 
ATOM      9  C   UNL A   1      34.012  27.481  25.678  1.00  0.00     0.002 A 
ATOM     10  C   UNL A   1      33.042  27.660  23.497  1.00  0.00     0.018 A 
ATOM     11  C   UNL A   1      34.162  27.712  24.318  1.00  0.00     0.001 A 
BRANCH   7  12
ATOM     12  N   UNL A   1      30.448  26.569  26.010  1.00  0.00    -0.321 N 
ATOM     13  O   UNL A   1      28.748  25.143  26.454  1.00  0.00    -0.269 OA
ATOM     14  C   UNL A   1      29.925  25.295  26.139  1.00  0.00     0.255 C 
ATOM     15  H   UNL A   1      29.908  27.273  26.437  1.00  0.00     0.170 HD
BRANCH  14  16
ATOM     16  C   UNL A   1      30.794  24.101  25.987  1.00  0.00     0.040 A 
ATOM     17  C   UNL A   1      31.246  23.385  27.095  1.00  0.00     0.014 A 
ATOM     18  C   UNL A   1      31.214  23.721  24.712  1.00  0.00     0.014 A 
ATOM     19  C   UNL A   1      32.246  22.419  26.938  1.00  0.00     0.010 A 
ATOM     20  C   UNL A   1      32.263  22.798  24.572  1.00  0.00     0.010 A 
ATOM     21  C   UNL A   1      32.860  22.196  25.696  1.00  0.00     0.006 A 
BRANCH  21  22
ATOM     22  C   UNL A   1      34.036  21.247  25.522  1.00  0.00     0.299 C 
BRANCH  22  23
ATOM     23  N   UNL A   1      35.422  21.675  25.757  1.00  0.00    -0.327 N 
ATOM     24  C   UNL A   1      35.699  23.020  26.247  1.00  0.00     0.291 C 
ATOM     25  C   UNL A   1      36.457  21.241  24.813  1.00  0.00     0.291 C 
ATOM     26  H   UNL A   1      35.504  21.082  26.582  1.00  0.00     0.348 HD
ATOM     27  C   UNL A   1      36.029  24.020  25.130  1.00  0.00     0.221 C 
ATOM     28  C   UNL A   1      36.901  22.281  23.776  1.00  0.00     0.221 C 
ATOM     29  O   UNL A   1      37.144  23.577  24.345  1.00  0.00    -0.370 OA
ENDBRANCH  22  23
ENDBRANCH  21  22
ENDBRANCH  14  16
ENDBRANCH   7  12
ENDBRANCH   4   6
ENDBRANCH   3   4
ENDBRANCH   2   3
ENDBRANCH   1   2
BRANCH   1  30
ATOM     30  O   UNL A   1      30.572  30.307  24.550  1.00  0.00    -0.374 OA
BRANCH  30  31
ATOM     31  C   UNL A   1      30.716  31.421  25.418  1.00  0.00     0.202 C 
BRANCH  31  32
ATOM     32  C   UNL A   1      31.410  31.270  26.784  1.00  0.00     0.261 C 
BRANCH  32  33
ATOM     33  O   UNL A   1      32.842  31.122  26.742  1.00  0.00    -0.460 OA
BRANCH  33  34
ATOM     34  C   UNL A   1      33.536  32.065  27.428  1.00  0.00     0.338 C 
ATOM     35  O   UNL A   1      33.103  33.127  27.846  1.00  0.00    -0.246 OA
BRANCH  34  36
ATOM     36  C   UNL A   1      34.895  31.590  27.751  1.00  0.00     0.060 A 
ATOM     37  C   UNL A   1      35.082  30.238  28.068  1.00  0.00     0.016 A 
ATOM     38  C   UNL A   1      35.935  32.504  27.916  1.00  0.00     0.016 A 
ATOM     39  C   UNL A   1      36.300  29.803  28.594  1.00  0.00     0.010 A 
ATOM     40  C   UNL A   1      37.151  32.067  28.454  1.00  0.00     0.010 A 
ATOM     41  C   UNL A   1      37.328  30.723  28.831  1.00  0.00    -0.014 A 
BRANCH  41  42
ATOM     42  C   UNL A   1      38.521  30.319  29.621  1.00  0.00     0.031 A 
ATOM     43  C   UNL A   1      39.449  29.274  29.056  1.00  0.00     0.074 A 
ATOM     44  C   UNL A   1      38.790  30.886  30.811  1.00  0.00     0.049 A 
ATOM     45  N   UNL A   1      40.479  28.688  29.610  1.00  0.00    -0.248 NA
ATOM     46  C   UNL A   1      39.171  28.827  27.683  1.00  0.00     0.031 C 
ATOM     47  C   UNL A   1      38.001  31.947  31.437  1.00  0.00     0.029 A 
ATOM     48  N   UNL A   1      39.795  30.637  31.714  1.00  0.00    -0.354 N 
ATOM     49  C   UNL A   1      40.973  27.805  28.656  1.00  0.00     0.074 A 
ATOM     50  C   UNL A   1      40.101  27.900  27.504  1.00  0.00     0.031 C 
ATOM     51  C   UNL A   1      38.543  32.244  32.631  1.00  0.00     0.029 A 
ATOM     52  C   UNL A   1      39.681  31.362  32.878  1.00  0.00     0.049 A 
ATOM     53  H   UNL A   1      40.528  30.002  31.545  1.00  0.00     0.167 HD
ATOM     54  C   UNL A   1      42.062  26.999  28.727  1.00  0.00     0.034 A 
ATOM     55  C   UNL A   1      40.386  31.288  34.028  1.00  0.00     0.034 A 
ATOM     56  C   UNL A   1      42.915  26.902  29.888  1.00  0.00     0.049 A 
ATOM     57  C   UNL A   1      41.526  30.298  34.127  1.00  0.00     0.074 A 
ATOM     58  C   UNL A   1      44.030  26.104  30.073  1.00  0.00     0.029 A 
ATOM     59  N   UNL A   1      42.747  27.625  31.062  1.00  0.00    -0.354 N 
ATOM     60  N   UNL A   1      41.973  29.456  33.223  1.00  0.00    -0.248 NA
ATOM     61  C   UNL A   1      42.263  30.256  35.398  1.00  0.00     0.031 C 
ATOM     62  C   UNL A   1      44.493  26.291  31.380  1.00  0.00     0.029 A 
ATOM     63  C   UNL A   1      43.722  27.271  31.982  1.00  0.00     0.049 A 
ATOM     64  H   UNL A   1      42.039  28.290  31.218  1.00  0.00     0.167 HD
ATOM     65  C   UNL A   1      43.066  28.817  33.806  1.00  0.00     0.074 A 
ATOM     66  C   UNL A   1      43.222  29.383  35.128  1.00  0.00     0.031 C 
ATOM     67  C   UNL A   1      43.872  27.849  33.296  1.00  0.00     0.034 A 
BRANCH  54  68
ATOM     68  C   UNL A   1      42.371  26.132  27.532  1.00  0.00     0.023 A 
ATOM     69  C   UNL A   1      41.904  24.809  27.441  1.00  0.00     0.031 A 
ATOM     70  C   UNL A   1      43.139  26.632  26.466  1.00  0.00     0.131 A 
ATOM     71  C   UNL A   1      42.253  24.016  26.337  1.00  0.00     0.055 A 
ATOM     72  C   UNL A   1      43.419  25.863  25.334  1.00  0.00     0.041 A 
ATOM     73  F   UNL A   1      43.634  27.879  26.506  1.00  0.00    -0.206 F 
ATOM     74  C   UNL A   1      42.983  24.543  25.270  1.00  0.00     0.022 A 
BRANCH  71  75
ATOM     75  S   UNL A   1      41.842  22.251  26.372  1.00  0.00     0.124 S 
ATOM     76  O   UNL A   1      42.623  21.744  25.246  1.00  0.00    -0.237 OA
ATOM     77  O   UNL A   1      42.295  21.846  27.697  1.00  0.00    -0.237 OA
ATOM     78  O   UNL A   1      40.394  22.231  26.175  1.00  0.00    -0.744 OA
ENDBRANCH  71  75
ENDBRANCH  54  68
BRANCH  55  79
ATOM     79  C   UNL A   1      40.008  32.120  35.210  1.00  0.00     0.023 A 
ATOM     80  C   UNL A   1      39.183  31.611  36.226  1.00  0.00     0.031 A 
ATOM     81  C   UNL A   1      40.383  33.475  35.288  1.00  0.00     0.131 A 
ATOM     82  C   UNL A   1      38.702  32.465  37.232  1.00  0.00     0.055 A 
ATOM     83  C   UNL A   1      39.964  34.300  36.333  1.00  0.00     0.041 A 
ATOM     84  F   UNL A   1      41.157  34.022  34.338  1.00  0.00    -0.206 F 
ATOM     85  C   UNL A   1      39.100  33.800  37.302  1.00  0.00     0.022 A 
BRANCH  82  86
ATOM     86  S   UNL A   1      37.426  31.839  38.360  1.00  0.00     0.124 S 
ATOM     87  O   UNL A   1      38.101  31.929  39.649  1.00  0.00    -0.237 OA
ATOM     88  O   UNL A   1      36.335  32.782  38.138  1.00  0.00    -0.237 OA
ATOM     89  O   UNL A   1      37.182  30.481  37.876  1.00  0.00    -0.744 OA
ENDBRANCH  82  86
ENDBRANCH  55  79
BRANCH  67  90
ATOM     90  C   UNL A   1      45.035  27.394  34.148  1.00  0.00     0.023 A 
ATOM     91  C   UNL A   1      44.937  26.298  35.022  1.00  0.00     0.031 A 
ATOM     92  C   UNL A   1      46.263  28.079  34.085  1.00  0.00     0.131 A 
ATOM     93  C   UNL A   1      46.024  25.957  35.842  1.00  0.00     0.055 A 
ATOM     94  C   UNL A   1      47.363  27.692  34.852  1.00  0.00     0.041 A 
ATOM     95  F   UNL A   1      46.416  29.136  33.271  1.00  0.00    -0.206 F 
ATOM     96  C   UNL A   1      47.242  26.634  35.748  1.00  0.00     0.022 A 
BRANCH  93  97
ATOM     97  S   UNL A   1      45.794  24.679  37.109  1.00  0.00     0.124 S 
ATOM     98  O   UNL A   1      46.247  23.479  36.415  1.00  0.00    -0.237 OA
ATOM     99  O   UNL A   1      46.651  25.153  38.191  1.00  0.00    -0.237 OA
ATOM    100  O   UNL A   1      44.360  24.729  37.390  1.00  0.00    -0.744 OA
ENDBRANCH  93  97
ENDBRANCH  67  90
ENDBRANCH  41  42
ENDBRANCH  34  36
ENDBRANCH  33  34
ENDBRANCH  32  33
ENDBRANCH  31  32
ENDBRANCH  30  31
ENDBRANCH   1  30
TORSDOF 21
ENDMDL
