MODEL 1
REMARK VINA RESULT:     -10.7      0.000      0.000
REMARK SMILES CCCOc1ccc(C[N@H+]2CC[C@H](C(=O)OCCOCCOC(=O)c3ccc(-c4c5nc(c(-c6cc(S(=O)(=O)[O-])ccc6F)c6ccc([nH]6)c(-c6cc(S(=O)(=O)[O-])ccc6F)c6nc(c(-c7cc(S(=O)(=O)[O-])ccc7F)c7ccc4[nH]7)C=C6)C=C5)cc3)[C@@H]2C)cc1
REMARK SMILES IDX 18 1 17 2 16 3 14 4 15 5 13 6 10 7 11 8 88 9 12 11 89 12
REMARK SMILES IDX 9 13 8 14 5 15 6 16 91 17 7 18 90 19 4 20 3 21 2 22 1 23
REMARK SMILES IDX 19 24 20 25 21 26 22 27 23 28 24 29 25 30 26 31 87 32 27 33
REMARK SMILES IDX 86 34 28 35 29 36 30 37 80 38 31 39 85 40 79 41 81 42 32 43
REMARK SMILES IDX 84 44 78 45 77 46 33 48 65 49 45 50 64 51 46 52 49 53 63 54
REMARK SMILES IDX 82 55 47 56 48 57 62 59 83 60 50 61 34 62 35 63 43 64 36 65
REMARK SMILES IDX 42 66 44 67 41 68 37 69 38 70 39 71 40 72 66 73 67 74 75 75
REMARK SMILES IDX 68 76 74 77 76 78 73 79 69 80 70 81 71 82 72 83 51 84 52 85
REMARK SMILES IDX 60 86 53 87 59 88 61 89 58 90 54 91 55 92 56 93 57 94
REMARK H PARENT 10 10 81 47 49 58
REMARK Flexibility Score: inf
ROOT
ATOM      1  C   UNL A   1      30.664  28.903  22.683  1.00  0.00     0.202 C 
ENDROOT
BRANCH   1   2
ATOM      2  C   UNL A   1      29.440  28.183  23.265  1.00  0.00     0.261 C 
BRANCH   2   3
ATOM      3  O   UNL A   1      29.557  26.761  23.191  1.00  0.00    -0.463 OA
BRANCH   3   4
ATOM      4  C   UNL A   1      30.057  26.152  24.307  1.00  0.00     0.315 C 
ATOM      5  O   UNL A   1      29.900  26.544  25.452  1.00  0.00    -0.252 OA
BRANCH   4   6
ATOM      6  C   UNL A   1      30.844  24.927  23.892  1.00  0.00     0.162 C 
ATOM      7  N   UNL A   1      33.256  24.893  23.970  1.00  0.00    -0.328 N 
ATOM      8  C   UNL A   1      32.816  25.599  22.763  1.00  0.00     0.263 C 
ATOM      9  C   UNL A   1      32.058  24.565  24.763  1.00  0.00     0.195 C 
ATOM     10  H   UNL A   1      33.855  25.519  24.510  1.00  0.00     0.348 HD
ATOM     11  C   UNL A   1      31.402  25.123  22.495  1.00  0.00     0.083 C 
ATOM     12  C   UNL A   1      32.163  25.195  26.150  1.00  0.00     0.076 C 
BRANCH   7  13
ATOM     13  C   UNL A   1      34.183  23.777  23.751  1.00  0.00     0.299 C 
BRANCH  13  14
ATOM     14  C   UNL A   1      33.644  22.382  23.989  1.00  0.00     0.006 A 
ATOM     15  C   UNL A   1      32.623  19.817  24.421  1.00  0.00     0.119 A 
ATOM     16  C   UNL A   1      33.450  20.393  25.379  1.00  0.00     0.047 A 
ATOM     17  C   UNL A   1      32.247  20.527  23.287  1.00  0.00     0.047 A 
ATOM     18  C   UNL A   1      33.962  21.673  25.161  1.00  0.00     0.013 A 
ATOM     19  C   UNL A   1      32.795  21.783  23.048  1.00  0.00     0.013 A 
BRANCH  15  20
ATOM     20  O   UNL A   1      32.147  18.549  24.596  1.00  0.00    -0.494 OA
BRANCH  20  21
ATOM     21  C   UNL A   1      33.150  17.691  25.166  1.00  0.00     0.229 C 
BRANCH  21  22
ATOM     22  C   UNL A   1      34.363  17.530  24.243  1.00  0.00     0.038 C 
ATOM     23  C   UNL A   1      34.134  16.509  23.133  1.00  0.00     0.007 C 
ENDBRANCH  21  22
ENDBRANCH  20  21
ENDBRANCH  15  20
ENDBRANCH  13  14
ENDBRANCH   7  13
ENDBRANCH   4   6
ENDBRANCH   3   4
ENDBRANCH   2   3
ENDBRANCH   1   2
BRANCH   1  24
ATOM     24  O   UNL A   1      31.817  29.060  23.505  1.00  0.00    -0.374 OA
BRANCH  24  25
ATOM     25  C   UNL A   1      31.642  29.497  24.852  1.00  0.00     0.202 C 
BRANCH  25  26
ATOM     26  C   UNL A   1      32.836  30.069  25.630  1.00  0.00     0.261 C 
BRANCH  26  27
ATOM     27  O   UNL A   1      32.485  30.604  26.919  1.00  0.00    -0.460 OA
BRANCH  27  28
ATOM     28  C   UNL A   1      33.172  31.722  27.274  1.00  0.00     0.338 C 
ATOM     29  O   UNL A   1      32.761  32.867  27.291  1.00  0.00    -0.246 OA
BRANCH  28  30
ATOM     30  C   UNL A   1      34.489  31.340  27.810  1.00  0.00     0.060 A 
ATOM     31  C   UNL A   1      34.662  30.034  28.288  1.00  0.00     0.016 A 
ATOM     32  C   UNL A   1      35.507  32.286  27.930  1.00  0.00     0.016 A 
ATOM     33  C   UNL A   1      35.866  29.668  28.888  1.00  0.00     0.010 A 
ATOM     34  C   UNL A   1      36.706  31.920  28.547  1.00  0.00     0.010 A 
ATOM     35  C   UNL A   1      36.886  30.615  29.040  1.00  0.00    -0.014 A 
BRANCH  35  36
ATOM     36  C   UNL A   1      38.111  30.273  29.801  1.00  0.00     0.031 A 
ATOM     37  C   UNL A   1      39.086  29.292  29.217  1.00  0.00     0.074 A 
ATOM     38  C   UNL A   1      38.337  30.831  31.003  1.00  0.00     0.049 A 
ATOM     39  N   UNL A   1      40.158  28.770  29.752  1.00  0.00    -0.248 NA
ATOM     40  C   UNL A   1      38.811  28.837  27.845  1.00  0.00     0.031 C 
ATOM     41  C   UNL A   1      37.486  31.839  31.635  1.00  0.00     0.029 A 
ATOM     42  N   UNL A   1      39.341  30.618  31.913  1.00  0.00    -0.354 N 
ATOM     43  C   UNL A   1      40.687  27.921  28.787  1.00  0.00     0.074 A 
ATOM     44  C   UNL A   1      39.798  27.979  27.644  1.00  0.00     0.031 C 
ATOM     45  C   UNL A   1      37.994  32.141  32.843  1.00  0.00     0.029 A 
ATOM     46  C   UNL A   1      39.173  31.312  33.088  1.00  0.00     0.049 A 
ATOM     47  H   UNL A   1      40.108  30.025  31.741  1.00  0.00     0.167 HD
ATOM     48  C   UNL A   1      41.812  27.167  28.852  1.00  0.00     0.034 A 
ATOM     49  C   UNL A   1      39.866  31.253  34.243  1.00  0.00     0.034 A 
ATOM     50  C   UNL A   1      42.671  27.111  30.011  1.00  0.00     0.049 A 
ATOM     51  C   UNL A   1      41.044  30.313  34.336  1.00  0.00     0.074 A 
ATOM     52  C   UNL A   1      43.844  26.397  30.182  1.00  0.00     0.029 A 
ATOM     53  N   UNL A   1      42.436  27.779  31.207  1.00  0.00    -0.354 N 
ATOM     54  N   UNL A   1      41.541  29.517  33.416  1.00  0.00    -0.248 NA
ATOM     55  C   UNL A   1      41.751  30.261  35.622  1.00  0.00     0.031 C 
ATOM     56  C   UNL A   1      44.274  26.572  31.503  1.00  0.00     0.029 A 
ATOM     57  C   UNL A   1      43.416  27.458  32.133  1.00  0.00     0.049 A 
ATOM     58  H   UNL A   1      41.683  28.392  31.372  1.00  0.00     0.167 HD
ATOM     59  C   UNL A   1      42.634  28.889  34.008  1.00  0.00     0.074 A 
ATOM     60  C   UNL A   1      42.731  29.408  35.357  1.00  0.00     0.031 C 
ATOM     61  C   UNL A   1      43.486  27.970  33.482  1.00  0.00     0.034 A 
BRANCH  48  62
ATOM     62  C   UNL A   1      42.137  26.300  27.660  1.00  0.00     0.023 A 
ATOM     63  C   UNL A   1      41.664  24.979  27.553  1.00  0.00     0.031 A 
ATOM     64  C   UNL A   1      42.955  26.791  26.628  1.00  0.00     0.131 A 
ATOM     65  C   UNL A   1      42.069  24.177  26.475  1.00  0.00     0.055 A 
ATOM     66  C   UNL A   1      43.291  26.012  25.519  1.00  0.00     0.041 A 
ATOM     67  F   UNL A   1      43.455  28.035  26.686  1.00  0.00    -0.206 F 
ATOM     68  C   UNL A   1      42.860  24.691  25.445  1.00  0.00     0.022 A 
BRANCH  65  69
ATOM     69  S   UNL A   1      41.664  22.408  26.510  1.00  0.00     0.124 S 
ATOM     70  O   UNL A   1      42.455  21.901  25.392  1.00  0.00    -0.237 OA
ATOM     71  O   UNL A   1      42.108  22.010  27.841  1.00  0.00    -0.237 OA
ATOM     72  O   UNL A   1      40.217  22.384  26.302  1.00  0.00    -0.744 OA
ENDBRANCH  65  69
ENDBRANCH  48  62
BRANCH  49  73
ATOM     73  C   UNL A   1      39.433  32.051  35.425  1.00  0.00     0.023 A 
ATOM     74  C   UNL A   1      39.923  33.348  35.644  1.00  0.00     0.031 A 
ATOM     75  C   UNL A   1      38.556  31.507  36.381  1.00  0.00     0.131 A 
ATOM     76  C   UNL A   1      39.566  34.042  36.811  1.00  0.00     0.055 A 
ATOM     77  C   UNL A   1      38.161  32.221  37.514  1.00  0.00     0.041 A 
ATOM     78  F   UNL A   1      38.061  30.269  36.223  1.00  0.00    -0.206 F 
ATOM     79  C   UNL A   1      38.677  33.493  37.740  1.00  0.00     0.022 A 
BRANCH  76  80
ATOM     80  S   UNL A   1      40.348  35.644  37.143  1.00  0.00     0.124 S 
ATOM     81  O   UNL A   1      39.659  36.512  36.194  1.00  0.00    -0.237 OA
ATOM     82  O   UNL A   1      40.029  35.850  38.551  1.00  0.00    -0.237 OA
ATOM     83  O   UNL A   1      41.760  35.399  36.855  1.00  0.00    -0.744 OA
ENDBRANCH  76  80
ENDBRANCH  49  73
BRANCH  61  84
ATOM     84  C   UNL A   1      44.614  27.496  34.365  1.00  0.00     0.023 A 
ATOM     85  C   UNL A   1      44.460  26.406  35.239  1.00  0.00     0.031 A 
ATOM     86  C   UNL A   1      45.863  28.142  34.322  1.00  0.00     0.131 A 
ATOM     87  C   UNL A   1      45.526  26.020  36.067  1.00  0.00     0.055 A 
ATOM     88  C   UNL A   1      46.937  27.717  35.106  1.00  0.00     0.041 A 
ATOM     89  F   UNL A   1      46.063  29.189  33.507  1.00  0.00    -0.206 F 
ATOM     90  C   UNL A   1      46.768  26.657  35.993  1.00  0.00     0.022 A 
BRANCH  87  91
ATOM     91  S   UNL A   1      45.247  24.716  37.297  1.00  0.00     0.124 S 
ATOM     92  O   UNL A   1      43.809  24.814  37.521  1.00  0.00    -0.237 OA
ATOM     93  O   UNL A   1      45.704  23.522  36.596  1.00  0.00    -0.237 OA
ATOM     94  O   UNL A   1      46.080  25.127  38.426  1.00  0.00    -0.744 OA
ENDBRANCH  87  91
ENDBRANCH  61  84
ENDBRANCH  35  36
ENDBRANCH  28  30
ENDBRANCH  27  28
ENDBRANCH  26  27
ENDBRANCH  25  26
ENDBRANCH  24  25
ENDBRANCH   1  24
TORSDOF 22
ENDMDL
MODEL 2
REMARK VINA RESULT:     -10.4      5.103      9.139
REMARK SMILES CCCOc1ccc(C[N@H+]2CC[C@H](C(=O)OCCOCCOC(=O)c3ccc(-c4c5nc(c(-c6cc(S(=O)(=O)[O-])ccc6F)c6ccc([nH]6)c(-c6cc(S(=O)(=O)[O-])ccc6F)c6nc(c(-c7cc(S(=O)(=O)[O-])ccc7F)c7ccc4[nH]7)C=C6)C=C5)cc3)[C@@H]2C)cc1
REMARK SMILES IDX 18 1 17 2 16 3 14 4 15 5 13 6 10 7 11 8 88 9 12 11 89 12
REMARK SMILES IDX 9 13 8 14 5 15 6 16 91 17 7 18 90 19 4 20 3 21 2 22 1 23
REMARK SMILES IDX 19 24 20 25 21 26 22 27 23 28 24 29 25 30 26 31 87 32 27 33
REMARK SMILES IDX 86 34 28 35 29 36 30 37 80 38 31 39 85 40 79 41 81 42 32 43
REMARK SMILES IDX 84 44 78 45 77 46 33 48 65 49 45 50 64 51 46 52 49 53 63 54
REMARK SMILES IDX 82 55 47 56 48 57 62 59 83 60 50 61 34 62 35 63 43 64 36 65
REMARK SMILES IDX 42 66 44 67 41 68 37 69 38 70 39 71 40 72 66 73 67 74 75 75
REMARK SMILES IDX 68 76 74 77 76 78 73 79 69 80 70 81 71 82 72 83 51 84 52 85
REMARK SMILES IDX 60 86 53 87 59 88 61 89 58 90 54 91 55 92 56 93 57 94
REMARK H PARENT 10 10 81 47 49 58
REMARK Flexibility Score: inf
ROOT
ATOM      1  C   UNL A   1      37.596  22.332  25.591  1.00  0.00     0.202 C 
ENDROOT
BRANCH   1   2
ATOM      2  C   UNL A   1      36.188  21.744  25.761  1.00  0.00     0.261 C 
BRANCH   2   3
ATOM      3  O   UNL A   1      35.578  21.419  24.510  1.00  0.00    -0.463 OA
BRANCH   3   4
ATOM      4  C   UNL A   1      34.349  21.974  24.293  1.00  0.00     0.315 C 
ATOM      5  O   UNL A   1      33.281  21.410  24.472  1.00  0.00    -0.252 OA
BRANCH   4   6
ATOM      6  C   UNL A   1      34.526  23.390  23.787  1.00  0.00     0.162 C 
ATOM      7  N   UNL A   1      32.754  25.020  23.956  1.00  0.00    -0.328 N 
ATOM      8  C   UNL A   1      32.502  24.141  22.812  1.00  0.00     0.263 C 
ATOM      9  C   UNL A   1      33.942  24.510  24.664  1.00  0.00     0.195 C 
ATOM     10  H   UNL A   1      31.948  24.978  24.580  1.00  0.00     0.348 HD
ATOM     11  C   UNL A   1      33.845  23.543  22.441  1.00  0.00     0.083 C 
ATOM     12  C   UNL A   1      33.584  24.179  26.111  1.00  0.00     0.076 C 
BRANCH   7  13
ATOM     13  C   UNL A   1      32.775  26.456  23.661  1.00  0.00     0.299 C 
BRANCH  13  14
ATOM     14  C   UNL A   1      31.437  27.128  23.427  1.00  0.00     0.006 A 
ATOM     15  C   UNL A   1      28.982  28.392  23.001  1.00  0.00     0.119 A 
ATOM     16  C   UNL A   1      29.047  27.299  23.858  1.00  0.00     0.047 A 
ATOM     17  C   UNL A   1      30.132  28.900  22.409  1.00  0.00     0.047 A 
ATOM     18  C   UNL A   1      30.273  26.666  24.068  1.00  0.00     0.013 A 
ATOM     19  C   UNL A   1      31.344  28.241  22.581  1.00  0.00     0.013 A 
BRANCH  15  20
ATOM     20  O   UNL A   1      27.784  28.998  22.749  1.00  0.00    -0.494 OA
BRANCH  20  21
ATOM     21  C   UNL A   1      27.972  30.308  22.186  1.00  0.00     0.229 C 
BRANCH  21  22
ATOM     22  C   UNL A   1      27.668  31.420  23.196  1.00  0.00     0.038 C 
ATOM     23  C   UNL A   1      28.589  32.627  23.047  1.00  0.00     0.007 C 
ENDBRANCH  21  22
ENDBRANCH  20  21
ENDBRANCH  15  20
ENDBRANCH  13  14
ENDBRANCH   7  13
ENDBRANCH   4   6
ENDBRANCH   3   4
ENDBRANCH   2   3
ENDBRANCH   1   2
BRANCH   1  24
ATOM     24  O   UNL A   1      38.716  21.537  25.971  1.00  0.00    -0.374 OA
BRANCH  24  25
ATOM     25  C   UNL A   1      38.852  20.234  25.406  1.00  0.00     0.202 C 
BRANCH  25  26
ATOM     26  C   UNL A   1      39.774  19.204  26.077  1.00  0.00     0.261 C 
BRANCH  26  27
ATOM     27  O   UNL A   1      41.126  19.233  25.589  1.00  0.00    -0.460 OA
BRANCH  27  28
ATOM     28  C   UNL A   1      42.063  19.515  26.533  1.00  0.00     0.338 C 
ATOM     29  O   UNL A   1      42.843  18.739  27.054  1.00  0.00    -0.246 OA
BRANCH  28  30
ATOM     30  C   UNL A   1      42.126  20.970  26.744  1.00  0.00     0.060 A 
ATOM     31  C   UNL A   1      42.161  21.807  25.621  1.00  0.00     0.016 A 
ATOM     32  C   UNL A   1      42.248  21.495  28.030  1.00  0.00     0.016 A 
ATOM     33  C   UNL A   1      42.315  23.183  25.784  1.00  0.00     0.010 A 
ATOM     34  C   UNL A   1      42.421  22.872  28.189  1.00  0.00     0.010 A 
ATOM     35  C   UNL A   1      42.468  23.720  27.068  1.00  0.00    -0.014 A 
BRANCH  35  36
ATOM     36  C   UNL A   1      42.773  25.160  27.240  1.00  0.00     0.031 A 
ATOM     37  C   UNL A   1      44.117  25.679  26.818  1.00  0.00     0.074 A 
ATOM     38  C   UNL A   1      41.856  25.986  27.775  1.00  0.00     0.049 A 
ATOM     39  N   UNL A   1      44.633  26.870  26.975  1.00  0.00    -0.248 NA
ATOM     40  C   UNL A   1      44.998  24.724  26.128  1.00  0.00     0.031 C 
ATOM     41  C   UNL A   1      40.501  25.597  28.164  1.00  0.00     0.029 A 
ATOM     42  N   UNL A   1      41.933  27.316  28.099  1.00  0.00    -0.354 N 
ATOM     43  C   UNL A   1      45.901  26.810  26.408  1.00  0.00     0.074 A 
ATOM     44  C   UNL A   1      46.084  25.455  25.931  1.00  0.00     0.031 C 
ATOM     45  C   UNL A   1      39.879  26.664  28.695  1.00  0.00     0.029 A 
ATOM     46  C   UNL A   1      40.808  27.792  28.731  1.00  0.00     0.049 A 
ATOM     47  H   UNL A   1      42.717  27.876  27.898  1.00  0.00     0.167 HD
ATOM     48  C   UNL A   1      46.822  27.799  26.298  1.00  0.00     0.034 A 
ATOM     49  C   UNL A   1      40.572  28.987  29.309  1.00  0.00     0.034 A 
ATOM     50  C   UNL A   1      46.624  29.137  26.802  1.00  0.00     0.049 A 
ATOM     51  C   UNL A   1      41.659  30.034  29.282  1.00  0.00     0.074 A 
ATOM     52  C   UNL A   1      47.480  30.222  26.730  1.00  0.00     0.029 A 
ATOM     53  N   UNL A   1      45.497  29.567  27.492  1.00  0.00    -0.354 N 
ATOM     54  N   UNL A   1      42.855  29.972  28.740  1.00  0.00    -0.248 NA
ATOM     55  C   UNL A   1      41.369  31.310  29.949  1.00  0.00     0.031 C 
ATOM     56  C   UNL A   1      46.905  31.281  27.442  1.00  0.00     0.029 A 
ATOM     57  C   UNL A   1      45.655  30.886  27.890  1.00  0.00     0.049 A 
ATOM     58  H   UNL A   1      44.701  29.016  27.671  1.00  0.00     0.167 HD
ATOM     59  C   UNL A   1      43.447  31.209  28.980  1.00  0.00     0.074 A 
ATOM     60  C   UNL A   1      42.473  32.001  29.704  1.00  0.00     0.031 C 
ATOM     61  C   UNL A   1      44.681  31.654  28.629  1.00  0.00     0.034 A 
BRANCH  48  62
ATOM     62  C   UNL A   1      48.146  27.446  25.664  1.00  0.00     0.023 A 
ATOM     63  C   UNL A   1      48.398  27.669  24.298  1.00  0.00     0.031 A 
ATOM     64  C   UNL A   1      49.164  26.852  26.432  1.00  0.00     0.131 A 
ATOM     65  C   UNL A   1      49.606  27.238  23.730  1.00  0.00     0.055 A 
ATOM     66  C   UNL A   1      50.394  26.496  25.876  1.00  0.00     0.041 A 
ATOM     67  F   UNL A   1      48.973  26.593  27.735  1.00  0.00    -0.206 F 
ATOM     68  C   UNL A   1      50.615  26.674  24.515  1.00  0.00     0.022 A 
BRANCH  65  69
ATOM     69  S   UNL A   1      49.785  27.294  21.925  1.00  0.00     0.124 S 
ATOM     70  O   UNL A   1      51.101  26.688  21.739  1.00  0.00    -0.237 OA
ATOM     71  O   UNL A   1      48.647  26.504  21.472  1.00  0.00    -0.237 OA
ATOM     72  O   UNL A   1      49.716  28.722  21.619  1.00  0.00    -0.744 OA
ENDBRANCH  65  69
ENDBRANCH  48  62
BRANCH  49  73
ATOM     73  C   UNL A   1      39.286  29.243  30.017  1.00  0.00     0.023 A 
ATOM     74  C   UNL A   1      38.296  30.062  29.454  1.00  0.00     0.031 A 
ATOM     75  C   UNL A   1      39.048  28.705  31.296  1.00  0.00     0.131 A 
ATOM     76  C   UNL A   1      37.133  30.355  30.183  1.00  0.00     0.055 A 
ATOM     77  C   UNL A   1      37.866  28.955  31.995  1.00  0.00     0.041 A 
ATOM     78  F   UNL A   1      39.963  27.917  31.883  1.00  0.00    -0.206 F 
ATOM     79  C   UNL A   1      36.904  29.795  31.443  1.00  0.00     0.022 A 
BRANCH  76  80
ATOM     80  S   UNL A   1      35.954  31.550  29.495  1.00  0.00     0.124 S 
ATOM     81  O   UNL A   1      36.801  32.722  29.301  1.00  0.00    -0.237 OA
ATOM     82  O   UNL A   1      35.509  30.872  28.283  1.00  0.00    -0.237 OA
ATOM     83  O   UNL A   1      34.945  31.675  30.545  1.00  0.00    -0.744 OA
ENDBRANCH  76  80
ENDBRANCH  49  73
BRANCH  61  84
ATOM     84  C   UNL A   1      45.030  33.075  28.999  1.00  0.00     0.023 A 
ATOM     85  C   UNL A   1      44.821  34.143  28.110  1.00  0.00     0.031 A 
ATOM     86  C   UNL A   1      45.571  33.362  30.266  1.00  0.00     0.131 A 
ATOM     87  C   UNL A   1      45.192  35.444  28.482  1.00  0.00     0.055 A 
ATOM     88  C   UNL A   1      45.884  34.666  30.652  1.00  0.00     0.041 A 
ATOM     89  F   UNL A   1      45.793  32.380  31.153  1.00  0.00    -0.206 F 
ATOM     90  C   UNL A   1      45.705  35.715  29.754  1.00  0.00     0.022 A 
BRANCH  87  91
ATOM     91  S   UNL A   1      45.060  36.774  27.256  1.00  0.00     0.124 S 
ATOM     92  O   UNL A   1      45.669  37.897  27.961  1.00  0.00    -0.237 OA
ATOM     93  O   UNL A   1      45.818  36.240  26.131  1.00  0.00    -0.237 OA
ATOM     94  O   UNL A   1      43.620  36.891  27.031  1.00  0.00    -0.744 OA
ENDBRANCH  87  91
ENDBRANCH  61  84
ENDBRANCH  35  36
ENDBRANCH  28  30
ENDBRANCH  27  28
ENDBRANCH  26  27
ENDBRANCH  25  26
ENDBRANCH  24  25
ENDBRANCH   1  24
TORSDOF 22
ENDMDL
MODEL 3
REMARK VINA RESULT:     -10.4      1.893      7.771
REMARK SMILES CCCOc1ccc(C[N@H+]2CC[C@H](C(=O)OCCOCCOC(=O)c3ccc(-c4c5nc(c(-c6cc(S(=O)(=O)[O-])ccc6F)c6ccc([nH]6)c(-c6cc(S(=O)(=O)[O-])ccc6F)c6nc(c(-c7cc(S(=O)(=O)[O-])ccc7F)c7ccc4[nH]7)C=C6)C=C5)cc3)[C@@H]2C)cc1
REMARK SMILES IDX 18 1 17 2 16 3 14 4 15 5 13 6 10 7 11 8 88 9 12 11 89 12
REMARK SMILES IDX 9 13 8 14 5 15 6 16 91 17 7 18 90 19 4 20 3 21 2 22 1 23
REMARK SMILES IDX 19 24 20 25 21 26 22 27 23 28 24 29 25 30 26 31 87 32 27 33
REMARK SMILES IDX 86 34 28 35 29 36 30 37 80 38 31 39 85 40 79 41 81 42 32 43
REMARK SMILES IDX 84 44 78 45 77 46 33 48 65 49 45 50 64 51 46 52 49 53 63 54
REMARK SMILES IDX 82 55 47 56 48 57 62 59 83 60 50 61 34 62 35 63 43 64 36 65
REMARK SMILES IDX 42 66 44 67 41 68 37 69 38 70 39 71 40 72 66 73 67 74 75 75
REMARK SMILES IDX 68 76 74 77 76 78 73 79 69 80 70 81 71 82 72 83 51 84 52 85
REMARK SMILES IDX 60 86 53 87 59 88 61 89 58 90 54 91 55 92 56 93 57 94
REMARK H PARENT 10 10 81 47 49 58
REMARK Flexibility Score: inf
ROOT
ATOM      1  C   UNL A   1      32.396  29.392  24.527  1.00  0.00     0.202 C 
ENDROOT
BRANCH   1   2
ATOM      2  C   UNL A   1      32.024  28.892  23.124  1.00  0.00     0.261 C 
BRANCH   2   3
ATOM      3  O   UNL A   1      32.005  27.466  23.041  1.00  0.00    -0.463 OA
BRANCH   3   4
ATOM      4  C   UNL A   1      30.982  26.851  23.705  1.00  0.00     0.315 C 
ATOM      5  O   UNL A   1      29.794  27.069  23.525  1.00  0.00    -0.252 OA
BRANCH   4   6
ATOM      6  C   UNL A   1      31.558  25.869  24.703  1.00  0.00     0.162 C 
ATOM      7  N   UNL A   1      30.256  24.021  25.549  1.00  0.00    -0.328 N 
ATOM      8  C   UNL A   1      29.882  25.247  26.259  1.00  0.00     0.263 C 
ATOM      9  C   UNL A   1      31.210  24.387  24.487  1.00  0.00     0.195 C 
ATOM     10  H   UNL A   1      29.418  23.625  25.124  1.00  0.00     0.348 HD
ATOM     11  C   UNL A   1      31.053  26.196  26.096  1.00  0.00     0.083 C 
ATOM     12  C   UNL A   1      30.661  23.968  23.126  1.00  0.00     0.076 C 
BRANCH   7  13
ATOM     13  C   UNL A   1      30.670  22.897  26.396  1.00  0.00     0.299 C 
BRANCH  13  14
ATOM     14  C   UNL A   1      32.092  22.401  26.232  1.00  0.00     0.006 A 
ATOM     15  C   UNL A   1      34.704  21.459  25.932  1.00  0.00     0.119 A 
ATOM     16  C   UNL A   1      34.448  22.485  26.835  1.00  0.00     0.047 A 
ATOM     17  C   UNL A   1      33.668  20.856  25.229  1.00  0.00     0.047 A 
ATOM     18  C   UNL A   1      33.143  22.957  26.982  1.00  0.00     0.013 A 
ATOM     19  C   UNL A   1      32.377  21.358  25.341  1.00  0.00     0.013 A 
BRANCH  15  20
ATOM     20  O   UNL A   1      35.981  21.013  25.743  1.00  0.00    -0.494 OA
BRANCH  20  21
ATOM     21  C   UNL A   1      36.597  21.660  24.615  1.00  0.00     0.229 C 
BRANCH  21  22
ATOM     22  C   UNL A   1      37.546  22.784  25.042  1.00  0.00     0.038 C 
ATOM     23  C   UNL A   1      38.561  22.339  26.089  1.00  0.00     0.007 C 
ENDBRANCH  21  22
ENDBRANCH  20  21
ENDBRANCH  15  20
ENDBRANCH  13  14
ENDBRANCH   7  13
ENDBRANCH   4   6
ENDBRANCH   3   4
ENDBRANCH   2   3
ENDBRANCH   1   2
BRANCH   1  24
ATOM     24  O   UNL A   1      31.349  29.780  25.411  1.00  0.00    -0.374 OA
BRANCH  24  25
ATOM     25  C   UNL A   1      30.919  31.141  25.407  1.00  0.00     0.202 C 
BRANCH  25  26
ATOM     26  C   UNL A   1      31.405  32.098  26.506  1.00  0.00     0.261 C 
BRANCH  26  27
ATOM     27  O   UNL A   1      32.561  31.622  27.219  1.00  0.00    -0.460 OA
BRANCH  27  28
ATOM     28  C   UNL A   1      33.442  32.593  27.579  1.00  0.00     0.338 C 
ATOM     29  O   UNL A   1      33.244  33.793  27.619  1.00  0.00    -0.246 OA
BRANCH  28  30
ATOM     30  C   UNL A   1      34.675  31.972  28.090  1.00  0.00     0.060 A 
ATOM     31  C   UNL A   1      34.659  30.603  28.390  1.00  0.00     0.016 A 
ATOM     32  C   UNL A   1      35.800  32.749  28.362  1.00  0.00     0.016 A 
ATOM     33  C   UNL A   1      35.779  30.003  28.963  1.00  0.00     0.010 A 
ATOM     34  C   UNL A   1      36.915  32.149  28.953  1.00  0.00     0.010 A 
ATOM     35  C   UNL A   1      36.905  30.778  29.268  1.00  0.00    -0.014 A 
BRANCH  35  36
ATOM     36  C   UNL A   1      38.043  30.178  30.004  1.00  0.00     0.031 A 
ATOM     37  C   UNL A   1      38.308  30.607  31.418  1.00  0.00     0.074 A 
ATOM     38  C   UNL A   1      38.830  29.267  29.406  1.00  0.00     0.049 A 
ATOM     39  N   UNL A   1      39.303  30.296  32.206  1.00  0.00    -0.248 NA
ATOM     40  C   UNL A   1      37.316  31.510  32.022  1.00  0.00     0.031 C 
ATOM     41  C   UNL A   1      38.627  28.737  28.057  1.00  0.00     0.029 A 
ATOM     42  N   UNL A   1      39.966  28.639  29.848  1.00  0.00    -0.354 N 
ATOM     43  C   UNL A   1      39.063  30.967  33.400  1.00  0.00     0.074 A 
ATOM     44  C   UNL A   1      37.842  31.724  33.218  1.00  0.00     0.031 C 
ATOM     45  C   UNL A   1      39.621  27.878  27.774  1.00  0.00     0.029 A 
ATOM     46  C   UNL A   1      40.555  27.838  28.897  1.00  0.00     0.049 A 
ATOM     47  H   UNL A   1      40.326  28.752  30.757  1.00  0.00     0.167 HD
ATOM     48  C   UNL A   1      39.797  30.948  34.540  1.00  0.00     0.034 A 
ATOM     49  C   UNL A   1      41.734  27.184  28.917  1.00  0.00     0.034 A 
ATOM     50  C   UNL A   1      41.023  30.201  34.689  1.00  0.00     0.049 A 
ATOM     51  C   UNL A   1      42.595  27.276  30.154  1.00  0.00     0.074 A 
ATOM     52  C   UNL A   1      41.838  30.094  35.803  1.00  0.00     0.029 A 
ATOM     53  N   UNL A   1      41.623  29.451  33.686  1.00  0.00    -0.354 N 
ATOM     54  N   UNL A   1      42.359  27.909  31.281  1.00  0.00    -0.248 NA
ATOM     55  C   UNL A   1      43.883  26.570  30.120  1.00  0.00     0.031 C 
ATOM     56  C   UNL A   1      42.967  29.346  35.449  1.00  0.00     0.029 A 
ATOM     57  C   UNL A   1      42.820  28.917  34.140  1.00  0.00     0.049 A 
ATOM     58  H   UNL A   1      41.253  29.317  32.783  1.00  0.00     0.167 HD
ATOM     59  C   UNL A   1      43.459  27.656  32.097  1.00  0.00     0.074 A 
ATOM     60  C   UNL A   1      44.351  26.803  31.338  1.00  0.00     0.031 C 
ATOM     61  C   UNL A   1      43.707  28.084  33.362  1.00  0.00     0.034 A 
BRANCH  48  62
ATOM     62  C   UNL A   1      39.322  31.808  35.686  1.00  0.00     0.023 A 
ATOM     63  C   UNL A   1      38.607  31.271  36.771  1.00  0.00     0.031 A 
ATOM     64  C   UNL A   1      39.564  33.193  35.680  1.00  0.00     0.131 A 
ATOM     65  C   UNL A   1      38.101  32.121  37.766  1.00  0.00     0.055 A 
ATOM     66  C   UNL A   1      39.125  34.024  36.713  1.00  0.00     0.041 A 
ATOM     67  F   UNL A   1      40.221  33.767  34.660  1.00  0.00    -0.206 F 
ATOM     68  C   UNL A   1      38.375  33.491  37.757  1.00  0.00     0.022 A 
BRANCH  65  69
ATOM     69  S   UNL A   1      36.959  31.433  38.997  1.00  0.00     0.124 S 
ATOM     70  O   UNL A   1      37.763  31.497  40.215  1.00  0.00    -0.237 OA
ATOM     71  O   UNL A   1      35.830  32.353  38.928  1.00  0.00    -0.237 OA
ATOM     72  O   UNL A   1      36.695  30.083  38.503  1.00  0.00    -0.744 OA
ENDBRANCH  65  69
ENDBRANCH  48  62
BRANCH  49  73
ATOM     73  C   UNL A   1      42.204  26.438  27.715  1.00  0.00     0.023 A 
ATOM     74  C   UNL A   1      42.144  25.038  27.659  1.00  0.00     0.031 A 
ATOM     75  C   UNL A   1      42.767  27.119  26.620  1.00  0.00     0.131 A 
ATOM     76  C   UNL A   1      42.674  24.359  26.550  1.00  0.00     0.055 A 
ATOM     77  C   UNL A   1      43.245  26.443  25.496  1.00  0.00     0.041 A 
ATOM     78  F   UNL A   1      42.853  28.459  26.622  1.00  0.00    -0.206 F 
ATOM     79  C   UNL A   1      43.211  25.053  25.462  1.00  0.00     0.022 A 
BRANCH  76  80
ATOM     80  S   UNL A   1      42.731  22.547  26.587  1.00  0.00     0.124 S 
ATOM     81  O   UNL A   1      41.811  22.244  27.677  1.00  0.00    -0.237 OA
ATOM     82  O   UNL A   1      42.273  22.203  25.245  1.00  0.00    -0.237 OA
ATOM     83  O   UNL A   1      44.138  22.256  26.857  1.00  0.00    -0.744 OA
ENDBRANCH  76  80
ENDBRANCH  49  73
BRANCH  61  84
ATOM     84  C   UNL A   1      44.983  27.605  34.011  1.00  0.00     0.023 A 
ATOM     85  C   UNL A   1      45.036  26.404  34.738  1.00  0.00     0.031 A 
ATOM     86  C   UNL A   1      46.163  28.362  33.890  1.00  0.00     0.131 A 
ATOM     87  C   UNL A   1      46.236  26.014  35.354  1.00  0.00     0.055 A 
ATOM     88  C   UNL A   1      47.367  27.940  34.457  1.00  0.00     0.041 A 
ATOM     89  F   UNL A   1      46.167  29.518  33.208  1.00  0.00    -0.206 F 
ATOM     90  C   UNL A   1      47.405  26.765  35.202  1.00  0.00     0.022 A 
BRANCH  87  91
ATOM     91  S   UNL A   1      46.233  24.545  36.417  1.00  0.00     0.124 S 
ATOM     92  O   UNL A   1      44.813  24.391  36.718  1.00  0.00    -0.237 OA
ATOM     93  O   UNL A   1      46.815  23.528  35.549  1.00  0.00    -0.237 OA
ATOM     94  O   UNL A   1      47.067  24.941  37.551  1.00  0.00    -0.744 OA
ENDBRANCH  87  91
ENDBRANCH  61  84
ENDBRANCH  35  36
ENDBRANCH  28  30
ENDBRANCH  27  28
ENDBRANCH  26  27
ENDBRANCH  25  26
ENDBRANCH  24  25
ENDBRANCH   1  24
TORSDOF 22
ENDMDL
