MODEL 1
REMARK VINA RESULT:     -12.8      0.000      0.000
REMARK SMILES Cc1cnn(C2(C(=O)OCCOCCOC(=O)c3ccc(-c4c5nc(c(-c6cc(S(=O)(=O)[O-])ccc6F)c6ccc([nH]6)c(-c6cc(S(=O)(=O)[O-])ccc6F)c6nc(c(-c7cc(S(=O)(=O)[O-])ccc7F)c7ccc4[nH]7)C=C6)C=C5)cc3)CCN(C(=O)c3cc4ccccc4[nH]3)CC2)c1
REMARK SMILES IDX 13 1 12 2 11 3 10 4 9 5 7 6 8 7 6 8 81 9 96 10 82 11 95 12
REMARK SMILES IDX 83 13 84 14 85 15 5 16 1 17 2 18 3 19 97 20 4 21 86 22 87 23
REMARK SMILES IDX 94 24 88 25 93 26 89 28 92 29 90 30 91 31 14 32 15 33 16 34
REMARK SMILES IDX 17 35 18 36 19 37 80 38 20 39 79 40 21 41 22 42 23 43 73 44
REMARK SMILES IDX 24 45 78 46 72 47 74 48 25 49 77 50 71 51 70 52 26 54 58 55
REMARK SMILES IDX 38 56 57 57 39 58 42 59 56 60 75 61 40 62 41 63 55 65 76 66
REMARK SMILES IDX 43 67 27 68 28 69 36 70 29 71 35 72 37 73 34 74 30 75 31 76
REMARK SMILES IDX 32 77 33 78 59 79 60 80 68 81 61 82 67 83 69 84 66 85 62 86
REMARK SMILES IDX 63 87 64 88 65 89 44 90 45 91 53 92 46 93 52 94 54 95 51 96
REMARK SMILES IDX 47 97 48 98 49 99 50 100
REMARK H PARENT 94 27 74 53 42 64
REMARK Flexibility Score: inf
ROOT
ATOM      1  C   UNL A   1      39.777  20.469  26.034  1.00  0.00     0.202 C 
ENDROOT
BRANCH   1   2
ATOM      2  O   UNL A   1      38.702  21.342  25.699  1.00  0.00    -0.374 OA
BRANCH   2   3
ATOM      3  C   UNL A   1      37.601  20.769  24.979  1.00  0.00     0.202 C 
BRANCH   3   4
ATOM      4  C   UNL A   1      36.487  21.768  24.604  1.00  0.00     0.261 C 
BRANCH   4   5
ATOM      5  O   UNL A   1      35.242  21.040  24.580  1.00  0.00    -0.461 OA
BRANCH   5   6
ATOM      6  C   UNL A   1      34.224  21.264  25.466  1.00  0.00     0.334 C 
ATOM      7  O   UNL A   1      34.391  21.554  26.642  1.00  0.00    -0.249 OA
BRANCH   6   8
ATOM      8  C   UNL A   1      32.857  21.232  24.698  1.00  0.00     0.163 C 
ATOM      9  C   UNL A   1      32.752  21.773  23.248  1.00  0.00     0.064 C 
ATOM     10  C   UNL A   1      31.876  22.140  25.504  1.00  0.00     0.064 C 
ATOM     11  C   UNL A   1      33.115  23.220  23.084  1.00  0.00     0.123 C 
ATOM     12  C   UNL A   1      32.417  23.590  25.446  1.00  0.00     0.123 C 
ATOM     13  N   UNL A   1      32.458  24.054  24.061  1.00  0.00    -0.337 N 
ATOM     14  C   UNL A   1      31.987  25.296  23.662  1.00  0.00     0.270 C 
ATOM     15  O   UNL A   1      31.446  25.478  22.574  1.00  0.00    -0.267 OA
BRANCH   8  16
ATOM     16  N   UNL A   1      32.585  19.794  24.513  1.00  0.00    -0.255 N 
ATOM     17  C   UNL A   1      33.283  16.408  25.669  1.00  0.00     0.048 C 
ATOM     18  C   UNL A   1      32.878  17.642  24.960  1.00  0.00    -0.013 A 
ATOM     19  C   UNL A   1      32.606  17.887  23.596  1.00  0.00     0.138 A 
ATOM     20  C   UNL A   1      32.744  18.878  25.534  1.00  0.00     0.113 A 
ATOM     21  N   UNL A   1      32.459  19.193  23.314  1.00  0.00    -0.180 NA
ENDBRANCH   8  16
BRANCH  14  22
ATOM     22  C   UNL A   1      32.260  26.371  24.578  1.00  0.00     0.105 A 
ATOM     23  C   UNL A   1      31.363  27.237  25.181  1.00  0.00     0.042 A 
ATOM     24  N   UNL A   1      33.505  26.674  25.068  1.00  0.00    -0.351 N 
ATOM     25  C   UNL A   1      32.100  28.160  25.959  1.00  0.00     0.000 A 
ATOM     26  C   UNL A   1      33.441  27.792  25.868  1.00  0.00     0.046 A 
ATOM     27  H   UNL A   1      34.326  26.166  24.874  1.00  0.00     0.167 HD
ATOM     28  C   UNL A   1      31.744  29.283  26.725  1.00  0.00     0.010 A 
ATOM     29  C   UNL A   1      34.459  28.504  26.511  1.00  0.00     0.026 A 
ATOM     30  C   UNL A   1      32.751  30.018  27.357  1.00  0.00     0.001 A 
ATOM     31  C   UNL A   1      34.086  29.630  27.252  1.00  0.00     0.002 A 
ENDBRANCH  14  22
ENDBRANCH   6   8
ENDBRANCH   5   6
ENDBRANCH   4   5
ENDBRANCH   3   4
ENDBRANCH   2   3
ENDBRANCH   1   2
BRANCH   1  32
ATOM     32  C   UNL A   1      40.751  20.936  27.108  1.00  0.00     0.261 C 
BRANCH  32  33
ATOM     33  O   UNL A   1      40.465  22.246  27.589  1.00  0.00    -0.460 OA
BRANCH  33  34
ATOM     34  C   UNL A   1      41.271  23.207  27.096  1.00  0.00     0.338 C 
ATOM     35  O   UNL A   1      42.181  23.054  26.281  1.00  0.00    -0.246 OA
BRANCH  34  36
ATOM     36  C   UNL A   1      41.033  24.450  27.837  1.00  0.00     0.060 A 
ATOM     37  C   UNL A   1      39.900  25.192  27.491  1.00  0.00     0.016 A 
ATOM     38  C   UNL A   1      42.029  24.982  28.672  1.00  0.00     0.016 A 
ATOM     39  C   UNL A   1      39.851  26.525  27.842  1.00  0.00     0.010 A 
ATOM     40  C   UNL A   1      41.989  26.319  29.000  1.00  0.00     0.010 A 
ATOM     41  C   UNL A   1      40.934  27.094  28.526  1.00  0.00    -0.014 A 
BRANCH  41  42
ATOM     42  C   UNL A   1      40.841  28.485  28.930  1.00  0.00     0.031 A 
ATOM     43  C   UNL A   1      41.953  29.278  28.363  1.00  0.00     0.074 A 
ATOM     44  C   UNL A   1      39.822  29.003  29.644  1.00  0.00     0.049 A 
ATOM     45  N   UNL A   1      43.007  29.682  28.990  1.00  0.00    -0.248 NA
ATOM     46  C   UNL A   1      42.045  29.414  26.898  1.00  0.00     0.031 C 
ATOM     47  C   UNL A   1      38.578  28.350  30.049  1.00  0.00     0.029 A 
ATOM     48  N   UNL A   1      39.653  30.277  30.099  1.00  0.00    -0.354 N 
ATOM     49  C   UNL A   1      43.748  30.380  28.047  1.00  0.00     0.074 A 
ATOM     50  C   UNL A   1      43.261  29.945  26.767  1.00  0.00     0.031 C 
ATOM     51  C   UNL A   1      37.701  29.287  30.485  1.00  0.00     0.029 A 
ATOM     52  C   UNL A   1      38.354  30.588  30.503  1.00  0.00     0.049 A 
ATOM     53  H   UNL A   1      40.391  30.928  30.139  1.00  0.00     0.167 HD
ATOM     54  C   UNL A   1      44.461  31.478  28.412  1.00  0.00     0.034 A 
ATOM     55  C   UNL A   1      37.850  31.828  30.776  1.00  0.00     0.034 A 
ATOM     56  C   UNL A   1      44.631  31.519  29.850  1.00  0.00     0.049 A 
ATOM     57  C   UNL A   1      39.012  32.701  31.086  1.00  0.00     0.074 A 
ATOM     58  C   UNL A   1      45.183  30.662  30.784  1.00  0.00     0.029 A 
ATOM     59  N   UNL A   1      43.831  32.385  30.566  1.00  0.00    -0.354 N 
ATOM     60  N   UNL A   1      39.752  32.545  32.149  1.00  0.00    -0.248 NA
ATOM     61  C   UNL A   1      39.663  33.392  29.981  1.00  0.00     0.031 C 
ATOM     62  C   UNL A   1      44.321  30.743  31.916  1.00  0.00     0.029 A 
ATOM     63  C   UNL A   1      43.350  31.716  31.664  1.00  0.00     0.049 A 
ATOM     64  H   UNL A   1      43.638  33.321  30.330  1.00  0.00     0.167 HD
ATOM     65  C   UNL A   1      41.057  32.684  31.701  1.00  0.00     0.074 A 
ATOM     66  C   UNL A   1      40.936  33.296  30.378  1.00  0.00     0.031 C 
ATOM     67  C   UNL A   1      42.085  32.019  32.310  1.00  0.00     0.034 A 
BRANCH  54  68
ATOM     68  C   UNL A   1      44.618  32.716  27.552  1.00  0.00     0.023 A 
ATOM     69  C   UNL A   1      43.925  33.862  27.980  1.00  0.00     0.031 A 
ATOM     70  C   UNL A   1      45.124  32.763  26.232  1.00  0.00     0.131 A 
ATOM     71  C   UNL A   1      43.638  34.907  27.087  1.00  0.00     0.055 A 
ATOM     72  C   UNL A   1      44.896  33.839  25.370  1.00  0.00     0.041 A 
ATOM     73  F   UNL A   1      45.787  31.754  25.662  1.00  0.00    -0.206 F 
ATOM     74  C   UNL A   1      44.116  34.902  25.781  1.00  0.00     0.022 A 
BRANCH  71  75
ATOM     75  S   UNL A   1      42.464  36.175  27.618  1.00  0.00     0.124 S 
ATOM     76  O   UNL A   1      42.443  37.052  26.453  1.00  0.00    -0.237 OA
ATOM     77  O   UNL A   1      41.260  35.387  27.856  1.00  0.00    -0.237 OA
ATOM     78  O   UNL A   1      43.091  36.733  28.814  1.00  0.00    -0.744 OA
ENDBRANCH  71  75
ENDBRANCH  54  68
BRANCH  55  79
ATOM     79  C   UNL A   1      36.489  32.368  30.459  1.00  0.00     0.023 A 
ATOM     80  C   UNL A   1      35.716  33.130  31.371  1.00  0.00     0.031 A 
ATOM     81  C   UNL A   1      36.033  32.352  29.121  1.00  0.00     0.131 A 
ATOM     82  C   UNL A   1      34.559  33.826  30.929  1.00  0.00     0.055 A 
ATOM     83  C   UNL A   1      34.896  33.041  28.692  1.00  0.00     0.041 A 
ATOM     84  F   UNL A   1      36.732  31.736  28.155  1.00  0.00    -0.206 F 
ATOM     85  C   UNL A   1      34.159  33.791  29.593  1.00  0.00     0.022 A 
BRANCH  82  86
ATOM     86  S   UNL A   1      33.588  34.877  32.069  1.00  0.00     0.124 S 
ATOM     87  O   UNL A   1      32.599  35.474  31.179  1.00  0.00    -0.237 OA
ATOM     88  O   UNL A   1      33.091  33.913  33.043  1.00  0.00    -0.237 OA
ATOM     89  O   UNL A   1      34.580  35.816  32.597  1.00  0.00    -0.744 OA
ENDBRANCH  82  86
ENDBRANCH  55  79
BRANCH  67  90
ATOM     90  C   UNL A   1      41.842  31.401  33.675  1.00  0.00     0.023 A 
ATOM     91  C   UNL A   1      41.926  32.079  34.913  1.00  0.00     0.031 A 
ATOM     92  C   UNL A   1      41.403  30.064  33.696  1.00  0.00     0.131 A 
ATOM     93  C   UNL A   1      41.591  31.409  36.108  1.00  0.00     0.055 A 
ATOM     94  C   UNL A   1      41.046  29.415  34.874  1.00  0.00     0.041 A 
ATOM     95  F   UNL A   1      41.282  29.369  32.553  1.00  0.00    -0.206 F 
ATOM     96  C   UNL A   1      41.147  30.083  36.088  1.00  0.00     0.022 A 
BRANCH  93  97
ATOM     97  S   UNL A   1      41.760  32.234  37.725  1.00  0.00     0.124 S 
ATOM     98  O   UNL A   1      42.457  31.249  38.542  1.00  0.00    -0.237 OA
ATOM     99  O   UNL A   1      42.519  33.436  37.387  1.00  0.00    -0.237 OA
ATOM    100  O   UNL A   1      40.373  32.485  38.122  1.00  0.00    -0.744 OA
ENDBRANCH  93  97
ENDBRANCH  67  90
ENDBRANCH  41  42
ENDBRANCH  34  36
ENDBRANCH  33  34
ENDBRANCH  32  33
ENDBRANCH   1  32
TORSDOF 19
ENDMDL
MODEL 2
REMARK VINA RESULT:     -12.3      3.754      9.707
REMARK SMILES Cc1cnn(C2(C(=O)OCCOCCOC(=O)c3ccc(-c4c5nc(c(-c6cc(S(=O)(=O)[O-])ccc6F)c6ccc([nH]6)c(-c6cc(S(=O)(=O)[O-])ccc6F)c6nc(c(-c7cc(S(=O)(=O)[O-])ccc7F)c7ccc4[nH]7)C=C6)C=C5)cc3)CCN(C(=O)c3cc4ccccc4[nH]3)CC2)c1
REMARK SMILES IDX 13 1 12 2 11 3 10 4 9 5 7 6 8 7 6 8 81 9 96 10 82 11 95 12
REMARK SMILES IDX 83 13 84 14 85 15 5 16 1 17 2 18 3 19 97 20 4 21 86 22 87 23
REMARK SMILES IDX 94 24 88 25 93 26 89 28 92 29 90 30 91 31 14 32 15 33 16 34
REMARK SMILES IDX 17 35 18 36 19 37 80 38 20 39 79 40 21 41 22 42 23 43 73 44
REMARK SMILES IDX 24 45 78 46 72 47 74 48 25 49 77 50 71 51 70 52 26 54 58 55
REMARK SMILES IDX 38 56 57 57 39 58 42 59 56 60 75 61 40 62 41 63 55 65 76 66
REMARK SMILES IDX 43 67 27 68 28 69 36 70 29 71 35 72 37 73 34 74 30 75 31 76
REMARK SMILES IDX 32 77 33 78 59 79 60 80 68 81 61 82 67 83 69 84 66 85 62 86
REMARK SMILES IDX 63 87 64 88 65 89 44 90 45 91 53 92 46 93 52 94 54 95 51 96
REMARK SMILES IDX 47 97 48 98 49 99 50 100
REMARK H PARENT 94 27 74 53 42 64
REMARK Flexibility Score: inf
ROOT
ATOM      1  C   UNL A   1      34.691  29.869  27.217  1.00  0.00     0.202 C 
ENDROOT
BRANCH   1   2
ATOM      2  O   UNL A   1      33.557  29.071  26.893  1.00  0.00    -0.374 OA
BRANCH   2   3
ATOM      3  C   UNL A   1      32.275  29.716  26.940  1.00  0.00     0.202 C 
BRANCH   3   4
ATOM      4  C   UNL A   1      31.473  29.651  25.623  1.00  0.00     0.261 C 
BRANCH   4   5
ATOM      5  O   UNL A   1      31.806  28.407  24.974  1.00  0.00    -0.461 OA
BRANCH   5   6
ATOM      6  C   UNL A   1      31.070  27.263  25.121  1.00  0.00     0.334 C 
ATOM      7  O   UNL A   1      30.593  26.887  26.182  1.00  0.00    -0.249 OA
BRANCH   6   8
ATOM      8  C   UNL A   1      30.829  26.623  23.709  1.00  0.00     0.163 C 
ATOM      9  C   UNL A   1      30.200  25.210  23.579  1.00  0.00     0.064 C 
ATOM     10  C   UNL A   1      32.235  26.464  23.050  1.00  0.00     0.064 C 
ATOM     11  C   UNL A   1      30.975  24.109  24.242  1.00  0.00     0.123 C 
ATOM     12  C   UNL A   1      33.044  25.451  23.897  1.00  0.00     0.123 C 
ATOM     13  N   UNL A   1      32.375  24.152  23.897  1.00  0.00    -0.337 N 
ATOM     14  C   UNL A   1      33.041  22.955  23.681  1.00  0.00     0.270 C 
ATOM     15  O   UNL A   1      32.527  22.012  23.085  1.00  0.00    -0.267 OA
BRANCH   8  16
ATOM     16  N   UNL A   1      29.795  27.480  23.101  1.00  0.00    -0.255 N 
ATOM     17  C   UNL A   1      29.001  30.774  21.755  1.00  0.00     0.048 C 
ATOM     18  C   UNL A   1      29.023  29.397  22.297  1.00  0.00    -0.013 A 
ATOM     19  C   UNL A   1      28.030  28.639  22.957  1.00  0.00     0.138 A 
ATOM     20  C   UNL A   1      30.113  28.568  22.312  1.00  0.00     0.113 A 
ATOM     21  N   UNL A   1      28.501  27.491  23.474  1.00  0.00    -0.180 NA
ENDBRANCH   8  16
BRANCH  14  22
ATOM     22  C   UNL A   1      34.343  22.868  24.286  1.00  0.00     0.105 A 
ATOM     23  C   UNL A   1      35.022  23.834  25.009  1.00  0.00     0.042 A 
ATOM     24  N   UNL A   1      35.120  21.737  24.294  1.00  0.00    -0.351 N 
ATOM     25  C   UNL A   1      36.289  23.312  25.358  1.00  0.00     0.000 A 
ATOM     26  C   UNL A   1      36.331  21.999  24.893  1.00  0.00     0.046 A 
ATOM     27  H   UNL A   1      34.850  20.865  23.923  1.00  0.00     0.167 HD
ATOM     28  C   UNL A   1      37.408  23.845  26.019  1.00  0.00     0.010 A 
ATOM     29  C   UNL A   1      37.454  21.181  25.057  1.00  0.00     0.026 A 
ATOM     30  C   UNL A   1      38.547  23.049  26.173  1.00  0.00     0.001 A 
ATOM     31  C   UNL A   1      38.565  21.737  25.699  1.00  0.00     0.002 A 
ENDBRANCH  14  22
ENDBRANCH   6   8
ENDBRANCH   5   6
ENDBRANCH   4   5
ENDBRANCH   3   4
ENDBRANCH   2   3
ENDBRANCH   1   2
BRANCH   1  32
ATOM     32  C   UNL A   1      34.438  31.310  27.641  1.00  0.00     0.261 C 
BRANCH  32  33
ATOM     33  O   UNL A   1      35.585  31.932  28.214  1.00  0.00    -0.460 OA
BRANCH  33  34
ATOM     34  C   UNL A   1      35.589  31.954  29.562  1.00  0.00     0.338 C 
ATOM     35  O   UNL A   1      34.892  32.664  30.286  1.00  0.00    -0.246 OA
BRANCH  34  36
ATOM     36  C   UNL A   1      36.708  31.137  30.044  1.00  0.00     0.060 A 
ATOM     37  C   UNL A   1      37.951  31.764  30.164  1.00  0.00     0.016 A 
ATOM     38  C   UNL A   1      36.581  29.741  30.136  1.00  0.00     0.016 A 
ATOM     39  C   UNL A   1      39.086  30.980  30.205  1.00  0.00     0.010 A 
ATOM     40  C   UNL A   1      37.716  28.962  30.154  1.00  0.00     0.010 A 
ATOM     41  C   UNL A   1      38.960  29.587  30.120  1.00  0.00    -0.014 A 
BRANCH  41  42
ATOM     42  C   UNL A   1      40.161  28.779  30.215  1.00  0.00     0.031 A 
ATOM     43  C   UNL A   1      40.502  28.499  31.627  1.00  0.00     0.074 A 
ATOM     44  C   UNL A   1      40.820  28.268  29.156  1.00  0.00     0.049 A 
ATOM     45  N   UNL A   1      41.428  29.070  32.322  1.00  0.00    -0.248 NA
ATOM     46  C   UNL A   1      39.560  27.703  32.434  1.00  0.00     0.031 C 
ATOM     47  C   UNL A   1      40.430  28.301  27.747  1.00  0.00     0.029 A 
ATOM     48  N   UNL A   1      41.964  27.528  29.133  1.00  0.00    -0.354 N 
ATOM     49  C   UNL A   1      41.363  28.477  33.574  1.00  0.00     0.074 A 
ATOM     50  C   UNL A   1      40.059  27.880  33.658  1.00  0.00     0.031 C 
ATOM     51  C   UNL A   1      41.197  27.429  27.049  1.00  0.00     0.029 A 
ATOM     52  C   UNL A   1      42.208  26.862  27.931  1.00  0.00     0.049 A 
ATOM     53  H   UNL A   1      42.573  27.469  29.905  1.00  0.00     0.167 HD
ATOM     54  C   UNL A   1      42.499  28.259  34.289  1.00  0.00     0.034 A 
ATOM     55  C   UNL A   1      43.134  25.884  27.703  1.00  0.00     0.034 A 
ATOM     56  C   UNL A   1      43.592  29.051  33.760  1.00  0.00     0.049 A 
ATOM     57  C   UNL A   1      44.168  26.022  28.762  1.00  0.00     0.074 A 
ATOM     58  C   UNL A   1      43.797  30.403  33.557  1.00  0.00     0.029 A 
ATOM     59  N   UNL A   1      44.527  28.410  32.976  1.00  0.00    -0.354 N 
ATOM     60  N   UNL A   1      44.971  27.047  28.838  1.00  0.00    -0.248 NA
ATOM     61  C   UNL A   1      43.965  25.305  30.014  1.00  0.00     0.031 C 
ATOM     62  C   UNL A   1      44.495  30.489  32.317  1.00  0.00     0.029 A 
ATOM     63  C   UNL A   1      44.774  29.193  31.876  1.00  0.00     0.049 A 
ATOM     64  H   UNL A   1      44.946  27.541  33.171  1.00  0.00     0.167 HD
ATOM     65  C   UNL A   1      44.999  27.381  30.185  1.00  0.00     0.074 A 
ATOM     66  C   UNL A   1      44.435  26.218  30.871  1.00  0.00     0.031 C 
ATOM     67  C   UNL A   1      45.192  28.673  30.586  1.00  0.00     0.034 A 
BRANCH  54  68
ATOM     68  C   UNL A   1      42.741  27.038  35.153  1.00  0.00     0.023 A 
ATOM     69  C   UNL A   1      43.578  26.048  34.610  1.00  0.00     0.031 A 
ATOM     70  C   UNL A   1      41.992  26.651  36.289  1.00  0.00     0.131 A 
ATOM     71  C   UNL A   1      43.540  24.729  35.089  1.00  0.00     0.055 A 
ATOM     72  C   UNL A   1      42.014  25.354  36.807  1.00  0.00     0.041 A 
ATOM     73  F   UNL A   1      41.134  27.461  36.915  1.00  0.00    -0.206 F 
ATOM     74  C   UNL A   1      42.760  24.372  36.183  1.00  0.00     0.022 A 
BRANCH  71  75
ATOM     75  S   UNL A   1      44.387  23.454  34.126  1.00  0.00     0.124 S 
ATOM     76  O   UNL A   1      45.494  24.214  33.555  1.00  0.00    -0.237 OA
ATOM     77  O   UNL A   1      44.734  22.482  35.156  1.00  0.00    -0.237 OA
ATOM     78  O   UNL A   1      43.367  23.018  33.175  1.00  0.00    -0.744 OA
ENDBRANCH  71  75
ENDBRANCH  54  68
BRANCH  55  79
ATOM     79  C   UNL A   1      43.001  24.659  26.850  1.00  0.00     0.023 A 
ATOM     80  C   UNL A   1      43.938  24.294  25.851  1.00  0.00     0.031 A 
ATOM     81  C   UNL A   1      42.051  23.673  27.201  1.00  0.00     0.131 A 
ATOM     82  C   UNL A   1      43.896  23.003  25.261  1.00  0.00     0.055 A 
ATOM     83  C   UNL A   1      42.017  22.404  26.619  1.00  0.00     0.041 A 
ATOM     84  F   UNL A   1      41.172  23.876  28.195  1.00  0.00    -0.206 F 
ATOM     85  C   UNL A   1      42.947  22.058  25.654  1.00  0.00     0.022 A 
BRANCH  82  86
ATOM     86  S   UNL A   1      45.139  22.481  24.025  1.00  0.00     0.124 S 
ATOM     87  O   UNL A   1      44.308  22.048  22.908  1.00  0.00    -0.237 OA
ATOM     88  O   UNL A   1      45.918  23.697  23.826  1.00  0.00    -0.237 OA
ATOM     89  O   UNL A   1      45.862  21.402  24.701  1.00  0.00    -0.744 OA
ENDBRANCH  82  86
ENDBRANCH  55  79
BRANCH  67  90
ATOM     90  C   UNL A   1      45.710  29.678  29.573  1.00  0.00     0.023 A 
ATOM     91  C   UNL A   1      44.927  30.356  28.611  1.00  0.00     0.031 A 
ATOM     92  C   UNL A   1      47.070  30.030  29.668  1.00  0.00     0.131 A 
ATOM     93  C   UNL A   1      45.519  31.332  27.782  1.00  0.00     0.055 A 
ATOM     94  C   UNL A   1      47.644  31.014  28.868  1.00  0.00     0.041 A 
ATOM     95  F   UNL A   1      47.865  29.437  30.575  1.00  0.00    -0.206 F 
ATOM     96  C   UNL A   1      46.871  31.664  27.914  1.00  0.00     0.022 A 
BRANCH  93  97
ATOM     97  S   UNL A   1      44.551  32.170  26.483  1.00  0.00     0.124 S 
ATOM     98  O   UNL A   1      45.507  32.336  25.396  1.00  0.00    -0.237 OA
ATOM     99  O   UNL A   1      43.465  31.225  26.241  1.00  0.00    -0.237 OA
ATOM    100  O   UNL A   1      44.136  33.420  27.125  1.00  0.00    -0.744 OA
ENDBRANCH  93  97
ENDBRANCH  67  90
ENDBRANCH  41  42
ENDBRANCH  34  36
ENDBRANCH  33  34
ENDBRANCH  32  33
ENDBRANCH   1  32
TORSDOF 19
ENDMDL
MODEL 3
REMARK VINA RESULT:     -12.1      4.428      9.620
REMARK SMILES Cc1cnn(C2(C(=O)OCCOCCOC(=O)c3ccc(-c4c5nc(c(-c6cc(S(=O)(=O)[O-])ccc6F)c6ccc([nH]6)c(-c6cc(S(=O)(=O)[O-])ccc6F)c6nc(c(-c7cc(S(=O)(=O)[O-])ccc7F)c7ccc4[nH]7)C=C6)C=C5)cc3)CCN(C(=O)c3cc4ccccc4[nH]3)CC2)c1
REMARK SMILES IDX 13 1 12 2 11 3 10 4 9 5 7 6 8 7 6 8 81 9 96 10 82 11 95 12
REMARK SMILES IDX 83 13 84 14 85 15 5 16 1 17 2 18 3 19 97 20 4 21 86 22 87 23
REMARK SMILES IDX 94 24 88 25 93 26 89 28 92 29 90 30 91 31 14 32 15 33 16 34
REMARK SMILES IDX 17 35 18 36 19 37 80 38 20 39 79 40 21 41 22 42 23 43 73 44
REMARK SMILES IDX 24 45 78 46 72 47 74 48 25 49 77 50 71 51 70 52 26 54 58 55
REMARK SMILES IDX 38 56 57 57 39 58 42 59 56 60 75 61 40 62 41 63 55 65 76 66
REMARK SMILES IDX 43 67 27 68 28 69 36 70 29 71 35 72 37 73 34 74 30 75 31 76
REMARK SMILES IDX 32 77 33 78 59 79 60 80 68 81 61 82 67 83 69 84 66 85 62 86
REMARK SMILES IDX 63 87 64 88 65 89 44 90 45 91 53 92 46 93 52 94 54 95 51 96
REMARK SMILES IDX 47 97 48 98 49 99 50 100
REMARK H PARENT 94 27 74 53 42 64
REMARK Flexibility Score: inf
ROOT
ATOM      1  C   UNL A   1      34.254  32.117  28.386  1.00  0.00     0.202 C 
ENDROOT
BRANCH   1   2
ATOM      2  O   UNL A   1      33.269  31.890  27.382  1.00  0.00    -0.374 OA
BRANCH   2   3
ATOM      3  C   UNL A   1      32.820  30.538  27.208  1.00  0.00     0.202 C 
BRANCH   3   4
ATOM      4  C   UNL A   1      33.428  29.808  25.993  1.00  0.00     0.261 C 
BRANCH   4   5
ATOM      5  O   UNL A   1      32.386  29.668  25.006  1.00  0.00    -0.461 OA
BRANCH   5   6
ATOM      6  C   UNL A   1      31.582  28.565  24.914  1.00  0.00     0.334 C 
ATOM      7  O   UNL A   1      31.055  28.020  25.873  1.00  0.00    -0.249 OA
BRANCH   6   8
ATOM      8  C   UNL A   1      31.344  28.228  23.400  1.00  0.00     0.163 C 
ATOM      9  C   UNL A   1      30.512  26.985  22.989  1.00  0.00     0.064 C 
ATOM     10  C   UNL A   1      32.751  27.951  22.783  1.00  0.00     0.064 C 
ATOM     11  C   UNL A   1      31.053  25.671  23.472  1.00  0.00     0.123 C 
ATOM     12  C   UNL A   1      33.328  26.685  23.465  1.00  0.00     0.123 C 
ATOM     13  N   UNL A   1      32.464  25.537  23.200  1.00  0.00    -0.337 N 
ATOM     14  C   UNL A   1      32.946  24.301  22.798  1.00  0.00     0.270 C 
ATOM     15  O   UNL A   1      32.333  23.575  22.019  1.00  0.00    -0.267 OA
BRANCH   8  16
ATOM     16  N   UNL A   1      30.505  29.339  22.915  1.00  0.00    -0.255 N 
ATOM     17  C   UNL A   1      27.551  31.387  23.515  1.00  0.00     0.048 C 
ATOM     18  C   UNL A   1      28.742  30.680  22.995  1.00  0.00    -0.013 A 
ATOM     19  C   UNL A   1      29.149  30.387  21.674  1.00  0.00     0.138 A 
ATOM     20  C   UNL A   1      29.705  30.081  23.761  1.00  0.00     0.113 A 
ATOM     21  N   UNL A   1      30.199  29.549  21.620  1.00  0.00    -0.180 NA
ENDBRANCH   8  16
BRANCH  14  22
ATOM     22  C   UNL A   1      34.172  23.893  23.431  1.00  0.00     0.105 A 
ATOM     23  C   UNL A   1      35.050  22.896  23.043  1.00  0.00     0.042 A 
ATOM     24  N   UNL A   1      34.716  24.505  24.531  1.00  0.00    -0.351 N 
ATOM     25  C   UNL A   1      36.087  22.826  24.002  1.00  0.00     0.000 A 
ATOM     26  C   UNL A   1      35.853  23.839  24.930  1.00  0.00     0.046 A 
ATOM     27  H   UNL A   1      34.346  25.303  24.973  1.00  0.00     0.167 HD
ATOM     28  C   UNL A   1      37.198  21.982  24.169  1.00  0.00     0.010 A 
ATOM     29  C   UNL A   1      36.685  24.052  26.033  1.00  0.00     0.026 A 
ATOM     30  C   UNL A   1      38.029  22.167  25.278  1.00  0.00     0.001 A 
ATOM     31  C   UNL A   1      37.774  23.189  26.193  1.00  0.00     0.002 A 
ENDBRANCH  14  22
ENDBRANCH   6   8
ENDBRANCH   5   6
ENDBRANCH   4   5
ENDBRANCH   3   4
ENDBRANCH   2   3
ENDBRANCH   1   2
BRANCH   1  32
ATOM     32  C   UNL A   1      35.677  31.662  28.088  1.00  0.00     0.261 C 
BRANCH  32  33
ATOM     33  O   UNL A   1      36.099  30.578  28.911  1.00  0.00    -0.460 OA
BRANCH  33  34
ATOM     34  C   UNL A   1      36.494  29.485  28.229  1.00  0.00     0.338 C 
ATOM     35  O   UNL A   1      35.763  28.637  27.717  1.00  0.00    -0.246 OA
BRANCH  34  36
ATOM     36  C   UNL A   1      37.948  29.345  28.361  1.00  0.00     0.060 A 
ATOM     37  C   UNL A   1      38.728  29.739  27.271  1.00  0.00     0.016 A 
ATOM     38  C   UNL A   1      38.498  28.619  29.430  1.00  0.00     0.016 A 
ATOM     39  C   UNL A   1      40.018  29.259  27.173  1.00  0.00     0.010 A 
ATOM     40  C   UNL A   1      39.777  28.122  29.318  1.00  0.00     0.010 A 
ATOM     41  C   UNL A   1      40.502  28.390  28.160  1.00  0.00    -0.014 A 
BRANCH  41  42
ATOM     42  C   UNL A   1      41.877  27.936  28.065  1.00  0.00     0.031 A 
ATOM     43  C   UNL A   1      41.959  26.633  27.370  1.00  0.00     0.074 A 
ATOM     44  C   UNL A   1      42.944  28.653  28.468  1.00  0.00     0.049 A 
ATOM     45  N   UNL A   1      42.136  25.478  27.919  1.00  0.00    -0.248 NA
ATOM     46  C   UNL A   1      41.538  26.560  25.959  1.00  0.00     0.031 C 
ATOM     47  C   UNL A   1      42.976  30.033  28.952  1.00  0.00     0.029 A 
ATOM     48  N   UNL A   1      44.264  28.311  28.452  1.00  0.00    -0.354 N 
ATOM     49  C   UNL A   1      42.143  24.571  26.869  1.00  0.00     0.074 A 
ATOM     50  C   UNL A   1      41.506  25.241  25.770  1.00  0.00     0.031 C 
ATOM     51  C   UNL A   1      44.258  30.473  28.967  1.00  0.00     0.029 A 
ATOM     52  C   UNL A   1      45.149  29.378  28.608  1.00  0.00     0.049 A 
ATOM     53  H   UNL A   1      44.569  27.382  28.340  1.00  0.00     0.167 HD
ATOM     54  C   UNL A   1      42.956  23.482  26.909  1.00  0.00     0.034 A 
ATOM     55  C   UNL A   1      46.499  29.367  28.403  1.00  0.00     0.034 A 
ATOM     56  C   UNL A   1      43.424  23.247  28.261  1.00  0.00     0.049 A 
ATOM     57  C   UNL A   1      46.934  27.950  28.509  1.00  0.00     0.074 A 
ATOM     58  C   UNL A   1      42.802  23.018  29.474  1.00  0.00     0.029 A 
ATOM     59  N   UNL A   1      44.712  23.631  28.569  1.00  0.00    -0.354 N 
ATOM     60  N   UNL A   1      46.893  27.278  29.626  1.00  0.00    -0.248 NA
ATOM     61  C   UNL A   1      46.912  27.136  27.301  1.00  0.00     0.031 C 
ATOM     62  C   UNL A   1      43.579  23.736  30.429  1.00  0.00     0.029 A 
ATOM     63  C   UNL A   1      44.689  24.280  29.779  1.00  0.00     0.049 A 
ATOM     64  H   UNL A   1      45.511  23.468  28.017  1.00  0.00     0.167 HD
ATOM     65  C   UNL A   1      46.380  26.037  29.279  1.00  0.00     0.074 A 
ATOM     66  C   UNL A   1      46.498  25.976  27.822  1.00  0.00     0.031 C 
ATOM     67  C   UNL A   1      45.637  25.308  30.166  1.00  0.00     0.034 A 
BRANCH  54  68
ATOM     68  C   UNL A   1      43.672  22.909  25.704  1.00  0.00     0.023 A 
ATOM     69  C   UNL A   1      43.701  21.507  25.605  1.00  0.00     0.031 A 
ATOM     70  C   UNL A   1      44.558  23.602  24.846  1.00  0.00     0.131 A 
ATOM     71  C   UNL A   1      44.661  20.859  24.812  1.00  0.00     0.055 A 
ATOM     72  C   UNL A   1      45.464  22.951  24.004  1.00  0.00     0.041 A 
ATOM     73  F   UNL A   1      44.673  24.932  24.825  1.00  0.00    -0.206 F 
ATOM     74  C   UNL A   1      45.547  21.572  24.012  1.00  0.00     0.022 A 
BRANCH  71  75
ATOM     75  S   UNL A   1      44.849  19.071  25.003  1.00  0.00     0.124 S 
ATOM     76  O   UNL A   1      44.884  18.637  23.610  1.00  0.00    -0.237 OA
ATOM     77  O   UNL A   1      46.103  18.979  25.741  1.00  0.00    -0.237 OA
ATOM     78  O   UNL A   1      43.655  18.686  25.752  1.00  0.00    -0.744 OA
ENDBRANCH  71  75
ENDBRANCH  54  68
BRANCH  55  79
ATOM     79  C   UNL A   1      47.357  30.438  27.800  1.00  0.00     0.023 A 
ATOM     80  C   UNL A   1      46.838  31.581  27.142  1.00  0.00     0.031 A 
ATOM     81  C   UNL A   1      48.738  30.468  28.102  1.00  0.00     0.131 A 
ATOM     82  C   UNL A   1      47.685  32.676  26.824  1.00  0.00     0.055 A 
ATOM     83  C   UNL A   1      49.565  31.550  27.789  1.00  0.00     0.041 A 
ATOM     84  F   UNL A   1      49.319  29.481  28.800  1.00  0.00    -0.206 F 
ATOM     85  C   UNL A   1      49.040  32.665  27.158  1.00  0.00     0.022 A 
BRANCH  82  86
ATOM     86  S   UNL A   1      47.025  34.194  26.044  1.00  0.00     0.124 S 
ATOM     87  O   UNL A   1      45.743  33.742  25.515  1.00  0.00    -0.237 OA
ATOM     88  O   UNL A   1      46.976  35.129  27.162  1.00  0.00    -0.237 OA
ATOM     89  O   UNL A   1      48.025  34.518  25.025  1.00  0.00    -0.744 OA
ENDBRANCH  82  86
ENDBRANCH  55  79
BRANCH  67  90
ATOM     90  C   UNL A   1      45.663  25.706  31.631  1.00  0.00     0.023 A 
ATOM     91  C   UNL A   1      46.645  25.322  32.572  1.00  0.00     0.031 A 
ATOM     92  C   UNL A   1      44.674  26.612  32.059  1.00  0.00     0.131 A 
ATOM     93  C   UNL A   1      46.600  25.832  33.887  1.00  0.00     0.055 A 
ATOM     94  C   UNL A   1      44.649  27.135  33.349  1.00  0.00     0.041 A 
ATOM     95  F   UNL A   1      43.723  27.033  31.209  1.00  0.00    -0.206 F 
ATOM     96  C   UNL A   1      45.608  26.740  34.272  1.00  0.00     0.022 A 
BRANCH  93  97
ATOM     97  S   UNL A   1      47.810  25.297  35.142  1.00  0.00     0.124 S 
ATOM     98  O   UNL A   1      48.613  26.490  35.375  1.00  0.00    -0.237 OA
ATOM     99  O   UNL A   1      46.952  24.878  36.247  1.00  0.00    -0.237 OA
ATOM    100  O   UNL A   1      48.522  24.202  34.479  1.00  0.00    -0.744 OA
ENDBRANCH  93  97
ENDBRANCH  67  90
ENDBRANCH  41  42
ENDBRANCH  34  36
ENDBRANCH  33  34
ENDBRANCH  32  33
ENDBRANCH   1  32
TORSDOF 19
ENDMDL
