MODEL 1
REMARK VINA RESULT:     -10.9      0.000      0.000
REMARK SMILES O=C(OCCOCCOC(=O)c1[nH]ncc1C[NH+]1CCC([N@H+]2CCC[C@@H](C(=O)N3CCCC3)C2)CC1)c1ccc(-c2c3nc(c(-c4cc(S(=O)(=O)[O-])ccc4F)c4ccc([nH]4)c(-c4cc(S(=O)(=O)[O-])ccc4F)c4nc(c(-c5cc(S(=O)(=O)[O-])ccc5F)c5ccc2[nH]5)C=C4)C=C3)cc1
REMARK SMILES IDX 7 1 6 2 5 3 4 4 3 5 2 6 1 7 37 8 38 9 99 10 39 11 98 12
REMARK SMILES IDX 40 13 41 14 42 15 92 16 43 17 97 18 91 19 93 20 44 21 96 22
REMARK SMILES IDX 90 23 89 24 45 26 77 27 57 28 76 29 58 30 61 31 75 32 94 33
REMARK SMILES IDX 59 34 60 35 74 37 95 38 62 39 46 40 47 41 55 42 48 43 54 44
REMARK SMILES IDX 56 45 53 46 49 47 50 48 51 49 52 50 78 51 79 52 87 53 80 54
REMARK SMILES IDX 86 55 88 56 85 57 81 58 82 59 83 60 84 61 63 62 64 63 72 64
REMARK SMILES IDX 65 65 71 66 73 67 70 68 66 69 67 70 68 71 69 72 8 73 9 74
REMARK SMILES IDX 10 75 11 76 12 77 13 78 16 79 14 80 15 82 17 83 18 84 19 85
REMARK SMILES IDX 36 86 20 88 35 89 21 90 22 91 23 92 34 93 24 95 26 96 25 97
REMARK SMILES IDX 27 98 28 99 29 100 30 101 33 102 31 103 32 104
REMARK H PARENT 93 25 61 36 13 81 18 87 22 94
REMARK Flexibility Score: inf
ROOT
ATOM      1  C   UNL A   1      30.938  27.195  24.754  1.00  0.00     0.202 C 
ENDROOT
BRANCH   1   2
ATOM      2  O   UNL A   1      31.545  28.484  24.864  1.00  0.00    -0.374 OA
BRANCH   2   3
ATOM      3  C   UNL A   1      32.221  28.810  26.076  1.00  0.00     0.202 C 
BRANCH   3   4
ATOM      4  C   UNL A   1      32.636  30.270  26.214  1.00  0.00     0.261 C 
BRANCH   4   5
ATOM      5  O   UNL A   1      33.994  30.341  26.668  1.00  0.00    -0.460 OA
BRANCH   5   6
ATOM      6  C   UNL A   1      34.504  31.219  27.560  1.00  0.00     0.338 C 
ATOM      7  O   UNL A   1      33.999  32.335  27.651  1.00  0.00    -0.246 OA
BRANCH   6   8
ATOM      8  C   UNL A   1      35.653  30.893  28.454  1.00  0.00     0.060 A 
ATOM      9  C   UNL A   1      35.778  29.706  29.178  1.00  0.00     0.016 A 
ATOM     10  C   UNL A   1      36.724  31.794  28.471  1.00  0.00     0.016 A 
ATOM     11  C   UNL A   1      36.908  29.405  29.903  1.00  0.00     0.010 A 
ATOM     12  C   UNL A   1      37.887  31.493  29.184  1.00  0.00     0.010 A 
ATOM     13  C   UNL A   1      37.975  30.288  29.889  1.00  0.00    -0.014 A 
BRANCH  13  14
ATOM     14  C   UNL A   1      39.119  29.935  30.732  1.00  0.00     0.031 A 
ATOM     15  C   UNL A   1      39.128  30.447  32.131  1.00  0.00     0.074 A 
ATOM     16  C   UNL A   1      40.015  29.044  30.272  1.00  0.00     0.049 A 
ATOM     17  N   UNL A   1      40.057  30.351  33.035  1.00  0.00    -0.248 NA
ATOM     18  C   UNL A   1      37.913  31.154  32.575  1.00  0.00     0.031 C 
ATOM     19  C   UNL A   1      39.941  28.369  28.970  1.00  0.00     0.029 A 
ATOM     20  N   UNL A   1      41.140  28.528  30.849  1.00  0.00    -0.354 N 
ATOM     21  C   UNL A   1      39.563  31.027  34.143  1.00  0.00     0.074 A 
ATOM     22  C   UNL A   1      38.249  31.520  33.801  1.00  0.00     0.031 C 
ATOM     23  C   UNL A   1      40.980  27.526  28.854  1.00  0.00     0.029 A 
ATOM     24  C   UNL A   1      41.836  27.678  30.021  1.00  0.00     0.049 A 
ATOM     25  H   UNL A   1      41.425  28.744  31.766  1.00  0.00     0.167 HD
ATOM     26  C   UNL A   1      40.187  31.225  35.326  1.00  0.00     0.034 A 
ATOM     27  C   UNL A   1      43.064  27.147  30.179  1.00  0.00     0.034 A 
ATOM     28  C   UNL A   1      41.505  30.712  35.591  1.00  0.00     0.049 A 
ATOM     29  C   UNL A   1      43.795  27.499  31.451  1.00  0.00     0.074 A 
ATOM     30  C   UNL A   1      42.292  30.881  36.713  1.00  0.00     0.029 A 
ATOM     31  N   UNL A   1      42.237  29.929  34.700  1.00  0.00    -0.354 N 
ATOM     32  N   UNL A   1      43.372  28.213  32.473  1.00  0.00    -0.248 NA
ATOM     33  C   UNL A   1      45.164  26.997  31.591  1.00  0.00     0.031 C 
ATOM     34  C   UNL A   1      43.527  30.274  36.466  1.00  0.00     0.029 A 
ATOM     35  C   UNL A   1      43.481  29.642  35.229  1.00  0.00     0.049 A 
ATOM     36  H   UNL A   1      41.914  29.625  33.821  1.00  0.00     0.167 HD
ATOM     37  C   UNL A   1      44.417  28.227  33.387  1.00  0.00     0.074 A 
ATOM     38  C   UNL A   1      45.480  27.430  32.802  1.00  0.00     0.031 C 
ATOM     39  C   UNL A   1      44.504  28.840  34.597  1.00  0.00     0.034 A 
BRANCH  26  40
ATOM     40  C   UNL A   1      39.501  32.125  36.320  1.00  0.00     0.023 A 
ATOM     41  C   UNL A   1      39.987  33.407  36.635  1.00  0.00     0.031 A 
ATOM     42  C   UNL A   1      38.391  31.647  37.039  1.00  0.00     0.131 A 
ATOM     43  C   UNL A   1      39.416  34.128  37.694  1.00  0.00     0.055 A 
ATOM     44  C   UNL A   1      37.774  32.407  38.034  1.00  0.00     0.041 A 
ATOM     45  F   UNL A   1      37.910  30.415  36.812  1.00  0.00    -0.206 F 
ATOM     46  C   UNL A   1      38.295  33.650  38.378  1.00  0.00     0.022 A 
BRANCH  43  47
ATOM     47  S   UNL A   1      40.260  35.625  38.280  1.00  0.00     0.124 S 
ATOM     48  O   UNL A   1      41.593  35.455  37.705  1.00  0.00    -0.237 OA
ATOM     49  O   UNL A   1      39.449  36.691  37.705  1.00  0.00    -0.237 OA
ATOM     50  O   UNL A   1      40.197  35.508  39.736  1.00  0.00    -0.744 OA
ENDBRANCH  43  47
ENDBRANCH  26  40
BRANCH  27  51
ATOM     51  C   UNL A   1      43.706  26.349  29.092  1.00  0.00     0.023 A 
ATOM     52  C   UNL A   1      44.309  26.971  27.989  1.00  0.00     0.031 A 
ATOM     53  C   UNL A   1      43.668  24.941  29.107  1.00  0.00     0.131 A 
ATOM     54  C   UNL A   1      44.797  26.194  26.925  1.00  0.00     0.055 A 
ATOM     55  C   UNL A   1      44.215  24.171  28.078  1.00  0.00     0.041 A 
ATOM     56  F   UNL A   1      43.094  24.284  30.128  1.00  0.00    -0.206 F 
ATOM     57  C   UNL A   1      44.769  24.798  26.970  1.00  0.00     0.022 A 
BRANCH  54  58
ATOM     58  S   UNL A   1      45.361  27.039  25.422  1.00  0.00     0.124 S 
ATOM     59  O   UNL A   1      46.380  27.936  25.953  1.00  0.00    -0.237 OA
ATOM     60  O   UNL A   1      45.843  25.925  24.613  1.00  0.00    -0.237 OA
ATOM     61  O   UNL A   1      44.152  27.691  24.925  1.00  0.00    -0.744 OA
ENDBRANCH  54  58
ENDBRANCH  27  51
BRANCH  39  62
ATOM     62  C   UNL A   1      45.776  28.622  35.370  1.00  0.00     0.023 A 
ATOM     63  C   UNL A   1      45.917  27.550  36.265  1.00  0.00     0.031 A 
ATOM     64  C   UNL A   1      46.866  29.489  35.185  1.00  0.00     0.131 A 
ATOM     65  C   UNL A   1      47.112  27.399  36.980  1.00  0.00     0.055 A 
ATOM     66  C   UNL A   1      48.076  29.291  35.844  1.00  0.00     0.041 A 
ATOM     67  F   UNL A   1      46.776  30.530  34.341  1.00  0.00    -0.206 F 
ATOM     68  C   UNL A   1      48.200  28.247  36.756  1.00  0.00     0.022 A 
BRANCH  65  69
ATOM     69  S   UNL A   1      47.194  26.131  38.270  1.00  0.00     0.124 S 
ATOM     70  O   UNL A   1      48.626  25.859  38.336  1.00  0.00    -0.237 OA
ATOM     71  O   UNL A   1      46.623  26.820  39.424  1.00  0.00    -0.237 OA
ATOM     72  O   UNL A   1      46.379  25.043  37.733  1.00  0.00    -0.744 OA
ENDBRANCH  65  69
ENDBRANCH  39  62
ENDBRANCH  13  14
ENDBRANCH   6   8
ENDBRANCH   5   6
ENDBRANCH   4   5
ENDBRANCH   3   4
ENDBRANCH   2   3
ENDBRANCH   1   2
BRANCH   1  73
ATOM     73  C   UNL A   1      32.038  26.188  24.404  1.00  0.00     0.261 C 
BRANCH  73  74
ATOM     74  O   UNL A   1      31.401  24.996  23.928  1.00  0.00    -0.459 OA
BRANCH  74  75
ATOM     75  C   UNL A   1      31.414  23.947  24.795  1.00  0.00     0.356 C 
ATOM     76  O   UNL A   1      31.096  23.984  25.977  1.00  0.00    -0.244 OA
BRANCH  75  77
ATOM     77  C   UNL A   1      31.741  22.755  24.064  1.00  0.00     0.152 A 
ATOM     78  N   UNL A   1      31.305  22.513  22.794  1.00  0.00    -0.271 N 
ATOM     79  C   UNL A   1      32.474  21.632  24.425  1.00  0.00     0.059 A 
ATOM     80  N   UNL A   1      31.866  21.428  22.231  1.00  0.00    -0.183 NA
ATOM     81  H   UNL A   1      30.642  23.078  22.334  1.00  0.00     0.190 HD
ATOM     82  C   UNL A   1      32.559  20.882  23.233  1.00  0.00     0.145 A 
BRANCH  79  83
ATOM     83  C   UNL A   1      32.965  21.271  25.785  1.00  0.00     0.303 C 
BRANCH  83  84
ATOM     84  N   UNL A   1      34.387  21.633  25.957  1.00  0.00    -0.331 N 
ATOM     85  C   UNL A   1      35.297  20.837  25.123  1.00  0.00     0.268 C 
ATOM     86  C   UNL A   1      34.614  23.067  25.766  1.00  0.00     0.268 C 
ATOM     87  H   UNL A   1      34.609  21.404  26.925  1.00  0.00     0.348 HD
ATOM     88  C   UNL A   1      36.759  21.117  25.395  1.00  0.00     0.126 C 
ATOM     89  C   UNL A   1      36.048  23.422  26.150  1.00  0.00     0.126 C 
ATOM     90  C   UNL A   1      37.052  22.621  25.305  1.00  0.00     0.195 C 
BRANCH  90  91
ATOM     91  N   UNL A   1      38.452  22.985  25.618  1.00  0.00    -0.331 N 
ATOM     92  C   UNL A   1      38.571  24.013  26.656  1.00  0.00     0.262 C 
ATOM     93  C   UNL A   1      39.214  21.787  26.012  1.00  0.00     0.275 C 
ATOM     94  H   UNL A   1      38.840  23.384  24.764  1.00  0.00     0.348 HD
ATOM     95  C   UNL A   1      40.027  24.436  26.782  1.00  0.00     0.062 C 
ATOM     96  C   UNL A   1      40.718  22.032  26.218  1.00  0.00     0.134 C 
ATOM     97  C   UNL A   1      40.910  23.250  27.149  1.00  0.00     0.025 C 
BRANCH  96  98
ATOM     98  C   UNL A   1      41.356  20.806  26.891  1.00  0.00     0.231 C 
ATOM     99  O   UNL A   1      40.754  20.171  27.762  1.00  0.00    -0.274 OA
ATOM    100  N   UNL A   1      42.575  20.361  26.438  1.00  0.00    -0.342 N 
ATOM    101  C   UNL A   1      43.700  21.095  25.893  1.00  0.00     0.119 C 
ATOM    102  C   UNL A   1      42.798  18.931  26.319  1.00  0.00     0.119 C 
ATOM    103  C   UNL A   1      44.155  20.196  24.757  1.00  0.00     0.023 C 
ATOM    104  C   UNL A   1      43.959  18.792  25.336  1.00  0.00     0.023 C 
ENDBRANCH  96  98
ENDBRANCH  90  91
ENDBRANCH  83  84
ENDBRANCH  79  83
ENDBRANCH  75  77
ENDBRANCH  74  75
ENDBRANCH  73  74
ENDBRANCH   1  73
TORSDOF 21
ENDMDL
MODEL 2
REMARK VINA RESULT:     -10.9      1.816      2.149
REMARK SMILES O=C(OCCOCCOC(=O)c1[nH]ncc1C[NH+]1CCC([N@H+]2CCC[C@@H](C(=O)N3CCCC3)C2)CC1)c1ccc(-c2c3nc(c(-c4cc(S(=O)(=O)[O-])ccc4F)c4ccc([nH]4)c(-c4cc(S(=O)(=O)[O-])ccc4F)c4nc(c(-c5cc(S(=O)(=O)[O-])ccc5F)c5ccc2[nH]5)C=C4)C=C3)cc1
REMARK SMILES IDX 7 1 6 2 5 3 4 4 3 5 2 6 1 7 37 8 38 9 99 10 39 11 98 12
REMARK SMILES IDX 40 13 41 14 42 15 92 16 43 17 97 18 91 19 93 20 44 21 96 22
REMARK SMILES IDX 90 23 89 24 45 26 77 27 57 28 76 29 58 30 61 31 75 32 94 33
REMARK SMILES IDX 59 34 60 35 74 37 95 38 62 39 46 40 47 41 55 42 48 43 54 44
REMARK SMILES IDX 56 45 53 46 49 47 50 48 51 49 52 50 78 51 79 52 87 53 80 54
REMARK SMILES IDX 86 55 88 56 85 57 81 58 82 59 83 60 84 61 63 62 64 63 72 64
REMARK SMILES IDX 65 65 71 66 73 67 70 68 66 69 67 70 68 71 69 72 8 73 9 74
REMARK SMILES IDX 10 75 11 76 12 77 13 78 16 79 14 80 15 82 17 83 18 84 19 85
REMARK SMILES IDX 36 86 20 88 35 89 21 90 22 91 23 92 34 93 24 95 26 96 25 97
REMARK SMILES IDX 27 98 28 99 29 100 30 101 33 102 31 103 32 104
REMARK H PARENT 93 25 61 36 13 81 18 87 22 94
REMARK Flexibility Score: inf
ROOT
ATOM      1  C   UNL A   1      32.057  27.582  23.793  1.00  0.00     0.202 C 
ENDROOT
BRANCH   1   2
ATOM      2  O   UNL A   1      33.066  28.459  24.297  1.00  0.00    -0.374 OA
BRANCH   2   3
ATOM      3  C   UNL A   1      33.494  28.288  25.645  1.00  0.00     0.202 C 
BRANCH   3   4
ATOM      4  C   UNL A   1      33.063  29.390  26.607  1.00  0.00     0.261 C 
BRANCH   4   5
ATOM      5  O   UNL A   1      34.017  30.460  26.567  1.00  0.00    -0.460 OA
BRANCH   5   6
ATOM      6  C   UNL A   1      34.454  31.194  27.614  1.00  0.00     0.338 C 
ATOM      7  O   UNL A   1      33.824  32.197  27.941  1.00  0.00    -0.246 OA
BRANCH   6   8
ATOM      8  C   UNL A   1      35.668  30.839  28.404  1.00  0.00     0.060 A 
ATOM      9  C   UNL A   1      36.820  31.624  28.478  1.00  0.00     0.016 A 
ATOM     10  C   UNL A   1      35.592  29.697  29.212  1.00  0.00     0.016 A 
ATOM     11  C   UNL A   1      37.871  31.307  29.307  1.00  0.00     0.010 A 
ATOM     12  C   UNL A   1      36.641  29.375  30.076  1.00  0.00     0.010 A 
ATOM     13  C   UNL A   1      37.775  30.193  30.126  1.00  0.00    -0.014 A 
BRANCH  13  14
ATOM     14  C   UNL A   1      38.953  29.880  30.935  1.00  0.00     0.031 A 
ATOM     15  C   UNL A   1      38.997  30.413  32.326  1.00  0.00     0.074 A 
ATOM     16  C   UNL A   1      39.855  29.002  30.459  1.00  0.00     0.049 A 
ATOM     17  N   UNL A   1      39.957  30.353  33.200  1.00  0.00    -0.248 NA
ATOM     18  C   UNL A   1      37.781  31.100  32.798  1.00  0.00     0.031 C 
ATOM     19  C   UNL A   1      39.754  28.305  29.171  1.00  0.00     0.029 A 
ATOM     20  N   UNL A   1      41.009  28.521  31.006  1.00  0.00    -0.354 N 
ATOM     21  C   UNL A   1      39.484  31.035  34.313  1.00  0.00     0.074 A 
ATOM     22  C   UNL A   1      38.148  31.492  34.007  1.00  0.00     0.031 C 
ATOM     23  C   UNL A   1      40.807  27.484  29.033  1.00  0.00     0.029 A 
ATOM     24  C   UNL A   1      41.698  27.674  30.169  1.00  0.00     0.049 A 
ATOM     25  H   UNL A   1      41.320  28.757  31.910  1.00  0.00     0.167 HD
ATOM     26  C   UNL A   1      40.141  31.266  35.472  1.00  0.00     0.034 A 
ATOM     27  C   UNL A   1      42.942  27.174  30.293  1.00  0.00     0.034 A 
ATOM     28  C   UNL A   1      41.479  30.787  35.700  1.00  0.00     0.049 A 
ATOM     29  C   UNL A   1      43.706  27.562  31.535  1.00  0.00     0.074 A 
ATOM     30  C   UNL A   1      42.299  30.992  36.793  1.00  0.00     0.029 A 
ATOM     31  N   UNL A   1      42.199  30.007  34.798  1.00  0.00    -0.354 N 
ATOM     32  N   UNL A   1      43.300  28.282  32.560  1.00  0.00    -0.248 NA
ATOM     33  C   UNL A   1      45.090  27.093  31.637  1.00  0.00     0.031 C 
ATOM     34  C   UNL A   1      43.538  30.409  36.514  1.00  0.00     0.029 A 
ATOM     35  C   UNL A   1      43.467  29.757  35.289  1.00  0.00     0.049 A 
ATOM     36  H   UNL A   1      41.855  29.682  33.935  1.00  0.00     0.167 HD
ATOM     37  C   UNL A   1      44.375  28.334  33.439  1.00  0.00     0.074 A 
ATOM     38  C   UNL A   1      45.436  27.553  32.830  1.00  0.00     0.031 C 
ATOM     39  C   UNL A   1      44.486  28.968  34.635  1.00  0.00     0.034 A 
BRANCH  26  40
ATOM     40  C   UNL A   1      39.468  32.166  36.474  1.00  0.00     0.023 A 
ATOM     41  C   UNL A   1      38.613  31.670  37.475  1.00  0.00     0.031 A 
ATOM     42  C   UNL A   1      39.610  33.560  36.361  1.00  0.00     0.131 A 
ATOM     43  C   UNL A   1      37.874  32.563  38.265  1.00  0.00     0.055 A 
ATOM     44  C   UNL A   1      38.938  34.441  37.209  1.00  0.00     0.041 A 
ATOM     45  F   UNL A   1      40.379  34.092  35.399  1.00  0.00    -0.206 F 
ATOM     46  C   UNL A   1      38.051  33.945  38.159  1.00  0.00     0.022 A 
BRANCH  43  47
ATOM     47  S   UNL A   1      36.553  31.900  39.320  1.00  0.00     0.124 S 
ATOM     48  O   UNL A   1      36.496  30.508  38.880  1.00  0.00    -0.237 OA
ATOM     49  O   UNL A   1      37.078  32.123  40.662  1.00  0.00    -0.237 OA
ATOM     50  O   UNL A   1      35.389  32.708  38.963  1.00  0.00    -0.744 OA
ENDBRANCH  43  47
ENDBRANCH  26  40
BRANCH  27  51
ATOM     51  C   UNL A   1      43.566  26.374  29.199  1.00  0.00     0.023 A 
ATOM     52  C   UNL A   1      43.890  26.954  27.964  1.00  0.00     0.031 A 
ATOM     53  C   UNL A   1      43.789  24.990  29.347  1.00  0.00     0.131 A 
ATOM     54  C   UNL A   1      44.364  26.151  26.912  1.00  0.00     0.055 A 
ATOM     55  C   UNL A   1      44.324  24.208  28.321  1.00  0.00     0.041 A 
ATOM     56  F   UNL A   1      43.489  24.370  30.499  1.00  0.00    -0.206 F 
ATOM     57  C   UNL A   1      44.598  24.785  27.088  1.00  0.00     0.022 A 
BRANCH  54  58
ATOM     58  S   UNL A   1      44.554  26.897  25.269  1.00  0.00     0.124 S 
ATOM     59  O   UNL A   1      43.232  26.682  24.694  1.00  0.00    -0.237 OA
ATOM     60  O   UNL A   1      44.894  28.276  25.602  1.00  0.00    -0.237 OA
ATOM     61  O   UNL A   1      45.633  26.118  24.666  1.00  0.00    -0.744 OA
ENDBRANCH  54  58
ENDBRANCH  27  51
BRANCH  39  62
ATOM     62  C   UNL A   1      45.787  28.791  35.369  1.00  0.00     0.023 A 
ATOM     63  C   UNL A   1      46.852  29.691  35.206  1.00  0.00     0.031 A 
ATOM     64  C   UNL A   1      45.948  27.718  36.263  1.00  0.00     0.131 A 
ATOM     65  C   UNL A   1      48.053  29.473  35.894  1.00  0.00     0.055 A 
ATOM     66  C   UNL A   1      47.118  27.549  36.998  1.00  0.00     0.041 A 
ATOM     67  F   UNL A   1      44.958  26.829  36.449  1.00  0.00    -0.206 F 
ATOM     68  C   UNL A   1      48.183  28.423  36.806  1.00  0.00     0.022 A 
BRANCH  65  69
ATOM     69  S   UNL A   1      49.472  30.532  35.512  1.00  0.00     0.124 S 
ATOM     70  O   UNL A   1      49.013  31.234  34.318  1.00  0.00    -0.237 OA
ATOM     71  O   UNL A   1      49.592  31.343  36.720  1.00  0.00    -0.237 OA
ATOM     72  O   UNL A   1      50.560  29.581  35.294  1.00  0.00    -0.744 OA
ENDBRANCH  65  69
ENDBRANCH  39  62
ENDBRANCH  13  14
ENDBRANCH   6   8
ENDBRANCH   5   6
ENDBRANCH   4   5
ENDBRANCH   3   4
ENDBRANCH   2   3
ENDBRANCH   1   2
BRANCH   1  73
ATOM     73  C   UNL A   1      32.401  26.161  24.249  1.00  0.00     0.261 C 
BRANCH  73  74
ATOM     74  O   UNL A   1      31.192  25.392  24.227  1.00  0.00    -0.459 OA
BRANCH  74  75
ATOM     75  C   UNL A   1      31.191  24.291  25.027  1.00  0.00     0.356 C 
ATOM     76  O   UNL A   1      30.779  24.237  26.179  1.00  0.00    -0.244 OA
BRANCH  75  77
ATOM     77  C   UNL A   1      31.635  23.166  24.254  1.00  0.00     0.152 A 
ATOM     78  N   UNL A   1      31.250  22.945  22.964  1.00  0.00    -0.271 N 
ATOM     79  C   UNL A   1      32.453  22.094  24.585  1.00  0.00     0.059 A 
ATOM     80  N   UNL A   1      31.914  21.938  22.370  1.00  0.00    -0.183 NA
ATOM     81  H   UNL A   1      30.551  23.472  22.512  1.00  0.00     0.190 HD
ATOM     82  C   UNL A   1      32.629  21.408  23.365  1.00  0.00     0.145 A 
BRANCH  79  83
ATOM     83  C   UNL A   1      32.943  21.713  25.942  1.00  0.00     0.303 C 
BRANCH  83  84
ATOM     84  N   UNL A   1      34.380  22.016  26.097  1.00  0.00    -0.331 N 
ATOM     85  C   UNL A   1      35.257  21.057  25.412  1.00  0.00     0.268 C 
ATOM     86  C   UNL A   1      34.696  23.392  25.709  1.00  0.00     0.268 C 
ATOM     87  H   UNL A   1      34.570  21.918  27.095  1.00  0.00     0.348 HD
ATOM     88  C   UNL A   1      36.727  21.291  25.681  1.00  0.00     0.126 C 
ATOM     89  C   UNL A   1      36.141  23.717  26.077  1.00  0.00     0.126 C 
ATOM     90  C   UNL A   1      37.111  22.747  25.384  1.00  0.00     0.195 C 
BRANCH  90  91
ATOM     91  N   UNL A   1      38.525  23.072  25.679  1.00  0.00    -0.331 N 
ATOM     92  C   UNL A   1      38.685  24.071  26.740  1.00  0.00     0.262 C 
ATOM     93  C   UNL A   1      39.267  21.849  26.030  1.00  0.00     0.275 C 
ATOM     94  H   UNL A   1      38.906  23.484  24.828  1.00  0.00     0.348 HD
ATOM     95  C   UNL A   1      40.152  24.459  26.848  1.00  0.00     0.062 C 
ATOM     96  C   UNL A   1      40.779  22.056  26.213  1.00  0.00     0.134 C 
ATOM     97  C   UNL A   1      41.015  23.246  27.170  1.00  0.00     0.025 C 
BRANCH  96  98
ATOM     98  C   UNL A   1      41.402  20.800  26.844  1.00  0.00     0.231 C 
ATOM     99  O   UNL A   1      40.789  20.139  27.687  1.00  0.00    -0.274 OA
ATOM    100  N   UNL A   1      42.619  20.360  26.382  1.00  0.00    -0.342 N 
ATOM    101  C   UNL A   1      43.755  21.104  25.871  1.00  0.00     0.119 C 
ATOM    102  C   UNL A   1      42.830  18.934  26.211  1.00  0.00     0.119 C 
ATOM    103  C   UNL A   1      44.208  20.243  24.705  1.00  0.00     0.023 C 
ATOM    104  C   UNL A   1      43.996  18.820  25.231  1.00  0.00     0.023 C 
ENDBRANCH  96  98
ENDBRANCH  90  91
ENDBRANCH  83  84
ENDBRANCH  79  83
ENDBRANCH  75  77
ENDBRANCH  74  75
ENDBRANCH  73  74
ENDBRANCH   1  73
TORSDOF 21
ENDMDL
MODEL 3
REMARK VINA RESULT:     -10.5      5.150     10.328
REMARK SMILES O=C(OCCOCCOC(=O)c1[nH]ncc1C[NH+]1CCC([N@H+]2CCC[C@@H](C(=O)N3CCCC3)C2)CC1)c1ccc(-c2c3nc(c(-c4cc(S(=O)(=O)[O-])ccc4F)c4ccc([nH]4)c(-c4cc(S(=O)(=O)[O-])ccc4F)c4nc(c(-c5cc(S(=O)(=O)[O-])ccc5F)c5ccc2[nH]5)C=C4)C=C3)cc1
REMARK SMILES IDX 7 1 6 2 5 3 4 4 3 5 2 6 1 7 37 8 38 9 99 10 39 11 98 12
REMARK SMILES IDX 40 13 41 14 42 15 92 16 43 17 97 18 91 19 93 20 44 21 96 22
REMARK SMILES IDX 90 23 89 24 45 26 77 27 57 28 76 29 58 30 61 31 75 32 94 33
REMARK SMILES IDX 59 34 60 35 74 37 95 38 62 39 46 40 47 41 55 42 48 43 54 44
REMARK SMILES IDX 56 45 53 46 49 47 50 48 51 49 52 50 78 51 79 52 87 53 80 54
REMARK SMILES IDX 86 55 88 56 85 57 81 58 82 59 83 60 84 61 63 62 64 63 72 64
REMARK SMILES IDX 65 65 71 66 73 67 70 68 66 69 67 70 68 71 69 72 8 73 9 74
REMARK SMILES IDX 10 75 11 76 12 77 13 78 16 79 14 80 15 82 17 83 18 84 19 85
REMARK SMILES IDX 36 86 20 88 35 89 21 90 22 91 23 92 34 93 24 95 26 96 25 97
REMARK SMILES IDX 27 98 28 99 29 100 30 101 33 102 31 103 32 104
REMARK H PARENT 93 25 61 36 13 81 18 87 22 94
REMARK Flexibility Score: inf
ROOT
ATOM      1  C   UNL A   1      45.162  27.934  26.926  1.00  0.00     0.202 C 
ENDROOT
BRANCH   1   2
ATOM      2  O   UNL A   1      46.496  28.428  26.793  1.00  0.00    -0.374 OA
BRANCH   2   3
ATOM      3  C   UNL A   1      46.724  29.526  25.913  1.00  0.00     0.202 C 
BRANCH   3   4
ATOM      4  C   UNL A   1      46.470  30.903  26.515  1.00  0.00     0.261 C 
BRANCH   4   5
ATOM      5  O   UNL A   1      45.448  31.573  25.766  1.00  0.00    -0.460 OA
BRANCH   5   6
ATOM      6  C   UNL A   1      44.731  32.650  26.157  1.00  0.00     0.338 C 
ATOM      7  O   UNL A   1      44.575  33.578  25.368  1.00  0.00    -0.246 OA
BRANCH   6   8
ATOM      8  C   UNL A   1      44.107  32.763  27.507  1.00  0.00     0.060 A 
ATOM      9  C   UNL A   1      43.877  33.969  28.172  1.00  0.00     0.016 A 
ATOM     10  C   UNL A   1      43.621  31.585  28.087  1.00  0.00     0.016 A 
ATOM     11  C   UNL A   1      43.200  34.029  29.368  1.00  0.00     0.010 A 
ATOM     12  C   UNL A   1      42.911  31.632  29.289  1.00  0.00     0.010 A 
ATOM     13  C   UNL A   1      42.695  32.862  29.918  1.00  0.00    -0.014 A 
BRANCH  13  14
ATOM     14  C   UNL A   1      42.040  32.991  31.221  1.00  0.00     0.031 A 
ATOM     15  C   UNL A   1      42.891  32.852  32.437  1.00  0.00     0.074 A 
ATOM     16  C   UNL A   1      40.756  33.388  31.268  1.00  0.00     0.049 A 
ATOM     17  N   UNL A   1      42.540  32.834  33.688  1.00  0.00    -0.248 NA
ATOM     18  C   UNL A   1      44.342  32.727  32.206  1.00  0.00     0.031 C 
ATOM     19  C   UNL A   1      39.933  33.721  30.098  1.00  0.00     0.029 A 
ATOM     20  N   UNL A   1      39.927  33.608  32.330  1.00  0.00    -0.354 N 
ATOM     21  C   UNL A   1      43.719  32.648  34.398  1.00  0.00     0.074 A 
ATOM     22  C   UNL A   1      44.796  32.568  33.438  1.00  0.00     0.031 C 
ATOM     23  C   UNL A   1      38.716  34.106  30.514  1.00  0.00     0.029 A 
ATOM     24  C   UNL A   1      38.646  33.949  31.959  1.00  0.00     0.049 A 
ATOM     25  H   UNL A   1      40.215  33.531  33.268  1.00  0.00     0.167 HD
ATOM     26  C   UNL A   1      43.858  32.533  35.738  1.00  0.00     0.034 A 
ATOM     27  C   UNL A   1      37.536  34.050  32.715  1.00  0.00     0.034 A 
ATOM     28  C   UNL A   1      42.733  32.612  36.633  1.00  0.00     0.049 A 
ATOM     29  C   UNL A   1      37.695  33.780  34.191  1.00  0.00     0.074 A 
ATOM     30  C   UNL A   1      42.704  32.454  38.004  1.00  0.00     0.029 A 
ATOM     31  N   UNL A   1      41.424  32.865  36.229  1.00  0.00    -0.354 N 
ATOM     32  N   UNL A   1      38.794  33.515  34.865  1.00  0.00    -0.248 NA
ATOM     33  C   UNL A   1      36.478  33.802  35.006  1.00  0.00     0.031 C 
ATOM     34  C   UNL A   1      41.369  32.526  38.416  1.00  0.00     0.029 A 
ATOM     35  C   UNL A   1      40.573  32.826  37.317  1.00  0.00     0.049 A 
ATOM     36  H   UNL A   1      41.145  33.045  35.302  1.00  0.00     0.167 HD
ATOM     37  C   UNL A   1      38.402  33.361  36.189  1.00  0.00     0.074 A 
ATOM     38  C   UNL A   1      36.968  33.585  36.216  1.00  0.00     0.031 C 
ATOM     39  C   UNL A   1      39.147  33.057  37.284  1.00  0.00     0.034 A 
BRANCH  26  40
ATOM     40  C   UNL A   1      45.227  32.182  36.258  1.00  0.00     0.023 A 
ATOM     41  C   UNL A   1      45.568  30.878  36.660  1.00  0.00     0.031 A 
ATOM     42  C   UNL A   1      46.180  33.199  36.446  1.00  0.00     0.131 A 
ATOM     43  C   UNL A   1      46.793  30.645  37.301  1.00  0.00     0.055 A 
ATOM     44  C   UNL A   1      47.432  32.943  37.006  1.00  0.00     0.041 A 
ATOM     45  F   UNL A   1      45.895  34.470  36.120  1.00  0.00    -0.206 F 
ATOM     46  C   UNL A   1      47.740  31.661  37.452  1.00  0.00     0.022 A 
BRANCH  43  47
ATOM     47  S   UNL A   1      47.068  29.031  38.087  1.00  0.00     0.124 S 
ATOM     48  O   UNL A   1      46.462  29.237  39.400  1.00  0.00    -0.237 OA
ATOM     49  O   UNL A   1      46.361  28.120  37.195  1.00  0.00    -0.237 OA
ATOM     50  O   UNL A   1      48.523  28.895  38.093  1.00  0.00    -0.744 OA
ENDBRANCH  43  47
ENDBRANCH  26  40
BRANCH  27  51
ATOM     51  C   UNL A   1      36.201  34.302  32.097  1.00  0.00     0.023 A 
ATOM     52  C   UNL A   1      35.533  35.522  32.273  1.00  0.00     0.031 A 
ATOM     53  C   UNL A   1      35.535  33.294  31.370  1.00  0.00     0.131 A 
ATOM     54  C   UNL A   1      34.227  35.686  31.782  1.00  0.00     0.055 A 
ATOM     55  C   UNL A   1      34.264  33.485  30.825  1.00  0.00     0.041 A 
ATOM     56  F   UNL A   1      36.114  32.098  31.176  1.00  0.00    -0.206 F 
ATOM     57  C   UNL A   1      33.595  34.681  31.045  1.00  0.00     0.022 A 
BRANCH  54  58
ATOM     58  S   UNL A   1      33.315  37.191  32.226  1.00  0.00     0.124 S 
ATOM     59  O   UNL A   1      32.986  37.733  30.913  1.00  0.00    -0.237 OA
ATOM     60  O   UNL A   1      32.201  36.651  32.997  1.00  0.00    -0.237 OA
ATOM     61  O   UNL A   1      34.289  37.963  32.995  1.00  0.00    -0.744 OA
ENDBRANCH  54  58
ENDBRANCH  27  51
BRANCH  39  62
ATOM     62  C   UNL A   1      38.416  33.004  38.598  1.00  0.00     0.023 A 
ATOM     63  C   UNL A   1      38.534  34.030  39.548  1.00  0.00     0.031 A 
ATOM     64  C   UNL A   1      37.571  31.918  38.886  1.00  0.00     0.131 A 
ATOM     65  C   UNL A   1      37.851  33.926  40.766  1.00  0.00     0.055 A 
ATOM     66  C   UNL A   1      36.839  31.856  40.069  1.00  0.00     0.041 A 
ATOM     67  F   UNL A   1      37.429  30.910  38.009  1.00  0.00    -0.206 F 
ATOM     68  C   UNL A   1      36.986  32.859  41.022  1.00  0.00     0.022 A 
BRANCH  65  69
ATOM     69  S   UNL A   1      38.179  35.163  42.049  1.00  0.00     0.124 S 
ATOM     70  O   UNL A   1      38.347  36.379  41.260  1.00  0.00    -0.237 OA
ATOM     71  O   UNL A   1      36.970  35.095  42.865  1.00  0.00    -0.237 OA
ATOM     72  O   UNL A   1      39.392  34.670  42.697  1.00  0.00    -0.744 OA
ENDBRANCH  65  69
ENDBRANCH  39  62
ENDBRANCH  13  14
ENDBRANCH   6   8
ENDBRANCH   5   6
ENDBRANCH   4   5
ENDBRANCH   3   4
ENDBRANCH   2   3
ENDBRANCH   1   2
BRANCH   1  73
ATOM     73  C   UNL A   1      44.708  27.436  25.550  1.00  0.00     0.261 C 
BRANCH  73  74
ATOM     74  O   UNL A   1      43.509  26.674  25.737  1.00  0.00    -0.459 OA
BRANCH  74  75
ATOM     75  C   UNL A   1      42.357  27.318  25.408  1.00  0.00     0.356 C 
ATOM     76  O   UNL A   1      42.246  28.233  24.600  1.00  0.00    -0.244 OA
BRANCH  75  77
ATOM     77  C   UNL A   1      41.263  26.664  26.070  1.00  0.00     0.152 A 
ATOM     78  N   UNL A   1      40.781  25.446  25.691  1.00  0.00    -0.271 N 
ATOM     79  C   UNL A   1      40.462  27.067  27.129  1.00  0.00     0.059 A 
ATOM     80  N   UNL A   1      39.876  24.936  26.546  1.00  0.00    -0.183 NA
ATOM     81  H   UNL A   1      41.067  24.983  24.869  1.00  0.00     0.190 HD
ATOM     82  C   UNL A   1      39.668  25.934  27.408  1.00  0.00     0.145 A 
BRANCH  79  83
ATOM     83  C   UNL A   1      40.398  28.420  27.753  1.00  0.00     0.303 C 
BRANCH  83  84
ATOM     84  N   UNL A   1      40.698  28.359  29.199  1.00  0.00    -0.331 N 
ATOM     85  C   UNL A   1      42.114  28.105  29.491  1.00  0.00     0.268 C 
ATOM     86  C   UNL A   1      40.216  29.546  29.909  1.00  0.00     0.268 C 
ATOM     87  H   UNL A   1      40.182  27.551  29.547  1.00  0.00     0.348 HD
ATOM     88  C   UNL A   1      42.397  27.912  30.965  1.00  0.00     0.126 C 
ATOM     89  C   UNL A   1      40.366  29.346  31.414  1.00  0.00     0.126 C 
ATOM     90  C   UNL A   1      41.833  29.080  31.785  1.00  0.00     0.195 C 
BRANCH  90  91
ATOM     91  N   UNL A   1      42.018  28.937  33.247  1.00  0.00    -0.331 N 
ATOM     92  C   UNL A   1      41.027  29.676  34.036  1.00  0.00     0.262 C 
ATOM     93  C   UNL A   1      41.996  27.513  33.627  1.00  0.00     0.275 C 
ATOM     94  H   UNL A   1      42.927  29.345  33.461  1.00  0.00     0.348 HD
ATOM     95  C   UNL A   1      41.402  29.605  35.509  1.00  0.00     0.062 C 
ATOM     96  C   UNL A   1      42.324  27.247  35.105  1.00  0.00     0.134 C 
ATOM     97  C   UNL A   1      41.448  28.160  35.991  1.00  0.00     0.025 C 
BRANCH  96  98
ATOM     98  C   UNL A   1      42.000  25.785  35.453  1.00  0.00     0.231 C 
ATOM     99  O   UNL A   1      40.858  25.443  35.773  1.00  0.00    -0.274 OA
ATOM    100  N   UNL A   1      42.983  24.836  35.306  1.00  0.00    -0.342 N 
ATOM    101  C   UNL A   1      44.419  24.935  35.481  1.00  0.00     0.119 C 
ATOM    102  C   UNL A   1      42.629  23.541  34.752  1.00  0.00     0.119 C 
ATOM    103  C   UNL A   1      44.945  24.112  34.317  1.00  0.00     0.023 C 
ATOM    104  C   UNL A   1      43.944  22.957  34.239  1.00  0.00     0.023 C 
ENDBRANCH  96  98
ENDBRANCH  90  91
ENDBRANCH  83  84
ENDBRANCH  79  83
ENDBRANCH  75  77
ENDBRANCH  74  75
ENDBRANCH  73  74
ENDBRANCH   1  73
TORSDOF 21
ENDMDL
