MODEL 1
REMARK VINA RESULT:     -11.2      0.000      0.000
REMARK SMILES CC[C@@](C)(NC(=O)Nc1c(C)cccc1Cl)C(=O)OCCOCCOC(=O)c1ccc(-c2c3nc(c(-c4cc(S(=O)(=O)[O-])ccc4F)c4ccc([nH]4)c(-c4cc(S(=O)(=O)[O-])ccc4F)c4nc(c(-c5cc(S(=O)(=O)[O-])ccc5F)c5ccc2[nH]5)C=C4)C=C3)cc1
REMARK SMILES IDX 23 1 22 2 21 3 20 4 19 5 17 6 18 7 3 8 4 9 2 10 1 11 5 12
REMARK SMILES IDX 6 13 7 15 8 16 9 18 10 19 15 20 11 21 12 22 14 23 16 24
REMARK SMILES IDX 13 25 24 26 25 27 26 28 27 29 28 30 29 31 90 32 30 33 89 34
REMARK SMILES IDX 31 35 32 36 33 37 83 38 34 39 88 40 82 41 84 42 35 43 87 44
REMARK SMILES IDX 81 45 80 46 36 48 68 49 48 50 67 51 49 52 52 53 66 54 85 55
REMARK SMILES IDX 50 56 51 57 65 59 86 60 53 61 37 62 38 63 46 64 39 65 45 66
REMARK SMILES IDX 47 67 44 68 40 69 41 70 42 71 43 72 69 73 70 74 78 75 71 76
REMARK SMILES IDX 77 77 79 78 76 79 72 80 73 81 74 82 75 83 54 84 55 85 63 86
REMARK SMILES IDX 56 87 62 88 64 89 61 90 57 91 58 92 59 93 60 94
REMARK H PARENT 5 14 8 17 84 47 52 58
REMARK Flexibility Score: inf
ROOT
ATOM      1  C   UNL A   1      35.607  21.112  24.880  1.00  0.00     0.202 C 
ENDROOT
BRANCH   1   2
ATOM      2  O   UNL A   1      35.655  22.236  25.758  1.00  0.00    -0.374 OA
BRANCH   2   3
ATOM      3  C   UNL A   1      34.670  23.253  25.630  1.00  0.00     0.202 C 
BRANCH   3   4
ATOM      4  C   UNL A   1      33.479  22.655  24.816  1.00  0.00     0.261 C 
BRANCH   4   5
ATOM      5  O   UNL A   1      32.675  23.737  24.242  1.00  0.00    -0.462 OA
BRANCH   5   6
ATOM      6  C   UNL A   1      31.321  23.979  24.283  1.00  0.00     0.331 C 
ATOM      7  O   UNL A   1      30.535  23.550  23.451  1.00  0.00    -0.249 OA
BRANCH   6   8
ATOM      8  C   UNL A   1      30.895  24.895  25.556  1.00  0.00     0.136 C 
ATOM      9  C   UNL A   1      30.848  23.885  26.727  1.00  0.00     0.047 C 
BRANCH   8  10
ATOM     10  C   UNL A   1      31.416  26.231  26.220  1.00  0.00     0.037 C 
ATOM     11  C   UNL A   1      32.847  26.554  26.566  1.00  0.00     0.007 C 
ENDBRANCH   8  10
BRANCH   8  12
ATOM     12  N   UNL A   1      29.595  25.305  25.100  1.00  0.00    -0.322 N 
ATOM     13  C   UNL A   1      29.365  26.189  24.098  1.00  0.00     0.320 C 
ATOM     14  H   UNL A   1      28.812  24.915  25.551  1.00  0.00     0.166 HD
ATOM     15  O   UNL A   1      28.200  26.459  23.879  1.00  0.00    -0.248 OA
ATOM     16  N   UNL A   1      30.321  26.884  23.425  1.00  0.00    -0.306 N 
ATOM     17  H   UNL A   1      29.791  27.579  22.971  1.00  0.00     0.171 HD
BRANCH  16  18
ATOM     18  C   UNL A   1      31.672  27.192  22.991  1.00  0.00     0.064 A 
ATOM     19  C   UNL A   1      32.661  26.633  22.103  1.00  0.00    -0.026 A 
ATOM     20  C   UNL A   1      32.061  28.456  23.562  1.00  0.00     0.064 A 
ATOM     21  C   UNL A   1      32.720  25.399  21.239  1.00  0.00     0.046 C 
ATOM     22  C   UNL A   1      33.878  27.349  21.866  1.00  0.00     0.005 A 
ATOM     23  C   UNL A   1      33.247  29.136  23.267  1.00  0.00     0.023 A 
ATOM     24  Cl  UNL A   1      31.043  29.266  24.736  1.00  0.00    -0.082 Cl
ATOM     25  C   UNL A   1      34.161  28.582  22.408  1.00  0.00     0.002 A 
ENDBRANCH  16  18
ENDBRANCH   8  12
ENDBRANCH   6   8
ENDBRANCH   5   6
ENDBRANCH   4   5
ENDBRANCH   3   4
ENDBRANCH   2   3
ENDBRANCH   1   2
BRANCH   1  26
ATOM     26  C   UNL A   1      36.995  20.441  24.995  1.00  0.00     0.261 C 
BRANCH  26  27
ATOM     27  O   UNL A   1      38.012  21.463  25.062  1.00  0.00    -0.460 OA
BRANCH  27  28
ATOM     28  C   UNL A   1      39.023  21.087  25.870  1.00  0.00     0.338 C 
ATOM     29  O   UNL A   1      39.666  20.042  25.744  1.00  0.00    -0.246 OA
BRANCH  28  30
ATOM     30  C   UNL A   1      39.510  22.239  26.660  1.00  0.00     0.060 A 
ATOM     31  C   UNL A   1      38.909  23.478  26.390  1.00  0.00     0.016 A 
ATOM     32  C   UNL A   1      40.507  22.142  27.634  1.00  0.00     0.016 A 
ATOM     33  C   UNL A   1      39.368  24.638  27.006  1.00  0.00     0.010 A 
ATOM     34  C   UNL A   1      40.991  23.314  28.233  1.00  0.00     0.010 A 
ATOM     35  C   UNL A   1      40.466  24.571  27.869  1.00  0.00    -0.014 A 
BRANCH  35  36
ATOM     36  C   UNL A   1      41.261  25.805  28.094  1.00  0.00     0.031 A 
ATOM     37  C   UNL A   1      40.579  26.938  28.817  1.00  0.00     0.074 A 
ATOM     38  C   UNL A   1      42.549  25.924  27.729  1.00  0.00     0.049 A 
ATOM     39  N   UNL A   1      41.007  28.146  29.075  1.00  0.00    -0.248 NA
ATOM     40  C   UNL A   1      39.221  26.659  29.313  1.00  0.00     0.031 C 
ATOM     41  C   UNL A   1      43.353  24.880  27.100  1.00  0.00     0.029 A 
ATOM     42  N   UNL A   1      43.400  26.998  27.827  1.00  0.00    -0.354 N 
ATOM     43  C   UNL A   1      39.967  28.775  29.749  1.00  0.00     0.074 A 
ATOM     44  C   UNL A   1      38.881  27.824  29.836  1.00  0.00     0.031 C 
ATOM     45  C   UNL A   1      44.574  25.379  26.833  1.00  0.00     0.029 A 
ATOM     46  C   UNL A   1      44.622  26.787  27.233  1.00  0.00     0.049 A 
ATOM     47  H   UNL A   1      43.159  27.838  28.281  1.00  0.00     0.167 HD
ATOM     48  C   UNL A   1      39.916  30.034  30.250  1.00  0.00     0.034 A 
ATOM     49  C   UNL A   1      45.637  27.645  26.994  1.00  0.00     0.034 A 
ATOM     50  C   UNL A   1      40.990  30.986  30.134  1.00  0.00     0.049 A 
ATOM     51  C   UNL A   1      45.522  29.082  27.450  1.00  0.00     0.074 A 
ATOM     52  C   UNL A   1      41.046  32.284  30.609  1.00  0.00     0.029 A 
ATOM     53  N   UNL A   1      42.190  30.751  29.473  1.00  0.00    -0.354 N 
ATOM     54  N   UNL A   1      44.534  29.675  28.081  1.00  0.00    -0.248 NA
ATOM     55  C   UNL A   1      46.661  29.966  27.160  1.00  0.00     0.031 C 
ATOM     56  C   UNL A   1      42.241  32.860  30.165  1.00  0.00     0.029 A 
ATOM     57  C   UNL A   1      42.973  31.895  29.490  1.00  0.00     0.049 A 
ATOM     58  H   UNL A   1      42.446  29.897  29.055  1.00  0.00     0.167 HD
ATOM     59  C   UNL A   1      44.945  30.991  28.286  1.00  0.00     0.074 A 
ATOM     60  C   UNL A   1      46.270  31.107  27.714  1.00  0.00     0.031 C 
ATOM     61  C   UNL A   1      44.290  32.007  28.906  1.00  0.00     0.034 A 
BRANCH  48  62
ATOM     62  C   UNL A   1      38.614  30.462  30.884  1.00  0.00     0.023 A 
ATOM     63  C   UNL A   1      37.571  31.031  30.130  1.00  0.00     0.031 A 
ATOM     64  C   UNL A   1      38.448  30.372  32.276  1.00  0.00     0.131 A 
ATOM     65  C   UNL A   1      36.455  31.574  30.784  1.00  0.00     0.055 A 
ATOM     66  C   UNL A   1      37.294  30.833  32.911  1.00  0.00     0.041 A 
ATOM     67  F   UNL A   1      39.421  29.863  33.050  1.00  0.00    -0.206 F 
ATOM     68  C   UNL A   1      36.298  31.458  32.167  1.00  0.00     0.022 A 
BRANCH  65  69
ATOM     69  S   UNL A   1      35.303  32.597  29.824  1.00  0.00     0.124 S 
ATOM     70  O   UNL A   1      34.870  31.664  28.787  1.00  0.00    -0.237 OA
ATOM     71  O   UNL A   1      34.300  32.957  30.819  1.00  0.00    -0.237 OA
ATOM     72  O   UNL A   1      36.137  33.698  29.350  1.00  0.00    -0.744 OA
ENDBRANCH  65  69
ENDBRANCH  48  62
BRANCH  49  73
ATOM     73  C   UNL A   1      46.818  27.192  26.205  1.00  0.00     0.023 A 
ATOM     74  C   UNL A   1      47.931  26.593  26.815  1.00  0.00     0.031 A 
ATOM     75  C   UNL A   1      46.856  27.394  24.812  1.00  0.00     0.131 A 
ATOM     76  C   UNL A   1      49.046  26.240  26.037  1.00  0.00     0.055 A 
ATOM     77  C   UNL A   1      47.947  27.000  24.038  1.00  0.00     0.041 A 
ATOM     78  F   UNL A   1      45.820  27.969  24.180  1.00  0.00    -0.206 F 
ATOM     79  C   UNL A   1      49.056  26.425  24.652  1.00  0.00     0.022 A 
BRANCH  76  80
ATOM     80  S   UNL A   1      50.517  25.578  26.867  1.00  0.00     0.124 S 
ATOM     81  O   UNL A   1      50.949  26.721  27.664  1.00  0.00    -0.237 OA
ATOM     82  O   UNL A   1      49.966  24.449  27.610  1.00  0.00    -0.237 OA
ATOM     83  O   UNL A   1      51.401  25.218  25.760  1.00  0.00    -0.744 OA
ENDBRANCH  76  80
ENDBRANCH  49  73
BRANCH  61  84
ATOM     84  C   UNL A   1      45.014  33.326  29.055  1.00  0.00     0.023 A 
ATOM     85  C   UNL A   1      44.771  34.416  28.203  1.00  0.00     0.031 A 
ATOM     86  C   UNL A   1      45.937  33.500  30.104  1.00  0.00     0.131 A 
ATOM     87  C   UNL A   1      45.463  35.624  28.398  1.00  0.00     0.055 A 
ATOM     88  C   UNL A   1      46.584  34.716  30.323  1.00  0.00     0.041 A 
ATOM     89  F   UNL A   1      46.209  32.491  30.947  1.00  0.00    -0.206 F 
ATOM     90  C   UNL A   1      46.354  35.785  29.463  1.00  0.00     0.022 A 
BRANCH  87  91
ATOM     91  S   UNL A   1      45.231  36.973  27.207  1.00  0.00     0.124 S 
ATOM     92  O   UNL A   1      45.167  38.141  28.081  1.00  0.00    -0.237 OA
ATOM     93  O   UNL A   1      46.423  36.866  26.373  1.00  0.00    -0.237 OA
ATOM     94  O   UNL A   1      43.976  36.632  26.540  1.00  0.00    -0.744 OA
ENDBRANCH  87  91
ENDBRANCH  61  84
ENDBRANCH  35  36
ENDBRANCH  28  30
ENDBRANCH  27  28
ENDBRANCH  26  27
ENDBRANCH   1  26
TORSDOF 20
ENDMDL
MODEL 2
REMARK VINA RESULT:     -11.2      5.031     10.091
REMARK SMILES CC[C@@](C)(NC(=O)Nc1c(C)cccc1Cl)C(=O)OCCOCCOC(=O)c1ccc(-c2c3nc(c(-c4cc(S(=O)(=O)[O-])ccc4F)c4ccc([nH]4)c(-c4cc(S(=O)(=O)[O-])ccc4F)c4nc(c(-c5cc(S(=O)(=O)[O-])ccc5F)c5ccc2[nH]5)C=C4)C=C3)cc1
REMARK SMILES IDX 23 1 22 2 21 3 20 4 19 5 17 6 18 7 3 8 4 9 2 10 1 11 5 12
REMARK SMILES IDX 6 13 7 15 8 16 9 18 10 19 15 20 11 21 12 22 14 23 16 24
REMARK SMILES IDX 13 25 24 26 25 27 26 28 27 29 28 30 29 31 90 32 30 33 89 34
REMARK SMILES IDX 31 35 32 36 33 37 83 38 34 39 88 40 82 41 84 42 35 43 87 44
REMARK SMILES IDX 81 45 80 46 36 48 68 49 48 50 67 51 49 52 52 53 66 54 85 55
REMARK SMILES IDX 50 56 51 57 65 59 86 60 53 61 37 62 38 63 46 64 39 65 45 66
REMARK SMILES IDX 47 67 44 68 40 69 41 70 42 71 43 72 69 73 70 74 78 75 71 76
REMARK SMILES IDX 77 77 79 78 76 79 72 80 73 81 74 82 75 83 54 84 55 85 63 86
REMARK SMILES IDX 56 87 62 88 64 89 61 90 57 91 58 92 59 93 60 94
REMARK H PARENT 5 14 8 17 84 47 52 58
REMARK Flexibility Score: inf
ROOT
ATOM      1  C   UNL A   1      32.076  30.659  26.882  1.00  0.00     0.202 C 
ENDROOT
BRANCH   1   2
ATOM      2  O   UNL A   1      31.742  30.276  25.549  1.00  0.00    -0.374 OA
BRANCH   2   3
ATOM      3  C   UNL A   1      32.739  29.674  24.734  1.00  0.00     0.202 C 
BRANCH   3   4
ATOM      4  C   UNL A   1      32.137  28.356  24.151  1.00  0.00     0.261 C 
BRANCH   4   5
ATOM      5  O   UNL A   1      31.001  27.923  24.968  1.00  0.00    -0.462 OA
BRANCH   5   6
ATOM      6  C   UNL A   1      30.802  26.782  25.709  1.00  0.00     0.331 C 
ATOM      7  O   UNL A   1      31.114  26.680  26.886  1.00  0.00    -0.249 OA
BRANCH   6   8
ATOM      8  C   UNL A   1      30.109  25.594  24.841  1.00  0.00     0.136 C 
ATOM      9  C   UNL A   1      28.955  26.313  24.104  1.00  0.00     0.047 C 
BRANCH   8  10
ATOM     10  C   UNL A   1      30.605  24.503  23.810  1.00  0.00     0.037 C 
ATOM     11  C   UNL A   1      31.472  24.748  22.603  1.00  0.00     0.007 C 
ENDBRANCH   8  10
BRANCH   8  12
ATOM     12  N   UNL A   1      29.667  24.764  25.927  1.00  0.00    -0.322 N 
ATOM     13  C   UNL A   1      30.429  23.836  26.558  1.00  0.00     0.320 C 
ATOM     14  H   UNL A   1      28.740  24.877  26.236  1.00  0.00     0.166 HD
ATOM     15  O   UNL A   1      29.875  23.187  27.424  1.00  0.00    -0.248 OA
ATOM     16  N   UNL A   1      31.697  23.490  26.211  1.00  0.00    -0.306 N 
ATOM     17  H   UNL A   1      31.827  22.649  26.707  1.00  0.00     0.171 HD
BRANCH  16  18
ATOM     18  C   UNL A   1      32.970  23.645  25.529  1.00  0.00     0.064 A 
ATOM     19  C   UNL A   1      34.000  24.647  25.408  1.00  0.00    -0.026 A 
ATOM     20  C   UNL A   1      33.297  22.403  24.878  1.00  0.00     0.064 A 
ATOM     21  C   UNL A   1      34.170  26.049  25.935  1.00  0.00     0.046 C 
ATOM     22  C   UNL A   1      35.204  24.335  24.696  1.00  0.00     0.005 A 
ATOM     23  C   UNL A   1      34.506  22.134  24.228  1.00  0.00     0.023 A 
ATOM     24  Cl  UNL A   1      32.147  21.081  24.828  1.00  0.00    -0.082 Cl
ATOM     25  C   UNL A   1      35.470  23.105  24.140  1.00  0.00     0.002 A 
ENDBRANCH  16  18
ENDBRANCH   8  12
ENDBRANCH   6   8
ENDBRANCH   5   6
ENDBRANCH   4   5
ENDBRANCH   3   4
ENDBRANCH   2   3
ENDBRANCH   1   2
BRANCH   1  26
ATOM     26  C   UNL A   1      31.711  32.159  26.983  1.00  0.00     0.261 C 
BRANCH  26  27
ATOM     27  O   UNL A   1      32.899  32.951  26.776  1.00  0.00    -0.460 OA
BRANCH  27  28
ATOM     28  C   UNL A   1      33.415  33.365  27.951  1.00  0.00     0.338 C 
ATOM     29  O   UNL A   1      32.767  33.915  28.843  1.00  0.00    -0.246 OA
BRANCH  28  30
ATOM     30  C   UNL A   1      34.734  32.736  28.187  1.00  0.00     0.060 A 
ATOM     31  C   UNL A   1      34.718  31.413  28.655  1.00  0.00     0.016 A 
ATOM     32  C   UNL A   1      35.951  33.385  27.965  1.00  0.00     0.016 A 
ATOM     33  C   UNL A   1      35.901  30.770  29.004  1.00  0.00     0.010 A 
ATOM     34  C   UNL A   1      37.141  32.750  28.345  1.00  0.00     0.010 A 
ATOM     35  C   UNL A   1      37.112  31.466  28.927  1.00  0.00    -0.014 A 
BRANCH  35  36
ATOM     36  C   UNL A   1      38.247  31.001  29.764  1.00  0.00     0.031 A 
ATOM     37  C   UNL A   1      39.152  29.952  29.169  1.00  0.00     0.074 A 
ATOM     38  C   UNL A   1      38.515  31.504  30.980  1.00  0.00     0.049 A 
ATOM     39  N   UNL A   1      40.161  29.316  29.704  1.00  0.00    -0.248 NA
ATOM     40  C   UNL A   1      38.869  29.575  27.775  1.00  0.00     0.031 C 
ATOM     41  C   UNL A   1      37.775  32.576  31.639  1.00  0.00     0.029 A 
ATOM     42  N   UNL A   1      39.489  31.156  31.886  1.00  0.00    -0.354 N 
ATOM     43  C   UNL A   1      40.623  28.452  28.716  1.00  0.00     0.074 A 
ATOM     44  C   UNL A   1      39.768  28.629  27.563  1.00  0.00     0.031 C 
ATOM     45  C   UNL A   1      38.299  32.774  32.862  1.00  0.00     0.029 A 
ATOM     46  C   UNL A   1      39.382  31.814  33.088  1.00  0.00     0.049 A 
ATOM     47  H   UNL A   1      40.197  30.500  31.691  1.00  0.00     0.167 HD
ATOM     48  C   UNL A   1      41.665  27.586  28.764  1.00  0.00     0.034 A 
ATOM     49  C   UNL A   1      40.044  31.627  34.249  1.00  0.00     0.034 A 
ATOM     50  C   UNL A   1      42.493  27.393  29.925  1.00  0.00     0.049 A 
ATOM     51  C   UNL A   1      41.126  30.572  34.329  1.00  0.00     0.074 A 
ATOM     52  C   UNL A   1      43.577  26.547  30.080  1.00  0.00     0.029 A 
ATOM     53  N   UNL A   1      42.315  28.038  31.143  1.00  0.00    -0.354 N 
ATOM     54  N   UNL A   1      41.555  29.753  33.396  1.00  0.00    -0.248 NA
ATOM     55  C   UNL A   1      41.811  30.417  35.621  1.00  0.00     0.031 C 
ATOM     56  C   UNL A   1      43.999  26.618  31.412  1.00  0.00     0.029 A 
ATOM     57  C   UNL A   1      43.240  27.575  32.066  1.00  0.00     0.049 A 
ATOM     58  H   UNL A   1      41.632  28.724  31.323  1.00  0.00     0.167 HD
ATOM     59  C   UNL A   1      42.577  29.007  33.981  1.00  0.00     0.074 A 
ATOM     60  C   UNL A   1      42.702  29.472  35.346  1.00  0.00     0.031 C 
ATOM     61  C   UNL A   1      43.352  28.035  33.431  1.00  0.00     0.034 A 
BRANCH  48  62
ATOM     62  C   UNL A   1      41.890  26.726  27.543  1.00  0.00     0.023 A 
ATOM     63  C   UNL A   1      41.456  25.388  27.485  1.00  0.00     0.031 A 
ATOM     64  C   UNL A   1      42.622  27.229  26.455  1.00  0.00     0.131 A 
ATOM     65  C   UNL A   1      41.840  24.577  26.407  1.00  0.00     0.055 A 
ATOM     66  C   UNL A   1      42.924  26.441  25.344  1.00  0.00     0.041 A 
ATOM     67  F   UNL A   1      43.085  28.489  26.466  1.00  0.00    -0.206 F 
ATOM     68  C   UNL A   1      42.551  25.100  25.325  1.00  0.00     0.022 A 
BRANCH  65  69
ATOM     69  S   UNL A   1      41.561  22.788  26.528  1.00  0.00     0.124 S 
ATOM     70  O   UNL A   1      40.101  22.714  26.522  1.00  0.00    -0.237 OA
ATOM     71  O   UNL A   1      42.230  22.284  25.335  1.00  0.00    -0.237 OA
ATOM     72  O   UNL A   1      42.188  22.428  27.797  1.00  0.00    -0.744 OA
ENDBRANCH  65  69
ENDBRANCH  48  62
BRANCH  49  73
ATOM     73  C   UNL A   1      39.645  32.395  35.463  1.00  0.00     0.023 A 
ATOM     74  C   UNL A   1      38.777  31.858  36.427  1.00  0.00     0.031 A 
ATOM     75  C   UNL A   1      40.110  33.710  35.652  1.00  0.00     0.131 A 
ATOM     76  C   UNL A   1      38.380  32.643  37.522  1.00  0.00     0.055 A 
ATOM     77  C   UNL A   1      39.749  34.469  36.765  1.00  0.00     0.041 A 
ATOM     78  F   UNL A   1      40.937  34.273  34.756  1.00  0.00    -0.206 F 
ATOM     79  C   UNL A   1      38.872  33.938  37.705  1.00  0.00     0.022 A 
BRANCH  76  80
ATOM     80  S   UNL A   1      37.165  31.968  38.688  1.00  0.00     0.124 S 
ATOM     81  O   UNL A   1      37.127  30.563  38.297  1.00  0.00    -0.237 OA
ATOM     82  O   UNL A   1      37.785  32.259  39.976  1.00  0.00    -0.237 OA
ATOM     83  O   UNL A   1      35.953  32.731  38.397  1.00  0.00    -0.744 OA
ENDBRANCH  76  80
ENDBRANCH  49  73
BRANCH  61  84
ATOM     84  C   UNL A   1      44.448  27.442  34.285  1.00  0.00     0.023 A 
ATOM     85  C   UNL A   1      44.258  26.278  35.050  1.00  0.00     0.031 A 
ATOM     86  C   UNL A   1      45.724  28.037  34.294  1.00  0.00     0.131 A 
ATOM     87  C   UNL A   1      45.319  25.763  35.814  1.00  0.00     0.055 A 
ATOM     88  C   UNL A   1      46.788  27.493  35.014  1.00  0.00     0.041 A 
ATOM     89  F   UNL A   1      45.962  29.151  33.583  1.00  0.00    -0.206 F 
ATOM     90  C   UNL A   1      46.587  26.353  35.786  1.00  0.00     0.022 A 
BRANCH  87  91
ATOM     91  S   UNL A   1      45.015  24.338  36.895  1.00  0.00     0.124 S 
ATOM     92  O   UNL A   1      44.402  23.384  35.975  1.00  0.00    -0.237 OA
ATOM     93  O   UNL A   1      46.356  24.003  37.361  1.00  0.00    -0.237 OA
ATOM     94  O   UNL A   1      44.119  24.869  37.921  1.00  0.00    -0.744 OA
ENDBRANCH  87  91
ENDBRANCH  61  84
ENDBRANCH  35  36
ENDBRANCH  28  30
ENDBRANCH  27  28
ENDBRANCH  26  27
ENDBRANCH   1  26
TORSDOF 20
ENDMDL
MODEL 3
REMARK VINA RESULT:     -11.0      1.757      2.332
REMARK SMILES CC[C@@](C)(NC(=O)Nc1c(C)cccc1Cl)C(=O)OCCOCCOC(=O)c1ccc(-c2c3nc(c(-c4cc(S(=O)(=O)[O-])ccc4F)c4ccc([nH]4)c(-c4cc(S(=O)(=O)[O-])ccc4F)c4nc(c(-c5cc(S(=O)(=O)[O-])ccc5F)c5ccc2[nH]5)C=C4)C=C3)cc1
REMARK SMILES IDX 23 1 22 2 21 3 20 4 19 5 17 6 18 7 3 8 4 9 2 10 1 11 5 12
REMARK SMILES IDX 6 13 7 15 8 16 9 18 10 19 15 20 11 21 12 22 14 23 16 24
REMARK SMILES IDX 13 25 24 26 25 27 26 28 27 29 28 30 29 31 90 32 30 33 89 34
REMARK SMILES IDX 31 35 32 36 33 37 83 38 34 39 88 40 82 41 84 42 35 43 87 44
REMARK SMILES IDX 81 45 80 46 36 48 68 49 48 50 67 51 49 52 52 53 66 54 85 55
REMARK SMILES IDX 50 56 51 57 65 59 86 60 53 61 37 62 38 63 46 64 39 65 45 66
REMARK SMILES IDX 47 67 44 68 40 69 41 70 42 71 43 72 69 73 70 74 78 75 71 76
REMARK SMILES IDX 77 77 79 78 76 79 72 80 73 81 74 82 75 83 54 84 55 85 63 86
REMARK SMILES IDX 56 87 62 88 64 89 61 90 57 91 58 92 59 93 60 94
REMARK H PARENT 5 14 8 17 84 47 52 58
REMARK Flexibility Score: inf
ROOT
ATOM      1  C   UNL A   1      36.096  21.415  24.753  1.00  0.00     0.202 C 
ENDROOT
BRANCH   1   2
ATOM      2  O   UNL A   1      36.594  22.175  23.652  1.00  0.00    -0.374 OA
BRANCH   2   3
ATOM      3  C   UNL A   1      36.080  23.481  23.427  1.00  0.00     0.202 C 
BRANCH   3   4
ATOM      4  C   UNL A   1      35.626  24.052  24.808  1.00  0.00     0.261 C 
BRANCH   4   5
ATOM      5  O   UNL A   1      34.334  24.727  24.666  1.00  0.00    -0.462 OA
BRANCH   5   6
ATOM      6  C   UNL A   1      33.133  24.528  25.306  1.00  0.00     0.331 C 
ATOM      7  O   UNL A   1      33.037  24.320  26.507  1.00  0.00    -0.249 OA
BRANCH   6   8
ATOM      8  C   UNL A   1      31.869  24.599  24.287  1.00  0.00     0.136 C 
ATOM      9  C   UNL A   1      31.220  23.201  24.420  1.00  0.00     0.047 C 
BRANCH   8  10
ATOM     10  C   UNL A   1      30.645  25.573  24.061  1.00  0.00     0.037 C 
ATOM     11  C   UNL A   1      29.620  25.968  25.092  1.00  0.00     0.007 C 
ENDBRANCH   8  10
BRANCH   8  12
ATOM     12  N   UNL A   1      32.593  24.780  23.059  1.00  0.00    -0.322 N 
ATOM     13  C   UNL A   1      33.105  25.959  22.624  1.00  0.00     0.320 C 
ATOM     14  H   UNL A   1      32.727  23.989  22.490  1.00  0.00     0.166 HD
ATOM     15  O   UNL A   1      33.645  25.938  21.535  1.00  0.00    -0.248 OA
ATOM     16  N   UNL A   1      32.945  27.161  23.236  1.00  0.00    -0.306 N 
ATOM     17  H   UNL A   1      33.225  27.792  22.534  1.00  0.00     0.171 HD
BRANCH  16  18
ATOM     18  C   UNL A   1      32.598  28.053  24.330  1.00  0.00     0.064 A 
ATOM     19  C   UNL A   1      33.068  28.339  25.663  1.00  0.00    -0.026 A 
ATOM     20  C   UNL A   1      31.547  28.933  23.889  1.00  0.00     0.064 A 
ATOM     21  C   UNL A   1      34.151  27.767  26.541  1.00  0.00     0.046 C 
ATOM     22  C   UNL A   1      32.488  29.426  26.394  1.00  0.00     0.005 A 
ATOM     23  C   UNL A   1      31.042  30.008  24.627  1.00  0.00     0.023 A 
ATOM     24  Cl  UNL A   1      30.772  28.705  22.334  1.00  0.00    -0.082 Cl
ATOM     25  C   UNL A   1      31.519  30.261  25.888  1.00  0.00     0.002 A 
ENDBRANCH  16  18
ENDBRANCH   8  12
ENDBRANCH   6   8
ENDBRANCH   5   6
ENDBRANCH   4   5
ENDBRANCH   3   4
ENDBRANCH   2   3
ENDBRANCH   1   2
BRANCH   1  26
ATOM     26  C   UNL A   1      37.305  20.603  25.273  1.00  0.00     0.261 C 
BRANCH  26  27
ATOM     27  O   UNL A   1      38.509  21.381  25.101  1.00  0.00    -0.460 OA
BRANCH  27  28
ATOM     28  C   UNL A   1      39.443  21.035  26.009  1.00  0.00     0.338 C 
ATOM     29  O   UNL A   1      40.085  19.983  25.984  1.00  0.00    -0.246 OA
BRANCH  28  30
ATOM     30  C   UNL A   1      39.869  22.217  26.790  1.00  0.00     0.060 A 
ATOM     31  C   UNL A   1      39.239  23.432  26.476  1.00  0.00     0.016 A 
ATOM     32  C   UNL A   1      40.837  22.171  27.797  1.00  0.00     0.016 A 
ATOM     33  C   UNL A   1      39.642  24.617  27.082  1.00  0.00     0.010 A 
ATOM     34  C   UNL A   1      41.265  23.368  28.386  1.00  0.00     0.010 A 
ATOM     35  C   UNL A   1      40.713  24.601  27.981  1.00  0.00    -0.014 A 
BRANCH  35  36
ATOM     36  C   UNL A   1      41.463  25.864  28.205  1.00  0.00     0.031 A 
ATOM     37  C   UNL A   1      40.731  26.981  28.903  1.00  0.00     0.074 A 
ATOM     38  C   UNL A   1      42.752  26.022  27.859  1.00  0.00     0.049 A 
ATOM     39  N   UNL A   1      41.114  28.205  29.155  1.00  0.00    -0.248 NA
ATOM     40  C   UNL A   1      39.375  26.662  29.380  1.00  0.00     0.031 C 
ATOM     41  C   UNL A   1      43.601  25.000  27.256  1.00  0.00     0.029 A 
ATOM     42  N   UNL A   1      43.565  27.125  27.960  1.00  0.00    -0.354 N 
ATOM     43  C   UNL A   1      40.042  28.806  29.805  1.00  0.00     0.074 A 
ATOM     44  C   UNL A   1      38.987  27.820  29.884  1.00  0.00     0.031 C 
ATOM     45  C   UNL A   1      44.810  25.536  27.003  1.00  0.00     0.029 A 
ATOM     46  C   UNL A   1      44.803  26.950  27.388  1.00  0.00     0.049 A 
ATOM     47  H   UNL A   1      43.288  27.961  28.400  1.00  0.00     0.167 HD
ATOM     48  C   UNL A   1      39.940  30.068  30.291  1.00  0.00     0.034 A 
ATOM     49  C   UNL A   1      45.793  27.838  27.156  1.00  0.00     0.034 A 
ATOM     50  C   UNL A   1      40.984  31.054  30.182  1.00  0.00     0.049 A 
ATOM     51  C   UNL A   1      45.622  29.275  27.595  1.00  0.00     0.074 A 
ATOM     52  C   UNL A   1      40.989  32.358  30.643  1.00  0.00     0.029 A 
ATOM     53  N   UNL A   1      42.202  30.853  29.544  1.00  0.00    -0.354 N 
ATOM     54  N   UNL A   1      44.605  29.841  28.202  1.00  0.00    -0.248 NA
ATOM     55  C   UNL A   1      46.736  30.194  27.314  1.00  0.00     0.031 C 
ATOM     56  C   UNL A   1      42.171  32.969  30.212  1.00  0.00     0.029 A 
ATOM     57  C   UNL A   1      42.947  32.022  29.561  1.00  0.00     0.049 A 
ATOM     58  H   UNL A   1      42.494  30.004  29.139  1.00  0.00     0.167 HD
ATOM     59  C   UNL A   1      44.968  31.173  28.400  1.00  0.00     0.074 A 
ATOM     60  C   UNL A   1      46.297  31.327  27.848  1.00  0.00     0.031 C 
ATOM     61  C   UNL A   1      44.269  32.173  28.998  1.00  0.00     0.034 A 
BRANCH  48  62
ATOM     62  C   UNL A   1      38.614  30.458  30.898  1.00  0.00     0.023 A 
ATOM     63  C   UNL A   1      37.576  31.010  30.126  1.00  0.00     0.031 A 
ATOM     64  C   UNL A   1      38.419  30.351  32.286  1.00  0.00     0.131 A 
ATOM     65  C   UNL A   1      36.432  31.519  30.759  1.00  0.00     0.055 A 
ATOM     66  C   UNL A   1      37.240  30.778  32.898  1.00  0.00     0.041 A 
ATOM     67  F   UNL A   1      39.386  29.858  33.077  1.00  0.00    -0.206 F 
ATOM     68  C   UNL A   1      36.247  31.386  32.137  1.00  0.00     0.022 A 
BRANCH  65  69
ATOM     69  S   UNL A   1      35.278  32.524  29.782  1.00  0.00     0.124 S 
ATOM     70  O   UNL A   1      34.260  32.858  30.776  1.00  0.00    -0.237 OA
ATOM     71  O   UNL A   1      36.122  33.627  29.337  1.00  0.00    -0.237 OA
ATOM     72  O   UNL A   1      34.835  31.612  28.731  1.00  0.00    -0.744 OA
ENDBRANCH  65  69
ENDBRANCH  48  62
BRANCH  49  73
ATOM     73  C   UNL A   1      47.002  27.417  26.392  1.00  0.00     0.023 A 
ATOM     74  C   UNL A   1      47.168  27.735  25.035  1.00  0.00     0.031 A 
ATOM     75  C   UNL A   1      48.002  26.650  27.019  1.00  0.00     0.131 A 
ATOM     76  C   UNL A   1      48.295  27.263  24.342  1.00  0.00     0.055 A 
ATOM     77  C   UNL A   1      49.141  26.223  26.338  1.00  0.00     0.041 A 
ATOM     78  F   UNL A   1      47.888  26.314  28.314  1.00  0.00    -0.206 F 
ATOM     79  C   UNL A   1      49.289  26.523  24.987  1.00  0.00     0.022 A 
BRANCH  76  80
ATOM     80  S   UNL A   1      48.425  27.586  22.561  1.00  0.00     0.124 S 
ATOM     81  O   UNL A   1      48.531  26.236  22.021  1.00  0.00    -0.237 OA
ATOM     82  O   UNL A   1      47.177  28.292  22.288  1.00  0.00    -0.237 OA
ATOM     83  O   UNL A   1      49.634  28.400  22.450  1.00  0.00    -0.744 OA
ENDBRANCH  76  80
ENDBRANCH  49  73
BRANCH  61  84
ATOM     84  C   UNL A   1      44.945  33.516  29.144  1.00  0.00     0.023 A 
ATOM     85  C   UNL A   1      44.669  34.594  28.285  1.00  0.00     0.031 A 
ATOM     86  C   UNL A   1      45.856  33.728  30.197  1.00  0.00     0.131 A 
ATOM     87  C   UNL A   1      45.318  35.825  28.477  1.00  0.00     0.055 A 
ATOM     88  C   UNL A   1      46.458  34.967  30.413  1.00  0.00     0.041 A 
ATOM     89  F   UNL A   1      46.158  32.733  31.047  1.00  0.00    -0.206 F 
ATOM     90  C   UNL A   1      46.196  36.023  29.547  1.00  0.00     0.022 A 
BRANCH  87  91
ATOM     91  S   UNL A   1      45.045  37.160  27.279  1.00  0.00     0.124 S 
ATOM     92  O   UNL A   1      46.172  36.985  26.368  1.00  0.00    -0.237 OA
ATOM     93  O   UNL A   1      43.731  36.834  26.737  1.00  0.00    -0.237 OA
ATOM     94  O   UNL A   1      45.094  38.371  28.095  1.00  0.00    -0.744 OA
ENDBRANCH  87  91
ENDBRANCH  61  84
ENDBRANCH  35  36
ENDBRANCH  28  30
ENDBRANCH  27  28
ENDBRANCH  26  27
ENDBRANCH   1  26
TORSDOF 20
ENDMDL
