MODEL 1
REMARK VINA RESULT:     -11.9      0.000      0.000
REMARK SMILES Nn1c(S[C@@H](C(=O)OCCOCCOC(=O)c2ccc(-c3c4nc(c(-c5cc(S(=O)(=O)[O-])ccc5F)c5ccc([nH]5)c(-c5cc(S(=O)(=O)[O-])ccc5F)c5nc(c(-c6cc(S(=O)(=O)[O-])ccc6F)c6ccc3[nH]6)C=C5)C=C4)cc2)c2ccccc2)nc2ccc(Br)cc2c1=O
REMARK SMILES IDX 11 1 10 2 9 3 8 4 6 5 7 6 5 7 4 8 3 9 2 10 94 11 86 12 93 13
REMARK SMILES IDX 95 14 87 15 92 16 88 17 90 18 89 19 91 20 1 21 80 24 81 25
REMARK SMILES IDX 85 26 82 27 84 28 83 29 12 30 13 31 14 32 15 33 16 34 17 35
REMARK SMILES IDX 18 36 79 37 19 38 78 39 20 40 21 41 22 42 72 43 23 44 77 45
REMARK SMILES IDX 71 46 73 47 24 48 76 49 70 50 69 51 25 53 57 54 37 55 56 56
REMARK SMILES IDX 38 57 41 58 55 59 74 60 39 61 40 62 54 64 75 65 42 66 26 67
REMARK SMILES IDX 27 68 35 69 28 70 34 71 36 72 33 73 29 74 30 75 31 76 32 77
REMARK SMILES IDX 58 78 59 79 67 80 60 81 66 82 68 83 65 84 61 85 62 86 63 87
REMARK SMILES IDX 64 88 43 89 44 90 52 91 45 92 51 93 53 94 50 95 46 96 47 97
REMARK SMILES IDX 48 98 49 99
REMARK H PARENT 1 22 1 23 73 52 41 63
REMARK Flexibility Score: inf
ROOT
ATOM      1  O   UNL A   1      35.262  21.822  26.182  1.00  0.00    -0.374 OA
ENDROOT
BRANCH   1   2
ATOM      2  C   UNL A   1      34.168  21.536  27.052  1.00  0.00     0.202 C 
BRANCH   2   3
ATOM      3  C   UNL A   1      33.534  22.696  27.838  1.00  0.00     0.261 C 
BRANCH   3   4
ATOM      4  O   UNL A   1      32.117  22.889  27.602  1.00  0.00    -0.462 OA
BRANCH   4   5
ATOM      5  C   UNL A   1      31.806  23.974  26.833  1.00  0.00     0.324 C 
ATOM      6  O   UNL A   1      30.711  24.533  26.901  1.00  0.00    -0.251 OA
BRANCH   5   7
ATOM      7  C   UNL A   1      32.896  24.463  25.859  1.00  0.00     0.194 C 
BRANCH   7   8
ATOM      8  S   UNL A   1      33.510  26.142  26.106  1.00  0.00    -0.066 SA
BRANCH   8   9
ATOM      9  C   UNL A   1      32.454  27.495  25.761  1.00  0.00     0.191 A 
ATOM     10  N   UNL A   1      32.505  28.771  26.328  1.00  0.00    -0.202 N 
ATOM     11  C   UNL A   1      31.780  29.849  25.802  1.00  0.00     0.280 A 
ATOM     12  N   UNL A   1      31.595  27.218  24.823  1.00  0.00    -0.222 NA
ATOM     13  C   UNL A   1      30.857  29.546  24.710  1.00  0.00     0.069 A 
ATOM     14  O   UNL A   1      31.913  31.007  26.202  1.00  0.00    -0.267 OA
ATOM     15  C   UNL A   1      30.749  28.216  24.320  1.00  0.00     0.079 A 
ATOM     16  C   UNL A   1      30.111  30.563  24.103  1.00  0.00     0.031 A 
ATOM     17  C   UNL A   1      29.809  27.894  23.338  1.00  0.00     0.030 A 
ATOM     18  C   UNL A   1      29.197  30.225  23.114  1.00  0.00     0.018 A 
ATOM     19  C   UNL A   1      29.028  28.892  22.740  1.00  0.00     0.018 A 
ATOM     20  Br  UNL A   1      28.181  31.581  22.279  1.00  0.00    -0.051 Br
BRANCH  10  21
ATOM     21  N   UNL A   1      33.244  29.096  27.465  1.00  0.00    -0.334 N 
ATOM     22  H   UNL A   1      34.226  29.137  27.418  1.00  0.00     0.178 HD
ATOM     23  H   UNL A   1      32.783  29.285  28.314  1.00  0.00     0.178 HD
ENDBRANCH  10  21
ENDBRANCH   8   9
ENDBRANCH   7   8
BRANCH   7  24
ATOM     24  C   UNL A   1      32.801  23.947  24.422  1.00  0.00    -0.023 A 
ATOM     25  C   UNL A   1      33.341  24.651  23.326  1.00  0.00     0.005 A 
ATOM     26  C   UNL A   1      32.224  22.688  24.168  1.00  0.00     0.005 A 
ATOM     27  C   UNL A   1      33.420  24.063  22.061  1.00  0.00     0.000 A 
ATOM     28  C   UNL A   1      32.307  22.102  22.905  1.00  0.00     0.000 A 
ATOM     29  C   UNL A   1      32.927  22.778  21.858  1.00  0.00     0.000 A 
ENDBRANCH   7  24
ENDBRANCH   5   7
ENDBRANCH   4   5
ENDBRANCH   3   4
ENDBRANCH   2   3
ENDBRANCH   1   2
BRANCH   1  30
ATOM     30  C   UNL A   1      35.686  20.783  25.314  1.00  0.00     0.202 C 
BRANCH  30  31
ATOM     31  C   UNL A   1      37.185  20.571  25.083  1.00  0.00     0.261 C 
BRANCH  31  32
ATOM     32  O   UNL A   1      38.000  21.704  25.350  1.00  0.00    -0.460 OA
BRANCH  32  33
ATOM     33  C   UNL A   1      39.119  21.416  26.053  1.00  0.00     0.338 C 
ATOM     34  O   UNL A   1      39.710  20.351  26.115  1.00  0.00    -0.246 OA
BRANCH  33  35
ATOM     35  C   UNL A   1      39.627  22.675  26.598  1.00  0.00     0.060 A 
ATOM     36  C   UNL A   1      40.633  22.680  27.566  1.00  0.00     0.016 A 
ATOM     37  C   UNL A   1      39.059  23.861  26.125  1.00  0.00     0.016 A 
ATOM     38  C   UNL A   1      41.094  23.901  28.047  1.00  0.00     0.010 A 
ATOM     39  C   UNL A   1      39.522  25.077  26.607  1.00  0.00     0.010 A 
ATOM     40  C   UNL A   1      40.557  25.103  27.551  1.00  0.00    -0.014 A 
BRANCH  40  41
ATOM     41  C   UNL A   1      41.178  26.398  27.896  1.00  0.00     0.031 A 
ATOM     42  C   UNL A   1      42.615  26.672  27.587  1.00  0.00     0.074 A 
ATOM     43  C   UNL A   1      40.419  27.292  28.558  1.00  0.00     0.049 A 
ATOM     44  N   UNL A   1      43.311  27.749  27.836  1.00  0.00    -0.248 NA
ATOM     45  C   UNL A   1      43.375  25.600  26.926  1.00  0.00     0.031 C 
ATOM     46  C   UNL A   1      39.021  27.077  28.936  1.00  0.00     0.029 A 
ATOM     47  N   UNL A   1      40.705  28.543  29.036  1.00  0.00    -0.354 N 
ATOM     48  C   UNL A   1      44.587  27.495  27.353  1.00  0.00     0.074 A 
ATOM     49  C   UNL A   1      44.585  26.142  26.841  1.00  0.00     0.031 C 
ATOM     50  C   UNL A   1      38.562  28.169  29.561  1.00  0.00     0.029 A 
ATOM     51  C   UNL A   1      39.643  29.143  29.674  1.00  0.00     0.049 A 
ATOM     52  H   UNL A   1      41.585  28.973  28.934  1.00  0.00     0.167 HD
ATOM     53  C   UNL A   1      45.649  28.334  27.328  1.00  0.00     0.034 A 
ATOM     54  C   UNL A   1      39.554  30.341  30.284  1.00  0.00     0.034 A 
ATOM     55  C   UNL A   1      45.612  29.675  27.857  1.00  0.00     0.049 A 
ATOM     56  C   UNL A   1      40.762  31.241  30.262  1.00  0.00     0.074 A 
ATOM     57  C   UNL A   1      46.619  30.622  27.848  1.00  0.00     0.029 A 
ATOM     58  N   UNL A   1      44.521  30.258  28.489  1.00  0.00    -0.354 N 
ATOM     59  N   UNL A   1      41.936  31.028  29.713  1.00  0.00    -0.248 NA
ATOM     60  C   UNL A   1      40.638  32.546  30.921  1.00  0.00     0.031 C 
ATOM     61  C   UNL A   1      46.168  31.743  28.542  1.00  0.00     0.029 A 
ATOM     62  C   UNL A   1      44.844  31.542  28.900  1.00  0.00     0.049 A 
ATOM     63  H   UNL A   1      43.648  29.824  28.624  1.00  0.00     0.167 HD
ATOM     64  C   UNL A   1      42.677  32.186  29.928  1.00  0.00     0.074 A 
ATOM     65  C   UNL A   1      41.808  33.103  30.637  1.00  0.00     0.031 C 
ATOM     66  C   UNL A   1      43.958  32.460  29.579  1.00  0.00     0.034 A 
BRANCH  53  67
ATOM     67  C   UNL A   1      46.937  27.871  26.692  1.00  0.00     0.023 A 
ATOM     68  C   UNL A   1      47.144  28.046  25.311  1.00  0.00     0.031 A 
ATOM     69  C   UNL A   1      47.868  27.101  27.410  1.00  0.00     0.131 A 
ATOM     70  C   UNL A   1      48.220  27.409  24.681  1.00  0.00     0.055 A 
ATOM     71  C   UNL A   1      48.968  26.510  26.786  1.00  0.00     0.041 A 
ATOM     72  F   UNL A   1      47.716  26.901  28.730  1.00  0.00    -0.206 F 
ATOM     73  C   UNL A   1      49.137  26.648  25.412  1.00  0.00     0.022 A 
BRANCH  70  74
ATOM     74  S   UNL A   1      48.421  27.470  22.879  1.00  0.00     0.124 S 
ATOM     75  O   UNL A   1      47.251  28.245  22.471  1.00  0.00    -0.237 OA
ATOM     76  O   UNL A   1      49.702  28.153  22.739  1.00  0.00    -0.237 OA
ATOM     77  O   UNL A   1      48.403  26.067  22.477  1.00  0.00    -0.744 OA
ENDBRANCH  70  74
ENDBRANCH  53  67
BRANCH  54  78
ATOM     78  C   UNL A   1      38.255  30.762  30.887  1.00  0.00     0.023 A 
ATOM     79  C   UNL A   1      37.253  31.371  30.107  1.00  0.00     0.031 A 
ATOM     80  C   UNL A   1      38.036  30.656  32.271  1.00  0.00     0.131 A 
ATOM     81  C   UNL A   1      36.116  31.907  30.726  1.00  0.00     0.055 A 
ATOM     82  C   UNL A   1      36.866  31.120  32.873  1.00  0.00     0.041 A 
ATOM     83  F   UNL A   1      38.970  30.105  33.062  1.00  0.00    -0.206 F 
ATOM     84  C   UNL A   1      35.905  31.766  32.100  1.00  0.00     0.022 A 
BRANCH  81  85
ATOM     85  S   UNL A   1      34.942  32.927  29.790  1.00  0.00     0.124 S 
ATOM     86  O   UNL A   1      35.822  33.915  29.173  1.00  0.00    -0.237 OA
ATOM     87  O   UNL A   1      34.356  31.947  28.878  1.00  0.00    -0.237 OA
ATOM     88  O   UNL A   1      34.037  33.438  30.814  1.00  0.00    -0.744 OA
ENDBRANCH  81  85
ENDBRANCH  54  78
BRANCH  66  89
ATOM     89  C   UNL A   1      44.529  33.816  29.920  1.00  0.00     0.023 A 
ATOM     90  C   UNL A   1      44.434  34.867  28.986  1.00  0.00     0.031 A 
ATOM     91  C   UNL A   1      45.308  34.019  31.072  1.00  0.00     0.131 A 
ATOM     92  C   UNL A   1      45.154  36.048  29.190  1.00  0.00     0.055 A 
ATOM     93  C   UNL A   1      45.972  35.224  31.302  1.00  0.00     0.041 A 
ATOM     94  F   UNL A   1      45.442  33.045  31.986  1.00  0.00    -0.206 F 
ATOM     95  C   UNL A   1      45.913  36.238  30.350  1.00  0.00     0.022 A 
BRANCH  92  96
ATOM     96  S   UNL A   1      45.229  37.331  27.909  1.00  0.00     0.124 S 
ATOM     97  O   UNL A   1      46.639  37.297  27.529  1.00  0.00    -0.237 OA
ATOM     98  O   UNL A   1      44.300  36.816  26.906  1.00  0.00    -0.237 OA
ATOM     99  O   UNL A   1      44.799  38.543  28.599  1.00  0.00    -0.744 OA
ENDBRANCH  92  96
ENDBRANCH  66  89
ENDBRANCH  40  41
ENDBRANCH  33  35
ENDBRANCH  32  33
ENDBRANCH  31  32
ENDBRANCH  30  31
ENDBRANCH   1  30
TORSDOF 21
ENDMDL
MODEL 2
REMARK VINA RESULT:     -11.8      5.052      8.583
REMARK SMILES Nn1c(S[C@@H](C(=O)OCCOCCOC(=O)c2ccc(-c3c4nc(c(-c5cc(S(=O)(=O)[O-])ccc5F)c5ccc([nH]5)c(-c5cc(S(=O)(=O)[O-])ccc5F)c5nc(c(-c6cc(S(=O)(=O)[O-])ccc6F)c6ccc3[nH]6)C=C5)C=C4)cc2)c2ccccc2)nc2ccc(Br)cc2c1=O
REMARK SMILES IDX 11 1 10 2 9 3 8 4 6 5 7 6 5 7 4 8 3 9 2 10 94 11 86 12 93 13
REMARK SMILES IDX 95 14 87 15 92 16 88 17 90 18 89 19 91 20 1 21 80 24 81 25
REMARK SMILES IDX 85 26 82 27 84 28 83 29 12 30 13 31 14 32 15 33 16 34 17 35
REMARK SMILES IDX 18 36 79 37 19 38 78 39 20 40 21 41 22 42 72 43 23 44 77 45
REMARK SMILES IDX 71 46 73 47 24 48 76 49 70 50 69 51 25 53 57 54 37 55 56 56
REMARK SMILES IDX 38 57 41 58 55 59 74 60 39 61 40 62 54 64 75 65 42 66 26 67
REMARK SMILES IDX 27 68 35 69 28 70 34 71 36 72 33 73 29 74 30 75 31 76 32 77
REMARK SMILES IDX 58 78 59 79 67 80 60 81 66 82 68 83 65 84 61 85 62 86 63 87
REMARK SMILES IDX 64 88 43 89 44 90 52 91 45 92 51 93 53 94 50 95 46 96 47 97
REMARK SMILES IDX 48 98 49 99
REMARK H PARENT 1 22 1 23 73 52 41 63
REMARK Flexibility Score: inf
ROOT
ATOM      1  O   UNL A   1      31.594  30.771  26.837  1.00  0.00    -0.374 OA
ENDROOT
BRANCH   1   2
ATOM      2  C   UNL A   1      32.833  30.070  26.748  1.00  0.00     0.202 C 
BRANCH   2   3
ATOM      3  C   UNL A   1      32.975  28.964  25.688  1.00  0.00     0.261 C 
BRANCH   3   4
ATOM      4  O   UNL A   1      32.827  29.411  24.318  1.00  0.00    -0.462 OA
BRANCH   4   5
ATOM      5  C   UNL A   1      32.090  28.582  23.520  1.00  0.00     0.324 C 
ATOM      6  O   UNL A   1      32.609  27.855  22.673  1.00  0.00    -0.251 OA
BRANCH   5   7
ATOM      7  C   UNL A   1      30.562  28.610  23.725  1.00  0.00     0.194 C 
BRANCH   7   8
ATOM      8  S   UNL A   1      29.716  27.016  23.736  1.00  0.00    -0.066 SA
BRANCH   8   9
ATOM      9  C   UNL A   1      30.533  25.622  24.410  1.00  0.00     0.191 A 
ATOM     10  N   UNL A   1      30.775  25.356  25.761  1.00  0.00    -0.202 N 
ATOM     11  C   UNL A   1      31.208  24.100  26.207  1.00  0.00     0.280 A 
ATOM     12  N   UNL A   1      30.868  24.761  23.493  1.00  0.00    -0.222 NA
ATOM     13  C   UNL A   1      31.530  23.115  25.176  1.00  0.00     0.069 A 
ATOM     14  O   UNL A   1      31.297  23.805  27.399  1.00  0.00    -0.267 OA
ATOM     15  C   UNL A   1      31.418  23.523  23.851  1.00  0.00     0.079 A 
ATOM     16  C   UNL A   1      31.945  21.825  25.526  1.00  0.00     0.031 A 
ATOM     17  C   UNL A   1      31.804  22.624  22.853  1.00  0.00     0.030 A 
ATOM     18  C   UNL A   1      32.303  20.939  24.518  1.00  0.00     0.018 A 
ATOM     19  C   UNL A   1      32.254  21.338  23.182  1.00  0.00     0.018 A 
ATOM     20  Br  UNL A   1      32.863  19.192  24.967  1.00  0.00    -0.051 Br
BRANCH  10  21
ATOM     21  N   UNL A   1      30.638  26.296  26.782  1.00  0.00    -0.334 N 
ATOM     22  H   UNL A   1      31.129  27.147  26.735  1.00  0.00     0.178 HD
ATOM     23  H   UNL A   1      30.050  26.108  27.548  1.00  0.00     0.178 HD
ENDBRANCH  10  21
ENDBRANCH   8   9
ENDBRANCH   7   8
BRANCH   7  24
ATOM     24  C   UNL A   1      29.819  29.803  23.119  1.00  0.00    -0.023 A 
ATOM     25  C   UNL A   1      29.396  29.829  21.773  1.00  0.00     0.005 A 
ATOM     26  C   UNL A   1      29.467  30.895  23.935  1.00  0.00     0.005 A 
ATOM     27  C   UNL A   1      28.547  30.835  21.305  1.00  0.00     0.000 A 
ATOM     28  C   UNL A   1      28.616  31.896  23.466  1.00  0.00     0.000 A 
ATOM     29  C   UNL A   1      28.136  31.853  22.159  1.00  0.00     0.000 A 
ENDBRANCH   7  24
ENDBRANCH   5   7
ENDBRANCH   4   5
ENDBRANCH   3   4
ENDBRANCH   2   3
ENDBRANCH   1   2
BRANCH   1  30
ATOM     30  C   UNL A   1      31.634  32.180  26.674  1.00  0.00     0.202 C 
BRANCH  30  31
ATOM     31  C   UNL A   1      32.797  32.967  27.286  1.00  0.00     0.261 C 
BRANCH  31  32
ATOM     32  O   UNL A   1      32.426  33.912  28.279  1.00  0.00    -0.460 OA
BRANCH  32  33
ATOM     33  C   UNL A   1      33.418  34.768  28.615  1.00  0.00     0.338 C 
ATOM     34  O   UNL A   1      33.358  35.982  28.712  1.00  0.00    -0.246 OA
BRANCH  33  35
ATOM     35  C   UNL A   1      34.564  33.962  29.036  1.00  0.00     0.060 A 
ATOM     36  C   UNL A   1      35.854  34.275  28.603  1.00  0.00     0.016 A 
ATOM     37  C   UNL A   1      34.315  32.867  29.867  1.00  0.00     0.016 A 
ATOM     38  C   UNL A   1      36.916  33.488  29.038  1.00  0.00     0.010 A 
ATOM     39  C   UNL A   1      35.377  32.084  30.299  1.00  0.00     0.010 A 
ATOM     40  C   UNL A   1      36.683  32.406  29.907  1.00  0.00    -0.014 A 
BRANCH  40  41
ATOM     41  C   UNL A   1      37.814  31.697  30.538  1.00  0.00     0.031 A 
ATOM     42  C   UNL A   1      38.570  30.638  29.802  1.00  0.00     0.074 A 
ATOM     43  C   UNL A   1      38.093  31.994  31.822  1.00  0.00     0.049 A 
ATOM     44  N   UNL A   1      39.576  29.916  30.217  1.00  0.00    -0.248 NA
ATOM     45  C   UNL A   1      38.138  30.339  28.426  1.00  0.00     0.031 C 
ATOM     46  C   UNL A   1      37.368  32.984  32.622  1.00  0.00     0.029 A 
ATOM     47  N   UNL A   1      39.039  31.500  32.680  1.00  0.00    -0.354 N 
ATOM     48  C   UNL A   1      39.909  29.085  29.156  1.00  0.00     0.074 A 
ATOM     49  C   UNL A   1      38.966  29.356  28.094  1.00  0.00     0.031 C 
ATOM     50  C   UNL A   1      37.914  33.045  33.843  1.00  0.00     0.029 A 
ATOM     51  C   UNL A   1      38.993  32.067  33.933  1.00  0.00     0.049 A 
ATOM     52  H   UNL A   1      39.690  30.806  32.425  1.00  0.00     0.167 HD
ATOM     53  C   UNL A   1      40.928  28.196  29.085  1.00  0.00     0.034 A 
ATOM     54  C   UNL A   1      39.736  31.823  35.031  1.00  0.00     0.034 A 
ATOM     55  C   UNL A   1      41.842  27.950  30.172  1.00  0.00     0.049 A 
ATOM     56  C   UNL A   1      40.845  30.808  34.926  1.00  0.00     0.074 A 
ATOM     57  C   UNL A   1      42.931  27.098  30.193  1.00  0.00     0.029 A 
ATOM     58  N   UNL A   1      41.777  28.545  31.426  1.00  0.00    -0.354 N 
ATOM     59  N   UNL A   1      41.215  30.099  33.884  1.00  0.00    -0.248 NA
ATOM     60  C   UNL A   1      41.649  30.566  36.130  1.00  0.00     0.031 C 
ATOM     61  C   UNL A   1      43.475  27.118  31.476  1.00  0.00     0.029 A 
ATOM     62  C   UNL A   1      42.790  28.054  32.234  1.00  0.00     0.049 A 
ATOM     63  H   UNL A   1      41.111  29.216  31.699  1.00  0.00     0.167 HD
ATOM     64  C   UNL A   1      42.317  29.356  34.296  1.00  0.00     0.074 A 
ATOM     65  C   UNL A   1      42.566  29.722  35.676  1.00  0.00     0.031 C 
ATOM     66  C   UNL A   1      43.048  28.451  33.600  1.00  0.00     0.034 A 
BRANCH  53  67
ATOM     67  C   UNL A   1      41.151  27.436  27.801  1.00  0.00     0.023 A 
ATOM     68  C   UNL A   1      40.962  26.041  27.766  1.00  0.00     0.031 A 
ATOM     69  C   UNL A   1      41.723  28.056  26.676  1.00  0.00     0.131 A 
ATOM     70  C   UNL A   1      41.396  25.306  26.656  1.00  0.00     0.055 A 
ATOM     71  C   UNL A   1      42.107  27.325  25.551  1.00  0.00     0.041 A 
ATOM     72  F   UNL A   1      41.927  29.384  26.660  1.00  0.00    -0.206 F 
ATOM     73  C   UNL A   1      41.961  25.942  25.546  1.00  0.00     0.022 A 
BRANCH  70  74
ATOM     74  S   UNL A   1      41.327  23.494  26.646  1.00  0.00     0.124 S 
ATOM     75  O   UNL A   1      42.255  23.163  25.567  1.00  0.00    -0.237 OA
ATOM     76  O   UNL A   1      41.789  23.165  27.990  1.00  0.00    -0.237 OA
ATOM     77  O   UNL A   1      39.925  23.198  26.367  1.00  0.00    -0.744 OA
ENDBRANCH  70  74
ENDBRANCH  53  67
BRANCH  54  78
ATOM     78  C   UNL A   1      39.488  32.610  36.274  1.00  0.00     0.023 A 
ATOM     79  C   UNL A   1      38.625  32.133  37.279  1.00  0.00     0.031 A 
ATOM     80  C   UNL A   1      40.029  33.897  36.430  1.00  0.00     0.131 A 
ATOM     81  C   UNL A   1      38.280  32.961  38.354  1.00  0.00     0.055 A 
ATOM     82  C   UNL A   1      39.745  34.689  37.543  1.00  0.00     0.041 A 
ATOM     83  F   UNL A   1      40.839  34.408  35.490  1.00  0.00    -0.206 F 
ATOM     84  C   UNL A   1      38.851  34.228  38.505  1.00  0.00     0.022 A 
BRANCH  81  85
ATOM     85  S   UNL A   1      36.971  32.479  39.516  1.00  0.00     0.124 S 
ATOM     86  O   UNL A   1      37.211  31.047  39.666  1.00  0.00    -0.237 OA
ATOM     87  O   UNL A   1      37.292  33.298  40.683  1.00  0.00    -0.237 OA
ATOM     88  O   UNL A   1      35.741  32.845  38.822  1.00  0.00    -0.744 OA
ENDBRANCH  81  85
ENDBRANCH  54  78
BRANCH  66  89
ATOM     89  C   UNL A   1      44.221  27.787  34.283  1.00  0.00     0.023 A 
ATOM     90  C   UNL A   1      44.068  26.499  34.834  1.00  0.00     0.031 A 
ATOM     91  C   UNL A   1      45.414  28.483  34.542  1.00  0.00     0.131 A 
ATOM     92  C   UNL A   1      45.064  25.974  35.664  1.00  0.00     0.055 A 
ATOM     93  C   UNL A   1      46.432  27.927  35.317  1.00  0.00     0.041 A 
ATOM     94  F   UNL A   1      45.603  29.719  34.051  1.00  0.00    -0.206 F 
ATOM     95  C   UNL A   1      46.251  26.675  35.898  1.00  0.00     0.022 A 
BRANCH  92  96
ATOM     96  S   UNL A   1      44.807  24.419  36.563  1.00  0.00     0.124 S 
ATOM     97  O   UNL A   1      44.939  24.847  37.953  1.00  0.00    -0.237 OA
ATOM     98  O   UNL A   1      43.456  24.046  36.150  1.00  0.00    -0.237 OA
ATOM     99  O   UNL A   1      45.874  23.550  36.076  1.00  0.00    -0.744 OA
ENDBRANCH  92  96
ENDBRANCH  66  89
ENDBRANCH  40  41
ENDBRANCH  33  35
ENDBRANCH  32  33
ENDBRANCH  31  32
ENDBRANCH  30  31
ENDBRANCH   1  30
TORSDOF 21
ENDMDL
MODEL 3
REMARK VINA RESULT:     -11.6      2.289      7.980
REMARK SMILES Nn1c(S[C@@H](C(=O)OCCOCCOC(=O)c2ccc(-c3c4nc(c(-c5cc(S(=O)(=O)[O-])ccc5F)c5ccc([nH]5)c(-c5cc(S(=O)(=O)[O-])ccc5F)c5nc(c(-c6cc(S(=O)(=O)[O-])ccc6F)c6ccc3[nH]6)C=C5)C=C4)cc2)c2ccccc2)nc2ccc(Br)cc2c1=O
REMARK SMILES IDX 11 1 10 2 9 3 8 4 6 5 7 6 5 7 4 8 3 9 2 10 94 11 86 12 93 13
REMARK SMILES IDX 95 14 87 15 92 16 88 17 90 18 89 19 91 20 1 21 80 24 81 25
REMARK SMILES IDX 85 26 82 27 84 28 83 29 12 30 13 31 14 32 15 33 16 34 17 35
REMARK SMILES IDX 18 36 79 37 19 38 78 39 20 40 21 41 22 42 72 43 23 44 77 45
REMARK SMILES IDX 71 46 73 47 24 48 76 49 70 50 69 51 25 53 57 54 37 55 56 56
REMARK SMILES IDX 38 57 41 58 55 59 74 60 39 61 40 62 54 64 75 65 42 66 26 67
REMARK SMILES IDX 27 68 35 69 28 70 34 71 36 72 33 73 29 74 30 75 31 76 32 77
REMARK SMILES IDX 58 78 59 79 67 80 60 81 66 82 68 83 65 84 61 85 62 86 63 87
REMARK SMILES IDX 64 88 43 89 44 90 52 91 45 92 51 93 53 94 50 95 46 96 47 97
REMARK SMILES IDX 48 98 49 99
REMARK H PARENT 1 22 1 23 73 52 41 63
REMARK Flexibility Score: inf
ROOT
ATOM      1  O   UNL A   1      37.887  21.489  24.474  1.00  0.00    -0.374 OA
ENDROOT
BRANCH   1   2
ATOM      2  C   UNL A   1      36.977  22.548  24.765  1.00  0.00     0.202 C 
BRANCH   2   3
ATOM      3  C   UNL A   1      35.475  22.306  24.541  1.00  0.00     0.261 C 
BRANCH   3   4
ATOM      4  O   UNL A   1      34.664  22.364  25.740  1.00  0.00    -0.462 OA
BRANCH   4   5
ATOM      5  C   UNL A   1      33.904  21.252  25.973  1.00  0.00     0.324 C 
ATOM      6  O   UNL A   1      33.559  20.920  27.108  1.00  0.00    -0.251 OA
BRANCH   5   7
ATOM      7  C   UNL A   1      33.506  20.419  24.738  1.00  0.00     0.194 C 
BRANCH   7   8
ATOM      8  S   UNL A   1      32.208  21.101  23.685  1.00  0.00    -0.066 SA
BRANCH   8   9
ATOM      9  C   UNL A   1      31.529  22.666  24.075  1.00  0.00     0.191 A 
ATOM     10  N   UNL A   1      30.935  23.053  25.279  1.00  0.00    -0.202 N 
ATOM     11  C   UNL A   1      30.654  24.394  25.574  1.00  0.00     0.280 A 
ATOM     12  N   UNL A   1      31.687  23.522  23.106  1.00  0.00    -0.222 NA
ATOM     13  C   UNL A   1      30.886  25.362  24.504  1.00  0.00     0.069 A 
ATOM     14  O   UNL A   1      30.257  24.770  26.678  1.00  0.00    -0.267 OA
ATOM     15  C   UNL A   1      31.323  24.864  23.281  1.00  0.00     0.079 A 
ATOM     16  C   UNL A   1      30.660  26.727  24.714  1.00  0.00     0.031 A 
ATOM     17  C   UNL A   1      31.466  25.762  22.220  1.00  0.00     0.030 A 
ATOM     18  C   UNL A   1      30.830  27.607  23.653  1.00  0.00     0.018 A 
ATOM     19  C   UNL A   1      31.213  27.129  22.400  1.00  0.00     0.018 A 
ATOM     20  Br  UNL A   1      30.533  29.454  23.914  1.00  0.00    -0.051 Br
BRANCH  10  21
ATOM     21  N   UNL A   1      30.544  22.166  26.282  1.00  0.00    -0.334 N 
ATOM     22  H   UNL A   1      29.595  21.929  26.385  1.00  0.00     0.178 HD
ATOM     23  H   UNL A   1      31.218  21.778  26.884  1.00  0.00     0.178 HD
ENDBRANCH  10  21
ENDBRANCH   8   9
ENDBRANCH   7   8
BRANCH   7  24
ATOM     24  C   UNL A   1      33.563  18.899  24.900  1.00  0.00    -0.023 A 
ATOM     25  C   UNL A   1      32.479  18.148  25.402  1.00  0.00     0.005 A 
ATOM     26  C   UNL A   1      34.701  18.192  24.466  1.00  0.00     0.005 A 
ATOM     27  C   UNL A   1      32.484  16.752  25.348  1.00  0.00     0.000 A 
ATOM     28  C   UNL A   1      34.701  16.798  24.409  1.00  0.00     0.000 A 
ATOM     29  C   UNL A   1      33.584  16.079  24.826  1.00  0.00     0.000 A 
ENDBRANCH   7  24
ENDBRANCH   5   7
ENDBRANCH   4   5
ENDBRANCH   3   4
ENDBRANCH   2   3
ENDBRANCH   1   2
BRANCH   1  30
ATOM     30  C   UNL A   1      37.500  20.179  24.860  1.00  0.00     0.202 C 
BRANCH  30  31
ATOM     31  C   UNL A   1      38.569  19.205  25.366  1.00  0.00     0.261 C 
BRANCH  31  32
ATOM     32  O   UNL A   1      39.264  19.629  26.529  1.00  0.00    -0.460 OA
BRANCH  32  33
ATOM     33  C   UNL A   1      40.592  19.806  26.337  1.00  0.00     0.338 C 
ATOM     34  O   UNL A   1      41.374  19.050  25.784  1.00  0.00    -0.246 OA
BRANCH  33  35
ATOM     35  C   UNL A   1      40.914  21.172  26.747  1.00  0.00     0.060 A 
ATOM     36  C   UNL A   1      41.522  21.423  27.978  1.00  0.00     0.016 A 
ATOM     37  C   UNL A   1      40.576  22.207  25.871  1.00  0.00     0.016 A 
ATOM     38  C   UNL A   1      41.820  22.739  28.322  1.00  0.00     0.010 A 
ATOM     39  C   UNL A   1      40.876  23.518  26.217  1.00  0.00     0.010 A 
ATOM     40  C   UNL A   1      41.521  23.786  27.431  1.00  0.00    -0.014 A 
BRANCH  40  41
ATOM     41  C   UNL A   1      42.018  25.152  27.690  1.00  0.00     0.031 A 
ATOM     42  C   UNL A   1      41.160  26.172  28.367  1.00  0.00     0.074 A 
ATOM     43  C   UNL A   1      43.247  25.461  27.232  1.00  0.00     0.049 A 
ATOM     44  N   UNL A   1      41.442  27.413  28.655  1.00  0.00    -0.248 NA
ATOM     45  C   UNL A   1      39.806  25.752  28.763  1.00  0.00     0.031 C 
ATOM     46  C   UNL A   1      44.126  24.532  26.519  1.00  0.00     0.029 A 
ATOM     47  N   UNL A   1      43.965  26.626  27.284  1.00  0.00    -0.354 N 
ATOM     48  C   UNL A   1      40.312  27.925  29.276  1.00  0.00     0.074 A 
ATOM     49  C   UNL A   1      39.318  26.875  29.280  1.00  0.00     0.031 C 
ATOM     50  C   UNL A   1      45.276  25.153  26.227  1.00  0.00     0.029 A 
ATOM     51  C   UNL A   1      45.200  26.536  26.684  1.00  0.00     0.049 A 
ATOM     52  H   UNL A   1      43.630  27.449  27.709  1.00  0.00     0.167 HD
ATOM     53  C   UNL A   1      40.142  29.158  29.810  1.00  0.00     0.034 A 
ATOM     54  C   UNL A   1      46.161  27.467  26.518  1.00  0.00     0.034 A 
ATOM     55  C   UNL A   1      41.157  30.182  29.778  1.00  0.00     0.049 A 
ATOM     56  C   UNL A   1      45.930  28.837  27.101  1.00  0.00     0.074 A 
ATOM     57  C   UNL A   1      41.103  31.452  30.322  1.00  0.00     0.029 A 
ATOM     58  N   UNL A   1      42.401  30.060  29.172  1.00  0.00    -0.354 N 
ATOM     59  N   UNL A   1      44.894  29.280  27.776  1.00  0.00    -0.248 NA
ATOM     60  C   UNL A   1      46.995  29.831  26.919  1.00  0.00     0.031 C 
ATOM     61  C   UNL A   1      42.275  32.123  29.978  1.00  0.00     0.029 A 
ATOM     62  C   UNL A   1      43.109  31.244  29.304  1.00  0.00     0.049 A 
ATOM     63  H   UNL A   1      42.731  29.252  28.717  1.00  0.00     0.167 HD
ATOM     64  C   UNL A   1      45.198  30.590  28.131  1.00  0.00     0.074 A 
ATOM     65  C   UNL A   1      46.525  30.858  27.616  1.00  0.00     0.031 C 
ATOM     66  C   UNL A   1      44.446  31.489  28.813  1.00  0.00     0.034 A 
BRANCH  53  67
ATOM     67  C   UNL A   1      38.842  29.487  30.502  1.00  0.00     0.023 A 
ATOM     68  C   UNL A   1      37.898  30.318  29.871  1.00  0.00     0.031 A 
ATOM     69  C   UNL A   1      38.622  29.134  31.845  1.00  0.00     0.131 A 
ATOM     70  C   UNL A   1      36.811  30.817  30.599  1.00  0.00     0.055 A 
ATOM     71  C   UNL A   1      37.510  29.593  32.551  1.00  0.00     0.041 A 
ATOM     72  F   UNL A   1      39.494  28.345  32.495  1.00  0.00    -0.206 F 
ATOM     73  C   UNL A   1      36.608  30.453  31.933  1.00  0.00     0.022 A 
BRANCH  70  74
ATOM     74  S   UNL A   1      35.670  32.025  29.870  1.00  0.00     0.124 S 
ATOM     75  O   UNL A   1      35.089  31.263  28.767  1.00  0.00    -0.237 OA
ATOM     76  O   UNL A   1      34.767  32.298  30.983  1.00  0.00    -0.237 OA
ATOM     77  O   UNL A   1      36.537  33.129  29.471  1.00  0.00    -0.744 OA
ENDBRANCH  70  74
ENDBRANCH  53  67
BRANCH  54  78
ATOM     78  C   UNL A   1      47.436  27.091  25.839  1.00  0.00     0.023 A 
ATOM     79  C   UNL A   1      48.434  26.363  26.515  1.00  0.00     0.031 A 
ATOM     80  C   UNL A   1      47.719  27.544  24.540  1.00  0.00     0.131 A 
ATOM     81  C   UNL A   1      49.684  26.170  25.913  1.00  0.00     0.055 A 
ATOM     82  C   UNL A   1      48.938  27.280  23.914  1.00  0.00     0.041 A 
ATOM     83  F   UNL A   1      46.811  28.263  23.862  1.00  0.00    -0.206 F 
ATOM     84  C   UNL A   1      49.936  26.603  24.609  1.00  0.00     0.022 A 
BRANCH  81  85
ATOM     85  S   UNL A   1      51.071  25.473  26.855  1.00  0.00     0.124 S 
ATOM     86  O   UNL A   1      51.501  26.617  27.654  1.00  0.00    -0.237 OA
ATOM     87  O   UNL A   1      50.417  24.396  27.596  1.00  0.00    -0.237 OA
ATOM     88  O   UNL A   1      52.005  25.036  25.823  1.00  0.00    -0.744 OA
ENDBRANCH  81  85
ENDBRANCH  54  78
BRANCH  66  89
ATOM     89  C   UNL A   1      45.022  32.859  29.085  1.00  0.00     0.023 A 
ATOM     90  C   UNL A   1      44.970  33.848  28.084  1.00  0.00     0.031 A 
ATOM     91  C   UNL A   1      45.767  33.127  30.247  1.00  0.00     0.131 A 
ATOM     92  C   UNL A   1      45.699  35.032  28.236  1.00  0.00     0.055 A 
ATOM     93  C   UNL A   1      46.439  34.337  30.421  1.00  0.00     0.041 A 
ATOM     94  F   UNL A   1      45.860  32.211  31.225  1.00  0.00    -0.206 F 
ATOM     95  C   UNL A   1      46.423  35.288  29.405  1.00  0.00     0.022 A 
BRANCH  92  96
ATOM     96  S   UNL A   1      45.830  36.230  26.879  1.00  0.00     0.124 S 
ATOM     97  O   UNL A   1      44.542  36.914  26.954  1.00  0.00    -0.237 OA
ATOM     98  O   UNL A   1      46.985  37.027  27.285  1.00  0.00    -0.237 OA
ATOM     99  O   UNL A   1      46.025  35.400  25.694  1.00  0.00    -0.744 OA
ENDBRANCH  92  96
ENDBRANCH  66  89
ENDBRANCH  40  41
ENDBRANCH  33  35
ENDBRANCH  32  33
ENDBRANCH  31  32
ENDBRANCH  30  31
ENDBRANCH   1  30
TORSDOF 21
ENDMDL
