MODEL 1
REMARK VINA RESULT:     -11.0      0.000      0.000
REMARK SMILES CSc1ncc(Cl)c(C(=O)Nc2ccsc2C(=O)OCCOCCOC(=O)c2ccc(-c3c4nc(c(-c5cc(S(=O)(=O)[O-])ccc5F)c5ccc([nH]5)c(-c5cc(S(=O)(=O)[O-])ccc5F)c5nc(c(-c6cc(S(=O)(=O)[O-])ccc6F)c6ccc3[nH]6)C=C5)C=C4)cc2)n1
REMARK SMILES IDX 22 1 21 2 20 3 19 4 17 5 18 6 16 7 12 8 13 9 14 10 15 11
REMARK SMILES IDX 11 12 9 13 10 14 8 16 3 17 4 18 91 19 5 20 6 21 7 22 2 23
REMARK SMILES IDX 1 24 23 25 24 26 25 27 26 28 27 29 28 30 29 31 90 32 30 33
REMARK SMILES IDX 89 34 31 35 32 36 33 37 83 38 34 39 88 40 82 41 84 42 35 43
REMARK SMILES IDX 87 44 81 45 80 46 36 48 68 49 48 50 67 51 49 52 52 53 66 54
REMARK SMILES IDX 85 55 50 56 51 57 65 59 86 60 53 61 37 62 38 63 46 64 39 65
REMARK SMILES IDX 45 66 47 67 44 68 40 69 41 70 42 71 43 72 69 73 70 74 78 75
REMARK SMILES IDX 71 76 77 77 79 78 76 79 72 80 73 81 74 82 75 83 54 84 55 85
REMARK SMILES IDX 63 86 56 87 62 88 64 89 61 90 57 91 58 92 59 93 60 94
REMARK H PARENT 11 15 84 47 52 58
REMARK Flexibility Score: inf
ROOT
ATOM      1  O   UNL A   1      37.238  21.178  25.520  1.00  0.00    -0.374 OA
ENDROOT
BRANCH   1   2
ATOM      2  C   UNL A   1      36.903  22.385  24.834  1.00  0.00     0.202 C 
BRANCH   2   3
ATOM      3  C   UNL A   1      36.379  23.497  25.746  1.00  0.00     0.261 C 
BRANCH   3   4
ATOM      4  O   UNL A   1      35.082  23.950  25.312  1.00  0.00    -0.459 OA
BRANCH   4   5
ATOM      5  C   UNL A   1      34.130  24.037  26.289  1.00  0.00     0.350 C 
ATOM      6  O   UNL A   1      34.045  23.256  27.231  1.00  0.00    -0.245 OA
BRANCH   5   7
ATOM      7  C   UNL A   1      33.266  25.192  26.071  1.00  0.00     0.136 A 
ATOM      8  C   UNL A   1      31.914  25.422  26.327  1.00  0.00     0.067 A 
ATOM      9  C   UNL A   1      31.538  26.757  25.964  1.00  0.00     0.039 A 
ATOM     10  C   UNL A   1      32.542  27.437  25.316  1.00  0.00     0.068 A 
ATOM     11  S   UNL A   1      33.976  26.531  25.244  1.00  0.00    -0.135 S 
BRANCH   8  12
ATOM     12  N   UNL A   1      31.076  24.458  26.878  1.00  0.00    -0.319 N 
ATOM     13  C   UNL A   1      30.610  23.257  26.373  1.00  0.00     0.276 C 
ATOM     14  O   UNL A   1      29.726  22.666  26.997  1.00  0.00    -0.267 OA
ATOM     15  H   UNL A   1      30.760  24.666  27.787  1.00  0.00     0.170 HD
BRANCH  13  16
ATOM     16  C   UNL A   1      31.187  22.589  25.166  1.00  0.00     0.151 A 
ATOM     17  C   UNL A   1      32.597  20.929  24.422  1.00  0.00     0.188 A 
ATOM     18  N   UNL A   1      32.447  21.290  23.140  1.00  0.00    -0.230 NA
ATOM     19  N   UNL A   1      31.953  21.498  25.448  1.00  0.00    -0.216 NA
ATOM     20  C   UNL A   1      31.695  22.379  22.907  1.00  0.00     0.137 A 
ATOM     21  C   UNL A   1      31.080  23.116  23.893  1.00  0.00     0.090 A 
ATOM     22  Cl  UNL A   1      30.356  24.605  23.451  1.00  0.00    -0.080 Cl
BRANCH  17  23
ATOM     23  S   UNL A   1      33.842  19.719  24.780  1.00  0.00    -0.090 SA
ATOM     24  C   UNL A   1      32.747  18.314  25.138  1.00  0.00     0.094 C 
ENDBRANCH  17  23
ENDBRANCH  13  16
ENDBRANCH   8  12
ENDBRANCH   5   7
ENDBRANCH   4   5
ENDBRANCH   3   4
ENDBRANCH   2   3
ENDBRANCH   1   2
BRANCH   1  25
ATOM     25  C   UNL A   1      37.701  20.103  24.697  1.00  0.00     0.202 C 
BRANCH  25  26
ATOM     26  C   UNL A   1      38.743  19.192  25.359  1.00  0.00     0.261 C 
BRANCH  26  27
ATOM     27  O   UNL A   1      39.310  19.827  26.522  1.00  0.00    -0.460 OA
BRANCH  27  28
ATOM     28  C   UNL A   1      40.616  20.169  26.405  1.00  0.00     0.338 C 
ATOM     29  O   UNL A   1      41.481  19.540  25.817  1.00  0.00    -0.246 OA
BRANCH  28  30
ATOM     30  C   UNL A   1      40.836  21.537  26.919  1.00  0.00     0.060 A 
ATOM     31  C   UNL A   1      40.229  22.587  26.218  1.00  0.00     0.016 A 
ATOM     32  C   UNL A   1      41.648  21.805  28.025  1.00  0.00     0.016 A 
ATOM     33  C   UNL A   1      40.474  23.909  26.584  1.00  0.00     0.010 A 
ATOM     34  C   UNL A   1      41.900  23.136  28.385  1.00  0.00     0.010 A 
ATOM     35  C   UNL A   1      41.343  24.195  27.646  1.00  0.00    -0.014 A 
BRANCH  35  36
ATOM     36  C   UNL A   1      41.771  25.599  27.878  1.00  0.00     0.031 A 
ATOM     37  C   UNL A   1      43.111  26.047  27.353  1.00  0.00     0.074 A 
ATOM     38  C   UNL A   1      40.959  26.477  28.495  1.00  0.00     0.049 A 
ATOM     39  N   UNL A   1      43.697  27.212  27.459  1.00  0.00    -0.248 NA
ATOM     40  C   UNL A   1      43.888  25.047  26.604  1.00  0.00     0.031 C 
ATOM     41  C   UNL A   1      39.620  26.176  28.998  1.00  0.00     0.029 A 
ATOM     42  N   UNL A   1      41.144  27.803  28.805  1.00  0.00    -0.354 N 
ATOM     43  C   UNL A   1      44.908  27.090  26.784  1.00  0.00     0.074 A 
ATOM     44  C   UNL A   1      44.988  25.725  26.308  1.00  0.00     0.031 C 
ATOM     45  C   UNL A   1      39.108  27.284  29.566  1.00  0.00     0.029 A 
ATOM     46  C   UNL A   1      40.096  28.359  29.501  1.00  0.00     0.049 A 
ATOM     47  H   UNL A   1      41.951  28.307  28.553  1.00  0.00     0.167 HD
ATOM     48  C   UNL A   1      45.859  28.031  26.570  1.00  0.00     0.034 A 
ATOM     49  C   UNL A   1      39.962  29.586  30.047  1.00  0.00     0.034 A 
ATOM     50  C   UNL A   1      45.779  29.384  27.065  1.00  0.00     0.049 A 
ATOM     51  C   UNL A   1      41.084  30.587  29.883  1.00  0.00     0.074 A 
ATOM     52  C   UNL A   1      46.698  30.411  26.923  1.00  0.00     0.029 A 
ATOM     53  N   UNL A   1      44.723  29.899  27.805  1.00  0.00    -0.354 N 
ATOM     54  N   UNL A   1      42.226  30.454  29.247  1.00  0.00    -0.248 NA
ATOM     55  C   UNL A   1      40.895  31.907  30.502  1.00  0.00     0.031 C 
ATOM     56  C   UNL A   1      46.226  31.524  27.625  1.00  0.00     0.029 A 
ATOM     57  C   UNL A   1      44.978  31.219  28.143  1.00  0.00     0.049 A 
ATOM     58  H   UNL A   1      43.911  29.400  28.052  1.00  0.00     0.167 HD
ATOM     59  C   UNL A   1      42.868  31.686  29.359  1.00  0.00     0.074 A 
ATOM     60  C   UNL A   1      41.982  32.551  30.107  1.00  0.00     0.031 C 
ATOM     61  C   UNL A   1      44.081  32.071  28.886  1.00  0.00     0.034 A 
BRANCH  48  62
ATOM     62  C   UNL A   1      47.087  27.617  25.798  1.00  0.00     0.023 A 
ATOM     63  C   UNL A   1      47.228  27.904  24.429  1.00  0.00     0.031 A 
ATOM     64  C   UNL A   1      48.131  26.927  26.439  1.00  0.00     0.131 A 
ATOM     65  C   UNL A   1      48.363  27.460  23.735  1.00  0.00     0.055 A 
ATOM     66  C   UNL A   1      49.289  26.548  25.758  1.00  0.00     0.041 A 
ATOM     67  F   UNL A   1      48.041  26.606  27.739  1.00  0.00    -0.206 F 
ATOM     68  C   UNL A   1      49.406  26.806  24.395  1.00  0.00     0.022 A 
BRANCH  65  69
ATOM     69  S   UNL A   1      48.415  27.658  21.933  1.00  0.00     0.124 S 
ATOM     70  O   UNL A   1      49.550  28.562  21.768  1.00  0.00    -0.237 OA
ATOM     71  O   UNL A   1      48.615  26.290  21.469  1.00  0.00    -0.237 OA
ATOM     72  O   UNL A   1      47.113  28.241  21.614  1.00  0.00    -0.744 OA
ENDBRANCH  65  69
ENDBRANCH  48  62
BRANCH  49  73
ATOM     73  C   UNL A   1      38.755  29.940  30.851  1.00  0.00     0.023 A 
ATOM     74  C   UNL A   1      37.701  30.684  30.294  1.00  0.00     0.031 A 
ATOM     75  C   UNL A   1      38.682  29.622  32.219  1.00  0.00     0.131 A 
ATOM     76  C   UNL A   1      36.660  31.146  31.116  1.00  0.00     0.055 A 
ATOM     77  C   UNL A   1      37.612  30.028  33.017  1.00  0.00     0.041 A 
ATOM     78  F   UNL A   1      39.662  28.917  32.806  1.00  0.00    -0.206 F 
ATOM     79  C   UNL A   1      36.602  30.812  32.471  1.00  0.00     0.022 A 
BRANCH  76  80
ATOM     80  S   UNL A   1      35.449  32.302  30.415  1.00  0.00     0.124 S 
ATOM     81  O   UNL A   1      35.019  31.591  29.217  1.00  0.00    -0.237 OA
ATOM     82  O   UNL A   1      34.468  32.400  31.491  1.00  0.00    -0.237 OA
ATOM     83  O   UNL A   1      36.234  33.511  30.176  1.00  0.00    -0.744 OA
ENDBRANCH  76  80
ENDBRANCH  49  73
BRANCH  61  84
ATOM     84  C   UNL A   1      44.485  33.508  29.112  1.00  0.00     0.023 A 
ATOM     85  C   UNL A   1      43.969  34.558  28.332  1.00  0.00     0.031 A 
ATOM     86  C   UNL A   1      45.414  33.828  30.119  1.00  0.00     0.131 A 
ATOM     87  C   UNL A   1      44.428  35.869  28.532  1.00  0.00     0.055 A 
ATOM     88  C   UNL A   1      45.822  35.142  30.354  1.00  0.00     0.041 A 
ATOM     89  F   UNL A   1      45.939  32.866  30.894  1.00  0.00    -0.206 F 
ATOM     90  C   UNL A   1      45.339  36.169  29.549  1.00  0.00     0.022 A 
BRANCH  87  91
ATOM     91  S   UNL A   1      43.885  37.168  27.389  1.00  0.00     0.124 S 
ATOM     92  O   UNL A   1      43.161  38.072  28.277  1.00  0.00    -0.237 OA
ATOM     93  O   UNL A   1      45.150  37.669  26.862  1.00  0.00    -0.237 OA
ATOM     94  O   UNL A   1      43.054  36.451  26.424  1.00  0.00    -0.744 OA
ENDBRANCH  87  91
ENDBRANCH  61  84
ENDBRANCH  35  36
ENDBRANCH  28  30
ENDBRANCH  27  28
ENDBRANCH  26  27
ENDBRANCH  25  26
ENDBRANCH   1  25
TORSDOF 20
ENDMDL
MODEL 2
REMARK VINA RESULT:     -10.8      4.943     10.409
REMARK SMILES CSc1ncc(Cl)c(C(=O)Nc2ccsc2C(=O)OCCOCCOC(=O)c2ccc(-c3c4nc(c(-c5cc(S(=O)(=O)[O-])ccc5F)c5ccc([nH]5)c(-c5cc(S(=O)(=O)[O-])ccc5F)c5nc(c(-c6cc(S(=O)(=O)[O-])ccc6F)c6ccc3[nH]6)C=C5)C=C4)cc2)n1
REMARK SMILES IDX 22 1 21 2 20 3 19 4 17 5 18 6 16 7 12 8 13 9 14 10 15 11
REMARK SMILES IDX 11 12 9 13 10 14 8 16 3 17 4 18 91 19 5 20 6 21 7 22 2 23
REMARK SMILES IDX 1 24 23 25 24 26 25 27 26 28 27 29 28 30 29 31 90 32 30 33
REMARK SMILES IDX 89 34 31 35 32 36 33 37 83 38 34 39 88 40 82 41 84 42 35 43
REMARK SMILES IDX 87 44 81 45 80 46 36 48 68 49 48 50 67 51 49 52 52 53 66 54
REMARK SMILES IDX 85 55 50 56 51 57 65 59 86 60 53 61 37 62 38 63 46 64 39 65
REMARK SMILES IDX 45 66 47 67 44 68 40 69 41 70 42 71 43 72 69 73 70 74 78 75
REMARK SMILES IDX 71 76 77 77 79 78 76 79 72 80 73 81 74 82 75 83 54 84 55 85
REMARK SMILES IDX 63 86 56 87 62 88 64 89 61 90 57 91 58 92 59 93 60 94
REMARK H PARENT 11 15 84 47 52 58
REMARK Flexibility Score: inf
ROOT
ATOM      1  O   UNL A   1      32.356  30.921  27.020  1.00  0.00    -0.374 OA
ENDROOT
BRANCH   1   2
ATOM      2  C   UNL A   1      31.848  29.595  27.172  1.00  0.00     0.202 C 
BRANCH   2   3
ATOM      3  C   UNL A   1      32.623  28.536  26.385  1.00  0.00     0.261 C 
BRANCH   3   4
ATOM      4  O   UNL A   1      31.801  27.957  25.352  1.00  0.00    -0.459 OA
BRANCH   4   5
ATOM      5  C   UNL A   1      31.300  26.715  25.624  1.00  0.00     0.350 C 
ATOM      6  O   UNL A   1      30.692  26.433  26.651  1.00  0.00    -0.245 OA
BRANCH   5   7
ATOM      7  C   UNL A   1      31.560  25.797  24.520  1.00  0.00     0.136 A 
ATOM      8  C   UNL A   1      31.233  24.457  24.309  1.00  0.00     0.067 A 
ATOM      9  C   UNL A   1      31.688  24.010  23.025  1.00  0.00     0.039 A 
ATOM     10  C   UNL A   1      32.462  24.944  22.378  1.00  0.00     0.068 A 
ATOM     11  S   UNL A   1      32.552  26.401  23.243  1.00  0.00    -0.135 S 
BRANCH   8  12
ATOM     12  N   UNL A   1      30.541  23.694  25.242  1.00  0.00    -0.319 N 
ATOM     13  C   UNL A   1      30.745  22.403  25.697  1.00  0.00     0.276 C 
ATOM     14  O   UNL A   1      29.874  21.889  26.403  1.00  0.00    -0.267 OA
ATOM     15  H   UNL A   1      29.772  24.151  25.652  1.00  0.00     0.170 HD
BRANCH  13  16
ATOM     16  C   UNL A   1      32.005  21.633  25.461  1.00  0.00     0.151 A 
ATOM     17  C   UNL A   1      32.902  19.708  24.574  1.00  0.00     0.188 A 
ATOM     18  N   UNL A   1      34.133  20.005  25.013  1.00  0.00    -0.230 NA
ATOM     19  N   UNL A   1      31.836  20.505  24.718  1.00  0.00    -0.216 NA
ATOM     20  C   UNL A   1      34.253  21.120  25.754  1.00  0.00     0.137 A 
ATOM     21  C   UNL A   1      33.205  21.954  26.068  1.00  0.00     0.090 A 
ATOM     22  Cl  UNL A   1      33.482  23.198  27.212  1.00  0.00    -0.080 Cl
BRANCH  17  23
ATOM     23  S   UNL A   1      32.655  18.090  23.894  1.00  0.00    -0.090 SA
ATOM     24  C   UNL A   1      33.530  17.134  25.168  1.00  0.00     0.094 C 
ENDBRANCH  17  23
ENDBRANCH  13  16
ENDBRANCH   8  12
ENDBRANCH   5   7
ENDBRANCH   4   5
ENDBRANCH   3   4
ENDBRANCH   2   3
ENDBRANCH   1   2
BRANCH   1  25
ATOM     25  C   UNL A   1      31.446  31.877  26.468  1.00  0.00     0.202 C 
BRANCH  25  26
ATOM     26  C   UNL A   1      31.856  33.342  26.665  1.00  0.00     0.261 C 
BRANCH  26  27
ATOM     27  O   UNL A   1      32.245  33.582  28.032  1.00  0.00    -0.460 OA
BRANCH  27  28
ATOM     28  C   UNL A   1      33.328  34.383  28.184  1.00  0.00     0.338 C 
ATOM     29  O   UNL A   1      33.330  35.603  28.220  1.00  0.00    -0.246 OA
BRANCH  28  30
ATOM     30  C   UNL A   1      34.521  33.574  28.513  1.00  0.00     0.060 A 
ATOM     31  C   UNL A   1      34.305  32.361  29.180  1.00  0.00     0.016 A 
ATOM     32  C   UNL A   1      35.822  33.998  28.225  1.00  0.00     0.016 A 
ATOM     33  C   UNL A   1      35.387  31.597  29.612  1.00  0.00     0.010 A 
ATOM     34  C   UNL A   1      36.908  33.231  28.669  1.00  0.00     0.010 A 
ATOM     35  C   UNL A   1      36.697  32.045  29.395  1.00  0.00    -0.014 A 
BRANCH  35  36
ATOM     36  C   UNL A   1      37.826  31.340  30.054  1.00  0.00     0.031 A 
ATOM     37  C   UNL A   1      38.156  31.675  31.486  1.00  0.00     0.074 A 
ATOM     38  C   UNL A   1      38.512  30.377  29.411  1.00  0.00     0.049 A 
ATOM     39  N   UNL A   1      39.109  31.207  32.250  1.00  0.00    -0.248 NA
ATOM     40  C   UNL A   1      37.291  32.668  32.141  1.00  0.00     0.031 C 
ATOM     41  C   UNL A   1      38.251  29.927  28.044  1.00  0.00     0.029 A 
ATOM     42  N   UNL A   1      39.570  29.604  29.822  1.00  0.00    -0.354 N 
ATOM     43  C   UNL A   1      38.954  31.840  33.480  1.00  0.00     0.074 A 
ATOM     44  C   UNL A   1      37.841  32.755  33.344  1.00  0.00     0.031 C 
ATOM     45  C   UNL A   1      39.135  28.964  27.726  1.00  0.00     0.029 A 
ATOM     46  C   UNL A   1      40.047  28.756  28.849  1.00  0.00     0.049 A 
ATOM     47  H   UNL A   1      39.952  29.652  30.728  1.00  0.00     0.167 HD
ATOM     48  C   UNL A   1      39.666  31.666  34.620  1.00  0.00     0.034 A 
ATOM     49  C   UNL A   1      41.114  27.930  28.856  1.00  0.00     0.034 A 
ATOM     50  C   UNL A   1      40.787  30.764  34.740  1.00  0.00     0.049 A 
ATOM     51  C   UNL A   1      41.956  27.830  30.109  1.00  0.00     0.074 A 
ATOM     52  C   UNL A   1      41.589  30.529  35.844  1.00  0.00     0.029 A 
ATOM     53  N   UNL A   1      41.269  29.956  33.720  1.00  0.00    -0.354 N 
ATOM     54  N   UNL A   1      41.800  28.441  31.262  1.00  0.00    -0.248 NA
ATOM     55  C   UNL A   1      43.111  26.923  30.064  1.00  0.00     0.031 C 
ATOM     56  C   UNL A   1      42.591  29.624  35.474  1.00  0.00     0.029 A 
ATOM     57  C   UNL A   1      42.369  29.237  34.163  1.00  0.00     0.049 A 
ATOM     58  H   UNL A   1      40.885  29.899  32.816  1.00  0.00     0.167 HD
ATOM     59  C   UNL A   1      42.816  27.958  32.086  1.00  0.00     0.074 A 
ATOM     60  C   UNL A   1      43.565  26.998  31.305  1.00  0.00     0.031 C 
ATOM     61  C   UNL A   1      43.104  28.278  33.373  1.00  0.00     0.034 A 
BRANCH  48  62
ATOM     62  C   UNL A   1      39.277  32.496  35.817  1.00  0.00     0.023 A 
ATOM     63  C   UNL A   1      39.694  33.832  35.954  1.00  0.00     0.031 A 
ATOM     64  C   UNL A   1      38.479  31.946  36.836  1.00  0.00     0.131 A 
ATOM     65  C   UNL A   1      39.352  34.557  37.106  1.00  0.00     0.055 A 
ATOM     66  C   UNL A   1      38.085  32.693  37.946  1.00  0.00     0.041 A 
ATOM     67  F   UNL A   1      38.071  30.668  36.769  1.00  0.00    -0.206 F 
ATOM     68  C   UNL A   1      38.530  34.005  38.091  1.00  0.00     0.022 A 
BRANCH  65  69
ATOM     69  S   UNL A   1      40.081  36.199  37.350  1.00  0.00     0.124 S 
ATOM     70  O   UNL A   1      39.244  36.737  38.419  1.00  0.00    -0.237 OA
ATOM     71  O   UNL A   1      41.458  35.884  37.713  1.00  0.00    -0.237 OA
ATOM     72  O   UNL A   1      39.911  36.846  36.050  1.00  0.00    -0.744 OA
ENDBRANCH  65  69
ENDBRANCH  48  62
BRANCH  49  73
ATOM     73  C   UNL A   1      41.499  27.166  27.632  1.00  0.00     0.023 A 
ATOM     74  C   UNL A   1      41.334  25.772  27.561  1.00  0.00     0.031 A 
ATOM     75  C   UNL A   1      42.131  27.807  26.551  1.00  0.00     0.131 A 
ATOM     76  C   UNL A   1      41.858  25.060  26.470  1.00  0.00     0.055 A 
ATOM     77  C   UNL A   1      42.592  27.102  25.439  1.00  0.00     0.041 A 
ATOM     78  F   UNL A   1      42.320  29.136  26.566  1.00  0.00    -0.206 F 
ATOM     79  C   UNL A   1      42.475  25.717  25.403  1.00  0.00     0.022 A 
BRANCH  76  80
ATOM     80  S   UNL A   1      41.840  23.246  26.529  1.00  0.00     0.124 S 
ATOM     81  O   UNL A   1      42.436  22.901  25.244  1.00  0.00    -0.237 OA
ATOM     82  O   UNL A   1      42.656  22.975  27.708  1.00  0.00    -0.237 OA
ATOM     83  O   UNL A   1      40.421  22.925  26.667  1.00  0.00    -0.744 OA
ENDBRANCH  76  80
ENDBRANCH  49  73
BRANCH  61  84
ATOM     84  C   UNL A   1      44.240  27.532  34.031  1.00  0.00     0.023 A 
ATOM     85  C   UNL A   1      44.040  26.315  34.705  1.00  0.00     0.031 A 
ATOM     86  C   UNL A   1      45.543  28.060  33.994  1.00  0.00     0.131 A 
ATOM     87  C   UNL A   1      45.113  25.694  35.362  1.00  0.00     0.055 A 
ATOM     88  C   UNL A   1      46.619  27.408  34.598  1.00  0.00     0.041 A 
ATOM     89  F   UNL A   1      45.793  29.220  33.364  1.00  0.00    -0.206 F 
ATOM     90  C   UNL A   1      46.404  26.225  35.299  1.00  0.00     0.022 A 
BRANCH  87  91
ATOM     91  S   UNL A   1      44.785  24.227  36.376  1.00  0.00     0.124 S 
ATOM     92  O   UNL A   1      43.819  23.501  35.557  1.00  0.00    -0.237 OA
ATOM     93  O   UNL A   1      46.108  23.621  36.487  1.00  0.00    -0.237 OA
ATOM     94  O   UNL A   1      44.251  24.780  37.619  1.00  0.00    -0.744 OA
ENDBRANCH  87  91
ENDBRANCH  61  84
ENDBRANCH  35  36
ENDBRANCH  28  30
ENDBRANCH  27  28
ENDBRANCH  26  27
ENDBRANCH  25  26
ENDBRANCH   1  25
TORSDOF 20
ENDMDL
MODEL 3
REMARK VINA RESULT:     -10.5      4.951     10.315
REMARK SMILES CSc1ncc(Cl)c(C(=O)Nc2ccsc2C(=O)OCCOCCOC(=O)c2ccc(-c3c4nc(c(-c5cc(S(=O)(=O)[O-])ccc5F)c5ccc([nH]5)c(-c5cc(S(=O)(=O)[O-])ccc5F)c5nc(c(-c6cc(S(=O)(=O)[O-])ccc6F)c6ccc3[nH]6)C=C5)C=C4)cc2)n1
REMARK SMILES IDX 22 1 21 2 20 3 19 4 17 5 18 6 16 7 12 8 13 9 14 10 15 11
REMARK SMILES IDX 11 12 9 13 10 14 8 16 3 17 4 18 91 19 5 20 6 21 7 22 2 23
REMARK SMILES IDX 1 24 23 25 24 26 25 27 26 28 27 29 28 30 29 31 90 32 30 33
REMARK SMILES IDX 89 34 31 35 32 36 33 37 83 38 34 39 88 40 82 41 84 42 35 43
REMARK SMILES IDX 87 44 81 45 80 46 36 48 68 49 48 50 67 51 49 52 52 53 66 54
REMARK SMILES IDX 85 55 50 56 51 57 65 59 86 60 53 61 37 62 38 63 46 64 39 65
REMARK SMILES IDX 45 66 47 67 44 68 40 69 41 70 42 71 43 72 69 73 70 74 78 75
REMARK SMILES IDX 71 76 77 77 79 78 76 79 72 80 73 81 74 82 75 83 54 84 55 85
REMARK SMILES IDX 63 86 56 87 62 88 64 89 61 90 57 91 58 92 59 93 60 94
REMARK H PARENT 11 15 84 47 52 58
REMARK Flexibility Score: inf
ROOT
ATOM      1  O   UNL A   1      31.564  29.946  26.131  1.00  0.00    -0.374 OA
ENDROOT
BRANCH   1   2
ATOM      2  C   UNL A   1      32.703  29.342  25.516  1.00  0.00     0.202 C 
BRANCH   2   3
ATOM      3  C   UNL A   1      32.547  29.101  24.013  1.00  0.00     0.261 C 
BRANCH   3   4
ATOM      4  O   UNL A   1      32.695  27.702  23.699  1.00  0.00    -0.459 OA
BRANCH   4   5
ATOM      5  C   UNL A   1      31.559  27.070  23.276  1.00  0.00     0.350 C 
ATOM      6  O   UNL A   1      30.900  27.426  22.305  1.00  0.00    -0.245 OA
BRANCH   5   7
ATOM      7  C   UNL A   1      31.268  25.911  24.114  1.00  0.00     0.136 A 
ATOM      8  C   UNL A   1      31.438  24.540  23.921  1.00  0.00     0.067 A 
ATOM      9  C   UNL A   1      31.027  23.800  25.078  1.00  0.00     0.039 A 
ATOM     10  C   UNL A   1      30.427  24.588  26.031  1.00  0.00     0.068 A 
ATOM     11  S   UNL A   1      30.458  26.231  25.604  1.00  0.00    -0.135 S 
BRANCH   8  12
ATOM     12  N   UNL A   1      31.956  24.002  22.748  1.00  0.00    -0.319 N 
ATOM     13  C   UNL A   1      33.024  23.150  22.528  1.00  0.00     0.276 C 
ATOM     14  O   UNL A   1      33.391  22.964  21.365  1.00  0.00    -0.267 OA
ATOM     15  H   UNL A   1      31.479  24.274  21.931  1.00  0.00     0.170 HD
BRANCH  13  16
ATOM     16  C   UNL A   1      33.694  22.368  23.612  1.00  0.00     0.151 A 
ATOM     17  C   UNL A   1      35.495  22.288  25.043  1.00  0.00     0.188 A 
ATOM     18  N   UNL A   1      35.150  21.080  25.510  1.00  0.00    -0.230 NA
ATOM     19  N   UNL A   1      34.780  22.988  24.154  1.00  0.00    -0.216 NA
ATOM     20  C   UNL A   1      34.081  20.499  24.939  1.00  0.00     0.137 A 
ATOM     21  C   UNL A   1      33.338  21.071  23.932  1.00  0.00     0.090 A 
ATOM     22  Cl  UNL A   1      32.157  20.105  23.155  1.00  0.00    -0.080 Cl
BRANCH  17  23
ATOM     23  S   UNL A   1      37.077  22.920  25.531  1.00  0.00    -0.090 SA
ATOM     24  C   UNL A   1      38.030  21.380  25.390  1.00  0.00     0.094 C 
ENDBRANCH  17  23
ENDBRANCH  13  16
ENDBRANCH   8  12
ENDBRANCH   5   7
ENDBRANCH   4   5
ENDBRANCH   3   4
ENDBRANCH   2   3
ENDBRANCH   1   2
BRANCH   1  25
ATOM     25  C   UNL A   1      31.179  31.222  25.609  1.00  0.00     0.202 C 
BRANCH  25  26
ATOM     26  C   UNL A   1      31.413  32.401  26.562  1.00  0.00     0.261 C 
BRANCH  26  27
ATOM     27  O   UNL A   1      32.471  32.102  27.492  1.00  0.00    -0.460 OA
BRANCH  27  28
ATOM     28  C   UNL A   1      33.405  33.076  27.626  1.00  0.00     0.338 C 
ATOM     29  O   UNL A   1      33.208  34.280  27.596  1.00  0.00    -0.246 OA
BRANCH  28  30
ATOM     30  C   UNL A   1      34.703  32.491  28.025  1.00  0.00     0.060 A 
ATOM     31  C   UNL A   1      34.735  31.109  28.254  1.00  0.00     0.016 A 
ATOM     32  C   UNL A   1      35.851  33.264  28.218  1.00  0.00     0.016 A 
ATOM     33  C   UNL A   1      35.897  30.505  28.731  1.00  0.00     0.010 A 
ATOM     34  C   UNL A   1      37.015  32.654  28.706  1.00  0.00     0.010 A 
ATOM     35  C   UNL A   1      37.034  31.278  28.998  1.00  0.00    -0.014 A 
BRANCH  35  36
ATOM     36  C   UNL A   1      38.181  30.663  29.715  1.00  0.00     0.031 A 
ATOM     37  C   UNL A   1      38.437  31.054  31.148  1.00  0.00     0.074 A 
ATOM     38  C   UNL A   1      38.949  29.732  29.121  1.00  0.00     0.049 A 
ATOM     39  N   UNL A   1      39.389  30.666  31.957  1.00  0.00    -0.248 NA
ATOM     40  C   UNL A   1      37.487  32.004  31.747  1.00  0.00     0.031 C 
ATOM     41  C   UNL A   1      38.767  29.233  27.759  1.00  0.00     0.029 A 
ATOM     42  N   UNL A   1      40.038  29.038  29.589  1.00  0.00    -0.354 N 
ATOM     43  C   UNL A   1      39.150  31.317  33.163  1.00  0.00     0.074 A 
ATOM     44  C   UNL A   1      37.986  32.155  32.965  1.00  0.00     0.031 C 
ATOM     45  C   UNL A   1      39.721  28.321  27.496  1.00  0.00     0.029 A 
ATOM     46  C   UNL A   1      40.603  28.200  28.655  1.00  0.00     0.049 A 
ATOM     47  H   UNL A   1      40.383  29.132  30.506  1.00  0.00     0.167 HD
ATOM     48  C   UNL A   1      39.829  31.216  34.332  1.00  0.00     0.034 A 
ATOM     49  C   UNL A   1      41.719  27.444  28.721  1.00  0.00     0.034 A 
ATOM     50  C   UNL A   1      41.000  30.392  34.514  1.00  0.00     0.049 A 
ATOM     51  C   UNL A   1      42.520  27.429  30.004  1.00  0.00     0.074 A 
ATOM     52  C   UNL A   1      41.775  30.234  35.651  1.00  0.00     0.029 A 
ATOM     53  N   UNL A   1      41.569  29.591  33.533  1.00  0.00    -0.354 N 
ATOM     54  N   UNL A   1      42.284  28.055  31.134  1.00  0.00    -0.248 NA
ATOM     55  C   UNL A   1      43.731  26.597  30.023  1.00  0.00     0.031 C 
ATOM     56  C   UNL A   1      42.845  29.387  35.340  1.00  0.00     0.029 A 
ATOM     57  C   UNL A   1      42.695  28.956  34.032  1.00  0.00     0.049 A 
ATOM     58  H   UNL A   1      41.222  29.488  32.618  1.00  0.00     0.167 HD
ATOM     59  C   UNL A   1      43.297  27.659  32.006  1.00  0.00     0.074 A 
ATOM     60  C   UNL A   1      44.134  26.730  31.277  1.00  0.00     0.031 C 
ATOM     61  C   UNL A   1      43.518  28.027  33.294  1.00  0.00     0.034 A 
BRANCH  48  62
ATOM     62  C   UNL A   1      39.346  32.048  35.493  1.00  0.00     0.023 A 
ATOM     63  C   UNL A   1      39.764  33.378  35.670  1.00  0.00     0.031 A 
ATOM     64  C   UNL A   1      38.454  31.504  36.435  1.00  0.00     0.131 A 
ATOM     65  C   UNL A   1      39.330  34.104  36.790  1.00  0.00     0.055 A 
ATOM     66  C   UNL A   1      37.972  32.254  37.508  1.00  0.00     0.041 A 
ATOM     67  F   UNL A   1      38.039  30.233  36.327  1.00  0.00    -0.206 F 
ATOM     68  C   UNL A   1      38.417  33.560  37.696  1.00  0.00     0.022 A 
BRANCH  65  69
ATOM     69  S   UNL A   1      40.054  35.737  37.103  1.00  0.00     0.124 S 
ATOM     70  O   UNL A   1      39.703  36.455  35.881  1.00  0.00    -0.237 OA
ATOM     71  O   UNL A   1      39.364  36.163  38.315  1.00  0.00    -0.237 OA
ATOM     72  O   UNL A   1      41.479  35.456  37.263  1.00  0.00    -0.744 OA
ENDBRANCH  65  69
ENDBRANCH  48  62
BRANCH  49  73
ATOM     73  C   UNL A   1      42.196  26.677  27.532  1.00  0.00     0.023 A 
ATOM     74  C   UNL A   1      41.894  25.314  27.375  1.00  0.00     0.031 A 
ATOM     75  C   UNL A   1      43.046  27.274  26.583  1.00  0.00     0.131 A 
ATOM     76  C   UNL A   1      42.493  24.579  26.338  1.00  0.00     0.055 A 
ATOM     77  C   UNL A   1      43.587  26.554  25.517  1.00  0.00     0.041 A 
ATOM     78  F   UNL A   1      43.373  28.572  26.685  1.00  0.00    -0.206 F 
ATOM     79  C   UNL A   1      43.328  25.193  25.402  1.00  0.00     0.022 A 
BRANCH  76  80
ATOM     80  S   UNL A   1      42.271  22.778  26.312  1.00  0.00     0.124 S 
ATOM     81  O   UNL A   1      40.821  22.657  26.398  1.00  0.00    -0.237 OA
ATOM     82  O   UNL A   1      42.870  22.420  25.030  1.00  0.00    -0.237 OA
ATOM     83  O   UNL A   1      43.008  22.328  27.491  1.00  0.00    -0.744 OA
ENDBRANCH  76  80
ENDBRANCH  49  73
BRANCH  61  84
ATOM     84  C   UNL A   1      44.674  27.372  34.010  1.00  0.00     0.023 A 
ATOM     85  C   UNL A   1      44.543  26.129  34.653  1.00  0.00     0.031 A 
ATOM     86  C   UNL A   1      45.925  28.013  34.059  1.00  0.00     0.131 A 
ATOM     87  C   UNL A   1      45.626  25.592  35.366  1.00  0.00     0.055 A 
ATOM     88  C   UNL A   1      47.017  27.446  34.720  1.00  0.00     0.041 A 
ATOM     89  F   UNL A   1      46.108  29.201  33.462  1.00  0.00    -0.206 F 
ATOM     90  C   UNL A   1      46.867  26.236  35.390  1.00  0.00     0.022 A 
BRANCH  87  91
ATOM     91  S   UNL A   1      45.369  24.083  36.339  1.00  0.00     0.124 S 
ATOM     92  O   UNL A   1      46.546  23.293  35.990  1.00  0.00    -0.237 OA
ATOM     93  O   UNL A   1      45.327  24.595  37.705  1.00  0.00    -0.237 OA
ATOM     94  O   UNL A   1      44.101  23.561  35.835  1.00  0.00    -0.744 OA
ENDBRANCH  87  91
ENDBRANCH  61  84
ENDBRANCH  35  36
ENDBRANCH  28  30
ENDBRANCH  27  28
ENDBRANCH  26  27
ENDBRANCH  25  26
ENDBRANCH   1  25
TORSDOF 20
ENDMDL
