MODEL 1
REMARK VINA RESULT:     -12.5      0.000      0.000
REMARK SMILES O=C(OCCOCCOC(=O)c1ccccc1C(=O)Nc1ccc(N2C(=O)[C@H]3[C@@H]4CC[C@@H](C4)[C@@H]3C2=O)cc1)c1ccc(-c2c3nc(c(-c4cc(S(=O)(=O)[O-])ccc4F)c4ccc([nH]4)c(-c4cc(S(=O)(=O)[O-])ccc4F)c4nc(c(-c5cc(S(=O)(=O)[O-])ccc5F)c5ccc2[nH]5)C=C4)C=C3)cc1
REMARK SMILES IDX 6 1 5 2 4 3 3 4 2 5 1 6 39 7 40 8 101 9 41 10 100 11 42 12
REMARK SMILES IDX 43 13 44 14 94 15 45 16 99 17 93 18 95 19 46 20 98 21 92 22
REMARK SMILES IDX 91 23 47 25 79 26 59 27 78 28 60 29 63 30 77 31 96 32 61 33
REMARK SMILES IDX 62 34 76 36 97 37 64 38 48 39 49 40 57 41 50 42 56 43 58 44
REMARK SMILES IDX 55 45 51 46 52 47 53 48 54 49 80 50 81 51 89 52 82 53 88 54
REMARK SMILES IDX 90 55 87 56 83 57 84 58 85 59 86 60 65 61 66 62 74 63 67 64
REMARK SMILES IDX 73 65 75 66 72 67 68 68 69 69 70 70 71 71 7 72 8 73 9 74
REMARK SMILES IDX 10 75 11 76 12 77 13 78 17 79 14 80 16 81 15 82 18 83 19 84
REMARK SMILES IDX 20 85 21 87 22 88 38 89 23 90 37 91 24 92 25 93 26 94 35 95
REMARK SMILES IDX 27 96 28 97 34 98 36 99 29 100 32 101 30 102 33 103 31 104
REMARK H PARENT 95 24 63 35 20 86
REMARK Flexibility Score: inf
ROOT
ATOM      1  O   UNL A   1      34.145  28.935  27.605  1.00  0.00    -0.374 OA
ENDROOT
BRANCH   1   2
ATOM      2  C   UNL A   1      34.872  30.129  27.331  1.00  0.00     0.202 C 
BRANCH   2   3
ATOM      3  C   UNL A   1      33.983  31.349  27.542  1.00  0.00     0.261 C 
BRANCH   3   4
ATOM      4  O   UNL A   1      34.805  32.530  27.557  1.00  0.00    -0.460 OA
BRANCH   4   5
ATOM      5  C   UNL A   1      34.306  33.599  28.236  1.00  0.00     0.338 C 
ATOM      6  O   UNL A   1      33.327  34.272  27.961  1.00  0.00    -0.246 OA
BRANCH   5   7
ATOM      7  C   UNL A   1      35.256  33.892  29.327  1.00  0.00     0.060 A 
ATOM      8  C   UNL A   1      36.532  34.328  28.993  1.00  0.00     0.016 A 
ATOM      9  C   UNL A   1      34.962  33.573  30.647  1.00  0.00     0.016 A 
ATOM     10  C   UNL A   1      37.572  34.178  29.906  1.00  0.00     0.010 A 
ATOM     11  C   UNL A   1      36.007  33.510  31.588  1.00  0.00     0.010 A 
ATOM     12  C   UNL A   1      37.351  33.643  31.180  1.00  0.00    -0.014 A 
BRANCH  12  13
ATOM     13  C   UNL A   1      38.470  32.916  31.904  1.00  0.00     0.031 A 
ATOM     14  C   UNL A   1      39.142  31.737  31.192  1.00  0.00     0.074 A 
ATOM     15  C   UNL A   1      39.092  33.394  33.011  1.00  0.00     0.049 A 
ATOM     16  N   UNL A   1      40.060  30.903  31.618  1.00  0.00    -0.248 NA
ATOM     17  C   UNL A   1      38.751  31.492  29.792  1.00  0.00     0.031 C 
ATOM     18  C   UNL A   1      38.785  34.657  33.683  1.00  0.00     0.029 A 
ATOM     19  N   UNL A   1      40.201  32.936  33.696  1.00  0.00    -0.354 N 
ATOM     20  C   UNL A   1      40.288  30.007  30.571  1.00  0.00     0.074 A 
ATOM     21  C   UNL A   1      39.414  30.389  29.491  1.00  0.00     0.031 C 
ATOM     22  C   UNL A   1      39.771  34.948  34.548  1.00  0.00     0.029 A 
ATOM     23  C   UNL A   1      40.683  33.812  34.652  1.00  0.00     0.049 A 
ATOM     24  H   UNL A   1      40.614  32.060  33.520  1.00  0.00     0.167 HD
ATOM     25  C   UNL A   1      41.149  28.963  30.494  1.00  0.00     0.034 A 
ATOM     26  C   UNL A   1      41.701  33.704  35.539  1.00  0.00     0.034 A 
ATOM     27  C   UNL A   1      42.081  28.612  31.532  1.00  0.00     0.049 A 
ATOM     28  C   UNL A   1      42.492  32.413  35.571  1.00  0.00     0.074 A 
ATOM     29  C   UNL A   1      42.897  27.497  31.619  1.00  0.00     0.029 A 
ATOM     30  N   UNL A   1      42.341  29.385  32.652  1.00  0.00    -0.354 N 
ATOM     31  N   UNL A   1      42.524  31.435  34.694  1.00  0.00    -0.248 NA
ATOM     32  C   UNL A   1      43.350  32.190  36.744  1.00  0.00     0.031 C 
ATOM     33  C   UNL A   1      43.583  27.553  32.837  1.00  0.00     0.029 A 
ATOM     34  C   UNL A   1      43.269  28.749  33.461  1.00  0.00     0.049 A 
ATOM     35  H   UNL A   1      41.928  30.257  32.845  1.00  0.00     0.167 HD
ATOM     36  C   UNL A   1      43.418  30.493  35.208  1.00  0.00     0.074 A 
ATOM     37  C   UNL A   1      43.928  31.036  36.448  1.00  0.00     0.031 C 
ATOM     38  C   UNL A   1      43.775  29.284  34.703  1.00  0.00     0.034 A 
BRANCH  25  39
ATOM     39  C   UNL A   1      41.011  28.046  29.301  1.00  0.00     0.023 A 
ATOM     40  C   UNL A   1      41.883  28.078  28.199  1.00  0.00     0.031 A 
ATOM     41  C   UNL A   1      39.914  27.164  29.249  1.00  0.00     0.131 A 
ATOM     42  C   UNL A   1      41.602  27.295  27.066  1.00  0.00     0.055 A 
ATOM     43  C   UNL A   1      39.684  26.333  28.153  1.00  0.00     0.041 A 
ATOM     44  F   UNL A   1      39.031  27.115  30.259  1.00  0.00    -0.206 F 
ATOM     45  C   UNL A   1      40.521  26.407  27.045  1.00  0.00     0.022 A 
BRANCH  42  46
ATOM     46  S   UNL A   1      42.560  27.571  25.548  1.00  0.00     0.124 S 
ATOM     47  O   UNL A   1      42.290  26.346  24.798  1.00  0.00    -0.237 OA
ATOM     48  O   UNL A   1      41.963  28.791  25.018  1.00  0.00    -0.237 OA
ATOM     49  O   UNL A   1      43.933  27.705  26.029  1.00  0.00    -0.744 OA
ENDBRANCH  42  46
ENDBRANCH  25  39
BRANCH  26  50
ATOM     50  C   UNL A   1      41.969  34.765  36.576  1.00  0.00     0.023 A 
ATOM     51  C   UNL A   1      41.091  34.999  37.656  1.00  0.00     0.031 A 
ATOM     52  C   UNL A   1      43.047  35.661  36.428  1.00  0.00     0.131 A 
ATOM     53  C   UNL A   1      41.286  36.111  38.500  1.00  0.00     0.055 A 
ATOM     54  C   UNL A   1      43.289  36.704  37.322  1.00  0.00     0.041 A 
ATOM     55  F   UNL A   1      43.889  35.550  35.387  1.00  0.00    -0.206 F 
ATOM     56  C   UNL A   1      42.396  36.945  38.357  1.00  0.00     0.022 A 
BRANCH  53  57
ATOM     57  S   UNL A   1      39.989  36.566  39.690  1.00  0.00     0.124 S 
ATOM     58  O   UNL A   1      40.774  37.137  40.779  1.00  0.00    -0.237 OA
ATOM     59  O   UNL A   1      39.177  37.503  38.922  1.00  0.00    -0.237 OA
ATOM     60  O   UNL A   1      39.343  35.289  39.994  1.00  0.00    -0.744 OA
ENDBRANCH  53  57
ENDBRANCH  26  50
BRANCH  38  61
ATOM     61  C   UNL A   1      44.790  28.472  35.474  1.00  0.00     0.023 A 
ATOM     62  C   UNL A   1      44.406  27.554  36.468  1.00  0.00     0.031 A 
ATOM     63  C   UNL A   1      46.165  28.615  35.208  1.00  0.00     0.131 A 
ATOM     64  C   UNL A   1      45.384  26.860  37.199  1.00  0.00     0.055 A 
ATOM     65  C   UNL A   1      47.130  27.871  35.890  1.00  0.00     0.041 A 
ATOM     66  F   UNL A   1      46.595  29.476  34.272  1.00  0.00    -0.206 F 
ATOM     67  C   UNL A   1      46.742  26.998  36.903  1.00  0.00     0.022 A 
BRANCH  64  68
ATOM     68  S   UNL A   1      44.863  25.855  38.616  1.00  0.00     0.124 S 
ATOM     69  O   UNL A   1      45.948  26.081  39.565  1.00  0.00    -0.237 OA
ATOM     70  O   UNL A   1      43.577  26.453  38.966  1.00  0.00    -0.237 OA
ATOM     71  O   UNL A   1      44.789  24.502  38.069  1.00  0.00    -0.744 OA
ENDBRANCH  64  68
ENDBRANCH  38  61
ENDBRANCH  12  13
ENDBRANCH   5   7
ENDBRANCH   4   5
ENDBRANCH   3   4
ENDBRANCH   2   3
ENDBRANCH   1   2
BRANCH   1  72
ATOM     72  C   UNL A   1      32.748  28.995  27.417  1.00  0.00     0.202 C 
BRANCH  72  73
ATOM     73  C   UNL A   1      32.138  27.681  27.855  1.00  0.00     0.261 C 
BRANCH  73  74
ATOM     74  O   UNL A   1      31.058  27.242  27.029  1.00  0.00    -0.460 OA
BRANCH  74  75
ATOM     75  C   UNL A   1      31.273  26.147  26.253  1.00  0.00     0.339 C 
ATOM     76  O   UNL A   1      31.805  25.099  26.479  1.00  0.00    -0.246 OA
BRANCH  75  77
ATOM     77  C   UNL A   1      30.663  26.440  24.967  1.00  0.00     0.072 A 
ATOM     78  C   UNL A   1      29.330  26.025  24.818  1.00  0.00     0.016 A 
ATOM     79  C   UNL A   1      31.314  27.251  24.038  1.00  0.00     0.054 A 
ATOM     80  C   UNL A   1      28.567  26.548  23.784  1.00  0.00     0.001 A 
ATOM     81  C   UNL A   1      30.505  27.809  23.033  1.00  0.00     0.015 A 
ATOM     82  C   UNL A   1      29.145  27.473  22.918  1.00  0.00     0.001 A 
BRANCH  79  83
ATOM     83  C   UNL A   1      32.720  27.750  24.173  1.00  0.00     0.256 C 
ATOM     84  O   UNL A   1      32.869  28.978  24.194  1.00  0.00    -0.269 OA
ATOM     85  N   UNL A   1      33.850  26.977  24.393  1.00  0.00    -0.322 N 
ATOM     86  H   UNL A   1      34.618  27.507  24.706  1.00  0.00     0.170 HD
BRANCH  85  87
ATOM     87  C   UNL A   1      34.151  25.604  24.272  1.00  0.00     0.041 A 
ATOM     88  C   UNL A   1      34.851  25.007  25.333  1.00  0.00     0.028 A 
ATOM     89  C   UNL A   1      33.736  24.798  23.215  1.00  0.00     0.028 A 
ATOM     90  C   UNL A   1      34.867  23.610  25.478  1.00  0.00     0.029 A 
ATOM     91  C   UNL A   1      33.870  23.397  23.300  1.00  0.00     0.029 A 
ATOM     92  C   UNL A   1      34.338  22.795  24.475  1.00  0.00     0.052 A 
BRANCH  92  93
ATOM     93  N   UNL A   1      34.067  21.428  24.722  1.00  0.00    -0.250 N 
ATOM     94  C   UNL A   1      35.031  20.439  24.976  1.00  0.00     0.237 C 
ATOM     95  C   UNL A   1      32.868  20.839  24.311  1.00  0.00     0.237 C 
ATOM     96  O   UNL A   1      36.170  20.574  25.383  1.00  0.00    -0.274 OA
ATOM     97  C   UNL A   1      34.412  19.188  24.398  1.00  0.00     0.095 C 
ATOM     98  C   UNL A   1      32.975  19.444  24.797  1.00  0.00     0.095 C 
ATOM     99  O   UNL A   1      31.929  21.286  23.689  1.00  0.00    -0.274 OA
ATOM    100  C   UNL A   1      34.484  17.662  24.541  1.00  0.00     0.002 C 
ATOM    101  C   UNL A   1      32.283  18.154  24.410  1.00  0.00     0.002 C 
ATOM    102  C   UNL A   1      34.082  17.127  23.139  1.00  0.00     0.005 C 
ATOM    103  C   UNL A   1      33.183  17.238  25.264  1.00  0.00     0.009 C 
ATOM    104  C   UNL A   1      32.624  17.644  22.996  1.00  0.00     0.005 C 
ENDBRANCH  92  93
ENDBRANCH  85  87
ENDBRANCH  79  83
ENDBRANCH  75  77
ENDBRANCH  74  75
ENDBRANCH  73  74
ENDBRANCH  72  73
ENDBRANCH   1  72
TORSDOF 20
ENDMDL
MODEL 2
REMARK VINA RESULT:     -12.1      2.595      3.830
REMARK SMILES O=C(OCCOCCOC(=O)c1ccccc1C(=O)Nc1ccc(N2C(=O)[C@H]3[C@@H]4CC[C@@H](C4)[C@@H]3C2=O)cc1)c1ccc(-c2c3nc(c(-c4cc(S(=O)(=O)[O-])ccc4F)c4ccc([nH]4)c(-c4cc(S(=O)(=O)[O-])ccc4F)c4nc(c(-c5cc(S(=O)(=O)[O-])ccc5F)c5ccc2[nH]5)C=C4)C=C3)cc1
REMARK SMILES IDX 6 1 5 2 4 3 3 4 2 5 1 6 39 7 40 8 101 9 41 10 100 11 42 12
REMARK SMILES IDX 43 13 44 14 94 15 45 16 99 17 93 18 95 19 46 20 98 21 92 22
REMARK SMILES IDX 91 23 47 25 79 26 59 27 78 28 60 29 63 30 77 31 96 32 61 33
REMARK SMILES IDX 62 34 76 36 97 37 64 38 48 39 49 40 57 41 50 42 56 43 58 44
REMARK SMILES IDX 55 45 51 46 52 47 53 48 54 49 80 50 81 51 89 52 82 53 88 54
REMARK SMILES IDX 90 55 87 56 83 57 84 58 85 59 86 60 65 61 66 62 74 63 67 64
REMARK SMILES IDX 73 65 75 66 72 67 68 68 69 69 70 70 71 71 7 72 8 73 9 74
REMARK SMILES IDX 10 75 11 76 12 77 13 78 17 79 14 80 16 81 15 82 18 83 19 84
REMARK SMILES IDX 20 85 21 87 22 88 38 89 23 90 37 91 24 92 25 93 26 94 35 95
REMARK SMILES IDX 27 96 28 97 34 98 36 99 29 100 32 101 30 102 33 103 31 104
REMARK H PARENT 95 24 63 35 20 86
REMARK Flexibility Score: inf
ROOT
ATOM      1  O   UNL A   1      32.872  32.276  27.419  1.00  0.00    -0.374 OA
ENDROOT
BRANCH   1   2
ATOM      2  C   UNL A   1      33.186  33.529  28.017  1.00  0.00     0.202 C 
BRANCH   2   3
ATOM      3  C   UNL A   1      34.689  33.780  27.959  1.00  0.00     0.261 C 
BRANCH   3   4
ATOM      4  O   UNL A   1      35.189  33.939  29.300  1.00  0.00    -0.460 OA
BRANCH   4   5
ATOM      5  C   UNL A   1      35.101  32.845  30.105  1.00  0.00     0.338 C 
ATOM      6  O   UNL A   1      34.354  32.668  31.052  1.00  0.00    -0.246 OA
BRANCH   5   7
ATOM      7  C   UNL A   1      36.189  31.932  29.703  1.00  0.00     0.060 A 
ATOM      8  C   UNL A   1      36.026  30.570  29.924  1.00  0.00     0.016 A 
ATOM      9  C   UNL A   1      37.421  32.417  29.282  1.00  0.00     0.016 A 
ATOM     10  C   UNL A   1      37.144  29.745  29.997  1.00  0.00     0.010 A 
ATOM     11  C   UNL A   1      38.533  31.553  29.272  1.00  0.00     0.010 A 
ATOM     12  C   UNL A   1      38.435  30.248  29.800  1.00  0.00    -0.014 A 
BRANCH  12  13
ATOM     13  C   UNL A   1      39.624  29.575  30.463  1.00  0.00     0.031 A 
ATOM     14  C   UNL A   1      40.352  28.473  29.686  1.00  0.00     0.074 A 
ATOM     15  C   UNL A   1      40.247  30.056  31.568  1.00  0.00     0.049 A 
ATOM     16  N   UNL A   1      41.339  27.691  30.053  1.00  0.00    -0.248 NA
ATOM     17  C   UNL A   1      39.934  28.252  28.290  1.00  0.00     0.031 C 
ATOM     18  C   UNL A   1      39.875  31.269  32.296  1.00  0.00     0.029 A 
ATOM     19  N   UNL A   1      41.407  29.653  32.201  1.00  0.00    -0.354 N 
ATOM     20  C   UNL A   1      41.594  26.851  28.966  1.00  0.00     0.074 A 
ATOM     21  C   UNL A   1      40.660  27.210  27.928  1.00  0.00     0.031 C 
ATOM     22  C   UNL A   1      40.867  31.598  33.141  1.00  0.00     0.029 A 
ATOM     23  C   UNL A   1      41.857  30.526  33.175  1.00  0.00     0.049 A 
ATOM     24  H   UNL A   1      41.873  28.815  31.979  1.00  0.00     0.167 HD
ATOM     25  C   UNL A   1      42.522  25.874  28.823  1.00  0.00     0.034 A 
ATOM     26  C   UNL A   1      42.909  30.458  34.026  1.00  0.00     0.034 A 
ATOM     27  C   UNL A   1      43.509  25.552  29.819  1.00  0.00     0.049 A 
ATOM     28  C   UNL A   1      43.788  29.225  33.986  1.00  0.00     0.074 A 
ATOM     29  C   UNL A   1      44.403  24.495  29.839  1.00  0.00     0.029 A 
ATOM     30  N   UNL A   1      43.752  26.301  30.959  1.00  0.00    -0.354 N 
ATOM     31  N   UNL A   1      43.859  28.284  33.071  1.00  0.00    -0.248 NA
ATOM     32  C   UNL A   1      44.697  29.021  35.123  1.00  0.00     0.031 C 
ATOM     33  C   UNL A   1      45.122  24.555  31.037  1.00  0.00     0.029 A 
ATOM     34  C   UNL A   1      44.747  25.703  31.716  1.00  0.00     0.049 A 
ATOM     35  H   UNL A   1      43.286  27.134  31.198  1.00  0.00     0.167 HD
ATOM     36  C   UNL A   1      44.832  27.389  33.522  1.00  0.00     0.074 A 
ATOM     37  C   UNL A   1      45.343  27.922  34.766  1.00  0.00     0.031 C 
ATOM     38  C   UNL A   1      45.255  26.227  32.961  1.00  0.00     0.034 A 
BRANCH  25  39
ATOM     39  C   UNL A   1      42.409  24.993  27.601  1.00  0.00     0.023 A 
ATOM     40  C   UNL A   1      41.603  23.841  27.553  1.00  0.00     0.031 A 
ATOM     41  C   UNL A   1      43.203  25.290  26.476  1.00  0.00     0.131 A 
ATOM     42  C   UNL A   1      41.665  22.996  26.432  1.00  0.00     0.055 A 
ATOM     43  C   UNL A   1      43.200  24.487  25.336  1.00  0.00     0.041 A 
ATOM     44  F   UNL A   1      44.015  26.358  26.480  1.00  0.00    -0.206 F 
ATOM     45  C   UNL A   1      42.441  23.323  25.316  1.00  0.00     0.022 A 
BRANCH  42  46
ATOM     46  S   UNL A   1      40.855  21.372  26.512  1.00  0.00     0.124 S 
ATOM     47  O   UNL A   1      39.598  21.631  25.813  1.00  0.00    -0.237 OA
ATOM     48  O   UNL A   1      41.807  20.512  25.819  1.00  0.00    -0.237 OA
ATOM     49  O   UNL A   1      40.720  21.126  27.946  1.00  0.00    -0.744 OA
ENDBRANCH  42  46
ENDBRANCH  25  39
BRANCH  26  50
ATOM     50  C   UNL A   1      43.137  31.497  35.095  1.00  0.00     0.023 A 
ATOM     51  C   UNL A   1      42.390  31.520  36.292  1.00  0.00     0.031 A 
ATOM     52  C   UNL A   1      44.019  32.574  34.875  1.00  0.00     0.131 A 
ATOM     53  C   UNL A   1      42.511  32.607  37.182  1.00  0.00     0.055 A 
ATOM     54  C   UNL A   1      44.205  33.599  35.804  1.00  0.00     0.041 A 
ATOM     55  F   UNL A   1      44.716  32.663  33.730  1.00  0.00    -0.206 F 
ATOM     56  C   UNL A   1      43.436  33.628  36.959  1.00  0.00     0.022 A 
BRANCH  53  57
ATOM     57  S   UNL A   1      41.332  32.768  38.558  1.00  0.00     0.124 S 
ATOM     58  O   UNL A   1      40.096  32.296  37.944  1.00  0.00    -0.237 OA
ATOM     59  O   UNL A   1      41.919  31.901  39.573  1.00  0.00    -0.237 OA
ATOM     60  O   UNL A   1      41.366  34.197  38.868  1.00  0.00    -0.744 OA
ENDBRANCH  53  57
ENDBRANCH  26  50
BRANCH  38  61
ATOM     61  C   UNL A   1      46.348  25.461  33.669  1.00  0.00     0.023 A 
ATOM     62  C   UNL A   1      46.060  24.455  34.609  1.00  0.00     0.031 A 
ATOM     63  C   UNL A   1      47.702  25.739  33.399  1.00  0.00     0.131 A 
ATOM     64  C   UNL A   1      47.106  23.806  35.286  1.00  0.00     0.055 A 
ATOM     65  C   UNL A   1      48.737  25.041  34.023  1.00  0.00     0.041 A 
ATOM     66  F   UNL A   1      48.041  26.688  32.513  1.00  0.00    -0.206 F 
ATOM     67  C   UNL A   1      48.442  24.079  34.984  1.00  0.00     0.022 A 
BRANCH  64  68
ATOM     68  S   UNL A   1      46.695  22.676  36.645  1.00  0.00     0.124 S 
ATOM     69  O   UNL A   1      46.687  23.574  37.795  1.00  0.00    -0.237 OA
ATOM     70  O   UNL A   1      45.395  22.155  36.234  1.00  0.00    -0.237 OA
ATOM     71  O   UNL A   1      47.787  21.704  36.624  1.00  0.00    -0.744 OA
ENDBRANCH  64  68
ENDBRANCH  38  61
ENDBRANCH  12  13
ENDBRANCH   5   7
ENDBRANCH   4   5
ENDBRANCH   3   4
ENDBRANCH   2   3
ENDBRANCH   1   2
BRANCH   1  72
ATOM     72  C   UNL A   1      31.652  32.204  26.715  1.00  0.00     0.202 C 
BRANCH  72  73
ATOM     73  C   UNL A   1      31.552  30.852  26.044  1.00  0.00     0.261 C 
BRANCH  73  74
ATOM     74  O   UNL A   1      32.744  30.069  26.143  1.00  0.00    -0.460 OA
BRANCH  74  75
ATOM     75  C   UNL A   1      32.938  29.109  25.201  1.00  0.00     0.339 C 
ATOM     76  O   UNL A   1      33.932  28.583  24.789  1.00  0.00    -0.246 OA
BRANCH  75  77
ATOM     77  C   UNL A   1      31.616  28.733  24.732  1.00  0.00     0.072 A 
ATOM     78  C   UNL A   1      31.203  29.335  23.532  1.00  0.00     0.016 A 
ATOM     79  C   UNL A   1      30.911  27.697  25.344  1.00  0.00     0.054 A 
ATOM     80  C   UNL A   1      30.129  28.797  22.836  1.00  0.00     0.001 A 
ATOM     81  C   UNL A   1      29.862  27.137  24.592  1.00  0.00     0.015 A 
ATOM     82  C   UNL A   1      29.488  27.671  23.347  1.00  0.00     0.001 A 
BRANCH  79  83
ATOM     83  C   UNL A   1      31.331  27.000  26.601  1.00  0.00     0.256 C 
ATOM     84  O   UNL A   1      31.393  27.695  27.621  1.00  0.00    -0.269 OA
ATOM     85  N   UNL A   1      31.541  25.637  26.755  1.00  0.00    -0.322 N 
ATOM     86  H   UNL A   1      31.554  25.361  27.699  1.00  0.00     0.170 HD
BRANCH  85  87
ATOM     87  C   UNL A   1      31.740  24.559  25.869  1.00  0.00     0.041 A 
ATOM     88  C   UNL A   1      32.961  24.518  25.175  1.00  0.00     0.028 A 
ATOM     89  C   UNL A   1      30.845  23.505  25.699  1.00  0.00     0.028 A 
ATOM     90  C   UNL A   1      33.398  23.325  24.576  1.00  0.00     0.029 A 
ATOM     91  C   UNL A   1      31.235  22.355  24.983  1.00  0.00     0.029 A 
ATOM     92  C   UNL A   1      32.548  22.218  24.512  1.00  0.00     0.052 A 
BRANCH  92  93
ATOM     93  N   UNL A   1      33.054  20.935  24.197  1.00  0.00    -0.250 N 
ATOM     94  C   UNL A   1      32.527  20.067  23.228  1.00  0.00     0.237 C 
ATOM     95  C   UNL A   1      33.847  20.224  25.102  1.00  0.00     0.237 C 
ATOM     96  O   UNL A   1      31.828  20.333  22.268  1.00  0.00    -0.274 OA
ATOM     97  C   UNL A   1      32.823  18.695  23.786  1.00  0.00     0.095 C 
ATOM     98  C   UNL A   1      34.189  18.981  24.371  1.00  0.00     0.095 C 
ATOM     99  O   UNL A   1      34.198  20.482  26.233  1.00  0.00    -0.274 OA
ATOM    100  C   UNL A   1      33.009  17.245  23.318  1.00  0.00     0.002 C 
ATOM    101  C   UNL A   1      34.660  17.613  24.816  1.00  0.00     0.002 C 
ATOM    102  C   UNL A   1      32.577  16.390  24.540  1.00  0.00     0.005 C 
ATOM    103  C   UNL A   1      34.523  16.950  23.430  1.00  0.00     0.009 C 
ATOM    104  C   UNL A   1      33.618  16.806  25.616  1.00  0.00     0.005 C 
ENDBRANCH  92  93
ENDBRANCH  85  87
ENDBRANCH  79  83
ENDBRANCH  75  77
ENDBRANCH  74  75
ENDBRANCH  73  74
ENDBRANCH  72  73
ENDBRANCH   1  72
TORSDOF 20
ENDMDL
MODEL 3
REMARK VINA RESULT:     -11.9      4.011      8.855
REMARK SMILES O=C(OCCOCCOC(=O)c1ccccc1C(=O)Nc1ccc(N2C(=O)[C@H]3[C@@H]4CC[C@@H](C4)[C@@H]3C2=O)cc1)c1ccc(-c2c3nc(c(-c4cc(S(=O)(=O)[O-])ccc4F)c4ccc([nH]4)c(-c4cc(S(=O)(=O)[O-])ccc4F)c4nc(c(-c5cc(S(=O)(=O)[O-])ccc5F)c5ccc2[nH]5)C=C4)C=C3)cc1
REMARK SMILES IDX 6 1 5 2 4 3 3 4 2 5 1 6 39 7 40 8 101 9 41 10 100 11 42 12
REMARK SMILES IDX 43 13 44 14 94 15 45 16 99 17 93 18 95 19 46 20 98 21 92 22
REMARK SMILES IDX 91 23 47 25 79 26 59 27 78 28 60 29 63 30 77 31 96 32 61 33
REMARK SMILES IDX 62 34 76 36 97 37 64 38 48 39 49 40 57 41 50 42 56 43 58 44
REMARK SMILES IDX 55 45 51 46 52 47 53 48 54 49 80 50 81 51 89 52 82 53 88 54
REMARK SMILES IDX 90 55 87 56 83 57 84 58 85 59 86 60 65 61 66 62 74 63 67 64
REMARK SMILES IDX 73 65 75 66 72 67 68 68 69 69 70 70 71 71 7 72 8 73 9 74
REMARK SMILES IDX 10 75 11 76 12 77 13 78 17 79 14 80 16 81 15 82 18 83 19 84
REMARK SMILES IDX 20 85 21 87 22 88 38 89 23 90 37 91 24 92 25 93 26 94 35 95
REMARK SMILES IDX 27 96 28 97 34 98 36 99 29 100 32 101 30 102 33 103 31 104
REMARK H PARENT 95 24 63 35 20 86
REMARK Flexibility Score: inf
ROOT
ATOM      1  O   UNL A   1      34.165  30.127  27.668  1.00  0.00    -0.374 OA
ENDROOT
BRANCH   1   2
ATOM      2  C   UNL A   1      34.409  31.529  27.608  1.00  0.00     0.202 C 
BRANCH   2   3
ATOM      3  C   UNL A   1      34.394  32.128  29.009  1.00  0.00     0.261 C 
BRANCH   3   4
ATOM      4  O   UNL A   1      35.747  32.215  29.496  1.00  0.00    -0.460 OA
BRANCH   4   5
ATOM      5  C   UNL A   1      36.094  31.325  30.466  1.00  0.00     0.338 C 
ATOM      6  O   UNL A   1      35.835  31.375  31.656  1.00  0.00    -0.246 OA
BRANCH   5   7
ATOM      7  C   UNL A   1      36.972  30.324  29.830  1.00  0.00     0.060 A 
ATOM      8  C   UNL A   1      37.167  29.109  30.476  1.00  0.00     0.016 A 
ATOM      9  C   UNL A   1      37.734  30.636  28.712  1.00  0.00     0.016 A 
ATOM     10  C   UNL A   1      38.293  28.346  30.183  1.00  0.00     0.010 A 
ATOM     11  C   UNL A   1      38.820  29.810  28.366  1.00  0.00     0.010 A 
ATOM     12  C   UNL A   1      39.213  28.749  29.209  1.00  0.00    -0.014 A 
BRANCH  12  13
ATOM     13  C   UNL A   1      40.666  28.321  29.311  1.00  0.00     0.031 A 
ATOM     14  C   UNL A   1      41.459  28.753  30.550  1.00  0.00     0.074 A 
ATOM     15  C   UNL A   1      41.232  27.372  28.526  1.00  0.00     0.049 A 
ATOM     16  N   UNL A   1      42.727  28.590  30.841  1.00  0.00    -0.248 NA
ATOM     17  C   UNL A   1      40.706  29.427  31.623  1.00  0.00     0.031 C 
ATOM     18  C   UNL A   1      40.554  26.627  27.464  1.00  0.00     0.029 A 
ATOM     19  N   UNL A   1      42.478  26.774  28.581  1.00  0.00    -0.354 N 
ATOM     20  C   UNL A   1      42.923  29.203  32.081  1.00  0.00     0.074 A 
ATOM     21  C   UNL A   1      41.652  29.747  32.487  1.00  0.00     0.031 C 
ATOM     22  C   UNL A   1      41.316  25.581  27.102  1.00  0.00     0.029 A 
ATOM     23  C   UNL A   1      42.622  25.680  27.747  1.00  0.00     0.049 A 
ATOM     24  H   UNL A   1      43.201  27.099  29.164  1.00  0.00     0.167 HD
ATOM     25  C   UNL A   1      44.047  29.305  32.831  1.00  0.00     0.034 A 
ATOM     26  C   UNL A   1      43.683  24.877  27.493  1.00  0.00     0.034 A 
ATOM     27  C   UNL A   1      45.306  28.705  32.477  1.00  0.00     0.049 A 
ATOM     28  C   UNL A   1      44.996  25.179  28.187  1.00  0.00     0.074 A 
ATOM     29  C   UNL A   1      46.539  28.860  33.088  1.00  0.00     0.029 A 
ATOM     30  N   UNL A   1      45.488  27.812  31.433  1.00  0.00    -0.354 N 
ATOM     31  N   UNL A   1      45.230  25.961  29.217  1.00  0.00    -0.248 NA
ATOM     32  C   UNL A   1      46.196  24.523  27.651  1.00  0.00     0.031 C 
ATOM     33  C   UNL A   1      47.482  28.132  32.356  1.00  0.00     0.029 A 
ATOM     34  C   UNL A   1      46.822  27.445  31.351  1.00  0.00     0.049 A 
ATOM     35  H   UNL A   1      44.776  27.487  30.837  1.00  0.00     0.167 HD
ATOM     36  C   UNL A   1      46.604  25.874  29.455  1.00  0.00     0.074 A 
ATOM     37  C   UNL A   1      47.135  24.939  28.487  1.00  0.00     0.031 C 
ATOM     38  C   UNL A   1      47.357  26.519  30.382  1.00  0.00     0.034 A 
BRANCH  25  39
ATOM     39  C   UNL A   1      43.990  30.219  34.033  1.00  0.00     0.023 A 
ATOM     40  C   UNL A   1      44.326  31.584  33.980  1.00  0.00     0.031 A 
ATOM     41  C   UNL A   1      43.658  29.670  35.286  1.00  0.00     0.131 A 
ATOM     42  C   UNL A   1      44.389  32.331  35.168  1.00  0.00     0.055 A 
ATOM     43  C   UNL A   1      43.647  30.436  36.451  1.00  0.00     0.041 A 
ATOM     44  F   UNL A   1      43.361  28.366  35.401  1.00  0.00    -0.206 F 
ATOM     45  C   UNL A   1      44.030  31.772  36.399  1.00  0.00     0.022 A 
BRANCH  42  46
ATOM     46  S   UNL A   1      45.110  33.997  35.121  1.00  0.00     0.124 S 
ATOM     47  O   UNL A   1      45.133  34.352  36.538  1.00  0.00    -0.237 OA
ATOM     48  O   UNL A   1      46.407  33.760  34.499  1.00  0.00    -0.237 OA
ATOM     49  O   UNL A   1      44.159  34.759  34.314  1.00  0.00    -0.744 OA
ENDBRANCH  42  46
ENDBRANCH  25  39
BRANCH  26  50
ATOM     50  C   UNL A   1      43.632  23.798  26.441  1.00  0.00     0.023 A 
ATOM     51  C   UNL A   1      43.080  22.525  26.696  1.00  0.00     0.031 A 
ATOM     52  C   UNL A   1      44.262  23.980  25.192  1.00  0.00     0.131 A 
ATOM     53  C   UNL A   1      43.210  21.493  25.745  1.00  0.00     0.055 A 
ATOM     54  C   UNL A   1      44.305  22.983  24.218  1.00  0.00     0.041 A 
ATOM     55  F   UNL A   1      44.873  25.140  24.898  1.00  0.00    -0.206 F 
ATOM     56  C   UNL A   1      43.791  21.724  24.497  1.00  0.00     0.022 A 
BRANCH  53  57
ATOM     57  S   UNL A   1      42.763  19.792  26.209  1.00  0.00     0.124 S 
ATOM     58  O   UNL A   1      42.459  19.943  27.627  1.00  0.00    -0.237 OA
ATOM     59  O   UNL A   1      41.630  19.519  25.333  1.00  0.00    -0.237 OA
ATOM     60  O   UNL A   1      43.975  19.029  25.912  1.00  0.00    -0.744 OA
ENDBRANCH  53  57
ENDBRANCH  26  50
BRANCH  38  61
ATOM     61  C   UNL A   1      48.837  26.215  30.422  1.00  0.00     0.023 A 
ATOM     62  C   UNL A   1      49.726  26.730  29.461  1.00  0.00     0.031 A 
ATOM     63  C   UNL A   1      49.369  25.399  31.438  1.00  0.00     0.131 A 
ATOM     64  C   UNL A   1      51.085  26.377  29.501  1.00  0.00     0.055 A 
ATOM     65  C   UNL A   1      50.733  25.109  31.514  1.00  0.00     0.041 A 
ATOM     66  F   UNL A   1      48.572  24.877  32.383  1.00  0.00    -0.206 F 
ATOM     67  C   UNL A   1      51.597  25.587  30.533  1.00  0.00     0.022 A 
BRANCH  64  68
ATOM     68  S   UNL A   1      52.156  26.878  28.126  1.00  0.00     0.124 S 
ATOM     69  O   UNL A   1      51.415  27.998  27.555  1.00  0.00    -0.237 OA
ATOM     70  O   UNL A   1      53.400  27.220  28.809  1.00  0.00    -0.237 OA
ATOM     71  O   UNL A   1      52.218  25.683  27.286  1.00  0.00    -0.744 OA
ENDBRANCH  64  68
ENDBRANCH  38  61
ENDBRANCH  12  13
ENDBRANCH   5   7
ENDBRANCH   4   5
ENDBRANCH   3   4
ENDBRANCH   2   3
ENDBRANCH   1   2
BRANCH   1  72
ATOM     72  C   UNL A   1      33.097  29.642  26.883  1.00  0.00     0.202 C 
BRANCH  72  73
ATOM     73  C   UNL A   1      32.472  28.456  27.585  1.00  0.00     0.261 C 
BRANCH  73  74
ATOM     74  O   UNL A   1      31.353  27.899  26.891  1.00  0.00    -0.460 OA
BRANCH  74  75
ATOM     75  C   UNL A   1      31.475  26.624  26.438  1.00  0.00     0.339 C 
ATOM     76  O   UNL A   1      31.992  25.653  26.911  1.00  0.00    -0.246 OA
BRANCH  75  77
ATOM     77  C   UNL A   1      30.774  26.581  25.166  1.00  0.00     0.072 A 
ATOM     78  C   UNL A   1      29.448  26.121  25.217  1.00  0.00     0.016 A 
ATOM     79  C   UNL A   1      31.338  27.147  24.023  1.00  0.00     0.054 A 
ATOM     80  C   UNL A   1      28.604  26.361  24.143  1.00  0.00     0.001 A 
ATOM     81  C   UNL A   1      30.448  27.427  22.971  1.00  0.00     0.015 A 
ATOM     82  C   UNL A   1      29.095  27.052  23.038  1.00  0.00     0.001 A 
BRANCH  79  83
ATOM     83  C   UNL A   1      32.733  27.686  23.932  1.00  0.00     0.256 C 
ATOM     84  O   UNL A   1      32.842  28.910  23.801  1.00  0.00    -0.269 OA
ATOM     85  N   UNL A   1      33.906  26.964  24.097  1.00  0.00    -0.322 N 
ATOM     86  H   UNL A   1      34.687  27.541  24.256  1.00  0.00     0.170 HD
BRANCH  85  87
ATOM     87  C   UNL A   1      34.235  25.593  24.091  1.00  0.00     0.041 A 
ATOM     88  C   UNL A   1      34.753  25.054  25.280  1.00  0.00     0.028 A 
ATOM     89  C   UNL A   1      34.009  24.734  23.017  1.00  0.00     0.028 A 
ATOM     90  C   UNL A   1      34.757  23.665  25.489  1.00  0.00     0.029 A 
ATOM     91  C   UNL A   1      34.140  23.341  23.187  1.00  0.00     0.029 A 
ATOM     92  C   UNL A   1      34.410  22.798  24.450  1.00  0.00     0.052 A 
BRANCH  92  93
ATOM     93  N   UNL A   1      34.115  21.439  24.711  1.00  0.00    -0.250 N 
ATOM     94  C   UNL A   1      35.060  20.436  24.976  1.00  0.00     0.237 C 
ATOM     95  C   UNL A   1      32.905  20.868  24.304  1.00  0.00     0.237 C 
ATOM     96  O   UNL A   1      36.201  20.554  25.383  1.00  0.00    -0.274 OA
ATOM     97  C   UNL A   1      34.419  19.190  24.410  1.00  0.00     0.095 C 
ATOM     98  C   UNL A   1      32.987  19.476  24.805  1.00  0.00     0.095 C 
ATOM     99  O   UNL A   1      31.975  21.326  23.677  1.00  0.00    -0.274 OA
ATOM    100  C   UNL A   1      34.464  17.664  24.569  1.00  0.00     0.002 C 
ATOM    101  C   UNL A   1      32.271  18.195  24.429  1.00  0.00     0.002 C 
ATOM    102  C   UNL A   1      34.054  17.123  23.172  1.00  0.00     0.005 C 
ATOM    103  C   UNL A   1      33.154  17.271  25.294  1.00  0.00     0.009 C 
ATOM    104  C   UNL A   1      32.605  17.664  23.021  1.00  0.00     0.005 C 
ENDBRANCH  92  93
ENDBRANCH  85  87
ENDBRANCH  79  83
ENDBRANCH  75  77
ENDBRANCH  74  75
ENDBRANCH  73  74
ENDBRANCH  72  73
ENDBRANCH   1  72
TORSDOF 20
ENDMDL
