MODEL 1
REMARK VINA RESULT:     -10.4      0.000      0.000
REMARK SMILES CC(C)n1c([C@H](O)CC(=O)OCCOCCOC(=O)c2ccc(-c3c4nc(c(-c5cc(S(=O)(=O)[O-])ccc5F)c5ccc([nH]5)c(-c5cc(S(=O)(=O)[O-])ccc5F)c5nc(c(-c6cc(S(=O)(=O)[O-])ccc6F)c6ccc3[nH]6)C=C5)C=C4)cc2)nc2cc(Cl)ccc21
REMARK SMILES IDX 14 1 13 2 12 3 11 4 9 5 10 6 8 7 6 8 5 9 4 10 90 11 83 12
REMARK SMILES IDX 84 13 89 14 85 15 88 16 86 17 87 18 2 19 1 20 3 21 7 22
REMARK SMILES IDX 15 24 16 25 17 26 18 27 19 28 20 29 21 30 82 31 22 32 81 33
REMARK SMILES IDX 23 34 24 35 25 36 75 37 26 38 80 39 74 40 76 41 27 42 79 43
REMARK SMILES IDX 73 44 72 45 28 47 60 48 40 49 59 50 41 51 44 52 58 53 77 54
REMARK SMILES IDX 42 55 43 56 57 58 78 59 45 60 29 61 30 62 38 63 31 64 37 65
REMARK SMILES IDX 39 66 36 67 32 68 33 69 34 70 35 71 61 72 62 73 70 74 63 75
REMARK SMILES IDX 69 76 71 77 68 78 64 79 65 80 66 81 67 82 46 83 47 84 55 85
REMARK SMILES IDX 48 86 54 87 56 88 53 89 49 90 50 91 51 92 52 93
REMARK H PARENT 7 23 76 46 44 57
REMARK Flexibility Score: inf
ROOT
ATOM      1  O   UNL A   1      32.882  34.599  29.591  1.00  0.00    -0.374 OA
ENDROOT
BRANCH   1   2
ATOM      2  C   UNL A   1      32.960  35.808  30.344  1.00  0.00     0.202 C 
BRANCH   2   3
ATOM      3  C   UNL A   1      32.515  35.776  31.810  1.00  0.00     0.261 C 
BRANCH   3   4
ATOM      4  O   UNL A   1      33.254  34.769  32.508  1.00  0.00    -0.463 OA
BRANCH   4   5
ATOM      5  C   UNL A   1      34.468  35.144  32.979  1.00  0.00     0.308 C 
ATOM      6  O   UNL A   1      34.670  36.040  33.788  1.00  0.00    -0.252 OA
BRANCH   5   7
ATOM      7  C   UNL A   1      35.543  34.188  32.546  1.00  0.00     0.162 C 
BRANCH   7   8
ATOM      8  C   UNL A   1      35.742  32.900  33.342  1.00  0.00     0.191 C 
BRANCH   8   9
ATOM      9  C   UNL A   1      36.799  33.043  34.399  1.00  0.00     0.139 A 
ATOM     10  N   UNL A   1      38.170  33.181  34.233  1.00  0.00    -0.323 N 
ATOM     11  C   UNL A   1      38.695  33.501  35.480  1.00  0.00     0.069 A 
ATOM     12  N   UNL A   1      36.468  33.151  35.676  1.00  0.00    -0.230 NA
ATOM     13  C   UNL A   1      37.615  33.435  36.349  1.00  0.00     0.090 A 
ATOM     14  C   UNL A   1      39.981  33.842  35.918  1.00  0.00     0.030 A 
ATOM     15  C   UNL A   1      37.791  33.679  37.718  1.00  0.00     0.051 A 
ATOM     16  C   UNL A   1      40.146  34.095  37.284  1.00  0.00     0.023 A 
ATOM     17  C   UNL A   1      39.070  34.008  38.166  1.00  0.00     0.043 A 
ATOM     18  Cl  UNL A   1      39.319  34.324  39.842  1.00  0.00    -0.084 Cl
BRANCH  10  19
ATOM     19  C   UNL A   1      39.006  33.101  33.033  1.00  0.00     0.083 C 
ATOM     20  C   UNL A   1      39.677  34.394  32.574  1.00  0.00     0.031 C 
ATOM     21  C   UNL A   1      39.959  31.904  33.061  1.00  0.00     0.031 C 
ENDBRANCH  10  19
ENDBRANCH   8   9
BRANCH   8  22
ATOM     22  O   UNL A   1      35.961  31.684  32.653  1.00  0.00    -0.385 OA
ATOM     23  H   UNL A   1      36.915  31.522  32.577  1.00  0.00     0.211 HD
ENDBRANCH   8  22
ENDBRANCH   7   8
ENDBRANCH   5   7
ENDBRANCH   4   5
ENDBRANCH   3   4
ENDBRANCH   2   3
ENDBRANCH   1   2
BRANCH   1  24
ATOM     24  C   UNL A   1      33.443  34.577  28.281  1.00  0.00     0.202 C 
BRANCH  24  25
ATOM     25  C   UNL A   1      34.938  34.265  28.107  1.00  0.00     0.261 C 
BRANCH  25  26
ATOM     26  O   UNL A   1      35.162  32.857  27.968  1.00  0.00    -0.460 OA
BRANCH  26  27
ATOM     27  C   UNL A   1      35.508  32.251  29.151  1.00  0.00     0.338 C 
ATOM     28  O   UNL A   1      34.784  32.001  30.079  1.00  0.00    -0.246 OA
BRANCH  27  29
ATOM     29  C   UNL A   1      36.799  31.587  28.860  1.00  0.00     0.060 A 
ATOM     30  C   UNL A   1      36.843  30.269  28.409  1.00  0.00     0.016 A 
ATOM     31  C   UNL A   1      37.930  32.214  29.398  1.00  0.00     0.016 A 
ATOM     32  C   UNL A   1      38.018  29.540  28.571  1.00  0.00     0.010 A 
ATOM     33  C   UNL A   1      39.088  31.473  29.608  1.00  0.00     0.010 A 
ATOM     34  C   UNL A   1      39.120  30.125  29.221  1.00  0.00    -0.014 A 
BRANCH  34  35
ATOM     35  C   UNL A   1      40.353  29.352  29.357  1.00  0.00     0.031 A 
ATOM     36  C   UNL A   1      40.665  28.934  30.754  1.00  0.00     0.074 A 
ATOM     37  C   UNL A   1      41.081  28.865  28.332  1.00  0.00     0.049 A 
ATOM     38  N   UNL A   1      41.716  29.201  31.459  1.00  0.00    -0.248 NA
ATOM     39  C   UNL A   1      39.617  28.210  31.485  1.00  0.00     0.031 C 
ATOM     40  C   UNL A   1      40.746  28.860  26.911  1.00  0.00     0.029 A 
ATOM     41  N   UNL A   1      42.242  28.152  28.367  1.00  0.00    -0.354 N 
ATOM     42  C   UNL A   1      41.523  28.571  32.690  1.00  0.00     0.074 A 
ATOM     43  C   UNL A   1      40.163  28.097  32.693  1.00  0.00     0.031 C 
ATOM     44  C   UNL A   1      41.554  28.002  26.253  1.00  0.00     0.029 A 
ATOM     45  C   UNL A   1      42.540  27.488  27.184  1.00  0.00     0.049 A 
ATOM     46  H   UNL A   1      42.821  28.112  29.163  1.00  0.00     0.167 HD
ATOM     47  C   UNL A   1      42.534  28.356  33.579  1.00  0.00     0.034 A 
ATOM     48  C   UNL A   1      43.461  26.511  27.001  1.00  0.00     0.034 A 
ATOM     49  C   UNL A   1      43.704  29.116  33.244  1.00  0.00     0.049 A 
ATOM     50  C   UNL A   1      44.417  26.555  28.133  1.00  0.00     0.074 A 
ATOM     51  C   UNL A   1      44.008  30.460  33.214  1.00  0.00     0.029 A 
ATOM     52  N   UNL A   1      44.703  28.486  32.544  1.00  0.00    -0.354 N 
ATOM     53  N   UNL A   1      45.281  27.510  28.324  1.00  0.00    -0.248 NA
ATOM     54  C   UNL A   1      44.105  25.747  29.302  1.00  0.00     0.031 C 
ATOM     55  C   UNL A   1      44.896  30.613  32.114  1.00  0.00     0.029 A 
ATOM     56  C   UNL A   1      45.114  29.348  31.560  1.00  0.00     0.049 A 
ATOM     57  H   UNL A   1      45.058  27.584  32.716  1.00  0.00     0.167 HD
ATOM     58  C   UNL A   1      45.277  27.713  29.696  1.00  0.00     0.074 A 
ATOM     59  C   UNL A   1      44.620  26.532  30.252  1.00  0.00     0.031 C 
ATOM     60  C   UNL A   1      45.543  28.938  30.237  1.00  0.00     0.034 A 
BRANCH  47  61
ATOM     61  C   UNL A   1      42.544  27.276  34.631  1.00  0.00     0.023 A 
ATOM     62  C   UNL A   1      43.356  26.132  34.540  1.00  0.00     0.031 A 
ATOM     63  C   UNL A   1      41.878  27.460  35.860  1.00  0.00     0.131 A 
ATOM     64  C   UNL A   1      43.459  25.214  35.593  1.00  0.00     0.055 A 
ATOM     65  C   UNL A   1      42.034  26.581  36.940  1.00  0.00     0.041 A 
ATOM     66  F   UNL A   1      41.090  28.526  36.069  1.00  0.00    -0.206 F 
ATOM     67  C   UNL A   1      42.824  25.446  36.808  1.00  0.00     0.022 A 
BRANCH  64  68
ATOM     68  S   UNL A   1      44.421  23.691  35.388  1.00  0.00     0.124 S 
ATOM     69  O   UNL A   1      43.412  22.765  34.887  1.00  0.00    -0.237 OA
ATOM     70  O   UNL A   1      45.437  24.105  34.424  1.00  0.00    -0.237 OA
ATOM     71  O   UNL A   1      44.921  23.422  36.733  1.00  0.00    -0.744 OA
ENDBRANCH  64  68
ENDBRANCH  47  61
BRANCH  48  72
ATOM     72  C   UNL A   1      43.269  25.292  26.181  1.00  0.00     0.023 A 
ATOM     73  C   UNL A   1      42.328  24.325  26.589  1.00  0.00     0.031 A 
ATOM     74  C   UNL A   1      44.181  24.919  25.180  1.00  0.00     0.131 A 
ATOM     75  C   UNL A   1      42.341  23.036  26.043  1.00  0.00     0.055 A 
ATOM     76  C   UNL A   1      44.182  23.634  24.622  1.00  0.00     0.041 A 
ATOM     77  F   UNL A   1      45.128  25.776  24.771  1.00  0.00    -0.206 F 
ATOM     78  C   UNL A   1      43.265  22.681  25.061  1.00  0.00     0.022 A 
BRANCH  75  79
ATOM     79  S   UNL A   1      41.199  21.775  26.671  1.00  0.00     0.124 S 
ATOM     80  O   UNL A   1      39.962  22.095  25.961  1.00  0.00    -0.237 OA
ATOM     81  O   UNL A   1      41.863  20.544  26.258  1.00  0.00    -0.237 OA
ATOM     82  O   UNL A   1      41.167  22.028  28.109  1.00  0.00    -0.744 OA
ENDBRANCH  75  79
ENDBRANCH  48  72
BRANCH  60  83
ATOM     83  C   UNL A   1      46.054  30.048  29.341  1.00  0.00     0.023 A 
ATOM     84  C   UNL A   1      45.107  30.743  28.569  1.00  0.00     0.031 A 
ATOM     85  C   UNL A   1      47.413  30.247  29.031  1.00  0.00     0.131 A 
ATOM     86  C   UNL A   1      45.518  31.544  27.497  1.00  0.00     0.055 A 
ATOM     87  C   UNL A   1      47.823  31.112  28.010  1.00  0.00     0.041 A 
ATOM     88  F   UNL A   1      48.382  29.545  29.630  1.00  0.00    -0.206 F 
ATOM     89  C   UNL A   1      46.872  31.749  27.223  1.00  0.00     0.022 A 
BRANCH  86  90
ATOM     90  S   UNL A   1      44.303  32.182  26.315  1.00  0.00     0.124 S 
ATOM     91  O   UNL A   1      43.424  31.033  26.123  1.00  0.00    -0.237 OA
ATOM     92  O   UNL A   1      43.716  33.302  27.051  1.00  0.00    -0.237 OA
ATOM     93  O   UNL A   1      45.102  32.562  25.154  1.00  0.00    -0.744 OA
ENDBRANCH  86  90
ENDBRANCH  60  83
ENDBRANCH  34  35
ENDBRANCH  27  29
ENDBRANCH  26  27
ENDBRANCH  25  26
ENDBRANCH  24  25
ENDBRANCH   1  24
TORSDOF 21
ENDMDL
MODEL 2
REMARK VINA RESULT:     -10.2      1.961      2.373
REMARK SMILES CC(C)n1c([C@H](O)CC(=O)OCCOCCOC(=O)c2ccc(-c3c4nc(c(-c5cc(S(=O)(=O)[O-])ccc5F)c5ccc([nH]5)c(-c5cc(S(=O)(=O)[O-])ccc5F)c5nc(c(-c6cc(S(=O)(=O)[O-])ccc6F)c6ccc3[nH]6)C=C5)C=C4)cc2)nc2cc(Cl)ccc21
REMARK SMILES IDX 14 1 13 2 12 3 11 4 9 5 10 6 8 7 6 8 5 9 4 10 90 11 83 12
REMARK SMILES IDX 84 13 89 14 85 15 88 16 86 17 87 18 2 19 1 20 3 21 7 22
REMARK SMILES IDX 15 24 16 25 17 26 18 27 19 28 20 29 21 30 82 31 22 32 81 33
REMARK SMILES IDX 23 34 24 35 25 36 75 37 26 38 80 39 74 40 76 41 27 42 79 43
REMARK SMILES IDX 73 44 72 45 28 47 60 48 40 49 59 50 41 51 44 52 58 53 77 54
REMARK SMILES IDX 42 55 43 56 57 58 78 59 45 60 29 61 30 62 38 63 31 64 37 65
REMARK SMILES IDX 39 66 36 67 32 68 33 69 34 70 35 71 61 72 62 73 70 74 63 75
REMARK SMILES IDX 69 76 71 77 68 78 64 79 65 80 66 81 67 82 46 83 47 84 55 85
REMARK SMILES IDX 48 86 54 87 56 88 53 89 49 90 50 91 51 92 52 93
REMARK H PARENT 7 23 76 46 44 57
REMARK Flexibility Score: inf
ROOT
ATOM      1  O   UNL A   1      33.084  34.658  29.743  1.00  0.00    -0.374 OA
ENDROOT
BRANCH   1   2
ATOM      2  C   UNL A   1      33.006  36.027  30.136  1.00  0.00     0.202 C 
BRANCH   2   3
ATOM      3  C   UNL A   1      32.533  36.346  31.558  1.00  0.00     0.261 C 
BRANCH   3   4
ATOM      4  O   UNL A   1      33.062  35.372  32.463  1.00  0.00    -0.463 OA
BRANCH   4   5
ATOM      5  C   UNL A   1      34.207  35.716  33.100  1.00  0.00     0.308 C 
ATOM      6  O   UNL A   1      34.393  36.759  33.712  1.00  0.00    -0.252 OA
BRANCH   5   7
ATOM      7  C   UNL A   1      35.175  34.567  33.149  1.00  0.00     0.162 C 
BRANCH   7   8
ATOM      8  C   UNL A   1      36.035  34.386  34.397  1.00  0.00     0.191 C 
BRANCH   8   9
ATOM      9  C   UNL A   1      37.448  34.001  34.062  1.00  0.00     0.139 A 
ATOM     10  N   UNL A   1      37.950  32.744  33.759  1.00  0.00    -0.323 N 
ATOM     11  C   UNL A   1      39.252  32.930  33.305  1.00  0.00     0.069 A 
ATOM     12  N   UNL A   1      38.385  34.926  33.925  1.00  0.00    -0.230 NA
ATOM     13  C   UNL A   1      39.492  34.288  33.460  1.00  0.00     0.090 A 
ATOM     14  C   UNL A   1      40.215  32.060  32.780  1.00  0.00     0.030 A 
ATOM     15  C   UNL A   1      40.739  34.830  33.121  1.00  0.00     0.051 A 
ATOM     16  C   UNL A   1      41.453  32.611  32.431  1.00  0.00     0.023 A 
ATOM     17  C   UNL A   1      41.709  33.970  32.607  1.00  0.00     0.043 A 
ATOM     18  Cl  UNL A   1      43.250  34.605  32.168  1.00  0.00    -0.084 Cl
BRANCH  10  19
ATOM     19  C   UNL A   1      37.320  31.422  33.798  1.00  0.00     0.083 C 
ATOM     20  C   UNL A   1      36.778  30.878  32.478  1.00  0.00     0.031 C 
ATOM     21  C   UNL A   1      38.152  30.399  34.576  1.00  0.00     0.031 C 
ENDBRANCH  10  19
ENDBRANCH   8   9
BRANCH   8  22
ATOM     22  O   UNL A   1      35.579  33.544  35.439  1.00  0.00    -0.385 OA
ATOM     23  H   UNL A   1      34.805  33.946  35.863  1.00  0.00     0.211 HD
ENDBRANCH   8  22
ENDBRANCH   7   8
ENDBRANCH   5   7
ENDBRANCH   4   5
ENDBRANCH   3   4
ENDBRANCH   2   3
ENDBRANCH   1   2
BRANCH   1  24
ATOM     24  C   UNL A   1      33.356  34.357  28.377  1.00  0.00     0.202 C 
BRANCH  24  25
ATOM     25  C   UNL A   1      34.815  34.266  27.902  1.00  0.00     0.261 C 
BRANCH  25  26
ATOM     26  O   UNL A   1      35.186  32.912  27.619  1.00  0.00    -0.460 OA
BRANCH  26  27
ATOM     27  C   UNL A   1      35.425  32.175  28.753  1.00  0.00     0.338 C 
ATOM     28  O   UNL A   1      34.622  31.838  29.585  1.00  0.00    -0.246 OA
BRANCH  27  29
ATOM     29  C   UNL A   1      36.731  31.524  28.501  1.00  0.00     0.060 A 
ATOM     30  C   UNL A   1      36.802  30.251  27.940  1.00  0.00     0.016 A 
ATOM     31  C   UNL A   1      37.822  32.089  29.174  1.00  0.00     0.016 A 
ATOM     32  C   UNL A   1      37.957  29.496  28.123  1.00  0.00     0.010 A 
ATOM     33  C   UNL A   1      38.958  31.318  29.402  1.00  0.00     0.010 A 
ATOM     34  C   UNL A   1      39.011  30.009  28.901  1.00  0.00    -0.014 A 
BRANCH  34  35
ATOM     35  C   UNL A   1      40.226  29.213  29.058  1.00  0.00     0.031 A 
ATOM     36  C   UNL A   1      40.564  28.881  30.471  1.00  0.00     0.074 A 
ATOM     37  C   UNL A   1      40.914  28.639  28.050  1.00  0.00     0.049 A 
ATOM     38  N   UNL A   1      41.640  29.164  31.131  1.00  0.00    -0.248 NA
ATOM     39  C   UNL A   1      39.517  28.237  31.275  1.00  0.00     0.031 C 
ATOM     40  C   UNL A   1      40.542  28.548  26.642  1.00  0.00     0.029 A 
ATOM     41  N   UNL A   1      42.057  27.898  28.105  1.00  0.00    -0.354 N 
ATOM     42  C   UNL A   1      41.464  28.624  32.406  1.00  0.00     0.074 A 
ATOM     43  C   UNL A   1      40.092  28.188  32.474  1.00  0.00     0.031 C 
ATOM     44  C   UNL A   1      41.310  27.627  26.023  1.00  0.00     0.029 A 
ATOM     45  C   UNL A   1      42.306  27.149  26.963  1.00  0.00     0.049 A 
ATOM     46  H   UNL A   1      42.655  27.895  28.887  1.00  0.00     0.167 HD
ATOM     47  C   UNL A   1      42.491  28.440  33.283  1.00  0.00     0.034 A 
ATOM     48  C   UNL A   1      43.196  26.136  26.823  1.00  0.00     0.034 A 
ATOM     49  C   UNL A   1      43.671  29.144  32.868  1.00  0.00     0.049 A 
ATOM     50  C   UNL A   1      44.182  26.229  27.925  1.00  0.00     0.074 A 
ATOM     51  C   UNL A   1      44.010  30.474  32.741  1.00  0.00     0.029 A 
ATOM     52  N   UNL A   1      44.635  28.441  32.188  1.00  0.00    -0.354 N 
ATOM     53  N   UNL A   1      45.076  27.170  28.031  1.00  0.00    -0.248 NA
ATOM     54  C   UNL A   1      43.881  25.510  29.154  1.00  0.00     0.031 C 
ATOM     55  C   UNL A   1      44.872  30.528  31.611  1.00  0.00     0.029 A 
ATOM     56  C   UNL A   1      45.042  29.224  31.139  1.00  0.00     0.049 A 
ATOM     57  H   UNL A   1      44.970  27.543  32.412  1.00  0.00     0.167 HD
ATOM     58  C   UNL A   1      45.113  27.464  29.385  1.00  0.00     0.074 A 
ATOM     59  C   UNL A   1      44.440  26.341  30.036  1.00  0.00     0.031 C 
ATOM     60  C   UNL A   1      45.425  28.714  29.836  1.00  0.00     0.034 A 
BRANCH  47  61
ATOM     61  C   UNL A   1      42.501  27.433  34.404  1.00  0.00     0.023 A 
ATOM     62  C   UNL A   1      43.296  26.273  34.380  1.00  0.00     0.031 A 
ATOM     63  C   UNL A   1      41.854  27.708  35.627  1.00  0.00     0.131 A 
ATOM     64  C   UNL A   1      43.400  25.426  35.491  1.00  0.00     0.055 A 
ATOM     65  C   UNL A   1      42.013  26.900  36.761  1.00  0.00     0.041 A 
ATOM     66  F   UNL A   1      41.083  28.797  35.774  1.00  0.00    -0.206 F 
ATOM     67  C   UNL A   1      42.785  25.748  36.695  1.00  0.00     0.022 A 
BRANCH  64  68
ATOM     68  S   UNL A   1      44.339  23.879  35.376  1.00  0.00     0.124 S 
ATOM     69  O   UNL A   1      44.980  23.820  36.684  1.00  0.00    -0.237 OA
ATOM     70  O   UNL A   1      43.278  22.901  35.144  1.00  0.00    -0.237 OA
ATOM     71  O   UNL A   1      45.227  24.105  34.240  1.00  0.00    -0.744 OA
ENDBRANCH  64  68
ENDBRANCH  47  61
BRANCH  48  72
ATOM     72  C   UNL A   1      42.951  24.871  26.092  1.00  0.00     0.023 A 
ATOM     73  C   UNL A   1      41.912  24.018  26.515  1.00  0.00     0.031 A 
ATOM     74  C   UNL A   1      43.883  24.346  25.183  1.00  0.00     0.131 A 
ATOM     75  C   UNL A   1      41.849  22.690  26.075  1.00  0.00     0.055 A 
ATOM     76  C   UNL A   1      43.810  23.022  24.729  1.00  0.00     0.041 A 
ATOM     77  F   UNL A   1      44.920  25.089  24.767  1.00  0.00    -0.206 F 
ATOM     78  C   UNL A   1      42.795  22.184  25.185  1.00  0.00     0.022 A 
BRANCH  75  79
ATOM     79  S   UNL A   1      40.574  21.579  26.728  1.00  0.00     0.124 S 
ATOM     80  O   UNL A   1      39.346  22.173  26.203  1.00  0.00    -0.237 OA
ATOM     81  O   UNL A   1      40.962  20.304  26.135  1.00  0.00    -0.237 OA
ATOM     82  O   UNL A   1      40.739  21.682  28.175  1.00  0.00    -0.744 OA
ENDBRANCH  75  79
ENDBRANCH  48  72
BRANCH  60  83
ATOM     83  C   UNL A   1      45.942  29.747  28.855  1.00  0.00     0.023 A 
ATOM     84  C   UNL A   1      47.307  30.076  28.923  1.00  0.00     0.031 A 
ATOM     85  C   UNL A   1      45.113  30.581  28.079  1.00  0.00     0.131 A 
ATOM     86  C   UNL A   1      47.790  31.228  28.291  1.00  0.00     0.055 A 
ATOM     87  C   UNL A   1      45.615  31.686  27.383  1.00  0.00     0.041 A 
ATOM     88  F   UNL A   1      43.785  30.419  28.047  1.00  0.00    -0.206 F 
ATOM     89  C   UNL A   1      46.957  32.026  27.504  1.00  0.00     0.022 A 
BRANCH  86  90
ATOM     90  S   UNL A   1      49.466  31.824  28.632  1.00  0.00     0.124 S 
ATOM     91  O   UNL A   1      49.227  33.206  29.035  1.00  0.00    -0.237 OA
ATOM     92  O   UNL A   1      49.900  30.926  29.703  1.00  0.00    -0.237 OA
ATOM     93  O   UNL A   1      50.169  31.652  27.364  1.00  0.00    -0.744 OA
ENDBRANCH  86  90
ENDBRANCH  60  83
ENDBRANCH  34  35
ENDBRANCH  27  29
ENDBRANCH  26  27
ENDBRANCH  25  26
ENDBRANCH  24  25
ENDBRANCH   1  24
TORSDOF 21
ENDMDL
MODEL 3
REMARK VINA RESULT:     -10.0      3.434     11.656
REMARK SMILES CC(C)n1c([C@H](O)CC(=O)OCCOCCOC(=O)c2ccc(-c3c4nc(c(-c5cc(S(=O)(=O)[O-])ccc5F)c5ccc([nH]5)c(-c5cc(S(=O)(=O)[O-])ccc5F)c5nc(c(-c6cc(S(=O)(=O)[O-])ccc6F)c6ccc3[nH]6)C=C5)C=C4)cc2)nc2cc(Cl)ccc21
REMARK SMILES IDX 14 1 13 2 12 3 11 4 9 5 10 6 8 7 6 8 5 9 4 10 90 11 83 12
REMARK SMILES IDX 84 13 89 14 85 15 88 16 86 17 87 18 2 19 1 20 3 21 7 22
REMARK SMILES IDX 15 24 16 25 17 26 18 27 19 28 20 29 21 30 82 31 22 32 81 33
REMARK SMILES IDX 23 34 24 35 25 36 75 37 26 38 80 39 74 40 76 41 27 42 79 43
REMARK SMILES IDX 73 44 72 45 28 47 60 48 40 49 59 50 41 51 44 52 58 53 77 54
REMARK SMILES IDX 42 55 43 56 57 58 78 59 45 60 29 61 30 62 38 63 31 64 37 65
REMARK SMILES IDX 39 66 36 67 32 68 33 69 34 70 35 71 61 72 62 73 70 74 63 75
REMARK SMILES IDX 69 76 71 77 68 78 64 79 65 80 66 81 67 82 46 83 47 84 55 85
REMARK SMILES IDX 48 86 54 87 56 88 53 89 49 90 50 91 51 92 52 93
REMARK H PARENT 7 23 76 46 44 57
REMARK Flexibility Score: inf
ROOT
ATOM      1  O   UNL A   1      42.919  19.033  25.168  1.00  0.00    -0.374 OA
ENDROOT
BRANCH   1   2
ATOM      2  C   UNL A   1      44.320  18.777  25.224  1.00  0.00     0.202 C 
BRANCH   2   3
ATOM      3  C   UNL A   1      45.222  19.458  24.189  1.00  0.00     0.261 C 
BRANCH   3   4
ATOM      4  O   UNL A   1      44.528  20.570  23.614  1.00  0.00    -0.463 OA
BRANCH   4   5
ATOM      5  C   UNL A   1      44.534  21.712  24.344  1.00  0.00     0.308 C 
ATOM      6  O   UNL A   1      43.543  22.352  24.669  1.00  0.00    -0.252 OA
BRANCH   5   7
ATOM      7  C   UNL A   1      45.902  22.004  24.895  1.00  0.00     0.162 C 
BRANCH   7   8
ATOM      8  C   UNL A   1      46.314  23.460  25.098  1.00  0.00     0.191 C 
BRANCH   8   9
ATOM      9  C   UNL A   1      46.330  23.848  26.549  1.00  0.00     0.139 A 
ATOM     10  N   UNL A   1      47.241  24.654  27.215  1.00  0.00    -0.323 N 
ATOM     11  C   UNL A   1      46.712  24.897  28.479  1.00  0.00     0.069 A 
ATOM     12  N   UNL A   1      45.337  23.498  27.352  1.00  0.00    -0.230 NA
ATOM     13  C   UNL A   1      45.555  24.134  28.534  1.00  0.00     0.090 A 
ATOM     14  C   UNL A   1      47.125  25.700  29.550  1.00  0.00     0.030 A 
ATOM     15  C   UNL A   1      44.770  24.120  29.695  1.00  0.00     0.051 A 
ATOM     16  C   UNL A   1      46.330  25.690  30.701  1.00  0.00     0.023 A 
ATOM     17  C   UNL A   1      45.179  24.907  30.771  1.00  0.00     0.043 A 
ATOM     18  Cl  UNL A   1      44.231  24.921  32.211  1.00  0.00    -0.084 Cl
BRANCH  10  19
ATOM     19  C   UNL A   1      48.502  25.251  26.771  1.00  0.00     0.083 C 
ATOM     20  C   UNL A   1      48.484  26.744  26.453  1.00  0.00     0.031 C 
ATOM     21  C   UNL A   1      49.688  24.835  27.644  1.00  0.00     0.031 C 
ENDBRANCH  10  19
ENDBRANCH   8   9
BRANCH   8  22
ATOM     22  O   UNL A   1      45.653  24.478  24.371  1.00  0.00    -0.385 OA
ATOM     23  H   UNL A   1      45.761  24.318  23.420  1.00  0.00     0.211 HD
ENDBRANCH   8  22
ENDBRANCH   7   8
ENDBRANCH   5   7
ENDBRANCH   4   5
ENDBRANCH   3   4
ENDBRANCH   2   3
ENDBRANCH   1   2
BRANCH   1  24
ATOM     24  C   UNL A   1      42.241  19.380  26.373  1.00  0.00     0.202 C 
BRANCH  24  25
ATOM     25  C   UNL A   1      40.923  20.165  26.295  1.00  0.00     0.261 C 
BRANCH  25  26
ATOM     26  O   UNL A   1      41.073  21.486  26.829  1.00  0.00    -0.460 OA
BRANCH  26  27
ATOM     27  C   UNL A   1      40.105  22.355  26.388  1.00  0.00     0.338 C 
ATOM     28  O   UNL A   1      39.229  22.125  25.595  1.00  0.00    -0.246 OA
BRANCH  27  29
ATOM     29  C   UNL A   1      40.093  23.437  27.398  1.00  0.00     0.060 A 
ATOM     30  C   UNL A   1      39.032  24.337  27.474  1.00  0.00     0.016 A 
ATOM     31  C   UNL A   1      41.330  23.712  27.996  1.00  0.00     0.016 A 
ATOM     32  C   UNL A   1      39.234  25.568  28.091  1.00  0.00     0.010 A 
ATOM     33  C   UNL A   1      41.550  24.961  28.567  1.00  0.00     0.010 A 
ATOM     34  C   UNL A   1      40.508  25.901  28.587  1.00  0.00    -0.014 A 
BRANCH  34  35
ATOM     35  C   UNL A   1      40.693  27.187  29.255  1.00  0.00     0.031 A 
ATOM     36  C   UNL A   1      41.741  28.052  28.643  1.00  0.00     0.074 A 
ATOM     37  C   UNL A   1      39.891  27.683  30.219  1.00  0.00     0.049 A 
ATOM     38  N   UNL A   1      42.808  28.535  29.191  1.00  0.00    -0.248 NA
ATOM     39  C   UNL A   1      41.627  28.324  27.204  1.00  0.00     0.031 C 
ATOM     40  C   UNL A   1      38.618  27.151  30.695  1.00  0.00     0.029 A 
ATOM     41  N   UNL A   1      39.997  28.858  30.902  1.00  0.00    -0.354 N 
ATOM     42  C   UNL A   1      43.446  29.283  28.199  1.00  0.00     0.074 A 
ATOM     43  C   UNL A   1      42.747  29.004  26.970  1.00  0.00     0.031 C 
ATOM     44  C   UNL A   1      37.970  28.090  31.416  1.00  0.00     0.029 A 
ATOM     45  C   UNL A   1      38.834  29.247  31.552  1.00  0.00     0.049 A 
ATOM     46  H   UNL A   1      40.828  29.385  30.933  1.00  0.00     0.167 HD
ATOM     47  C   UNL A   1      44.424  30.194  28.469  1.00  0.00     0.034 A 
ATOM     48  C   UNL A   1      38.554  30.465  32.077  1.00  0.00     0.034 A 
ATOM     49  C   UNL A   1      44.919  30.056  29.809  1.00  0.00     0.049 A 
ATOM     50  C   UNL A   1      39.830  31.197  32.257  1.00  0.00     0.074 A 
ATOM     51  C   UNL A   1      45.629  29.085  30.481  1.00  0.00     0.029 A 
ATOM     52  N   UNL A   1      44.409  30.889  30.773  1.00  0.00    -0.354 N 
ATOM     53  N   UNL A   1      40.736  30.884  33.139  1.00  0.00    -0.248 NA
ATOM     54  C   UNL A   1      40.292  32.018  31.148  1.00  0.00     0.031 C 
ATOM     55  C   UNL A   1      45.121  29.111  31.809  1.00  0.00     0.029 A 
ATOM     56  C   UNL A   1      44.159  30.122  31.881  1.00  0.00     0.049 A 
ATOM     57  H   UNL A   1      44.254  31.858  30.686  1.00  0.00     0.167 HD
ATOM     58  C   UNL A   1      41.941  31.071  32.480  1.00  0.00     0.074 A 
ATOM     59  C   UNL A   1      41.610  31.870  31.302  1.00  0.00     0.031 C 
ATOM     60  C   UNL A   1      43.046  30.329  32.787  1.00  0.00     0.034 A 
BRANCH  47  61
ATOM     61  C   UNL A   1      44.776  31.369  27.592  1.00  0.00     0.023 A 
ATOM     62  C   UNL A   1      44.038  32.566  27.589  1.00  0.00     0.031 A 
ATOM     63  C   UNL A   1      45.989  31.393  26.872  1.00  0.00     0.131 A 
ATOM     64  C   UNL A   1      44.465  33.694  26.877  1.00  0.00     0.055 A 
ATOM     65  C   UNL A   1      46.453  32.542  26.218  1.00  0.00     0.041 A 
ATOM     66  F   UNL A   1      46.786  30.315  26.820  1.00  0.00    -0.206 F 
ATOM     67  C   UNL A   1      45.686  33.700  26.213  1.00  0.00     0.022 A 
BRANCH  64  68
ATOM     68  S   UNL A   1      43.423  35.176  26.801  1.00  0.00     0.124 S 
ATOM     69  O   UNL A   1      42.651  35.062  28.033  1.00  0.00    -0.237 OA
ATOM     70  O   UNL A   1      44.420  36.243  26.772  1.00  0.00    -0.237 OA
ATOM     71  O   UNL A   1      42.673  34.999  25.560  1.00  0.00    -0.744 OA
ENDBRANCH  64  68
ENDBRANCH  47  61
BRANCH  48  72
ATOM     72  C   UNL A   1      37.253  31.166  31.976  1.00  0.00     0.023 A 
ATOM     73  C   UNL A   1      36.722  31.460  30.705  1.00  0.00     0.031 A 
ATOM     74  C   UNL A   1      36.667  31.805  33.081  1.00  0.00     0.131 A 
ATOM     75  C   UNL A   1      35.683  32.387  30.557  1.00  0.00     0.055 A 
ATOM     76  C   UNL A   1      35.615  32.720  32.934  1.00  0.00     0.041 A 
ATOM     77  F   UNL A   1      37.146  31.602  34.317  1.00  0.00    -0.206 F 
ATOM     78  C   UNL A   1      35.126  33.023  31.666  1.00  0.00     0.022 A 
BRANCH  75  79
ATOM     79  S   UNL A   1      35.100  32.837  28.900  1.00  0.00     0.124 S 
ATOM     80  O   UNL A   1      34.355  34.068  29.157  1.00  0.00    -0.237 OA
ATOM     81  O   UNL A   1      36.358  33.000  28.179  1.00  0.00    -0.237 OA
ATOM     82  O   UNL A   1      34.284  31.694  28.502  1.00  0.00    -0.744 OA
ENDBRANCH  75  79
ENDBRANCH  48  72
BRANCH  60  83
ATOM     83  C   UNL A   1      43.017  29.428  34.005  1.00  0.00     0.023 A 
ATOM     84  C   UNL A   1      43.783  29.822  35.117  1.00  0.00     0.031 A 
ATOM     85  C   UNL A   1      42.504  28.117  34.004  1.00  0.00     0.131 A 
ATOM     86  C   UNL A   1      44.068  28.908  36.139  1.00  0.00     0.055 A 
ATOM     87  C   UNL A   1      42.723  27.233  35.066  1.00  0.00     0.041 A 
ATOM     88  F   UNL A   1      41.863  27.613  32.943  1.00  0.00    -0.206 F 
ATOM     89  C   UNL A   1      43.527  27.620  36.132  1.00  0.00     0.022 A 
BRANCH  86  90
ATOM     90  S   UNL A   1      45.302  29.307  37.404  1.00  0.00     0.124 S 
ATOM     91  O   UNL A   1      46.022  28.044  37.542  1.00  0.00    -0.237 OA
ATOM     92  O   UNL A   1      46.054  30.389  36.769  1.00  0.00    -0.237 OA
ATOM     93  O   UNL A   1      44.508  29.706  38.561  1.00  0.00    -0.744 OA
ENDBRANCH  86  90
ENDBRANCH  60  83
ENDBRANCH  34  35
ENDBRANCH  27  29
ENDBRANCH  26  27
ENDBRANCH  25  26
ENDBRANCH  24  25
ENDBRANCH   1  24
TORSDOF 21
ENDMDL
