MODEL 1
REMARK VINA RESULT:     -12.2      0.000      0.000
REMARK SMILES O=C(OCCOCCOC(=O)c1ccc(-c2c3nc(c(-c4cc(S(=O)(=O)[O-])ccc4F)c4ccc([nH]4)c(-c4cc(S(=O)(=O)[O-])ccc4F)c4nc(c(-c5cc(S(=O)(=O)[O-])ccc5F)c5ccc2[nH]5)C=C4)C=C3)cc1)C1=Cc2cc(C(F)(F)F)ccc2O[C@@H]1C(F)(F)F
REMARK SMILES IDX 7 1 6 2 5 3 4 4 3 5 2 6 1 7 75 8 76 9 88 10 77 11 87 12
REMARK SMILES IDX 78 13 86 14 79 15 85 16 84 17 89 18 90 19 91 20 92 21 80 22
REMARK SMILES IDX 81 23 82 24 83 25 8 26 9 27 10 28 11 29 12 30 13 31 74 32
REMARK SMILES IDX 14 33 73 34 15 35 16 36 17 37 67 38 18 39 72 40 66 41 68 42
REMARK SMILES IDX 19 43 71 44 65 45 64 46 20 48 52 49 32 50 51 51 33 52 36 53
REMARK SMILES IDX 50 54 69 55 34 56 35 57 49 59 70 60 37 61 21 62 22 63 30 64
REMARK SMILES IDX 23 65 29 66 31 67 28 68 24 69 25 70 26 71 27 72 53 73 54 74
REMARK SMILES IDX 62 75 55 76 61 77 63 78 60 79 56 80 57 81 58 82 59 83 38 84
REMARK SMILES IDX 39 85 47 86 40 87 46 88 48 89 45 90 41 91 42 92 43 93 44 94
REMARK H PARENT 68 47 36 58
REMARK Flexibility Score: inf
ROOT
ATOM      1  C   UNL A   1      31.503  29.427  25.724  1.00  0.00     0.202 C 
ENDROOT
BRANCH   1   2
ATOM      2  O   UNL A   1      31.051  29.496  24.357  1.00  0.00    -0.374 OA
BRANCH   2   3
ATOM      3  C   UNL A   1      30.452  28.395  23.320  1.00  0.00     0.202 C 
BRANCH   3   4
ATOM      4  C   UNL A   1      31.432  26.911  22.070  1.00  0.00     0.261 C 
BRANCH   4   5
ATOM      5  O   UNL A   1      31.367  25.384  22.236  1.00  0.00    -0.460 OA
BRANCH   5   6
ATOM      6  C   UNL A   1      32.579  24.833  22.352  1.00  0.00     0.338 C 
ATOM      7  O   UNL A   1      33.337  24.458  21.493  1.00  0.00    -0.246 OA
BRANCH   6   8
ATOM      8  C   UNL A   1      32.469  24.512  23.758  1.00  0.00     0.087 C 
ATOM      9  C   UNL A   1      32.005  23.127  23.965  1.00  0.00     0.027 C 
ATOM     10  C   UNL A   1      34.214  25.178  24.256  1.00  0.00     0.316 C 
ATOM     11  C   UNL A   1      33.083  21.785  24.501  1.00  0.00     0.018 A 
ATOM     12  O   UNL A   1      35.409  23.743  24.765  1.00  0.00    -0.475 OA
ATOM     13  C   UNL A   1      32.588  20.512  24.524  1.00  0.00     0.025 A 
ATOM     14  C   UNL A   1      34.773  22.028  24.800  1.00  0.00     0.128 A 
ATOM     15  C   UNL A   1      33.534  19.487  24.762  1.00  0.00     0.056 A 
ATOM     16  C   UNL A   1      35.645  20.987  24.891  1.00  0.00     0.048 A 
ATOM     17  C   UNL A   1      34.982  19.724  24.883  1.00  0.00     0.017 A 
BRANCH  10  18
ATOM     18  C   UNL A   1      33.686  26.466  25.043  1.00  0.00     0.430 C 
ATOM     19  F   UNL A   1      32.526  26.322  25.707  1.00  0.00    -0.167 F 
ATOM     20  F   UNL A   1      34.604  26.736  26.024  1.00  0.00    -0.167 F 
ATOM     21  F   UNL A   1      33.634  27.606  24.317  1.00  0.00    -0.167 F 
ENDBRANCH  10  18
BRANCH  15  22
ATOM     22  C   UNL A   1      32.957  18.079  24.884  1.00  0.00     0.416 C 
ATOM     23  F   UNL A   1      33.909  17.127  24.652  1.00  0.00    -0.166 F 
ATOM     24  F   UNL A   1      32.489  17.822  26.137  1.00  0.00    -0.166 F 
ATOM     25  F   UNL A   1      31.942  17.810  24.026  1.00  0.00    -0.166 F 
ENDBRANCH  15  22
ENDBRANCH   6   8
ENDBRANCH   5   6
ENDBRANCH   4   5
ENDBRANCH   3   4
ENDBRANCH   2   3
ENDBRANCH   1   2
BRANCH   1  26
ATOM     26  C   UNL A   1      31.988  30.698  26.409  1.00  0.00     0.261 C 
BRANCH  26  27
ATOM     27  O   UNL A   1      33.355  30.645  26.771  1.00  0.00    -0.460 OA
BRANCH  27  28
ATOM     28  C   UNL A   1      33.768  31.727  27.469  1.00  0.00     0.338 C 
ATOM     29  O   UNL A   1      33.217  32.809  27.559  1.00  0.00    -0.246 OA
BRANCH  28  30
ATOM     30  C   UNL A   1      35.021  31.367  28.152  1.00  0.00     0.060 A 
ATOM     31  C   UNL A   1      35.104  30.099  28.732  1.00  0.00     0.016 A 
ATOM     32  C   UNL A   1      36.117  32.240  28.164  1.00  0.00     0.016 A 
ATOM     33  C   UNL A   1      36.315  29.670  29.263  1.00  0.00     0.010 A 
ATOM     34  C   UNL A   1      37.319  31.821  28.720  1.00  0.00     0.010 A 
ATOM     35  C   UNL A   1      37.422  30.530  29.257  1.00  0.00    -0.014 A 
BRANCH  35  36
ATOM     36  C   UNL A   1      38.657  30.133  29.951  1.00  0.00     0.031 A 
ATOM     37  C   UNL A   1      39.501  29.077  29.312  1.00  0.00     0.074 A 
ATOM     38  C   UNL A   1      38.995  30.702  31.121  1.00  0.00     0.049 A 
ATOM     39  N   UNL A   1      40.598  28.525  29.750  1.00  0.00    -0.248 NA
ATOM     40  C   UNL A   1      39.045  28.574  28.005  1.00  0.00     0.031 C 
ATOM     41  C   UNL A   1      38.247  31.767  31.792  1.00  0.00     0.029 A 
ATOM     42  N   UNL A   1      40.051  30.455  31.960  1.00  0.00    -0.354 N 
ATOM     43  C   UNL A   1      40.970  27.614  28.771  1.00  0.00     0.074 A 
ATOM     44  C   UNL A   1      39.970  27.668  27.729  1.00  0.00     0.031 C 
ATOM     45  C   UNL A   1      38.865  32.071  32.948  1.00  0.00     0.029 A 
ATOM     46  C   UNL A   1      40.020  31.192  33.121  1.00  0.00     0.049 A 
ATOM     47  H   UNL A   1      40.765  29.810  31.750  1.00  0.00     0.167 HD
ATOM     48  C   UNL A   1      42.054  26.805  28.754  1.00  0.00     0.034 A 
ATOM     49  C   UNL A   1      40.816  31.128  34.208  1.00  0.00     0.034 A 
ATOM     50  C   UNL A   1      43.013  26.748  29.824  1.00  0.00     0.049 A 
ATOM     51  C   UNL A   1      41.955  30.129  34.205  1.00  0.00     0.074 A 
ATOM     52  C   UNL A   1      44.156  25.976  29.907  1.00  0.00     0.029 A 
ATOM     53  N   UNL A   1      42.928  27.467  31.009  1.00  0.00    -0.354 N 
ATOM     54  N   UNL A   1      42.329  29.304  33.252  1.00  0.00    -0.248 NA
ATOM     55  C   UNL A   1      42.780  30.053  35.418  1.00  0.00     0.031 C 
ATOM     56  C   UNL A   1      44.706  26.151  31.178  1.00  0.00     0.029 A 
ATOM     57  C   UNL A   1      43.967  27.113  31.852  1.00  0.00     0.049 A 
ATOM     58  H   UNL A   1      42.231  28.130  31.219  1.00  0.00     0.167 HD
ATOM     59  C   UNL A   1      43.448  28.636  33.744  1.00  0.00     0.074 A 
ATOM     60  C   UNL A   1      43.705  29.175  35.062  1.00  0.00     0.031 C 
ATOM     61  C   UNL A   1      44.198  27.662  33.166  1.00  0.00     0.034 A 
BRANCH  48  62
ATOM     62  C   UNL A   1      42.216  25.876  27.583  1.00  0.00     0.023 A 
ATOM     63  C   UNL A   1      41.640  24.596  27.566  1.00  0.00     0.031 A 
ATOM     64  C   UNL A   1      42.953  26.288  26.460  1.00  0.00     0.131 A 
ATOM     65  C   UNL A   1      41.841  23.757  26.459  1.00  0.00     0.055 A 
ATOM     66  C   UNL A   1      43.084  25.481  25.331  1.00  0.00     0.041 A 
ATOM     67  F   UNL A   1      43.557  27.487  26.442  1.00  0.00    -0.206 F 
ATOM     68  C   UNL A   1      42.531  24.204  25.329  1.00  0.00     0.022 A 
BRANCH  65  69
ATOM     69  S   UNL A   1      41.287  22.035  26.562  1.00  0.00     0.124 S 
ATOM     70  O   UNL A   1      41.421  21.768  27.993  1.00  0.00    -0.237 OA
ATOM     71  O   UNL A   1      39.924  22.109  26.051  1.00  0.00    -0.237 OA
ATOM     72  O   UNL A   1      42.235  21.319  25.711  1.00  0.00    -0.744 OA
ENDBRANCH  65  69
ENDBRANCH  48  62
BRANCH  49  73
ATOM     73  C   UNL A   1      40.546  31.962  35.419  1.00  0.00     0.023 A 
ATOM     74  C   UNL A   1      39.498  31.648  36.298  1.00  0.00     0.031 A 
ATOM     75  C   UNL A   1      41.258  33.154  35.652  1.00  0.00     0.131 A 
ATOM     76  C   UNL A   1      39.136  32.551  37.312  1.00  0.00     0.055 A 
ATOM     77  C   UNL A   1      40.947  34.009  36.711  1.00  0.00     0.041 A 
ATOM     78  F   UNL A   1      42.264  33.516  34.840  1.00  0.00    -0.206 F 
ATOM     79  C   UNL A   1      39.866  33.720  37.537  1.00  0.00     0.022 A 
BRANCH  76  80
ATOM     80  S   UNL A   1      37.599  32.253  38.230  1.00  0.00     0.124 S 
ATOM     81  O   UNL A   1      37.984  32.646  39.580  1.00  0.00    -0.237 OA
ATOM     82  O   UNL A   1      36.662  33.138  37.544  1.00  0.00    -0.237 OA
ATOM     83  O   UNL A   1      37.360  30.824  38.037  1.00  0.00    -0.744 OA
ENDBRANCH  76  80
ENDBRANCH  49  73
BRANCH  61  84
ATOM     84  C   UNL A   1      45.384  27.148  33.944  1.00  0.00     0.023 A 
ATOM     85  C   UNL A   1      45.290  26.016  34.770  1.00  0.00     0.031 A 
ATOM     86  C   UNL A   1      46.631  27.793  33.846  1.00  0.00     0.131 A 
ATOM     87  C   UNL A   1      46.403  25.599  35.513  1.00  0.00     0.055 A 
ATOM     88  C   UNL A   1      47.755  27.325  34.526  1.00  0.00     0.041 A 
ATOM     89  F   UNL A   1      46.779  28.883  33.076  1.00  0.00    -0.206 F 
ATOM     90  C   UNL A   1      47.642  26.230  35.376  1.00  0.00     0.022 A 
BRANCH  87  91
ATOM     91  S   UNL A   1      46.182  24.286  36.743  1.00  0.00     0.124 S 
ATOM     92  O   UNL A   1      45.440  24.977  37.791  1.00  0.00    -0.237 OA
ATOM     93  O   UNL A   1      45.439  23.277  35.994  1.00  0.00    -0.237 OA
ATOM     94  O   UNL A   1      47.551  23.912  37.094  1.00  0.00    -0.744 OA
ENDBRANCH  87  91
ENDBRANCH  61  84
ENDBRANCH  35  36
ENDBRANCH  28  30
ENDBRANCH  27  28
ENDBRANCH  26  27
ENDBRANCH   1  26
TORSDOF 19
ENDMDL
MODEL 2
REMARK VINA RESULT:     -12.1      4.834      7.721
REMARK SMILES O=C(OCCOCCOC(=O)c1ccc(-c2c3nc(c(-c4cc(S(=O)(=O)[O-])ccc4F)c4ccc([nH]4)c(-c4cc(S(=O)(=O)[O-])ccc4F)c4nc(c(-c5cc(S(=O)(=O)[O-])ccc5F)c5ccc2[nH]5)C=C4)C=C3)cc1)C1=Cc2cc(C(F)(F)F)ccc2O[C@@H]1C(F)(F)F
REMARK SMILES IDX 7 1 6 2 5 3 4 4 3 5 2 6 1 7 75 8 76 9 88 10 77 11 87 12
REMARK SMILES IDX 78 13 86 14 79 15 85 16 84 17 89 18 90 19 91 20 92 21 80 22
REMARK SMILES IDX 81 23 82 24 83 25 8 26 9 27 10 28 11 29 12 30 13 31 74 32
REMARK SMILES IDX 14 33 73 34 15 35 16 36 17 37 67 38 18 39 72 40 66 41 68 42
REMARK SMILES IDX 19 43 71 44 65 45 64 46 20 48 52 49 32 50 51 51 33 52 36 53
REMARK SMILES IDX 50 54 69 55 34 56 35 57 49 59 70 60 37 61 21 62 22 63 30 64
REMARK SMILES IDX 23 65 29 66 31 67 28 68 24 69 25 70 26 71 27 72 53 73 54 74
REMARK SMILES IDX 62 75 55 76 61 77 63 78 60 79 56 80 57 81 58 82 59 83 38 84
REMARK SMILES IDX 39 85 47 86 40 87 46 88 48 89 45 90 41 91 42 92 43 93 44 94
REMARK H PARENT 68 47 36 58
REMARK Flexibility Score: inf
ROOT
ATOM      1  C   UNL A   1      38.004  19.584  24.977  1.00  0.00     0.202 C 
ENDROOT
BRANCH   1   2
ATOM      2  O   UNL A   1      37.616  20.942  24.685  1.00  0.00    -0.374 OA
BRANCH   2   3
ATOM      3  C   UNL A   1      36.193  21.728  24.706  1.00  0.00     0.202 C 
BRANCH   3   4
ATOM      4  C   UNL A   1      35.558  23.583  23.769  1.00  0.00     0.261 C 
BRANCH   4   5
ATOM      5  O   UNL A   1      34.339  23.779  22.852  1.00  0.00    -0.460 OA
BRANCH   5   6
ATOM      6  C   UNL A   1      33.668  24.900  23.130  1.00  0.00     0.338 C 
ATOM      7  O   UNL A   1      34.086  25.998  23.399  1.00  0.00    -0.246 OA
BRANCH   6   8
ATOM      8  C   UNL A   1      32.393  24.260  23.370  1.00  0.00     0.087 C 
ATOM      9  C   UNL A   1      32.340  22.913  22.773  1.00  0.00     0.027 C 
ATOM     10  C   UNL A   1      32.334  24.630  25.267  1.00  0.00     0.316 C 
ATOM     11  C   UNL A   1      32.448  21.391  23.734  1.00  0.00     0.018 A 
ATOM     12  O   UNL A   1      32.522  23.014  26.317  1.00  0.00    -0.475 OA
ATOM     13  C   UNL A   1      32.532  20.198  23.072  1.00  0.00     0.025 A 
ATOM     14  C   UNL A   1      32.642  21.405  25.456  1.00  0.00     0.128 A 
ATOM     15  C   UNL A   1      32.812  19.067  23.874  1.00  0.00     0.056 A 
ATOM     16  C   UNL A   1      33.038  20.300  26.144  1.00  0.00     0.048 A 
ATOM     17  C   UNL A   1      33.098  19.139  25.316  1.00  0.00     0.017 A 
BRANCH  10  18
ATOM     18  C   UNL A   1      31.177  25.732  25.189  1.00  0.00     0.430 C 
ATOM     19  F   UNL A   1      29.943  25.278  24.911  1.00  0.00    -0.167 F 
ATOM     20  F   UNL A   1      31.062  26.275  26.441  1.00  0.00    -0.167 F 
ATOM     21  F   UNL A   1      31.442  26.792  24.392  1.00  0.00    -0.167 F 
ENDBRANCH  10  18
BRANCH  15  22
ATOM     22  C   UNL A   1      32.806  17.728  23.141  1.00  0.00     0.416 C 
ATOM     23  F   UNL A   1      34.063  17.376  22.734  1.00  0.00    -0.166 F 
ATOM     24  F   UNL A   1      32.387  16.707  23.939  1.00  0.00    -0.166 F 
ATOM     25  F   UNL A   1      32.031  17.698  22.029  1.00  0.00    -0.166 F 
ENDBRANCH  15  22
ENDBRANCH   6   8
ENDBRANCH   5   6
ENDBRANCH   4   5
ENDBRANCH   3   4
ENDBRANCH   2   3
ENDBRANCH   1   2
BRANCH   1  26
ATOM     26  C   UNL A   1      39.306  19.330  25.725  1.00  0.00     0.261 C 
BRANCH  26  27
ATOM     27  O   UNL A   1      40.086  20.499  25.895  1.00  0.00    -0.460 OA
BRANCH  27  28
ATOM     28  C   UNL A   1      40.637  20.604  27.125  1.00  0.00     0.338 C 
ATOM     29  O   UNL A   1      40.833  19.712  27.931  1.00  0.00    -0.246 OA
BRANCH  28  30
ATOM     30  C   UNL A   1      41.003  22.014  27.332  1.00  0.00     0.060 A 
ATOM     31  C   UNL A   1      40.428  22.967  26.487  1.00  0.00     0.016 A 
ATOM     32  C   UNL A   1      41.849  22.397  28.381  1.00  0.00     0.016 A 
ATOM     33  C   UNL A   1      40.639  24.317  26.738  1.00  0.00     0.010 A 
ATOM     34  C   UNL A   1      42.083  23.746  28.614  1.00  0.00     0.010 A 
ATOM     35  C   UNL A   1      41.466  24.707  27.801  1.00  0.00    -0.014 A 
BRANCH  35  36
ATOM     36  C   UNL A   1      41.809  26.127  27.974  1.00  0.00     0.031 A 
ATOM     37  C   UNL A   1      43.138  26.585  27.462  1.00  0.00     0.074 A 
ATOM     38  C   UNL A   1      40.954  26.968  28.581  1.00  0.00     0.049 A 
ATOM     39  N   UNL A   1      43.687  27.765  27.540  1.00  0.00    -0.248 NA
ATOM     40  C   UNL A   1      43.958  25.575  26.770  1.00  0.00     0.031 C 
ATOM     41  C   UNL A   1      39.622  26.610  29.074  1.00  0.00     0.029 A 
ATOM     42  N   UNL A   1      41.082  28.295  28.896  1.00  0.00    -0.354 N 
ATOM     43  C   UNL A   1      44.914  27.644  26.903  1.00  0.00     0.074 A 
ATOM     44  C   UNL A   1      45.041  26.273  26.465  1.00  0.00     0.031 C 
ATOM     45  C   UNL A   1      39.063  27.693  29.642  1.00  0.00     0.029 A 
ATOM     46  C   UNL A   1      40.012  28.804  29.596  1.00  0.00     0.049 A 
ATOM     47  H   UNL A   1      41.866  28.834  28.645  1.00  0.00     0.167 HD
ATOM     48  C   UNL A   1      45.848  28.602  26.707  1.00  0.00     0.034 A 
ATOM     49  C   UNL A   1      39.847  30.017  30.164  1.00  0.00     0.034 A 
ATOM     50  C   UNL A   1      45.709  29.951  27.187  1.00  0.00     0.049 A 
ATOM     51  C   UNL A   1      40.963  31.032  30.024  1.00  0.00     0.074 A 
ATOM     52  C   UNL A   1      46.586  31.008  27.033  1.00  0.00     0.029 A 
ATOM     53  N   UNL A   1      44.640  30.423  27.937  1.00  0.00    -0.354 N 
ATOM     54  N   UNL A   1      42.103  30.924  29.376  1.00  0.00    -0.248 NA
ATOM     55  C   UNL A   1      40.773  32.328  30.686  1.00  0.00     0.031 C 
ATOM     56  C   UNL A   1      46.098  32.087  27.773  1.00  0.00     0.029 A 
ATOM     57  C   UNL A   1      44.864  31.739  28.302  1.00  0.00     0.049 A 
ATOM     58  H   UNL A   1      43.841  29.899  28.175  1.00  0.00     0.167 HD
ATOM     59  C   UNL A   1      42.745  32.150  29.532  1.00  0.00     0.074 A 
ATOM     60  C   UNL A   1      41.856  32.988  30.307  1.00  0.00     0.031 C 
ATOM     61  C   UNL A   1      43.962  32.552  29.081  1.00  0.00     0.034 A 
BRANCH  48  62
ATOM     62  C   UNL A   1      47.121  28.207  26.011  1.00  0.00     0.023 A 
ATOM     63  C   UNL A   1      47.234  28.211  24.612  1.00  0.00     0.031 A 
ATOM     64  C   UNL A   1      48.245  27.832  26.768  1.00  0.00     0.131 A 
ATOM     65  C   UNL A   1      48.437  27.810  24.010  1.00  0.00     0.055 A 
ATOM     66  C   UNL A   1      49.460  27.509  26.166  1.00  0.00     0.041 A 
ATOM     67  F   UNL A   1      48.177  27.774  28.108  1.00  0.00    -0.206 F 
ATOM     68  C   UNL A   1      49.560  27.491  24.779  1.00  0.00     0.022 A 
BRANCH  65  69
ATOM     69  S   UNL A   1      48.479  27.599  22.211  1.00  0.00     0.124 S 
ATOM     70  O   UNL A   1      47.217  28.218  21.812  1.00  0.00    -0.237 OA
ATOM     71  O   UNL A   1      49.689  28.320  21.836  1.00  0.00    -0.237 OA
ATOM     72  O   UNL A   1      48.537  26.149  22.037  1.00  0.00    -0.744 OA
ENDBRANCH  65  69
ENDBRANCH  48  62
BRANCH  49  73
ATOM     73  C   UNL A   1      38.633  30.336  30.975  1.00  0.00     0.023 A 
ATOM     74  C   UNL A   1      37.530  30.991  30.405  1.00  0.00     0.031 A 
ATOM     75  C   UNL A   1      38.604  30.097  32.362  1.00  0.00     0.131 A 
ATOM     76  C   UNL A   1      36.489  31.458  31.224  1.00  0.00     0.055 A 
ATOM     77  C   UNL A   1      37.529  30.492  33.161  1.00  0.00     0.041 A 
ATOM     78  F   UNL A   1      39.633  29.486  32.970  1.00  0.00    -0.206 F 
ATOM     79  C   UNL A   1      36.471  31.196  32.596  1.00  0.00     0.022 A 
BRANCH  76  80
ATOM     80  S   UNL A   1      35.238  32.554  30.496  1.00  0.00     0.124 S 
ATOM     81  O   UNL A   1      34.268  32.652  31.581  1.00  0.00    -0.237 OA
ATOM     82  O   UNL A   1      36.016  33.757  30.218  1.00  0.00    -0.237 OA
ATOM     83  O   UNL A   1      34.787  31.818  29.317  1.00  0.00    -0.744 OA
ENDBRANCH  76  80
ENDBRANCH  49  73
BRANCH  61  84
ATOM     84  C   UNL A   1      44.380  33.970  29.386  1.00  0.00     0.023 A 
ATOM     85  C   UNL A   1      44.092  35.028  28.508  1.00  0.00     0.031 A 
ATOM     86  C   UNL A   1      45.064  34.268  30.579  1.00  0.00     0.131 A 
ATOM     87  C   UNL A   1      44.539  36.323  28.805  1.00  0.00     0.055 A 
ATOM     88  C   UNL A   1      45.435  35.571  30.907  1.00  0.00     0.041 A 
ATOM     89  F   UNL A   1      45.370  33.296  31.453  1.00  0.00    -0.206 F 
ATOM     90  C   UNL A   1      45.185  36.606  30.011  1.00  0.00     0.022 A 
BRANCH  87  91
ATOM     91  S   UNL A   1      44.360  37.613  27.544  1.00  0.00     0.124 S 
ATOM     92  O   UNL A   1      45.585  37.450  26.770  1.00  0.00    -0.237 OA
ATOM     93  O   UNL A   1      43.125  37.223  26.871  1.00  0.00    -0.237 OA
ATOM     94  O   UNL A   1      44.277  38.845  28.325  1.00  0.00    -0.744 OA
ENDBRANCH  87  91
ENDBRANCH  61  84
ENDBRANCH  35  36
ENDBRANCH  28  30
ENDBRANCH  27  28
ENDBRANCH  26  27
ENDBRANCH   1  26
TORSDOF 19
ENDMDL
MODEL 3
REMARK VINA RESULT:     -11.8      5.068      8.178
REMARK SMILES O=C(OCCOCCOC(=O)c1ccc(-c2c3nc(c(-c4cc(S(=O)(=O)[O-])ccc4F)c4ccc([nH]4)c(-c4cc(S(=O)(=O)[O-])ccc4F)c4nc(c(-c5cc(S(=O)(=O)[O-])ccc5F)c5ccc2[nH]5)C=C4)C=C3)cc1)C1=Cc2cc(C(F)(F)F)ccc2O[C@@H]1C(F)(F)F
REMARK SMILES IDX 7 1 6 2 5 3 4 4 3 5 2 6 1 7 75 8 76 9 88 10 77 11 87 12
REMARK SMILES IDX 78 13 86 14 79 15 85 16 84 17 89 18 90 19 91 20 92 21 80 22
REMARK SMILES IDX 81 23 82 24 83 25 8 26 9 27 10 28 11 29 12 30 13 31 74 32
REMARK SMILES IDX 14 33 73 34 15 35 16 36 17 37 67 38 18 39 72 40 66 41 68 42
REMARK SMILES IDX 19 43 71 44 65 45 64 46 20 48 52 49 32 50 51 51 33 52 36 53
REMARK SMILES IDX 50 54 69 55 34 56 35 57 49 59 70 60 37 61 21 62 22 63 30 64
REMARK SMILES IDX 23 65 29 66 31 67 28 68 24 69 25 70 26 71 27 72 53 73 54 74
REMARK SMILES IDX 62 75 55 76 61 77 63 78 60 79 56 80 57 81 58 82 59 83 38 84
REMARK SMILES IDX 39 85 47 86 40 87 46 88 48 89 45 90 41 91 42 92 43 93 44 94
REMARK H PARENT 68 47 36 58
REMARK Flexibility Score: inf
ROOT
ATOM      1  C   UNL A   1      35.618  20.371  25.010  1.00  0.00     0.202 C 
ENDROOT
BRANCH   1   2
ATOM      2  O   UNL A   1      34.896  21.434  24.356  1.00  0.00    -0.374 OA
BRANCH   2   3
ATOM      3  C   UNL A   1      35.346  22.847  23.688  1.00  0.00     0.202 C 
BRANCH   3   4
ATOM      4  C   UNL A   1      34.192  24.423  22.737  1.00  0.00     0.261 C 
BRANCH   4   5
ATOM      5  O   UNL A   1      32.824  24.961  23.190  1.00  0.00    -0.460 OA
BRANCH   5   6
ATOM      6  C   UNL A   1      32.821  26.290  23.327  1.00  0.00     0.338 C 
ATOM      7  O   UNL A   1      33.371  27.131  22.663  1.00  0.00    -0.246 OA
BRANCH   6   8
ATOM      8  C   UNL A   1      32.301  26.304  24.677  1.00  0.00     0.087 C 
ATOM      9  C   UNL A   1      33.326  26.730  25.649  1.00  0.00     0.027 C 
ATOM     10  C   UNL A   1      30.692  27.293  24.265  1.00  0.00     0.316 C 
ATOM     11  C   UNL A   1      33.347  28.356  26.428  1.00  0.00     0.018 A 
ATOM     12  O   UNL A   1      30.728  29.070  25.034  1.00  0.00    -0.475 OA
ATOM     13  C   UNL A   1      34.417  28.701  27.204  1.00  0.00     0.025 A 
ATOM     14  C   UNL A   1      32.152  29.560  26.072  1.00  0.00     0.128 A 
ATOM     15  C   UNL A   1      34.466  30.052  27.622  1.00  0.00     0.056 A 
ATOM     16  C   UNL A   1      32.330  30.869  26.398  1.00  0.00     0.048 A 
ATOM     17  C   UNL A   1      33.498  31.075  27.191  1.00  0.00     0.017 A 
BRANCH  10  18
ATOM     18  C   UNL A   1      29.686  26.064  24.449  1.00  0.00     0.430 C 
ATOM     19  F   UNL A   1      29.621  25.529  25.680  1.00  0.00    -0.167 F 
ATOM     20  F   UNL A   1      28.424  26.547  24.224  1.00  0.00    -0.167 F 
ATOM     21  F   UNL A   1      29.823  25.066  23.546  1.00  0.00    -0.167 F 
ENDBRANCH  10  18
BRANCH  15  22
ATOM     22  C   UNL A   1      35.611  30.404  28.568  1.00  0.00     0.416 C 
ATOM     23  F   UNL A   1      35.971  29.333  29.337  1.00  0.00    -0.166 F 
ATOM     24  F   UNL A   1      36.741  30.761  27.897  1.00  0.00    -0.166 F 
ATOM     25  F   UNL A   1      35.337  31.411  29.434  1.00  0.00    -0.166 F 
ENDBRANCH  15  22
ENDBRANCH   6   8
ENDBRANCH   5   6
ENDBRANCH   4   5
ENDBRANCH   3   4
ENDBRANCH   2   3
ENDBRANCH   1   2
BRANCH   1  26
ATOM     26  C   UNL A   1      37.141  20.395  25.001  1.00  0.00     0.261 C 
BRANCH  26  27
ATOM     27  O   UNL A   1      37.682  21.490  25.715  1.00  0.00    -0.460 OA
BRANCH  27  28
ATOM     28  C   UNL A   1      38.954  21.288  26.126  1.00  0.00     0.338 C 
ATOM     29  O   UNL A   1      39.552  20.230  26.201  1.00  0.00    -0.246 OA
BRANCH  28  30
ATOM     30  C   UNL A   1      39.532  22.601  26.453  1.00  0.00     0.060 A 
ATOM     31  C   UNL A   1      40.716  22.626  27.193  1.00  0.00     0.016 A 
ATOM     32  C   UNL A   1      38.951  23.787  25.982  1.00  0.00     0.016 A 
ATOM     33  C   UNL A   1      41.366  23.836  27.401  1.00  0.00     0.010 A 
ATOM     34  C   UNL A   1      39.586  25.000  26.215  1.00  0.00     0.010 A 
ATOM     35  C   UNL A   1      40.802  25.022  26.912  1.00  0.00    -0.014 A 
BRANCH  35  36
ATOM     36  C   UNL A   1      41.410  26.317  27.260  1.00  0.00     0.031 A 
ATOM     37  C   UNL A   1      42.789  26.593  26.751  1.00  0.00     0.074 A 
ATOM     38  C   UNL A   1      40.741  27.203  28.018  1.00  0.00     0.049 A 
ATOM     39  N   UNL A   1      43.551  27.629  26.962  1.00  0.00    -0.248 NA
ATOM     40  C   UNL A   1      43.388  25.561  25.888  1.00  0.00     0.031 C 
ATOM     41  C   UNL A   1      39.378  27.026  28.523  1.00  0.00     0.029 A 
ATOM     42  N   UNL A   1      41.124  28.425  28.506  1.00  0.00    -0.354 N 
ATOM     43  C   UNL A   1      44.719  27.380  26.255  1.00  0.00     0.074 A 
ATOM     44  C   UNL A   1      44.576  26.085  25.628  1.00  0.00     0.031 C 
ATOM     45  C   UNL A   1      39.046  28.101  29.261  1.00  0.00     0.029 A 
ATOM     46  C   UNL A   1      40.185  29.014  29.321  1.00  0.00     0.049 A 
ATOM     47  H   UNL A   1      41.989  28.843  28.292  1.00  0.00     0.167 HD
ATOM     48  C   UNL A   1      45.811  28.169  26.147  1.00  0.00     0.034 A 
ATOM     49  C   UNL A   1      40.264  30.142  30.057  1.00  0.00     0.034 A 
ATOM     50  C   UNL A   1      45.938  29.438  26.813  1.00  0.00     0.049 A 
ATOM     51  C   UNL A   1      41.547  30.946  30.002  1.00  0.00     0.074 A 
ATOM     52  C   UNL A   1      46.995  30.328  26.762  1.00  0.00     0.029 A 
ATOM     53  N   UNL A   1      44.995  29.984  27.673  1.00  0.00    -0.354 N 
ATOM     54  N   UNL A   1      42.630  30.727  29.291  1.00  0.00    -0.248 NA
ATOM     55  C   UNL A   1      41.618  32.147  30.845  1.00  0.00     0.031 C 
ATOM     56  C   UNL A   1      46.735  31.360  27.666  1.00  0.00     0.029 A 
ATOM     57  C   UNL A   1      45.470  31.171  28.203  1.00  0.00     0.049 A 
ATOM     58  H   UNL A   1      44.118  29.586  27.875  1.00  0.00     0.167 HD
ATOM     59  C   UNL A   1      43.495  31.780  29.581  1.00  0.00     0.074 A 
ATOM     60  C   UNL A   1      42.797  32.646  30.507  1.00  0.00     0.031 C 
ATOM     61  C   UNL A   1      44.755  32.013  29.130  1.00  0.00     0.034 A 
BRANCH  48  62
ATOM     62  C   UNL A   1      46.971  27.653  25.341  1.00  0.00     0.023 A 
ATOM     63  C   UNL A   1      47.148  27.995  23.991  1.00  0.00     0.031 A 
ATOM     64  C   UNL A   1      47.922  26.811  25.943  1.00  0.00     0.131 A 
ATOM     65  C   UNL A   1      48.234  27.467  23.276  1.00  0.00     0.055 A 
ATOM     66  C   UNL A   1      49.040  26.352  25.249  1.00  0.00     0.041 A 
ATOM     67  F   UNL A   1      47.777  26.422  27.220  1.00  0.00    -0.206 F 
ATOM     68  C   UNL A   1      49.198  26.675  23.905  1.00  0.00     0.022 A 
BRANCH  65  69
ATOM     69  S   UNL A   1      48.307  27.735  21.485  1.00  0.00     0.124 S 
ATOM     70  O   UNL A   1      48.642  26.398  21.001  1.00  0.00    -0.237 OA
ATOM     71  O   UNL A   1      46.960  28.204  21.181  1.00  0.00    -0.237 OA
ATOM     72  O   UNL A   1      49.365  28.731  21.330  1.00  0.00    -0.744 OA
ENDBRANCH  65  69
ENDBRANCH  48  62
BRANCH  49  73
ATOM     73  C   UNL A   1      39.150  30.558  30.964  1.00  0.00     0.023 A 
ATOM     74  C   UNL A   1      38.393  31.712  30.703  1.00  0.00     0.031 A 
ATOM     75  C   UNL A   1      38.902  29.874  32.168  1.00  0.00     0.131 A 
ATOM     76  C   UNL A   1      37.490  32.192  31.666  1.00  0.00     0.055 A 
ATOM     77  C   UNL A   1      37.945  30.311  33.087  1.00  0.00     0.041 A 
ATOM     78  F   UNL A   1      39.601  28.771  32.482  1.00  0.00    -0.206 F 
ATOM     79  C   UNL A   1      37.247  31.489  32.848  1.00  0.00     0.022 A 
BRANCH  76  80
ATOM     80  S   UNL A   1      36.758  33.835  31.423  1.00  0.00     0.124 S 
ATOM     81  O   UNL A   1      37.430  34.277  30.206  1.00  0.00    -0.237 OA
ATOM     82  O   UNL A   1      35.340  33.518  31.297  1.00  0.00    -0.237 OA
ATOM     83  O   UNL A   1      37.129  34.555  32.640  1.00  0.00    -0.744 OA
ENDBRANCH  76  80
ENDBRANCH  49  73
BRANCH  61  84
ATOM     84  C   UNL A   1      45.438  33.272  29.605  1.00  0.00     0.023 A 
ATOM     85  C   UNL A   1      45.321  34.484  28.904  1.00  0.00     0.031 A 
ATOM     86  C   UNL A   1      46.207  33.262  30.784  1.00  0.00     0.131 A 
ATOM     87  C   UNL A   1      46.010  35.620  29.352  1.00  0.00     0.055 A 
ATOM     88  C   UNL A   1      46.824  34.415  31.268  1.00  0.00     0.041 A 
ATOM     89  F   UNL A   1      46.358  32.132  31.492  1.00  0.00    -0.206 F 
ATOM     90  C   UNL A   1      46.739  35.600  30.544  1.00  0.00     0.022 A 
BRANCH  87  91
ATOM     91  S   UNL A   1      46.029  37.095  28.299  1.00  0.00     0.124 S 
ATOM     92  O   UNL A   1      45.262  36.648  27.142  1.00  0.00    -0.237 OA
ATOM     93  O   UNL A   1      45.381  38.092  29.146  1.00  0.00    -0.237 OA
ATOM     94  O   UNL A   1      47.451  37.321  28.052  1.00  0.00    -0.744 OA
ENDBRANCH  87  91
ENDBRANCH  61  84
ENDBRANCH  35  36
ENDBRANCH  28  30
ENDBRANCH  27  28
ENDBRANCH  26  27
ENDBRANCH   1  26
TORSDOF 19
ENDMDL
