MODEL 1
REMARK VINA RESULT:     -10.7      0.000      0.000
REMARK SMILES Cn1ccc(S(=O)(=O)N2CCO[C@H](CC(=O)OCCOCCOC(=O)c3ccc(-c4c5nc(c(-c6cc(S(=O)(=O)[O-])ccc6F)c6ccc([nH]6)c(-c6cc(S(=O)(=O)[O-])ccc6F)c6nc(c(-c7cc(S(=O)(=O)[O-])ccc7F)c7ccc4[nH]7)C=C6)C=C5)cc3)C2)c1
REMARK SMILES IDX 20 1 19 2 18 3 17 4 15 5 16 6 14 7 13 8 9 9 10 10 89 11
REMARK SMILES IDX 11 12 12 13 6 14 7 15 8 16 5 17 1 18 2 19 3 20 90 21 4 22
REMARK SMILES IDX 21 23 22 24 23 25 24 26 25 27 26 28 27 29 88 30 28 31 87 32
REMARK SMILES IDX 29 33 30 34 31 35 81 36 32 37 86 38 80 39 82 40 33 41 85 42
REMARK SMILES IDX 79 43 78 44 34 46 66 47 46 48 65 49 47 50 50 51 64 52 83 53
REMARK SMILES IDX 48 54 49 55 63 57 84 58 51 59 35 60 36 61 44 62 37 63 43 64
REMARK SMILES IDX 45 65 42 66 38 67 39 68 40 69 41 70 67 71 68 72 76 73 69 74
REMARK SMILES IDX 75 75 77 76 74 77 70 78 71 79 72 80 73 81 52 82 53 83 61 84
REMARK SMILES IDX 54 85 60 86 62 87 59 88 55 89 56 90 57 91 58 92
REMARK H PARENT 82 45 50 56
REMARK Flexibility Score: inf
ROOT
ATOM      1  O   UNL A   1      31.959  30.559  25.637  1.00  0.00    -0.374 OA
ENDROOT
BRANCH   1   2
ATOM      2  C   UNL A   1      32.891  29.810  26.422  1.00  0.00     0.202 C 
BRANCH   2   3
ATOM      3  C   UNL A   1      32.313  28.615  27.186  1.00  0.00     0.261 C 
BRANCH   3   4
ATOM      4  O   UNL A   1      32.760  27.363  26.619  1.00  0.00    -0.463 OA
BRANCH   4   5
ATOM      5  C   UNL A   1      31.812  26.407  26.450  1.00  0.00     0.308 C 
ATOM      6  O   UNL A   1      30.619  26.542  26.689  1.00  0.00    -0.252 OA
BRANCH   5   7
ATOM      7  C   UNL A   1      32.399  25.092  26.008  1.00  0.00     0.156 C 
BRANCH   7   8
ATOM      8  C   UNL A   1      31.465  24.154  25.232  1.00  0.00     0.144 C 
ATOM      9  N   UNL A   1      32.995  22.253  24.907  1.00  0.00    -0.193 NA
ATOM     10  C   UNL A   1      33.065  22.504  23.458  1.00  0.00     0.131 C 
ATOM     11  C   UNL A   1      31.710  22.649  25.503  1.00  0.00     0.135 C 
ATOM     12  C   UNL A   1      32.806  23.997  23.227  1.00  0.00     0.177 C 
ATOM     13  O   UNL A   1      31.560  24.423  23.807  1.00  0.00    -0.375 OA
BRANCH   9  14
ATOM     14  S   UNL A   1      33.930  21.046  25.589  1.00  0.00     0.244 S 
ATOM     15  O   UNL A   1      33.955  19.908  24.701  1.00  0.00    -0.207 OA
ATOM     16  O   UNL A   1      33.625  20.935  26.999  1.00  0.00    -0.207 OA
BRANCH  14  17
ATOM     17  C   UNL A   1      35.553  21.648  25.568  1.00  0.00     0.100 A 
ATOM     18  C   UNL A   1      38.131  24.082  26.287  1.00  0.00     0.149 C 
ATOM     19  N   UNL A   1      37.321  22.958  25.876  1.00  0.00    -0.356 N 
ATOM     20  C   UNL A   1      37.765  21.846  25.210  1.00  0.00     0.086 A 
ATOM     21  C   UNL A   1      35.978  22.852  26.095  1.00  0.00     0.106 A 
ATOM     22  C   UNL A   1      36.685  21.008  25.009  1.00  0.00     0.041 A 
ENDBRANCH  14  17
ENDBRANCH   9  14
ENDBRANCH   7   8
ENDBRANCH   5   7
ENDBRANCH   4   5
ENDBRANCH   3   4
ENDBRANCH   2   3
ENDBRANCH   1   2
BRANCH   1  23
ATOM     23  C   UNL A   1      31.147  31.498  26.334  1.00  0.00     0.202 C 
BRANCH  23  24
ATOM     24  C   UNL A   1      31.759  32.882  26.577  1.00  0.00     0.261 C 
BRANCH  24  25
ATOM     25  O   UNL A   1      32.242  33.026  27.923  1.00  0.00    -0.460 OA
BRANCH  25  26
ATOM     26  C   UNL A   1      33.289  33.881  28.043  1.00  0.00     0.338 C 
ATOM     27  O   UNL A   1      33.235  35.099  28.077  1.00  0.00    -0.246 OA
BRANCH  26  28
ATOM     28  C   UNL A   1      34.534  33.138  28.322  1.00  0.00     0.060 A 
ATOM     29  C   UNL A   1      34.395  31.859  28.878  1.00  0.00     0.016 A 
ATOM     30  C   UNL A   1      35.802  33.685  28.113  1.00  0.00     0.016 A 
ATOM     31  C   UNL A   1      35.520  31.147  29.286  1.00  0.00     0.010 A 
ATOM     32  C   UNL A   1      36.932  32.970  28.532  1.00  0.00     0.010 A 
ATOM     33  C   UNL A   1      36.792  31.718  29.158  1.00  0.00    -0.014 A 
BRANCH  33  34
ATOM     34  C   UNL A   1      37.940  31.069  29.839  1.00  0.00     0.031 A 
ATOM     35  C   UNL A   1      38.210  31.414  31.280  1.00  0.00     0.074 A 
ATOM     36  C   UNL A   1      38.688  30.147  29.205  1.00  0.00     0.049 A 
ATOM     37  N   UNL A   1      39.137  30.962  32.083  1.00  0.00    -0.248 NA
ATOM     38  C   UNL A   1      37.312  32.405  31.897  1.00  0.00     0.031 C 
ATOM     39  C   UNL A   1      38.490  29.704  27.826  1.00  0.00     0.029 A 
ATOM     40  N   UNL A   1      39.765  29.417  29.640  1.00  0.00    -0.354 N 
ATOM     41  C   UNL A   1      38.942  31.616  33.295  1.00  0.00     0.074 A 
ATOM     42  C   UNL A   1      37.824  32.516  33.114  1.00  0.00     0.031 C 
ATOM     43  C   UNL A   1      39.422  28.783  27.525  1.00  0.00     0.029 A 
ATOM     44  C   UNL A   1      40.300  28.592  28.677  1.00  0.00     0.049 A 
ATOM     45  H   UNL A   1      40.122  29.476  30.556  1.00  0.00     0.167 HD
ATOM     46  C   UNL A   1      39.631  31.475  34.454  1.00  0.00     0.034 A 
ATOM     47  C   UNL A   1      41.385  27.791  28.720  1.00  0.00     0.034 A 
ATOM     48  C   UNL A   1      40.738  30.567  34.622  1.00  0.00     0.049 A 
ATOM     49  C   UNL A   1      42.172  27.700  30.008  1.00  0.00     0.074 A 
ATOM     50  C   UNL A   1      41.478  30.311  35.763  1.00  0.00     0.029 A 
ATOM     51  N   UNL A   1      41.275  29.776  33.614  1.00  0.00    -0.354 N 
ATOM     52  N   UNL A   1      41.950  28.294  31.158  1.00  0.00    -0.248 NA
ATOM     53  C   UNL A   1      43.349  26.820  30.005  1.00  0.00     0.031 C 
ATOM     54  C   UNL A   1      42.504  29.422  35.430  1.00  0.00     0.029 A 
ATOM     55  C   UNL A   1      42.361  29.064  34.098  1.00  0.00     0.049 A 
ATOM     56  H   UNL A   1      40.935  29.728  32.692  1.00  0.00     0.167 HD
ATOM     57  C   UNL A   1      42.938  27.830  32.023  1.00  0.00     0.074 A 
ATOM     58  C   UNL A   1      43.747  26.898  31.267  1.00  0.00     0.031 C 
ATOM     59  C   UNL A   1      43.157  28.140  33.327  1.00  0.00     0.034 A 
BRANCH  46  60
ATOM     60  C   UNL A   1      39.245  32.361  35.611  1.00  0.00     0.023 A 
ATOM     61  C   UNL A   1      39.696  33.688  35.718  1.00  0.00     0.031 A 
ATOM     62  C   UNL A   1      38.410  31.862  36.626  1.00  0.00     0.131 A 
ATOM     63  C   UNL A   1      39.347  34.454  36.843  1.00  0.00     0.055 A 
ATOM     64  C   UNL A   1      38.014  32.649  37.708  1.00  0.00     0.041 A 
ATOM     65  F   UNL A   1      37.970  30.594  36.585  1.00  0.00    -0.206 F 
ATOM     66  C   UNL A   1      38.490  33.951  37.826  1.00  0.00     0.022 A 
BRANCH  63  67
ATOM     67  S   UNL A   1      40.109  36.086  37.056  1.00  0.00     0.124 S 
ATOM     68  O   UNL A   1      39.332  36.631  38.167  1.00  0.00    -0.237 OA
ATOM     69  O   UNL A   1      41.498  35.751  37.351  1.00  0.00    -0.237 OA
ATOM     70  O   UNL A   1      39.886  36.740  35.768  1.00  0.00    -0.744 OA
ENDBRANCH  63  67
ENDBRANCH  46  60
BRANCH  47  71
ATOM     71  C   UNL A   1      41.833  27.043  27.507  1.00  0.00     0.023 A 
ATOM     72  C   UNL A   1      41.794  25.641  27.460  1.00  0.00     0.031 A 
ATOM     73  C   UNL A   1      42.390  27.722  26.408  1.00  0.00     0.131 A 
ATOM     74  C   UNL A   1      42.357  24.961  26.367  1.00  0.00     0.055 A 
ATOM     75  C   UNL A   1      42.895  27.044  25.298  1.00  0.00     0.041 A 
ATOM     76  F   UNL A   1      42.456  29.064  26.400  1.00  0.00    -0.206 F 
ATOM     77  C   UNL A   1      42.897  25.653  25.281  1.00  0.00     0.022 A 
BRANCH  74  78
ATOM     78  S   UNL A   1      42.479  23.152  26.438  1.00  0.00     0.124 S 
ATOM     79  O   UNL A   1      42.916  22.937  27.813  1.00  0.00    -0.237 OA
ATOM     80  O   UNL A   1      41.112  22.745  26.128  1.00  0.00    -0.237 OA
ATOM     81  O   UNL A   1      43.469  22.838  25.411  1.00  0.00    -0.744 OA
ENDBRANCH  74  78
ENDBRANCH  47  71
BRANCH  59  82
ATOM     82  C   UNL A   1      44.285  27.421  34.022  1.00  0.00     0.023 A 
ATOM     83  C   UNL A   1      44.078  26.218  34.719  1.00  0.00     0.031 A 
ATOM     84  C   UNL A   1      45.587  27.954  33.993  1.00  0.00     0.131 A 
ATOM     85  C   UNL A   1      45.143  25.617  35.406  1.00  0.00     0.055 A 
ATOM     86  C   UNL A   1      46.654  27.320  34.630  1.00  0.00     0.041 A 
ATOM     87  F   UNL A   1      45.840  29.100  33.342  1.00  0.00    -0.206 F 
ATOM     88  C   UNL A   1      46.433  26.151  35.352  1.00  0.00     0.022 A 
BRANCH  85  89
ATOM     89  S   UNL A   1      44.803  24.168  36.444  1.00  0.00     0.124 S 
ATOM     90  O   UNL A   1      44.049  24.755  37.547  1.00  0.00    -0.237 OA
ATOM     91  O   UNL A   1      44.046  23.308  35.542  1.00  0.00    -0.237 OA
ATOM     92  O   UNL A   1      46.135  23.678  36.795  1.00  0.00    -0.744 OA
ENDBRANCH  85  89
ENDBRANCH  59  82
ENDBRANCH  33  34
ENDBRANCH  26  28
ENDBRANCH  25  26
ENDBRANCH  24  25
ENDBRANCH  23  24
ENDBRANCH   1  23
TORSDOF 20
ENDMDL
MODEL 2
REMARK VINA RESULT:     -10.5      4.905     10.846
REMARK SMILES Cn1ccc(S(=O)(=O)N2CCO[C@H](CC(=O)OCCOCCOC(=O)c3ccc(-c4c5nc(c(-c6cc(S(=O)(=O)[O-])ccc6F)c6ccc([nH]6)c(-c6cc(S(=O)(=O)[O-])ccc6F)c6nc(c(-c7cc(S(=O)(=O)[O-])ccc7F)c7ccc4[nH]7)C=C6)C=C5)cc3)C2)c1
REMARK SMILES IDX 20 1 19 2 18 3 17 4 15 5 16 6 14 7 13 8 9 9 10 10 89 11
REMARK SMILES IDX 11 12 12 13 6 14 7 15 8 16 5 17 1 18 2 19 3 20 90 21 4 22
REMARK SMILES IDX 21 23 22 24 23 25 24 26 25 27 26 28 27 29 88 30 28 31 87 32
REMARK SMILES IDX 29 33 30 34 31 35 81 36 32 37 86 38 80 39 82 40 33 41 85 42
REMARK SMILES IDX 79 43 78 44 34 46 66 47 46 48 65 49 47 50 50 51 64 52 83 53
REMARK SMILES IDX 48 54 49 55 63 57 84 58 51 59 35 60 36 61 44 62 37 63 43 64
REMARK SMILES IDX 45 65 42 66 38 67 39 68 40 69 41 70 67 71 68 72 76 73 69 74
REMARK SMILES IDX 75 75 77 76 74 77 70 78 71 79 72 80 73 81 52 82 53 83 61 84
REMARK SMILES IDX 54 85 60 86 62 87 59 88 55 89 56 90 57 91 58 92
REMARK H PARENT 82 45 50 56
REMARK Flexibility Score: inf
ROOT
ATOM      1  O   UNL A   1      36.146  22.511  24.367  1.00  0.00    -0.374 OA
ENDROOT
BRANCH   1   2
ATOM      2  C   UNL A   1      35.317  23.503  24.979  1.00  0.00     0.202 C 
BRANCH   2   3
ATOM      3  C   UNL A   1      33.807  23.264  24.885  1.00  0.00     0.261 C 
BRANCH   3   4
ATOM      4  O   UNL A   1      33.064  24.398  25.382  1.00  0.00    -0.463 OA
BRANCH   4   5
ATOM      5  C   UNL A   1      33.492  25.621  24.981  1.00  0.00     0.308 C 
ATOM      6  O   UNL A   1      33.950  25.884  23.876  1.00  0.00    -0.252 OA
BRANCH   5   7
ATOM      7  C   UNL A   1      33.429  26.641  26.088  1.00  0.00     0.156 C 
BRANCH   7   8
ATOM      8  C   UNL A   1      32.030  27.118  26.498  1.00  0.00     0.144 C 
ATOM      9  N   UNL A   1      31.407  28.327  24.447  1.00  0.00    -0.193 NA
ATOM     10  C   UNL A   1      31.464  29.623  25.145  1.00  0.00     0.131 C 
ATOM     11  C   UNL A   1      31.023  27.212  25.325  1.00  0.00     0.135 C 
ATOM     12  C   UNL A   1      32.458  29.488  26.304  1.00  0.00     0.177 C 
ATOM     13  O   UNL A   1      32.120  28.398  27.179  1.00  0.00    -0.375 OA
BRANCH   9  14
ATOM     14  S   UNL A   1      31.101  28.280  22.804  1.00  0.00     0.244 S 
ATOM     15  O   UNL A   1      30.640  26.959  22.446  1.00  0.00    -0.207 OA
ATOM     16  O   UNL A   1      32.162  28.960  22.094  1.00  0.00    -0.207 OA
BRANCH  14  17
ATOM     17  C   UNL A   1      29.725  29.301  22.559  1.00  0.00     0.100 A 
ATOM     18  C   UNL A   1      28.026  32.219  21.258  1.00  0.00     0.149 C 
ATOM     19  N   UNL A   1      28.441  30.987  21.891  1.00  0.00    -0.356 N 
ATOM     20  C   UNL A   1      27.641  30.148  22.621  1.00  0.00     0.086 A 
ATOM     21  C   UNL A   1      29.709  30.486  21.849  1.00  0.00     0.106 A 
ATOM     22  C   UNL A   1      28.413  29.084  23.047  1.00  0.00     0.041 A 
ENDBRANCH  14  17
ENDBRANCH   9  14
ENDBRANCH   7   8
ENDBRANCH   5   7
ENDBRANCH   4   5
ENDBRANCH   3   4
ENDBRANCH   2   3
ENDBRANCH   1   2
BRANCH   1  23
ATOM     23  C   UNL A   1      36.057  21.192  24.894  1.00  0.00     0.202 C 
BRANCH  23  24
ATOM     24  C   UNL A   1      37.380  20.437  25.070  1.00  0.00     0.261 C 
BRANCH  24  25
ATOM     25  O   UNL A   1      38.511  21.322  25.032  1.00  0.00    -0.460 OA
BRANCH  25  26
ATOM     26  C   UNL A   1      39.424  21.090  26.010  1.00  0.00     0.338 C 
ATOM     27  O   UNL A   1      39.971  20.029  26.259  1.00  0.00    -0.246 OA
BRANCH  26  28
ATOM     28  C   UNL A   1      39.831  22.358  26.647  1.00  0.00     0.060 A 
ATOM     29  C   UNL A   1      39.222  23.528  26.174  1.00  0.00     0.016 A 
ATOM     30  C   UNL A   1      40.822  22.424  27.630  1.00  0.00     0.016 A 
ATOM     31  C   UNL A   1      39.643  24.772  26.635  1.00  0.00     0.010 A 
ATOM     32  C   UNL A   1      41.251  23.677  28.086  1.00  0.00     0.010 A 
ATOM     33  C   UNL A   1      40.692  24.856  27.559  1.00  0.00    -0.014 A 
BRANCH  33  34
ATOM     34  C   UNL A   1      41.304  26.181  27.828  1.00  0.00     0.031 A 
ATOM     35  C   UNL A   1      42.663  26.477  27.250  1.00  0.00     0.074 A 
ATOM     36  C   UNL A   1      40.638  27.122  28.523  1.00  0.00     0.049 A 
ATOM     37  N   UNL A   1      43.383  27.565  27.334  1.00  0.00    -0.248 NA
ATOM     38  C   UNL A   1      43.295  25.397  26.473  1.00  0.00     0.031 C 
ATOM     39  C   UNL A   1      39.300  26.960  29.091  1.00  0.00     0.029 A 
ATOM     40  N   UNL A   1      40.995  28.401  28.867  1.00  0.00    -0.354 N 
ATOM     41  C   UNL A   1      44.554  27.301  26.630  1.00  0.00     0.074 A 
ATOM     42  C   UNL A   1      44.458  25.941  26.148  1.00  0.00     0.031 C 
ATOM     43  C   UNL A   1      38.953  28.096  29.721  1.00  0.00     0.029 A 
ATOM     44  C   UNL A   1      40.052  29.054  29.627  1.00  0.00     0.049 A 
ATOM     45  H   UNL A   1      41.847  28.814  28.594  1.00  0.00     0.167 HD
ATOM     46  C   UNL A   1      45.608  28.122  26.405  1.00  0.00     0.034 A 
ATOM     47  C   UNL A   1      40.086  30.277  30.197  1.00  0.00     0.034 A 
ATOM     48  C   UNL A   1      45.685  29.479  26.885  1.00  0.00     0.049 A 
ATOM     49  C   UNL A   1      41.303  31.148  29.979  1.00  0.00     0.074 A 
ATOM     50  C   UNL A   1      46.685  30.412  26.676  1.00  0.00     0.029 A 
ATOM     51  N   UNL A   1      44.729  30.093  27.683  1.00  0.00    -0.354 N 
ATOM     52  N   UNL A   1      42.384  30.899  29.276  1.00  0.00    -0.248 NA
ATOM     53  C   UNL A   1      41.297  32.469  30.622  1.00  0.00     0.031 C 
ATOM     54  C   UNL A   1      46.370  31.562  27.405  1.00  0.00     0.029 A 
ATOM     55  C   UNL A   1      45.136  31.376  28.009  1.00  0.00     0.049 A 
ATOM     56  H   UNL A   1      43.886  29.677  27.975  1.00  0.00     0.167 HD
ATOM     57  C   UNL A   1      43.168  32.047  29.365  1.00  0.00     0.074 A 
ATOM     58  C   UNL A   1      42.430  32.992  30.176  1.00  0.00     0.031 C 
ATOM     59  C   UNL A   1      44.386  32.303  28.822  1.00  0.00     0.034 A 
BRANCH  46  60
ATOM     60  C   UNL A   1      46.788  27.556  25.654  1.00  0.00     0.023 A 
ATOM     61  C   UNL A   1      47.072  27.920  24.326  1.00  0.00     0.031 A 
ATOM     62  C   UNL A   1      47.640  26.632  26.283  1.00  0.00     0.131 A 
ATOM     63  C   UNL A   1      48.154  27.325  23.657  1.00  0.00     0.055 A 
ATOM     64  C   UNL A   1      48.752  26.094  25.635  1.00  0.00     0.041 A 
ATOM     65  F   UNL A   1      47.401  26.232  27.543  1.00  0.00    -0.206 F 
ATOM     66  C   UNL A   1      49.009  26.433  24.309  1.00  0.00     0.022 A 
BRANCH  63  67
ATOM     67  S   UNL A   1      48.372  27.656  21.887  1.00  0.00     0.124 S 
ATOM     68  O   UNL A   1      47.062  28.191  21.523  1.00  0.00    -0.237 OA
ATOM     69  O   UNL A   1      49.478  28.607  21.876  1.00  0.00    -0.237 OA
ATOM     70  O   UNL A   1      48.677  26.340  21.327  1.00  0.00    -0.744 OA
ENDBRANCH  63  67
ENDBRANCH  46  60
BRANCH  47  71
ATOM     71  C   UNL A   1      38.966  30.749  31.064  1.00  0.00     0.023 A 
ATOM     72  C   UNL A   1      37.903  31.500  30.538  1.00  0.00     0.031 A 
ATOM     73  C   UNL A   1      38.990  30.527  32.453  1.00  0.00     0.131 A 
ATOM     74  C   UNL A   1      36.942  32.053  31.401  1.00  0.00     0.055 A 
ATOM     75  C   UNL A   1      38.000  31.030  33.299  1.00  0.00     0.041 A 
ATOM     76  F   UNL A   1      39.984  29.818  33.012  1.00  0.00    -0.206 F 
ATOM     77  C   UNL A   1      36.978  31.813  32.777  1.00  0.00     0.022 A 
BRANCH  74  78
ATOM     78  S   UNL A   1      35.707  33.191  30.712  1.00  0.00     0.124 S 
ATOM     79  O   UNL A   1      35.472  34.090  31.836  1.00  0.00    -0.237 OA
ATOM     80  O   UNL A   1      36.424  33.758  29.574  1.00  0.00    -0.237 OA
ATOM     81  O   UNL A   1      34.591  32.313  30.369  1.00  0.00    -0.744 OA
ENDBRANCH  74  78
ENDBRANCH  47  71
BRANCH  59  82
ATOM     82  C   UNL A   1      44.962  33.678  29.049  1.00  0.00     0.023 A 
ATOM     83  C   UNL A   1      44.593  34.776  28.254  1.00  0.00     0.031 A 
ATOM     84  C   UNL A   1      45.904  33.888  30.073  1.00  0.00     0.131 A 
ATOM     85  C   UNL A   1      45.202  36.023  28.458  1.00  0.00     0.055 A 
ATOM     86  C   UNL A   1      46.463  35.144  30.310  1.00  0.00     0.041 A 
ATOM     87  F   UNL A   1      46.292  32.874  30.862  1.00  0.00    -0.206 F 
ATOM     88  C   UNL A   1      46.123  36.218  29.492  1.00  0.00     0.022 A 
BRANCH  85  89
ATOM     89  S   UNL A   1      44.839  37.370  27.300  1.00  0.00     0.124 S 
ATOM     90  O   UNL A   1      44.934  38.545  28.161  1.00  0.00    -0.237 OA
ATOM     91  O   UNL A   1      45.897  37.222  26.307  1.00  0.00    -0.237 OA
ATOM     92  O   UNL A   1      43.492  37.059  26.822  1.00  0.00    -0.744 OA
ENDBRANCH  85  89
ENDBRANCH  59  82
ENDBRANCH  33  34
ENDBRANCH  26  28
ENDBRANCH  25  26
ENDBRANCH  24  25
ENDBRANCH  23  24
ENDBRANCH   1  23
TORSDOF 20
ENDMDL
MODEL 3
REMARK VINA RESULT:     -10.4      1.713      8.084
REMARK SMILES Cn1ccc(S(=O)(=O)N2CCO[C@H](CC(=O)OCCOCCOC(=O)c3ccc(-c4c5nc(c(-c6cc(S(=O)(=O)[O-])ccc6F)c6ccc([nH]6)c(-c6cc(S(=O)(=O)[O-])ccc6F)c6nc(c(-c7cc(S(=O)(=O)[O-])ccc7F)c7ccc4[nH]7)C=C6)C=C5)cc3)C2)c1
REMARK SMILES IDX 20 1 19 2 18 3 17 4 15 5 16 6 14 7 13 8 9 9 10 10 89 11
REMARK SMILES IDX 11 12 12 13 6 14 7 15 8 16 5 17 1 18 2 19 3 20 90 21 4 22
REMARK SMILES IDX 21 23 22 24 23 25 24 26 25 27 26 28 27 29 88 30 28 31 87 32
REMARK SMILES IDX 29 33 30 34 31 35 81 36 32 37 86 38 80 39 82 40 33 41 85 42
REMARK SMILES IDX 79 43 78 44 34 46 66 47 46 48 65 49 47 50 50 51 64 52 83 53
REMARK SMILES IDX 48 54 49 55 63 57 84 58 51 59 35 60 36 61 44 62 37 63 43 64
REMARK SMILES IDX 45 65 42 66 38 67 39 68 40 69 41 70 67 71 68 72 76 73 69 74
REMARK SMILES IDX 75 75 77 76 74 77 70 78 71 79 72 80 73 81 52 82 53 83 61 84
REMARK SMILES IDX 54 85 60 86 62 87 59 88 55 89 56 90 57 91 58 92
REMARK H PARENT 82 45 50 56
REMARK Flexibility Score: inf
ROOT
ATOM      1  O   UNL A   1      30.909  29.061  23.899  1.00  0.00    -0.374 OA
ENDROOT
BRANCH   1   2
ATOM      2  C   UNL A   1      30.533  27.762  23.434  1.00  0.00     0.202 C 
BRANCH   2   3
ATOM      3  C   UNL A   1      31.588  27.016  22.612  1.00  0.00     0.261 C 
BRANCH   3   4
ATOM      4  O   UNL A   1      32.216  25.971  23.386  1.00  0.00    -0.463 OA
BRANCH   4   5
ATOM      5  C   UNL A   1      33.377  25.471  22.893  1.00  0.00     0.308 C 
ATOM      6  O   UNL A   1      33.660  25.380  21.705  1.00  0.00    -0.252 OA
BRANCH   5   7
ATOM      7  C   UNL A   1      34.279  24.942  23.977  1.00  0.00     0.156 C 
BRANCH   7   8
ATOM      8  C   UNL A   1      35.196  23.774  23.592  1.00  0.00     0.144 C 
ATOM      9  N   UNL A   1      34.307  22.057  25.117  1.00  0.00    -0.193 NA
ATOM     10  C   UNL A   1      35.547  22.063  25.911  1.00  0.00     0.131 C 
ATOM     11  C   UNL A   1      34.526  22.381  23.699  1.00  0.00     0.135 C 
ATOM     12  C   UNL A   1      36.187  23.448  25.773  1.00  0.00     0.177 C 
ATOM     13  O   UNL A   1      36.406  23.804  24.396  1.00  0.00    -0.375 OA
BRANCH   9  14
ATOM     14  S   UNL A   1      33.014  21.114  25.599  1.00  0.00     0.244 S 
ATOM     15  O   UNL A   1      31.783  21.793  25.268  1.00  0.00    -0.207 OA
ATOM     16  O   UNL A   1      33.278  20.563  26.910  1.00  0.00    -0.207 OA
BRANCH  14  17
ATOM     17  C   UNL A   1      33.037  19.729  24.560  1.00  0.00     0.100 A 
ATOM     18  C   UNL A   1      34.335  16.563  23.385  1.00  0.00     0.149 C 
ATOM     19  N   UNL A   1      33.621  17.794  23.638  1.00  0.00    -0.356 N 
ATOM     20  C   UNL A   1      32.539  18.254  22.935  1.00  0.00     0.086 A 
ATOM     21  C   UNL A   1      33.936  18.682  24.624  1.00  0.00     0.106 A 
ATOM     22  C   UNL A   1      32.148  19.458  23.492  1.00  0.00     0.041 A 
ENDBRANCH  14  17
ENDBRANCH   9  14
ENDBRANCH   7   8
ENDBRANCH   5   7
ENDBRANCH   4   5
ENDBRANCH   3   4
ENDBRANCH   2   3
ENDBRANCH   1   2
BRANCH   1  23
ATOM     23  C   UNL A   1      31.284  29.166  25.268  1.00  0.00     0.202 C 
BRANCH  23  24
ATOM     24  C   UNL A   1      31.665  30.565  25.766  1.00  0.00     0.261 C 
BRANCH  24  25
ATOM     25  O   UNL A   1      32.414  30.511  26.992  1.00  0.00    -0.460 OA
BRANCH  25  26
ATOM     26  C   UNL A   1      33.126  31.638  27.251  1.00  0.00     0.338 C 
ATOM     27  O   UNL A   1      32.708  32.784  27.230  1.00  0.00    -0.246 OA
BRANCH  26  28
ATOM     28  C   UNL A   1      34.469  31.295  27.759  1.00  0.00     0.060 A 
ATOM     29  C   UNL A   1      34.709  29.945  28.049  1.00  0.00     0.016 A 
ATOM     30  C   UNL A   1      35.449  32.259  28.010  1.00  0.00     0.016 A 
ATOM     31  C   UNL A   1      35.906  29.561  28.649  1.00  0.00     0.010 A 
ATOM     32  C   UNL A   1      36.648  31.871  28.621  1.00  0.00     0.010 A 
ATOM     33  C   UNL A   1      36.863  30.527  28.981  1.00  0.00    -0.014 A 
BRANCH  33  34
ATOM     34  C   UNL A   1      37.998  30.140  29.856  1.00  0.00     0.031 A 
ATOM     35  C   UNL A   1      39.002  29.148  29.333  1.00  0.00     0.074 A 
ATOM     36  C   UNL A   1      38.161  30.707  31.065  1.00  0.00     0.049 A 
ATOM     37  N   UNL A   1      40.080  28.677  29.905  1.00  0.00    -0.248 NA
ATOM     38  C   UNL A   1      38.757  28.613  27.984  1.00  0.00     0.031 C 
ATOM     39  C   UNL A   1      37.275  31.711  31.653  1.00  0.00     0.029 A 
ATOM     40  N   UNL A   1      39.133  30.520  32.017  1.00  0.00    -0.354 N 
ATOM     41  C   UNL A   1      40.637  27.786  28.993  1.00  0.00     0.074 A 
ATOM     42  C   UNL A   1      39.763  27.764  27.840  1.00  0.00     0.031 C 
ATOM     43  C   UNL A   1      37.740  32.045  32.870  1.00  0.00     0.029 A 
ATOM     44  C   UNL A   1      38.937  31.260  33.160  1.00  0.00     0.049 A 
ATOM     45  H   UNL A   1      39.898  29.913  31.892  1.00  0.00     0.167 HD
ATOM     46  C   UNL A   1      41.774  27.059  29.107  1.00  0.00     0.034 A 
ATOM     47  C   UNL A   1      39.637  31.283  34.314  1.00  0.00     0.034 A 
ATOM     48  C   UNL A   1      42.639  27.099  30.259  1.00  0.00     0.049 A 
ATOM     49  C   UNL A   1      40.869  30.413  34.436  1.00  0.00     0.074 A 
ATOM     50  C   UNL A   1      43.838  26.439  30.460  1.00  0.00     0.029 A 
ATOM     51  N   UNL A   1      42.390  27.831  31.413  1.00  0.00    -0.354 N 
ATOM     52  N   UNL A   1      41.404  29.608  33.547  1.00  0.00    -0.248 NA
ATOM     53  C   UNL A   1      41.595  30.467  35.712  1.00  0.00     0.031 C 
ATOM     54  C   UNL A   1      44.277  26.714  31.759  1.00  0.00     0.029 A 
ATOM     55  C   UNL A   1      43.391  27.605  32.344  1.00  0.00     0.049 A 
ATOM     56  H   UNL A   1      41.615  28.423  31.550  1.00  0.00     0.167 HD
ATOM     57  C   UNL A   1      42.550  29.089  34.147  1.00  0.00     0.074 A 
ATOM     58  C   UNL A   1      42.634  29.683  35.464  1.00  0.00     0.031 C 
ATOM     59  C   UNL A   1      43.456  28.206  33.654  1.00  0.00     0.034 A 
BRANCH  46  60
ATOM     60  C   UNL A   1      42.118  26.116  27.981  1.00  0.00     0.023 A 
ATOM     61  C   UNL A   1      41.691  24.777  27.972  1.00  0.00     0.031 A 
ATOM     62  C   UNL A   1      42.890  26.571  26.898  1.00  0.00     0.131 A 
ATOM     63  C   UNL A   1      42.082  23.927  26.924  1.00  0.00     0.055 A 
ATOM     64  C   UNL A   1      43.220  25.740  25.827  1.00  0.00     0.041 A 
ATOM     65  F   UNL A   1      43.344  27.835  26.867  1.00  0.00    -0.206 F 
ATOM     66  C   UNL A   1      42.823  24.406  25.841  1.00  0.00     0.022 A 
BRANCH  63  67
ATOM     67  S   UNL A   1      41.693  22.160  27.043  1.00  0.00     0.124 S 
ATOM     68  O   UNL A   1      41.051  21.912  25.754  1.00  0.00    -0.237 OA
ATOM     69  O   UNL A   1      43.008  21.558  27.229  1.00  0.00    -0.237 OA
ATOM     70  O   UNL A   1      40.802  22.081  28.200  1.00  0.00    -0.744 OA
ENDBRANCH  63  67
ENDBRANCH  46  60
BRANCH  47  71
ATOM     71  C   UNL A   1      39.182  32.112  35.469  1.00  0.00     0.023 A 
ATOM     72  C   UNL A   1      39.619  33.436  35.632  1.00  0.00     0.031 A 
ATOM     73  C   UNL A   1      38.368  31.561  36.475  1.00  0.00     0.131 A 
ATOM     74  C   UNL A   1      39.293  34.143  36.802  1.00  0.00     0.055 A 
ATOM     75  C   UNL A   1      37.998  32.287  37.608  1.00  0.00     0.041 A 
ATOM     76  F   UNL A   1      37.923  30.298  36.373  1.00  0.00    -0.206 F 
ATOM     77  C   UNL A   1      38.476  33.580  37.786  1.00  0.00     0.022 A 
BRANCH  74  78
ATOM     78  S   UNL A   1      40.050  35.769  37.075  1.00  0.00     0.124 S 
ATOM     79  O   UNL A   1      39.420  36.185  38.324  1.00  0.00    -0.237 OA
ATOM     80  O   UNL A   1      41.468  35.432  37.152  1.00  0.00    -0.237 OA
ATOM     81  O   UNL A   1      39.655  36.530  35.892  1.00  0.00    -0.744 OA
ENDBRANCH  74  78
ENDBRANCH  47  71
BRANCH  59  82
ATOM     82  C   UNL A   1      44.638  27.876  34.530  1.00  0.00     0.023 A 
ATOM     83  C   UNL A   1      44.601  26.822  35.458  1.00  0.00     0.031 A 
ATOM     84  C   UNL A   1      45.818  28.637  34.438  1.00  0.00     0.131 A 
ATOM     85  C   UNL A   1      45.700  26.591  36.297  1.00  0.00     0.055 A 
ATOM     86  C   UNL A   1      46.930  28.365  35.235  1.00  0.00     0.041 A 
ATOM     87  F   UNL A   1      45.908  29.655  33.568  1.00  0.00    -0.206 F 
ATOM     88  C   UNL A   1      46.871  27.345  36.180  1.00  0.00     0.022 A 
BRANCH  85  89
ATOM     89  S   UNL A   1      45.551  25.343  37.605  1.00  0.00     0.124 S 
ATOM     90  O   UNL A   1      45.735  24.101  36.862  1.00  0.00    -0.237 OA
ATOM     91  O   UNL A   1      46.635  25.709  38.511  1.00  0.00    -0.237 OA
ATOM     92  O   UNL A   1      44.204  25.558  38.132  1.00  0.00    -0.744 OA
ENDBRANCH  85  89
ENDBRANCH  59  82
ENDBRANCH  33  34
ENDBRANCH  26  28
ENDBRANCH  25  26
ENDBRANCH  24  25
ENDBRANCH  23  24
ENDBRANCH   1  23
TORSDOF 20
ENDMDL
