MODEL 1
REMARK VINA RESULT:     -12.0      0.000      0.000
REMARK SMILES COc1ccccc1[C@@H]1C[N@@H+](Cc2cc3c(cc2C)OCO3)C[C@H]1C(=O)OCCOCCOC(=O)c1ccc(-c2c3nc(c(-c4cc(S(=O)(=O)[O-])ccc4F)c4ccc([nH]4)c(-c4cc(S(=O)(=O)[O-])ccc4F)c4nc(c(-c5cc(S(=O)(=O)[O-])ccc5F)c5ccc2[nH]5)C=C4)C=C3)cc1
REMARK SMILES IDX 31 1 30 2 29 3 28 4 27 5 25 6 26 7 24 8 9 9 10 10 11 11
REMARK SMILES IDX 23 12 8 14 3 15 4 16 5 17 7 18 6 19 2 20 1 21 12 22 13 23
REMARK SMILES IDX 14 24 18 25 15 26 17 27 19 28 16 29 22 30 20 31 21 32 32 33
REMARK SMILES IDX 33 34 34 35 35 36 36 37 37 38 98 39 38 40 97 41 39 42 40 43
REMARK SMILES IDX 41 44 91 45 42 46 96 47 90 48 92 49 43 50 95 51 89 52 88 53
REMARK SMILES IDX 44 55 76 56 56 57 75 58 57 59 60 60 74 61 93 62 58 63 59 64
REMARK SMILES IDX 73 66 94 67 61 68 45 69 46 70 54 71 47 72 53 73 55 74 52 75
REMARK SMILES IDX 48 76 49 77 50 78 51 79 77 80 78 81 86 82 79 83 85 84 87 85
REMARK SMILES IDX 84 86 80 87 81 88 82 89 83 90 62 91 63 92 71 93 64 94 70 95
REMARK SMILES IDX 72 96 69 97 65 98 66 99 67 100 68 101
REMARK H PARENT 11 13 92 54 60 65
REMARK Flexibility Score: inf
ROOT
ATOM      1  C   UNL A   1      31.400  31.778  26.440  1.00  0.00     0.202 C 
ENDROOT
BRANCH   1   2
ATOM      2  O   UNL A   1      31.608  30.530  27.087  1.00  0.00    -0.374 OA
BRANCH   2   3
ATOM      3  C   UNL A   1      31.864  29.394  26.260  1.00  0.00     0.202 C 
BRANCH   3   4
ATOM      4  C   UNL A   1      32.468  28.187  26.967  1.00  0.00     0.261 C 
BRANCH   4   5
ATOM      5  O   UNL A   1      31.537  27.089  27.042  1.00  0.00    -0.463 OA
BRANCH   5   6
ATOM      6  C   UNL A   1      31.899  26.044  26.261  1.00  0.00     0.315 C 
ATOM      7  O   UNL A   1      33.017  25.530  26.288  1.00  0.00    -0.252 OA
BRANCH   6   8
ATOM      8  C   UNL A   1      30.812  25.476  25.381  1.00  0.00     0.167 C 
ATOM      9  C   UNL A   1      30.558  26.032  23.976  1.00  0.00     0.098 C 
ATOM     10  C   UNL A   1      30.465  24.790  23.068  1.00  0.00     0.272 C 
ATOM     11  N   UNL A   1      31.113  23.685  23.765  1.00  0.00    -0.330 N 
ATOM     12  C   UNL A   1      31.084  23.983  25.193  1.00  0.00     0.278 C 
ATOM     13  H   UNL A   1      30.574  22.839  23.583  1.00  0.00     0.348 HD
BRANCH   9  14
ATOM     14  C   UNL A   1      29.341  26.928  23.723  1.00  0.00     0.004 A 
ATOM     15  C   UNL A   1      29.314  28.160  23.039  1.00  0.00     0.122 A 
ATOM     16  C   UNL A   1      28.099  28.835  22.835  1.00  0.00     0.047 A 
ATOM     17  C   UNL A   1      26.899  28.320  23.324  1.00  0.00     0.004 A 
ATOM     18  C   UNL A   1      28.116  26.464  24.258  1.00  0.00     0.008 A 
ATOM     19  C   UNL A   1      26.909  27.135  24.042  1.00  0.00     0.001 A 
BRANCH  15  20
ATOM     20  O   UNL A   1      30.376  28.713  22.378  1.00  0.00    -0.496 OA
ATOM     21  C   UNL A   1      30.152  30.022  21.860  1.00  0.00     0.278 C 
ENDBRANCH  15  20
ENDBRANCH   9  14
BRANCH  11  22
ATOM     22  C   UNL A   1      32.405  23.237  23.236  1.00  0.00     0.299 C 
BRANCH  22  23
ATOM     23  C   UNL A   1      32.978  21.951  23.796  1.00  0.00     0.013 A 
ATOM     24  C   UNL A   1      32.194  20.791  23.627  1.00  0.00     0.060 A 
ATOM     25  C   UNL A   1      34.216  21.854  24.496  1.00  0.00    -0.038 A 
ATOM     26  C   UNL A   1      32.680  19.592  24.072  1.00  0.00     0.166 A 
ATOM     27  C   UNL A   1      34.696  20.589  24.893  1.00  0.00     0.054 A 
ATOM     28  C   UNL A   1      35.070  23.035  24.866  1.00  0.00     0.045 C 
ATOM     29  C   UNL A   1      33.911  19.486  24.657  1.00  0.00     0.166 A 
ATOM     30  O   UNL A   1      32.023  18.408  23.996  1.00  0.00    -0.454 OA
ATOM     31  O   UNL A   1      34.217  18.206  24.977  1.00  0.00    -0.454 OA
ATOM     32  C   UNL A   1      33.061  17.523  24.454  1.00  0.00     0.468 C 
ENDBRANCH  22  23
ENDBRANCH  11  22
ENDBRANCH   6   8
ENDBRANCH   5   6
ENDBRANCH   4   5
ENDBRANCH   3   4
ENDBRANCH   2   3
ENDBRANCH   1   2
BRANCH   1  33
ATOM     33  C   UNL A   1      32.232  32.980  26.909  1.00  0.00     0.261 C 
BRANCH  33  34
ATOM     34  O   UNL A   1      33.219  32.719  27.906  1.00  0.00    -0.460 OA
BRANCH  34  35
ATOM     35  C   UNL A   1      34.336  33.483  27.836  1.00  0.00     0.338 C 
ATOM     36  O   UNL A   1      34.441  34.613  27.398  1.00  0.00    -0.246 OA
BRANCH  35  37
ATOM     37  C   UNL A   1      35.428  32.684  28.421  1.00  0.00     0.060 A 
ATOM     38  C   UNL A   1      35.203  31.368  28.834  1.00  0.00     0.016 A 
ATOM     39  C   UNL A   1      36.700  33.241  28.509  1.00  0.00     0.016 A 
ATOM     40  C   UNL A   1      36.268  30.593  29.323  1.00  0.00     0.010 A 
ATOM     41  C   UNL A   1      37.758  32.456  28.977  1.00  0.00     0.010 A 
ATOM     42  C   UNL A   1      37.566  31.121  29.392  1.00  0.00    -0.014 A 
BRANCH  42  43
ATOM     43  C   UNL A   1      38.719  30.360  29.975  1.00  0.00     0.031 A 
ATOM     44  C   UNL A   1      39.211  30.736  31.354  1.00  0.00     0.074 A 
ATOM     45  C   UNL A   1      39.387  29.401  29.294  1.00  0.00     0.049 A 
ATOM     46  N   UNL A   1      40.273  30.333  32.005  1.00  0.00    -0.248 NA
ATOM     47  C   UNL A   1      38.422  31.752  32.068  1.00  0.00     0.031 C 
ATOM     48  C   UNL A   1      39.076  28.931  27.944  1.00  0.00     0.029 A 
ATOM     49  N   UNL A   1      40.498  28.664  29.643  1.00  0.00    -0.354 N 
ATOM     50  C   UNL A   1      40.279  31.058  33.192  1.00  0.00     0.074 A 
ATOM     51  C   UNL A   1      39.204  32.021  33.097  1.00  0.00     0.031 C 
ATOM     52  C   UNL A   1      39.981  28.007  27.573  1.00  0.00     0.029 A 
ATOM     53  C   UNL A   1      40.946  27.815  28.654  1.00  0.00     0.049 A 
ATOM     54  H   UNL A   1      40.934  28.737  30.523  1.00  0.00     0.167 HD
ATOM     55  C   UNL A   1      41.050  30.899  34.298  1.00  0.00     0.034 A 
ATOM     56  C   UNL A   1      42.007  26.980  28.614  1.00  0.00     0.034 A 
ATOM     57  C   UNL A   1      42.093  29.917  34.419  1.00  0.00     0.049 A 
ATOM     58  C   UNL A   1      42.896  26.846  29.832  1.00  0.00     0.074 A 
ATOM     59  C   UNL A   1      42.890  29.634  35.514  1.00  0.00     0.029 A 
ATOM     60  N   UNL A   1      42.486  29.053  33.408  1.00  0.00    -0.354 N 
ATOM     61  N   UNL A   1      42.833  27.483  30.978  1.00  0.00    -0.248 NA
ATOM     62  C   UNL A   1      43.982  25.856  29.759  1.00  0.00     0.031 C 
ATOM     63  C   UNL A   1      43.801  28.638  35.148  1.00  0.00     0.029 A 
ATOM     64  C   UNL A   1      43.527  28.251  33.847  1.00  0.00     0.049 A 
ATOM     65  H   UNL A   1      42.086  29.015  32.509  1.00  0.00     0.167 HD
ATOM     66  C   UNL A   1      43.831  26.926  31.777  1.00  0.00     0.074 A 
ATOM     67  C   UNL A   1      44.483  25.908  30.983  1.00  0.00     0.031 C 
ATOM     68  C   UNL A   1      44.164  27.222  33.059  1.00  0.00     0.034 A 
BRANCH  55  69
ATOM     69  C   UNL A   1      40.752  31.814  35.463  1.00  0.00     0.023 A 
ATOM     70  C   UNL A   1      39.639  31.586  36.293  1.00  0.00     0.031 A 
ATOM     71  C   UNL A   1      41.517  32.970  35.689  1.00  0.00     0.131 A 
ATOM     72  C   UNL A   1      39.241  32.564  37.212  1.00  0.00     0.055 A 
ATOM     73  C   UNL A   1      41.177  33.887  36.686  1.00  0.00     0.041 A 
ATOM     74  F   UNL A   1      42.583  33.248  34.922  1.00  0.00    -0.206 F 
ATOM     75  C   UNL A   1      40.017  33.702  37.436  1.00  0.00     0.022 A 
BRANCH  72  76
ATOM     76  S   UNL A   1      37.586  32.426  37.941  1.00  0.00     0.124 S 
ATOM     77  O   UNL A   1      36.775  33.147  36.962  1.00  0.00    -0.237 OA
ATOM     78  O   UNL A   1      37.385  30.983  37.999  1.00  0.00    -0.237 OA
ATOM     79  O   UNL A   1      37.726  33.092  39.235  1.00  0.00    -0.744 OA
ENDBRANCH  72  76
ENDBRANCH  55  69
BRANCH  56  80
ATOM     80  C   UNL A   1      42.315  26.183  27.388  1.00  0.00     0.023 A 
ATOM     81  C   UNL A   1      41.957  24.826  27.295  1.00  0.00     0.031 A 
ATOM     82  C   UNL A   1      43.059  26.740  26.333  1.00  0.00     0.131 A 
ATOM     83  C   UNL A   1      42.400  24.056  26.207  1.00  0.00     0.055 A 
ATOM     84  C   UNL A   1      43.454  25.981  25.227  1.00  0.00     0.041 A 
ATOM     85  F   UNL A   1      43.428  28.030  26.371  1.00  0.00    -0.206 F 
ATOM     86  C   UNL A   1      43.138  24.628  25.168  1.00  0.00     0.022 A 
BRANCH  83  87
ATOM     87  S   UNL A   1      42.080  22.269  26.219  1.00  0.00     0.124 S 
ATOM     88  O   UNL A   1      42.578  21.888  27.535  1.00  0.00    -0.237 OA
ATOM     89  O   UNL A   1      40.633  22.219  26.040  1.00  0.00    -0.237 OA
ATOM     90  O   UNL A   1      42.863  21.777  25.087  1.00  0.00    -0.744 OA
ENDBRANCH  83  87
ENDBRANCH  56  80
BRANCH  68  91
ATOM     91  C   UNL A   1      45.228  26.379  33.722  1.00  0.00     0.023 A 
ATOM     92  C   UNL A   1      44.947  25.120  34.279  1.00  0.00     0.031 A 
ATOM     93  C   UNL A   1      46.556  26.842  33.772  1.00  0.00     0.131 A 
ATOM     94  C   UNL A   1      45.972  24.386  34.898  1.00  0.00     0.055 A 
ATOM     95  C   UNL A   1      47.581  26.083  34.338  1.00  0.00     0.041 A 
ATOM     96  F   UNL A   1      46.882  28.039  33.257  1.00  0.00    -0.206 F 
ATOM     97  C   UNL A   1      47.290  24.850  34.914  1.00  0.00     0.022 A 
BRANCH  94  98
ATOM     98  S   UNL A   1      45.550  22.838  35.746  1.00  0.00     0.124 S 
ATOM     99  O   UNL A   1      45.745  23.198  37.148  1.00  0.00    -0.237 OA
ATOM    100  O   UNL A   1      44.168  22.621  35.331  1.00  0.00    -0.237 OA
ATOM    101  O   UNL A   1      46.515  21.879  35.212  1.00  0.00    -0.744 OA
ENDBRANCH  94  98
ENDBRANCH  68  91
ENDBRANCH  42  43
ENDBRANCH  35  37
ENDBRANCH  34  35
ENDBRANCH  33  34
ENDBRANCH   1  33
TORSDOF 21
ENDMDL
MODEL 2
REMARK VINA RESULT:     -11.8      4.380      9.751
REMARK SMILES COc1ccccc1[C@@H]1C[N@@H+](Cc2cc3c(cc2C)OCO3)C[C@H]1C(=O)OCCOCCOC(=O)c1ccc(-c2c3nc(c(-c4cc(S(=O)(=O)[O-])ccc4F)c4ccc([nH]4)c(-c4cc(S(=O)(=O)[O-])ccc4F)c4nc(c(-c5cc(S(=O)(=O)[O-])ccc5F)c5ccc2[nH]5)C=C4)C=C3)cc1
REMARK SMILES IDX 31 1 30 2 29 3 28 4 27 5 25 6 26 7 24 8 9 9 10 10 11 11
REMARK SMILES IDX 23 12 8 14 3 15 4 16 5 17 7 18 6 19 2 20 1 21 12 22 13 23
REMARK SMILES IDX 14 24 18 25 15 26 17 27 19 28 16 29 22 30 20 31 21 32 32 33
REMARK SMILES IDX 33 34 34 35 35 36 36 37 37 38 98 39 38 40 97 41 39 42 40 43
REMARK SMILES IDX 41 44 91 45 42 46 96 47 90 48 92 49 43 50 95 51 89 52 88 53
REMARK SMILES IDX 44 55 76 56 56 57 75 58 57 59 60 60 74 61 93 62 58 63 59 64
REMARK SMILES IDX 73 66 94 67 61 68 45 69 46 70 54 71 47 72 53 73 55 74 52 75
REMARK SMILES IDX 48 76 49 77 50 78 51 79 77 80 78 81 86 82 79 83 85 84 87 85
REMARK SMILES IDX 84 86 80 87 81 88 82 89 83 90 62 91 63 92 71 93 64 94 70 95
REMARK SMILES IDX 72 96 69 97 65 98 66 99 67 100 68 101
REMARK H PARENT 11 13 92 54 60 65
REMARK Flexibility Score: inf
ROOT
ATOM      1  C   UNL A   1      38.035  19.571  24.850  1.00  0.00     0.202 C 
ENDROOT
BRANCH   1   2
ATOM      2  O   UNL A   1      37.482  20.864  24.638  1.00  0.00    -0.374 OA
BRANCH   2   3
ATOM      3  C   UNL A   1      36.131  21.078  25.046  1.00  0.00     0.202 C 
BRANCH   3   4
ATOM      4  C   UNL A   1      35.478  22.352  24.525  1.00  0.00     0.261 C 
BRANCH   4   5
ATOM      5  O   UNL A   1      34.820  23.085  25.578  1.00  0.00    -0.463 OA
BRANCH   5   6
ATOM      6  C   UNL A   1      34.407  24.311  25.180  1.00  0.00     0.315 C 
ATOM      7  O   UNL A   1      34.692  24.804  24.089  1.00  0.00    -0.252 OA
BRANCH   6   8
ATOM      8  C   UNL A   1      33.495  25.039  26.138  1.00  0.00     0.167 C 
ATOM      9  C   UNL A   1      32.430  26.016  25.630  1.00  0.00     0.098 C 
ATOM     10  C   UNL A   1      31.141  25.623  26.378  1.00  0.00     0.272 C 
ATOM     11  N   UNL A   1      31.309  24.256  26.856  1.00  0.00    -0.330 N 
ATOM     12  C   UNL A   1      32.740  23.995  26.962  1.00  0.00     0.278 C 
ATOM     13  H   UNL A   1      30.883  24.191  27.780  1.00  0.00     0.348 HD
BRANCH   9  14
ATOM     14  C   UNL A   1      32.652  27.525  25.778  1.00  0.00     0.004 A 
ATOM     15  C   UNL A   1      31.890  28.562  25.204  1.00  0.00     0.122 A 
ATOM     16  C   UNL A   1      32.187  29.906  25.488  1.00  0.00     0.047 A 
ATOM     17  C   UNL A   1      33.253  30.247  26.318  1.00  0.00     0.004 A 
ATOM     18  C   UNL A   1      33.765  27.907  26.565  1.00  0.00     0.008 A 
ATOM     19  C   UNL A   1      34.048  29.245  26.853  1.00  0.00     0.001 A 
BRANCH  15  20
ATOM     20  O   UNL A   1      30.732  28.385  24.497  1.00  0.00    -0.496 OA
ATOM     21  C   UNL A   1      30.404  29.442  23.599  1.00  0.00     0.278 C 
ENDBRANCH  15  20
ENDBRANCH   9  14
BRANCH  11  22
ATOM     22  C   UNL A   1      30.523  23.218  26.182  1.00  0.00     0.299 C 
BRANCH  22  23
ATOM     23  C   UNL A   1      31.265  22.268  25.264  1.00  0.00     0.013 A 
ATOM     24  C   UNL A   1      31.782  21.100  25.859  1.00  0.00     0.060 A 
ATOM     25  C   UNL A   1      31.494  22.498  23.876  1.00  0.00    -0.038 A 
ATOM     26  C   UNL A   1      32.423  20.182  25.073  1.00  0.00     0.166 A 
ATOM     27  C   UNL A   1      32.117  21.501  23.098  1.00  0.00     0.054 A 
ATOM     28  C   UNL A   1      31.121  23.766  23.158  1.00  0.00     0.045 C 
ATOM     29  C   UNL A   1      32.557  20.359  23.724  1.00  0.00     0.166 A 
ATOM     30  O   UNL A   1      32.989  19.032  25.517  1.00  0.00    -0.454 OA
ATOM     31  O   UNL A   1      33.177  19.312  23.129  1.00  0.00    -0.454 OA
ATOM     32  C   UNL A   1      33.346  18.433  24.259  1.00  0.00     0.468 C 
ENDBRANCH  22  23
ENDBRANCH  11  22
ENDBRANCH   6   8
ENDBRANCH   5   6
ENDBRANCH   4   5
ENDBRANCH   3   4
ENDBRANCH   2   3
ENDBRANCH   1   2
BRANCH   1  33
ATOM     33  C   UNL A   1      39.272  19.456  25.751  1.00  0.00     0.261 C 
BRANCH  33  34
ATOM     34  O   UNL A   1      40.029  20.650  25.947  1.00  0.00    -0.460 OA
BRANCH  34  35
ATOM     35  C   UNL A   1      40.690  20.736  27.126  1.00  0.00     0.338 C 
ATOM     36  O   UNL A   1      41.009  19.828  27.871  1.00  0.00    -0.246 OA
BRANCH  35  37
ATOM     37  C   UNL A   1      40.978  22.165  27.343  1.00  0.00     0.060 A 
ATOM     38  C   UNL A   1      40.420  23.137  26.507  1.00  0.00     0.016 A 
ATOM     39  C   UNL A   1      41.774  22.538  28.422  1.00  0.00     0.016 A 
ATOM     40  C   UNL A   1      40.646  24.500  26.766  1.00  0.00     0.010 A 
ATOM     41  C   UNL A   1      41.974  23.896  28.685  1.00  0.00     0.010 A 
ATOM     42  C   UNL A   1      41.417  24.902  27.867  1.00  0.00    -0.014 A 
BRANCH  42  43
ATOM     43  C   UNL A   1      41.745  26.339  28.142  1.00  0.00     0.031 A 
ATOM     44  C   UNL A   1      43.133  26.840  27.809  1.00  0.00     0.074 A 
ATOM     45  C   UNL A   1      40.882  27.190  28.742  1.00  0.00     0.049 A 
ATOM     46  N   UNL A   1      43.700  27.987  28.087  1.00  0.00    -0.248 NA
ATOM     47  C   UNL A   1      44.016  25.889  27.117  1.00  0.00     0.031 C 
ATOM     48  C   UNL A   1      39.518  26.874  29.163  1.00  0.00     0.029 A 
ATOM     49  N   UNL A   1      41.043  28.502  29.132  1.00  0.00    -0.354 N 
ATOM     50  C   UNL A   1      45.004  27.881  27.616  1.00  0.00     0.074 A 
ATOM     51  C   UNL A   1      45.177  26.515  27.173  1.00  0.00     0.031 C 
ATOM     52  C   UNL A   1      38.977  27.947  29.767  1.00  0.00     0.029 A 
ATOM     53  C   UNL A   1      39.952  29.035  29.785  1.00  0.00     0.049 A 
ATOM     54  H   UNL A   1      41.865  29.015  28.958  1.00  0.00     0.167 HD
ATOM     55  C   UNL A   1      45.956  28.839  27.485  1.00  0.00     0.034 A 
ATOM     56  C   UNL A   1      39.756  30.252  30.337  1.00  0.00     0.034 A 
ATOM     57  C   UNL A   1      45.781  30.210  27.883  1.00  0.00     0.049 A 
ATOM     58  C   UNL A   1      40.843  31.300  30.236  1.00  0.00     0.074 A 
ATOM     59  C   UNL A   1      46.659  31.270  27.739  1.00  0.00     0.029 A 
ATOM     60  N   UNL A   1      44.648  30.713  28.504  1.00  0.00    -0.354 N 
ATOM     61  N   UNL A   1      42.041  31.204  29.710  1.00  0.00    -0.248 NA
ATOM     62  C   UNL A   1      40.535  32.634  30.777  1.00  0.00     0.031 C 
ATOM     63  C   UNL A   1      46.079  32.401  28.322  1.00  0.00     0.029 A 
ATOM     64  C   UNL A   1      44.812  32.064  28.767  1.00  0.00     0.049 A 
ATOM     65  H   UNL A   1      43.844  30.189  28.725  1.00  0.00     0.167 HD
ATOM     66  C   UNL A   1      42.602  32.477  29.804  1.00  0.00     0.074 A 
ATOM     67  C   UNL A   1      41.615  33.322  30.442  1.00  0.00     0.031 C 
ATOM     68  C   UNL A   1      43.818  32.909  29.386  1.00  0.00     0.034 A 
BRANCH  55  69
ATOM     69  C   UNL A   1      47.263  28.408  26.860  1.00  0.00     0.023 A 
ATOM     70  C   UNL A   1      47.423  28.394  25.462  1.00  0.00     0.031 A 
ATOM     71  C   UNL A   1      48.316  27.918  27.649  1.00  0.00     0.131 A 
ATOM     72  C   UNL A   1      48.542  27.773  24.894  1.00  0.00     0.055 A 
ATOM     73  C   UNL A   1      49.481  27.402  27.074  1.00  0.00     0.041 A 
ATOM     74  F   UNL A   1      48.217  27.894  28.987  1.00  0.00    -0.206 F 
ATOM     75  C   UNL A   1      49.587  27.301  25.689  1.00  0.00     0.022 A 
BRANCH  72  76
ATOM     76  S   UNL A   1      48.501  27.398  23.120  1.00  0.00     0.124 S 
ATOM     77  O   UNL A   1      47.311  28.133  22.694  1.00  0.00    -0.237 OA
ATOM     78  O   UNL A   1      49.778  27.926  22.654  1.00  0.00    -0.237 OA
ATOM     79  O   UNL A   1      48.373  25.943  23.081  1.00  0.00    -0.744 OA
ENDBRANCH  72  76
ENDBRANCH  55  69
BRANCH  56  80
ATOM     80  C   UNL A   1      38.480  30.580  31.043  1.00  0.00     0.023 A 
ATOM     81  C   UNL A   1      37.441  31.262  30.385  1.00  0.00     0.031 A 
ATOM     82  C   UNL A   1      38.322  30.307  32.413  1.00  0.00     0.131 A 
ATOM     83  C   UNL A   1      36.322  31.704  31.109  1.00  0.00     0.055 A 
ATOM     84  C   UNL A   1      37.183  30.706  33.118  1.00  0.00     0.041 A 
ATOM     85  F   UNL A   1      39.283  29.660  33.090  1.00  0.00    -0.206 F 
ATOM     86  C   UNL A   1      36.182  31.423  32.470  1.00  0.00     0.022 A 
BRANCH  83  87
ATOM     87  S   UNL A   1      35.095  32.743  30.265  1.00  0.00     0.124 S 
ATOM     88  O   UNL A   1      34.640  31.858  29.200  1.00  0.00    -0.237 OA
ATOM     89  O   UNL A   1      34.138  33.009  31.334  1.00  0.00    -0.237 OA
ATOM     90  O   UNL A   1      35.874  33.900  29.827  1.00  0.00    -0.744 OA
ENDBRANCH  83  87
ENDBRANCH  56  80
BRANCH  68  91
ATOM     91  C   UNL A   1      44.127  34.381  29.522  1.00  0.00     0.023 A 
ATOM     92  C   UNL A   1      44.675  34.927  30.697  1.00  0.00     0.031 A 
ATOM     93  C   UNL A   1      43.888  35.249  28.440  1.00  0.00     0.131 A 
ATOM     94  C   UNL A   1      44.926  36.305  30.775  1.00  0.00     0.055 A 
ATOM     95  C   UNL A   1      44.193  36.609  28.505  1.00  0.00     0.041 A 
ATOM     96  F   UNL A   1      43.364  34.784  27.295  1.00  0.00    -0.206 F 
ATOM     97  C   UNL A   1      44.708  37.146  29.681  1.00  0.00     0.022 A 
BRANCH  94  98
ATOM     98  S   UNL A   1      45.483  37.005  32.354  1.00  0.00     0.124 S 
ATOM     99  O   UNL A   1      46.925  37.111  32.147  1.00  0.00    -0.237 OA
ATOM    100  O   UNL A   1      44.754  38.267  32.411  1.00  0.00    -0.237 OA
ATOM    101  O   UNL A   1      45.071  36.006  33.338  1.00  0.00    -0.744 OA
ENDBRANCH  94  98
ENDBRANCH  68  91
ENDBRANCH  42  43
ENDBRANCH  35  37
ENDBRANCH  34  35
ENDBRANCH  33  34
ENDBRANCH   1  33
TORSDOF 21
ENDMDL
MODEL 3
REMARK VINA RESULT:     -11.8      1.253      1.944
REMARK SMILES COc1ccccc1[C@@H]1C[N@@H+](Cc2cc3c(cc2C)OCO3)C[C@H]1C(=O)OCCOCCOC(=O)c1ccc(-c2c3nc(c(-c4cc(S(=O)(=O)[O-])ccc4F)c4ccc([nH]4)c(-c4cc(S(=O)(=O)[O-])ccc4F)c4nc(c(-c5cc(S(=O)(=O)[O-])ccc5F)c5ccc2[nH]5)C=C4)C=C3)cc1
REMARK SMILES IDX 31 1 30 2 29 3 28 4 27 5 25 6 26 7 24 8 9 9 10 10 11 11
REMARK SMILES IDX 23 12 8 14 3 15 4 16 5 17 7 18 6 19 2 20 1 21 12 22 13 23
REMARK SMILES IDX 14 24 18 25 15 26 17 27 19 28 16 29 22 30 20 31 21 32 32 33
REMARK SMILES IDX 33 34 34 35 35 36 36 37 37 38 98 39 38 40 97 41 39 42 40 43
REMARK SMILES IDX 41 44 91 45 42 46 96 47 90 48 92 49 43 50 95 51 89 52 88 53
REMARK SMILES IDX 44 55 76 56 56 57 75 58 57 59 60 60 74 61 93 62 58 63 59 64
REMARK SMILES IDX 73 66 94 67 61 68 45 69 46 70 54 71 47 72 53 73 55 74 52 75
REMARK SMILES IDX 48 76 49 77 50 78 51 79 77 80 78 81 86 82 79 83 85 84 87 85
REMARK SMILES IDX 84 86 80 87 81 88 82 89 83 90 62 91 63 92 71 93 64 94 70 95
REMARK SMILES IDX 72 96 69 97 65 98 66 99 67 100 68 101
REMARK H PARENT 11 13 92 54 60 65
REMARK Flexibility Score: inf
ROOT
ATOM      1  C   UNL A   1      33.034  30.581  26.607  1.00  0.00     0.202 C 
ENDROOT
BRANCH   1   2
ATOM      2  O   UNL A   1      32.564  29.390  27.224  1.00  0.00    -0.374 OA
BRANCH   2   3
ATOM      3  C   UNL A   1      33.317  28.195  27.010  1.00  0.00     0.202 C 
BRANCH   3   4
ATOM      4  C   UNL A   1      32.500  26.916  26.873  1.00  0.00     0.261 C 
BRANCH   4   5
ATOM      5  O   UNL A   1      33.280  25.841  26.310  1.00  0.00    -0.463 OA
BRANCH   5   6
ATOM      6  C   UNL A   1      32.551  24.719  26.110  1.00  0.00     0.315 C 
ATOM      7  O   UNL A   1      32.710  23.680  26.751  1.00  0.00    -0.252 OA
BRANCH   6   8
ATOM      8  C   UNL A   1      31.452  24.825  25.080  1.00  0.00     0.167 C 
ATOM      9  C   UNL A   1      31.663  25.597  23.773  1.00  0.00     0.098 C 
ATOM     10  C   UNL A   1      31.146  24.656  22.667  1.00  0.00     0.272 C 
ATOM     11  N   UNL A   1      31.132  23.304  23.212  1.00  0.00    -0.330 N 
ATOM     12  C   UNL A   1      31.050  23.410  24.664  1.00  0.00     0.278 C 
ATOM     13  H   UNL A   1      30.301  22.831  22.858  1.00  0.00     0.348 HD
BRANCH   9  14
ATOM     14  C   UNL A   1      31.021  26.978  23.595  1.00  0.00     0.004 A 
ATOM     15  C   UNL A   1      31.671  28.228  23.582  1.00  0.00     0.122 A 
ATOM     16  C   UNL A   1      30.944  29.406  23.343  1.00  0.00     0.047 A 
ATOM     17  C   UNL A   1      29.565  29.373  23.141  1.00  0.00     0.004 A 
ATOM     18  C   UNL A   1      29.614  26.985  23.448  1.00  0.00     0.008 A 
ATOM     19  C   UNL A   1      28.897  28.159  23.200  1.00  0.00     0.001 A 
BRANCH  15  20
ATOM     20  O   UNL A   1      33.027  28.407  23.614  1.00  0.00    -0.496 OA
ATOM     21  C   UNL A   1      33.670  28.393  22.342  1.00  0.00     0.278 C 
ENDBRANCH  15  20
ENDBRANCH   9  14
BRANCH  11  22
ATOM     22  C   UNL A   1      32.144  22.374  22.700  1.00  0.00     0.299 C 
BRANCH  22  23
ATOM     23  C   UNL A   1      33.346  22.098  23.580  1.00  0.00     0.013 A 
ATOM     24  C   UNL A   1      34.419  23.007  23.476  1.00  0.00     0.060 A 
ATOM     25  C   UNL A   1      33.466  20.983  24.460  1.00  0.00    -0.038 A 
ATOM     26  C   UNL A   1      35.513  22.836  24.279  1.00  0.00     0.166 A 
ATOM     27  C   UNL A   1      34.592  20.877  25.301  1.00  0.00     0.054 A 
ATOM     28  C   UNL A   1      32.458  19.871  24.553  1.00  0.00     0.045 C 
ATOM     29  C   UNL A   1      35.585  21.820  25.192  1.00  0.00     0.166 A 
ATOM     30  O   UNL A   1      36.622  23.617  24.265  1.00  0.00    -0.454 OA
ATOM     31  O   UNL A   1      36.729  21.863  25.915  1.00  0.00    -0.454 OA
ATOM     32  C   UNL A   1      37.324  23.067  25.394  1.00  0.00     0.468 C 
ENDBRANCH  22  23
ENDBRANCH  11  22
ENDBRANCH   6   8
ENDBRANCH   5   6
ENDBRANCH   4   5
ENDBRANCH   3   4
ENDBRANCH   2   3
ENDBRANCH   1   2
BRANCH   1  33
ATOM     33  C   UNL A   1      32.730  31.918  27.297  1.00  0.00     0.261 C 
BRANCH  33  34
ATOM     34  O   UNL A   1      33.611  32.303  28.351  1.00  0.00    -0.460 OA
BRANCH  34  35
ATOM     35  C   UNL A   1      34.707  33.003  27.970  1.00  0.00     0.338 C 
ATOM     36  O   UNL A   1      34.746  34.045  27.342  1.00  0.00    -0.246 OA
BRANCH  35  37
ATOM     37  C   UNL A   1      35.876  32.267  28.484  1.00  0.00     0.060 A 
ATOM     38  C   UNL A   1      37.112  32.903  28.621  1.00  0.00     0.016 A 
ATOM     39  C   UNL A   1      35.719  30.942  28.879  1.00  0.00     0.016 A 
ATOM     40  C   UNL A   1      38.201  32.211  29.177  1.00  0.00     0.010 A 
ATOM     41  C   UNL A   1      36.801  30.268  29.452  1.00  0.00     0.010 A 
ATOM     42  C   UNL A   1      38.060  30.885  29.613  1.00  0.00    -0.014 A 
BRANCH  42  43
ATOM     43  C   UNL A   1      39.210  30.082  30.145  1.00  0.00     0.031 A 
ATOM     44  C   UNL A   1      39.789  30.453  31.491  1.00  0.00     0.074 A 
ATOM     45  C   UNL A   1      39.800  29.088  29.444  1.00  0.00     0.049 A 
ATOM     46  N   UNL A   1      40.866  30.013  32.092  1.00  0.00    -0.248 NA
ATOM     47  C   UNL A   1      39.082  31.510  32.231  1.00  0.00     0.031 C 
ATOM     48  C   UNL A   1      39.400  28.616  28.119  1.00  0.00     0.029 A 
ATOM     49  N   UNL A   1      40.897  28.308  29.745  1.00  0.00    -0.354 N 
ATOM     50  C   UNL A   1      40.965  30.751  33.267  1.00  0.00     0.074 A 
ATOM     51  C   UNL A   1      39.927  31.757  33.215  1.00  0.00     0.031 C 
ATOM     52  C   UNL A   1      40.245  27.650  27.714  1.00  0.00     0.029 A 
ATOM     53  C   UNL A   1      41.256  27.430  28.745  1.00  0.00     0.049 A 
ATOM     54  H   UNL A   1      41.381  28.374  30.599  1.00  0.00     0.167 HD
ATOM     55  C   UNL A   1      41.785  30.572  34.333  1.00  0.00     0.034 A 
ATOM     56  C   UNL A   1      42.278  26.550  28.662  1.00  0.00     0.034 A 
ATOM     57  C   UNL A   1      42.792  29.548  34.413  1.00  0.00     0.049 A 
ATOM     58  C   UNL A   1      43.223  26.393  29.833  1.00  0.00     0.074 A 
ATOM     59  C   UNL A   1      43.633  29.245  35.469  1.00  0.00     0.029 A 
ATOM     60  N   UNL A   1      43.095  28.656  33.395  1.00  0.00    -0.354 N 
ATOM     61  N   UNL A   1      43.247  27.045  30.972  1.00  0.00    -0.248 NA
ATOM     62  C   UNL A   1      44.262  25.357  29.718  1.00  0.00     0.031 C 
ATOM     63  C   UNL A   1      44.481  28.207  35.070  1.00  0.00     0.029 A 
ATOM     64  C   UNL A   1      44.123  27.816  33.790  1.00  0.00     0.049 A 
ATOM     65  H   UNL A   1      42.646  28.625  32.519  1.00  0.00     0.167 HD
ATOM     66  C   UNL A   1      44.262  26.456  31.726  1.00  0.00     0.074 A 
ATOM     67  C   UNL A   1      44.828  25.402  30.914  1.00  0.00     0.031 C 
ATOM     68  C   UNL A   1      44.674  26.752  32.985  1.00  0.00     0.034 A 
BRANCH  55  69
ATOM     69  C   UNL A   1      41.587  31.512  35.499  1.00  0.00     0.023 A 
ATOM     70  C   UNL A   1      40.442  31.423  36.312  1.00  0.00     0.031 A 
ATOM     71  C   UNL A   1      42.489  32.561  35.744  1.00  0.00     0.131 A 
ATOM     72  C   UNL A   1      40.157  32.440  37.230  1.00  0.00     0.055 A 
ATOM     73  C   UNL A   1      42.252  33.510  36.742  1.00  0.00     0.041 A 
ATOM     74  F   UNL A   1      43.593  32.705  34.995  1.00  0.00    -0.206 F 
ATOM     75  C   UNL A   1      41.067  33.470  37.473  1.00  0.00     0.022 A 
BRANCH  72  76
ATOM     76  S   UNL A   1      38.487  32.510  37.934  1.00  0.00     0.124 S 
ATOM     77  O   UNL A   1      38.762  32.320  39.357  1.00  0.00    -0.237 OA
ATOM     78  O   UNL A   1      38.033  33.840  37.544  1.00  0.00    -0.237 OA
ATOM     79  O   UNL A   1      37.796  31.397  37.286  1.00  0.00    -0.744 OA
ENDBRANCH  72  76
ENDBRANCH  55  69
BRANCH  56  80
ATOM     80  C   UNL A   1      42.487  25.727  27.432  1.00  0.00     0.023 A 
ATOM     81  C   UNL A   1      42.044  24.394  27.367  1.00  0.00     0.031 A 
ATOM     82  C   UNL A   1      43.222  26.229  26.343  1.00  0.00     0.131 A 
ATOM     83  C   UNL A   1      42.394  23.590  26.269  1.00  0.00     0.055 A 
ATOM     84  C   UNL A   1      43.525  25.439  25.231  1.00  0.00     0.041 A 
ATOM     85  F   UNL A   1      43.670  27.494  26.354  1.00  0.00    -0.206 F 
ATOM     86  C   UNL A   1      43.125  24.107  25.197  1.00  0.00     0.022 A 
BRANCH  83  87
ATOM     87  S   UNL A   1      41.966  21.827  26.311  1.00  0.00     0.124 S 
ATOM     88  O   UNL A   1      42.861  21.281  25.298  1.00  0.00    -0.237 OA
ATOM     89  O   UNL A   1      42.270  21.474  27.694  1.00  0.00    -0.237 OA
ATOM     90  O   UNL A   1      40.546  21.814  25.965  1.00  0.00    -0.744 OA
ENDBRANCH  83  87
ENDBRANCH  56  80
BRANCH  68  91
ATOM     91  C   UNL A   1      45.735  25.873  33.603  1.00  0.00     0.023 A 
ATOM     92  C   UNL A   1      45.418  24.702  34.313  1.00  0.00     0.031 A 
ATOM     93  C   UNL A   1      47.094  26.207  33.453  1.00  0.00     0.131 A 
ATOM     94  C   UNL A   1      46.444  23.930  34.881  1.00  0.00     0.055 A 
ATOM     95  C   UNL A   1      48.112  25.406  33.972  1.00  0.00     0.041 A 
ATOM     96  F   UNL A   1      47.456  27.316  32.787  1.00  0.00    -0.206 F 
ATOM     97  C   UNL A   1      47.789  24.264  34.698  1.00  0.00     0.022 A 
BRANCH  94  98
ATOM     98  S   UNL A   1      45.999  22.514  35.923  1.00  0.00     0.124 S 
ATOM     99  O   UNL A   1      47.302  21.908  36.185  1.00  0.00    -0.237 OA
ATOM    100  O   UNL A   1      45.355  23.155  37.064  1.00  0.00    -0.237 OA
ATOM    101  O   UNL A   1      45.110  21.726  35.072  1.00  0.00    -0.744 OA
ENDBRANCH  94  98
ENDBRANCH  68  91
ENDBRANCH  42  43
ENDBRANCH  35  37
ENDBRANCH  34  35
ENDBRANCH  33  34
ENDBRANCH   1  33
TORSDOF 21
ENDMDL
