MODEL 1
REMARK VINA RESULT:     -12.1      0.000      0.000
REMARK SMILES O=C(OCCOCCOC(=O)c1cccc(N2NC(=O)[C@H]3CC=CC[C@H]3C2=O)c1)c1ccc(-c2c3nc(c(-c4cc(S(=O)(=O)[O-])ccc4F)c4ccc([nH]4)c(-c4cc(S(=O)(=O)[O-])ccc4F)c4nc(c(-c5cc(S(=O)(=O)[O-])ccc5F)c5ccc2[nH]5)C=C4)C=C3)cc1
REMARK SMILES IDX 5 1 4 2 3 3 2 4 1 5 30 6 31 7 92 8 32 9 91 10 33 11 34 12
REMARK SMILES IDX 35 13 85 14 36 15 90 16 84 17 86 18 37 19 89 20 83 21 82 22
REMARK SMILES IDX 38 24 70 25 50 26 69 27 51 28 54 29 68 30 87 31 52 32 53 33
REMARK SMILES IDX 67 35 88 36 55 37 39 38 40 39 48 40 41 41 47 42 49 43 46 44
REMARK SMILES IDX 42 45 43 46 44 47 45 48 71 49 72 50 80 51 73 52 79 53 81 54
REMARK SMILES IDX 78 55 74 56 75 57 76 58 77 59 56 60 57 61 65 62 58 63 64 64
REMARK SMILES IDX 66 65 63 66 59 67 60 68 61 69 62 70 6 71 7 72 8 73 9 74
REMARK SMILES IDX 10 75 11 76 12 77 13 78 29 79 14 80 16 81 15 82 17 83 18 84
REMARK SMILES IDX 27 85 19 86 26 88 28 89 20 90 21 91 25 92 22 93 24 94 23 95
REMARK H PARENT 86 23 54 34 18 87
REMARK Flexibility Score: inf
ROOT
ATOM      1  C   UNL A   1      41.827  20.544  26.645  1.00  0.00     0.202 C 
ENDROOT
BRANCH   1   2
ATOM      2  C   UNL A   1      42.977  20.989  25.742  1.00  0.00     0.261 C 
BRANCH   2   3
ATOM      3  O   UNL A   1      42.653  22.236  25.113  1.00  0.00    -0.460 OA
BRANCH   3   4
ATOM      4  C   UNL A   1      43.276  23.428  25.256  1.00  0.00     0.338 C 
ATOM      5  O   UNL A   1      44.254  23.659  24.546  1.00  0.00    -0.246 OA
BRANCH   4   6
ATOM      6  C   UNL A   1      42.856  24.486  26.230  1.00  0.00     0.060 A 
ATOM      7  C   UNL A   1      43.305  25.810  26.238  1.00  0.00     0.016 A 
ATOM      8  C   UNL A   1      41.848  24.128  27.139  1.00  0.00     0.016 A 
ATOM      9  C   UNL A   1      42.795  26.751  27.119  1.00  0.00     0.010 A 
ATOM     10  C   UNL A   1      41.321  25.066  28.027  1.00  0.00     0.010 A 
ATOM     11  C   UNL A   1      41.806  26.379  28.018  1.00  0.00    -0.014 A 
BRANCH  11  12
ATOM     12  C   UNL A   1      41.418  27.341  29.056  1.00  0.00     0.031 A 
ATOM     13  C   UNL A   1      42.256  27.392  30.291  1.00  0.00     0.074 A 
ATOM     14  C   UNL A   1      40.400  28.188  28.840  1.00  0.00     0.049 A 
ATOM     15  N   UNL A   1      42.052  28.027  31.408  1.00  0.00    -0.248 NA
ATOM     16  C   UNL A   1      43.504  26.611  30.250  1.00  0.00     0.031 C 
ATOM     17  C   UNL A   1      39.643  28.291  27.590  1.00  0.00     0.029 A 
ATOM     18  N   UNL A   1      39.831  29.123  29.657  1.00  0.00    -0.354 N 
ATOM     19  C   UNL A   1      43.125  27.692  32.225  1.00  0.00     0.074 A 
ATOM     20  C   UNL A   1      43.971  26.793  31.472  1.00  0.00     0.031 C 
ATOM     21  C   UNL A   1      38.691  29.226  27.734  1.00  0.00     0.029 A 
ATOM     22  C   UNL A   1      38.724  29.724  29.105  1.00  0.00     0.049 A 
ATOM     23  H   UNL A   1      40.177  29.344  30.553  1.00  0.00     0.167 HD
ATOM     24  C   UNL A   1      43.355  28.095  33.497  1.00  0.00     0.034 A 
ATOM     25  C   UNL A   1      37.812  30.530  29.679  1.00  0.00     0.034 A 
ATOM     26  C   UNL A   1      42.445  28.966  34.199  1.00  0.00     0.049 A 
ATOM     27  C   UNL A   1      38.011  30.875  31.135  1.00  0.00     0.074 A 
ATOM     28  C   UNL A   1      42.491  29.400  35.509  1.00  0.00     0.029 A 
ATOM     29  N   UNL A   1      41.301  29.523  33.631  1.00  0.00    -0.354 N 
ATOM     30  N   UNL A   1      38.973  30.490  31.946  1.00  0.00    -0.248 NA
ATOM     31  C   UNL A   1      37.011  31.747  31.756  1.00  0.00     0.031 C 
ATOM     32  C   UNL A   1      41.339  30.158  35.751  1.00  0.00     0.029 A 
ATOM     33  C   UNL A   1      40.618  30.275  34.570  1.00  0.00     0.049 A 
ATOM     34  H   UNL A   1      41.019  29.400  32.696  1.00  0.00     0.167 HD
ATOM     35  C   UNL A   1      38.711  31.097  33.169  1.00  0.00     0.074 A 
ATOM     36  C   UNL A   1      37.496  31.873  32.984  1.00  0.00     0.031 C 
ATOM     37  C   UNL A   1      39.409  31.034  34.333  1.00  0.00     0.034 A 
BRANCH  24  38
ATOM     38  C   UNL A   1      44.546  27.483  34.196  1.00  0.00     0.023 A 
ATOM     39  C   UNL A   1      44.462  26.249  34.870  1.00  0.00     0.031 A 
ATOM     40  C   UNL A   1      45.739  28.216  34.322  1.00  0.00     0.131 A 
ATOM     41  C   UNL A   1      45.495  25.851  35.733  1.00  0.00     0.055 A 
ATOM     42  C   UNL A   1      46.806  27.763  35.101  1.00  0.00     0.041 A 
ATOM     43  F   UNL A   1      45.872  29.414  33.732  1.00  0.00    -0.206 F 
ATOM     44  C   UNL A   1      46.677  26.587  35.834  1.00  0.00     0.022 A 
BRANCH  41  45
ATOM     45  S   UNL A   1      45.178  24.487  36.890  1.00  0.00     0.124 S 
ATOM     46  O   UNL A   1      43.771  24.192  36.621  1.00  0.00    -0.237 OA
ATOM     47  O   UNL A   1      46.135  23.476  36.457  1.00  0.00    -0.237 OA
ATOM     48  O   UNL A   1      45.441  25.078  38.200  1.00  0.00    -0.744 OA
ENDBRANCH  41  45
ENDBRANCH  24  38
BRANCH  25  49
ATOM     49  C   UNL A   1      36.615  30.976  28.908  1.00  0.00     0.023 A 
ATOM     50  C   UNL A   1      35.693  30.060  28.381  1.00  0.00     0.031 A 
ATOM     51  C   UNL A   1      36.370  32.348  28.699  1.00  0.00     0.131 A 
ATOM     52  C   UNL A   1      34.579  30.524  27.661  1.00  0.00     0.055 A 
ATOM     53  C   UNL A   1      35.238  32.805  28.024  1.00  0.00     0.041 A 
ATOM     54  F   UNL A   1      37.220  33.271  29.179  1.00  0.00    -0.206 F 
ATOM     55  C   UNL A   1      34.337  31.890  27.493  1.00  0.00     0.022 A 
BRANCH  52  56
ATOM     56  S   UNL A   1      33.466  29.314  26.892  1.00  0.00     0.124 S 
ATOM     57  O   UNL A   1      32.808  30.121  25.872  1.00  0.00    -0.237 OA
ATOM     58  O   UNL A   1      34.403  28.305  26.407  1.00  0.00    -0.237 OA
ATOM     59  O   UNL A   1      32.612  28.886  27.997  1.00  0.00    -0.744 OA
ENDBRANCH  52  56
ENDBRANCH  25  49
BRANCH  37  60
ATOM     60  C   UNL A   1      38.910  31.884  35.472  1.00  0.00     0.023 A 
ATOM     61  C   UNL A   1      38.227  31.334  36.567  1.00  0.00     0.031 A 
ATOM     62  C   UNL A   1      39.178  33.264  35.473  1.00  0.00     0.131 A 
ATOM     63  C   UNL A   1      37.809  32.170  37.611  1.00  0.00     0.055 A 
ATOM     64  C   UNL A   1      38.810  34.080  36.540  1.00  0.00     0.041 A 
ATOM     65  F   UNL A   1      39.828  33.834  34.446  1.00  0.00    -0.206 F 
ATOM     66  C   UNL A   1      38.115  33.534  37.615  1.00  0.00     0.022 A 
BRANCH  63  67
ATOM     67  S   UNL A   1      36.807  31.462  38.948  1.00  0.00     0.124 S 
ATOM     68  O   UNL A   1      37.700  31.595  40.095  1.00  0.00    -0.237 OA
ATOM     69  O   UNL A   1      35.632  32.327  38.950  1.00  0.00    -0.237 OA
ATOM     70  O   UNL A   1      36.565  30.091  38.505  1.00  0.00    -0.744 OA
ENDBRANCH  63  67
ENDBRANCH  37  60
ENDBRANCH  11  12
ENDBRANCH   4   6
ENDBRANCH   3   4
ENDBRANCH   2   3
ENDBRANCH   1   2
BRANCH   1  71
ATOM     71  O   UNL A   1      40.556  20.467  26.001  1.00  0.00    -0.374 OA
BRANCH  71  72
ATOM     72  C   UNL A   1      39.700  21.606  26.125  1.00  0.00     0.202 C 
BRANCH  72  73
ATOM     73  C   UNL A   1      38.291  21.221  25.662  1.00  0.00     0.261 C 
BRANCH  73  74
ATOM     74  O   UNL A   1      37.745  22.320  24.920  1.00  0.00    -0.460 OA
BRANCH  74  75
ATOM     75  C   UNL A   1      37.039  23.219  25.659  1.00  0.00     0.338 C 
ATOM     76  O   UNL A   1      37.464  24.041  26.449  1.00  0.00    -0.246 OA
BRANCH  75  77
ATOM     77  C   UNL A   1      35.651  23.176  25.158  1.00  0.00     0.062 A 
ATOM     78  C   UNL A   1      35.115  21.971  24.695  1.00  0.00     0.016 A 
ATOM     79  C   UNL A   1      34.852  24.312  25.241  1.00  0.00     0.044 A 
ATOM     80  C   UNL A   1      33.750  21.881  24.414  1.00  0.00     0.003 A 
ATOM     81  C   UNL A   1      33.498  24.233  24.924  1.00  0.00     0.067 A 
ATOM     82  C   UNL A   1      32.934  23.006  24.555  1.00  0.00     0.028 A 
BRANCH  81  83
ATOM     83  N   UNL A   1      32.765  25.435  24.810  1.00  0.00    -0.221 N 
ATOM     84  N   UNL A   1      32.839  26.044  23.554  1.00  0.00    -0.260 N 
ATOM     85  C   UNL A   1      31.862  25.850  25.781  1.00  0.00     0.249 C 
ATOM     86  C   UNL A   1      32.110  27.127  23.174  1.00  0.00     0.243 C 
ATOM     87  H   UNL A   1      33.464  25.663  22.897  1.00  0.00     0.192 HD
ATOM     88  C   UNL A   1      30.790  26.794  25.289  1.00  0.00     0.097 C 
ATOM     89  O   UNL A   1      31.827  25.420  26.935  1.00  0.00    -0.272 OA
ATOM     90  O   UNL A   1      32.201  27.551  22.024  1.00  0.00    -0.273 OA
ATOM     91  C   UNL A   1      31.305  27.799  24.260  1.00  0.00     0.097 C 
ATOM     92  C   UNL A   1      29.654  25.900  24.770  1.00  0.00     0.041 C 
ATOM     93  C   UNL A   1      30.160  28.627  23.657  1.00  0.00     0.041 C 
ATOM     94  C   UNL A   1      28.705  26.598  23.852  1.00  0.00    -0.030 C 
ATOM     95  C   UNL A   1      28.925  27.824  23.360  1.00  0.00    -0.030 C 
ENDBRANCH  81  83
ENDBRANCH  75  77
ENDBRANCH  74  75
ENDBRANCH  73  74
ENDBRANCH  72  73
ENDBRANCH  71  72
ENDBRANCH   1  71
TORSDOF 18
ENDMDL
MODEL 2
REMARK VINA RESULT:     -12.1      5.037      8.945
REMARK SMILES O=C(OCCOCCOC(=O)c1cccc(N2NC(=O)[C@H]3CC=CC[C@H]3C2=O)c1)c1ccc(-c2c3nc(c(-c4cc(S(=O)(=O)[O-])ccc4F)c4ccc([nH]4)c(-c4cc(S(=O)(=O)[O-])ccc4F)c4nc(c(-c5cc(S(=O)(=O)[O-])ccc5F)c5ccc2[nH]5)C=C4)C=C3)cc1
REMARK SMILES IDX 5 1 4 2 3 3 2 4 1 5 30 6 31 7 92 8 32 9 91 10 33 11 34 12
REMARK SMILES IDX 35 13 85 14 36 15 90 16 84 17 86 18 37 19 89 20 83 21 82 22
REMARK SMILES IDX 38 24 70 25 50 26 69 27 51 28 54 29 68 30 87 31 52 32 53 33
REMARK SMILES IDX 67 35 88 36 55 37 39 38 40 39 48 40 41 41 47 42 49 43 46 44
REMARK SMILES IDX 42 45 43 46 44 47 45 48 71 49 72 50 80 51 73 52 79 53 81 54
REMARK SMILES IDX 78 55 74 56 75 57 76 58 77 59 56 60 57 61 65 62 58 63 64 64
REMARK SMILES IDX 66 65 63 66 59 67 60 68 61 69 62 70 6 71 7 72 8 73 9 74
REMARK SMILES IDX 10 75 11 76 12 77 13 78 29 79 14 80 16 81 15 82 17 83 18 84
REMARK SMILES IDX 27 85 19 86 26 88 28 89 20 90 21 91 25 92 22 93 24 94 23 95
REMARK H PARENT 86 23 54 34 18 87
REMARK Flexibility Score: inf
ROOT
ATOM      1  C   UNL A   1      35.154  20.417  25.093  1.00  0.00     0.202 C 
ENDROOT
BRANCH   1   2
ATOM      2  C   UNL A   1      36.648  20.102  25.015  1.00  0.00     0.261 C 
BRANCH   2   3
ATOM      3  O   UNL A   1      37.414  21.263  25.362  1.00  0.00    -0.460 OA
BRANCH   3   4
ATOM      4  C   UNL A   1      38.661  21.314  25.883  1.00  0.00     0.338 C 
ATOM      5  O   UNL A   1      39.283  20.259  26.000  1.00  0.00    -0.246 OA
BRANCH   4   6
ATOM      6  C   UNL A   1      39.333  22.573  26.336  1.00  0.00     0.060 A 
ATOM      7  C   UNL A   1      38.921  23.873  26.027  1.00  0.00     0.016 A 
ATOM      8  C   UNL A   1      40.403  22.418  27.232  1.00  0.00     0.016 A 
ATOM      9  C   UNL A   1      39.547  24.987  26.565  1.00  0.00     0.010 A 
ATOM     10  C   UNL A   1      41.038  23.530  27.786  1.00  0.00     0.010 A 
ATOM     11  C   UNL A   1      40.610  24.817  27.441  1.00  0.00    -0.014 A 
BRANCH  11  12
ATOM     12  C   UNL A   1      41.367  26.006  27.848  1.00  0.00     0.031 A 
ATOM     13  C   UNL A   1      40.656  27.017  28.686  1.00  0.00     0.074 A 
ATOM     14  C   UNL A   1      42.669  26.111  27.541  1.00  0.00     0.049 A 
ATOM     15  N   UNL A   1      41.032  28.210  29.047  1.00  0.00    -0.248 NA
ATOM     16  C   UNL A   1      39.329  26.618  29.183  1.00  0.00     0.031 C 
ATOM     17  C   UNL A   1      43.458  25.082  26.859  1.00  0.00     0.029 A 
ATOM     18  N   UNL A   1      43.557  27.126  27.763  1.00  0.00    -0.354 N 
ATOM     19  C   UNL A   1      39.971  28.724  29.783  1.00  0.00     0.074 A 
ATOM     20  C   UNL A   1      38.937  27.714  29.807  1.00  0.00     0.031 C 
ATOM     21  C   UNL A   1      44.713  25.531  26.700  1.00  0.00     0.029 A 
ATOM     22  C   UNL A   1      44.789  26.902  27.195  1.00  0.00     0.049 A 
ATOM     23  H   UNL A   1      43.336  27.937  28.277  1.00  0.00     0.167 HD
ATOM     24  C   UNL A   1      39.880  29.945  30.362  1.00  0.00     0.034 A 
ATOM     25  C   UNL A   1      45.827  27.745  27.041  1.00  0.00     0.034 A 
ATOM     26  C   UNL A   1      40.939  30.918  30.264  1.00  0.00     0.049 A 
ATOM     27  C   UNL A   1      45.668  29.145  27.582  1.00  0.00     0.074 A 
ATOM     28  C   UNL A   1      40.971  32.220  30.723  1.00  0.00     0.029 A 
ATOM     29  N   UNL A   1      42.163  30.682  29.639  1.00  0.00    -0.354 N 
ATOM     30  N   UNL A   1      44.633  29.674  28.200  1.00  0.00    -0.248 NA
ATOM     31  C   UNL A   1      46.798  30.060  27.405  1.00  0.00     0.031 C 
ATOM     32  C   UNL A   1      42.181  32.791  30.311  1.00  0.00     0.029 A 
ATOM     33  C   UNL A   1      42.946  31.821  29.675  1.00  0.00     0.049 A 
ATOM     34  H   UNL A   1      42.431  29.828  29.229  1.00  0.00     0.167 HD
ATOM     35  C   UNL A   1      44.998  30.978  28.512  1.00  0.00     0.074 A 
ATOM     36  C   UNL A   1      46.351  31.152  28.011  1.00  0.00     0.031 C 
ATOM     37  C   UNL A   1      44.294  31.942  29.161  1.00  0.00     0.034 A 
BRANCH  24  38
ATOM     38  C   UNL A   1      38.558  30.291  31.006  1.00  0.00     0.023 A 
ATOM     39  C   UNL A   1      37.560  31.009  30.321  1.00  0.00     0.031 A 
ATOM     40  C   UNL A   1      38.357  30.035  32.374  1.00  0.00     0.131 A 
ATOM     41  C   UNL A   1      36.475  31.550  31.029  1.00  0.00     0.055 A 
ATOM     42  C   UNL A   1      37.222  30.488  33.051  1.00  0.00     0.041 A 
ATOM     43  F   UNL A   1      39.284  29.385  33.094  1.00  0.00    -0.206 F 
ATOM     44  C   UNL A   1      36.286  31.273  32.384  1.00  0.00     0.022 A 
BRANCH  41  45
ATOM     45  S   UNL A   1      35.445  32.802  30.210  1.00  0.00     0.124 S 
ATOM     46  O   UNL A   1      36.448  33.583  29.487  1.00  0.00    -0.237 OA
ATOM     47  O   UNL A   1      34.555  31.991  29.388  1.00  0.00    -0.237 OA
ATOM     48  O   UNL A   1      34.806  33.503  31.321  1.00  0.00    -0.744 OA
ENDBRANCH  41  45
ENDBRANCH  24  38
BRANCH  25  49
ATOM     49  C   UNL A   1      47.036  27.313  26.281  1.00  0.00     0.023 A 
ATOM     50  C   UNL A   1      47.206  27.625  24.925  1.00  0.00     0.031 A 
ATOM     51  C   UNL A   1      48.058  26.583  26.920  1.00  0.00     0.131 A 
ATOM     52  C   UNL A   1      48.362  27.198  24.248  1.00  0.00     0.055 A 
ATOM     53  C   UNL A   1      49.225  26.203  26.256  1.00  0.00     0.041 A 
ATOM     54  F   UNL A   1      47.949  26.254  28.218  1.00  0.00    -0.206 F 
ATOM     55  C   UNL A   1      49.379  26.503  24.908  1.00  0.00     0.022 A 
BRANCH  52  56
ATOM     56  S   UNL A   1      48.501  27.515  22.467  1.00  0.00     0.124 S 
ATOM     57  O   UNL A   1      48.562  26.162  21.927  1.00  0.00    -0.237 OA
ATOM     58  O   UNL A   1      47.276  28.261  22.194  1.00  0.00    -0.237 OA
ATOM     59  O   UNL A   1      49.736  28.288  22.353  1.00  0.00    -0.744 OA
ENDBRANCH  52  56
ENDBRANCH  25  49
BRANCH  37  60
ATOM     60  C   UNL A   1      45.004  33.243  29.425  1.00  0.00     0.023 A 
ATOM     61  C   UNL A   1      44.964  34.311  28.516  1.00  0.00     0.031 A 
ATOM     62  C   UNL A   1      45.687  33.423  30.641  1.00  0.00     0.131 A 
ATOM     63  C   UNL A   1      45.623  35.508  28.827  1.00  0.00     0.055 A 
ATOM     64  C   UNL A   1      46.291  34.634  30.969  1.00  0.00     0.041 A 
ATOM     65  F   UNL A   1      45.753  32.428  31.541  1.00  0.00    -0.206 F 
ATOM     66  C   UNL A   1      46.267  35.684  30.056  1.00  0.00     0.022 A 
BRANCH  63  67
ATOM     67  S   UNL A   1      45.676  36.824  27.580  1.00  0.00     0.124 S 
ATOM     68  O   UNL A   1      47.082  37.215  27.615  1.00  0.00    -0.237 OA
ATOM     69  O   UNL A   1      45.235  36.131  26.374  1.00  0.00    -0.237 OA
ATOM     70  O   UNL A   1      44.742  37.823  28.096  1.00  0.00    -0.744 OA
ENDBRANCH  63  67
ENDBRANCH  37  60
ENDBRANCH  11  12
ENDBRANCH   4   6
ENDBRANCH   3   4
ENDBRANCH   2   3
ENDBRANCH   1   2
BRANCH   1  71
ATOM     71  O   UNL A   1      34.310  19.479  24.427  1.00  0.00    -0.374 OA
BRANCH  71  72
ATOM     72  C   UNL A   1      32.905  19.590  24.669  1.00  0.00     0.202 C 
BRANCH  72  73
ATOM     73  C   UNL A   1      32.299  20.556  23.646  1.00  0.00     0.261 C 
BRANCH  73  74
ATOM     74  O   UNL A   1      32.007  21.792  24.311  1.00  0.00    -0.460 OA
BRANCH  74  75
ATOM     75  C   UNL A   1      32.001  22.891  23.508  1.00  0.00     0.338 C 
ATOM     76  O   UNL A   1      32.425  22.992  22.372  1.00  0.00    -0.246 OA
BRANCH  75  77
ATOM     77  C   UNL A   1      31.167  23.903  24.185  1.00  0.00     0.062 A 
ATOM     78  C   UNL A   1      30.803  23.721  25.523  1.00  0.00     0.016 A 
ATOM     79  C   UNL A   1      30.831  25.078  23.521  1.00  0.00     0.044 A 
ATOM     80  C   UNL A   1      30.192  24.763  26.223  1.00  0.00     0.003 A 
ATOM     81  C   UNL A   1      30.187  26.104  24.209  1.00  0.00     0.067 A 
ATOM     82  C   UNL A   1      29.908  25.967  25.574  1.00  0.00     0.028 A 
BRANCH  81  83
ATOM     83  N   UNL A   1      29.670  27.187  23.465  1.00  0.00    -0.221 N 
ATOM     84  N   UNL A   1      28.287  27.362  23.576  1.00  0.00    -0.260 N 
ATOM     85  C   UNL A   1      30.489  28.137  22.867  1.00  0.00     0.249 C 
ATOM     86  C   UNL A   1      27.595  28.415  23.063  1.00  0.00     0.243 C 
ATOM     87  H   UNL A   1      27.777  26.674  24.059  1.00  0.00     0.192 HD
ATOM     88  C   UNL A   1      29.832  29.474  22.614  1.00  0.00     0.097 C 
ATOM     89  O   UNL A   1      31.692  27.987  22.649  1.00  0.00    -0.272 OA
ATOM     90  O   UNL A   1      26.388  28.509  23.269  1.00  0.00    -0.273 OA
ATOM     91  C   UNL A   1      28.375  29.349  22.170  1.00  0.00     0.097 C 
ATOM     92  C   UNL A   1      30.021  30.282  23.906  1.00  0.00     0.041 C 
ATOM     93  C   UNL A   1      27.691  30.721  22.088  1.00  0.00     0.041 C 
ATOM     94  C   UNL A   1      29.087  31.440  24.039  1.00  0.00    -0.030 C 
ATOM     95  C   UNL A   1      28.048  31.645  23.219  1.00  0.00    -0.030 C 
ENDBRANCH  81  83
ENDBRANCH  75  77
ENDBRANCH  74  75
ENDBRANCH  73  74
ENDBRANCH  72  73
ENDBRANCH  71  72
ENDBRANCH   1  71
TORSDOF 18
ENDMDL
MODEL 3
REMARK VINA RESULT:     -11.7      1.482      2.002
REMARK SMILES O=C(OCCOCCOC(=O)c1cccc(N2NC(=O)[C@H]3CC=CC[C@H]3C2=O)c1)c1ccc(-c2c3nc(c(-c4cc(S(=O)(=O)[O-])ccc4F)c4ccc([nH]4)c(-c4cc(S(=O)(=O)[O-])ccc4F)c4nc(c(-c5cc(S(=O)(=O)[O-])ccc5F)c5ccc2[nH]5)C=C4)C=C3)cc1
REMARK SMILES IDX 5 1 4 2 3 3 2 4 1 5 30 6 31 7 92 8 32 9 91 10 33 11 34 12
REMARK SMILES IDX 35 13 85 14 36 15 90 16 84 17 86 18 37 19 89 20 83 21 82 22
REMARK SMILES IDX 38 24 70 25 50 26 69 27 51 28 54 29 68 30 87 31 52 32 53 33
REMARK SMILES IDX 67 35 88 36 55 37 39 38 40 39 48 40 41 41 47 42 49 43 46 44
REMARK SMILES IDX 42 45 43 46 44 47 45 48 71 49 72 50 80 51 73 52 79 53 81 54
REMARK SMILES IDX 78 55 74 56 75 57 76 58 77 59 56 60 57 61 65 62 58 63 64 64
REMARK SMILES IDX 66 65 63 66 59 67 60 68 61 69 62 70 6 71 7 72 8 73 9 74
REMARK SMILES IDX 10 75 11 76 12 77 13 78 29 79 14 80 16 81 15 82 17 83 18 84
REMARK SMILES IDX 27 85 19 86 26 88 28 89 20 90 21 91 25 92 22 93 24 94 23 95
REMARK H PARENT 86 23 54 34 18 87
REMARK Flexibility Score: inf
ROOT
ATOM      1  C   UNL A   1      41.888  21.059  26.520  1.00  0.00     0.202 C 
ENDROOT
BRANCH   1   2
ATOM      2  C   UNL A   1      43.090  21.497  25.684  1.00  0.00     0.261 C 
BRANCH   2   3
ATOM      3  O   UNL A   1      42.790  22.717  24.994  1.00  0.00    -0.460 OA
BRANCH   3   4
ATOM      4  C   UNL A   1      43.357  23.933  25.166  1.00  0.00     0.338 C 
ATOM      5  O   UNL A   1      44.317  24.230  24.456  1.00  0.00    -0.246 OA
BRANCH   4   6
ATOM      6  C   UNL A   1      42.897  24.942  26.172  1.00  0.00     0.060 A 
ATOM      7  C   UNL A   1      43.295  26.281  26.225  1.00  0.00     0.016 A 
ATOM      8  C   UNL A   1      41.901  24.517  27.067  1.00  0.00     0.016 A 
ATOM      9  C   UNL A   1      42.748  27.173  27.134  1.00  0.00     0.010 A 
ATOM     10  C   UNL A   1      41.338  25.405  27.983  1.00  0.00     0.010 A 
ATOM     11  C   UNL A   1      41.773  26.735  28.019  1.00  0.00    -0.014 A 
BRANCH  11  12
ATOM     12  C   UNL A   1      41.347  27.648  29.086  1.00  0.00     0.031 A 
ATOM     13  C   UNL A   1      42.202  27.719  30.308  1.00  0.00     0.074 A 
ATOM     14  C   UNL A   1      40.278  28.438  28.906  1.00  0.00     0.049 A 
ATOM     15  N   UNL A   1      41.980  28.313  31.444  1.00  0.00    -0.248 NA
ATOM     16  C   UNL A   1      43.492  27.014  30.228  1.00  0.00     0.031 C 
ATOM     17  C   UNL A   1      39.495  28.526  27.672  1.00  0.00     0.029 A 
ATOM     18  N   UNL A   1      39.668  29.318  29.756  1.00  0.00    -0.354 N 
ATOM     19  C   UNL A   1      43.085  28.023  32.235  1.00  0.00     0.074 A 
ATOM     20  C   UNL A   1      43.969  27.193  31.447  1.00  0.00     0.031 C 
ATOM     21  C   UNL A   1      38.492  29.400  27.854  1.00  0.00     0.029 A 
ATOM     22  C   UNL A   1      38.519  29.866  29.237  1.00  0.00     0.049 A 
ATOM     23  H   UNL A   1      40.017  29.537  30.651  1.00  0.00     0.167 HD
ATOM     24  C   UNL A   1      43.313  28.408  33.513  1.00  0.00     0.034 A 
ATOM     25  C   UNL A   1      37.571  30.603  29.845  1.00  0.00     0.034 A 
ATOM     26  C   UNL A   1      42.366  29.207  34.251  1.00  0.00     0.049 A 
ATOM     27  C   UNL A   1      37.775  30.925  31.305  1.00  0.00     0.074 A 
ATOM     28  C   UNL A   1      42.409  29.612  35.570  1.00  0.00     0.029 A 
ATOM     29  N   UNL A   1      41.181  29.710  33.714  1.00  0.00    -0.354 N 
ATOM     30  N   UNL A   1      38.772  30.577  32.091  1.00  0.00    -0.248 NA
ATOM     31  C   UNL A   1      36.737  31.720  31.963  1.00  0.00     0.031 C 
ATOM     32  C   UNL A   1      41.218  30.295  35.849  1.00  0.00     0.029 A 
ATOM     33  C   UNL A   1      40.472  30.397  34.682  1.00  0.00     0.049 A 
ATOM     34  H   UNL A   1      40.890  29.592  32.782  1.00  0.00     0.167 HD
ATOM     35  C   UNL A   1      38.496  31.139  33.332  1.00  0.00     0.074 A 
ATOM     36  C   UNL A   1      37.235  31.846  33.187  1.00  0.00     0.031 C 
ATOM     37  C   UNL A   1      39.216  31.089  34.483  1.00  0.00     0.034 A 
BRANCH  24  38
ATOM     38  C   UNL A   1      44.549  27.850  34.177  1.00  0.00     0.023 A 
ATOM     39  C   UNL A   1      44.520  26.659  34.926  1.00  0.00     0.031 A 
ATOM     40  C   UNL A   1      45.737  28.602  34.191  1.00  0.00     0.131 A 
ATOM     41  C   UNL A   1      45.605  26.323  35.752  1.00  0.00     0.055 A 
ATOM     42  C   UNL A   1      46.852  28.207  34.934  1.00  0.00     0.041 A 
ATOM     43  F   UNL A   1      45.821  29.764  33.526  1.00  0.00    -0.206 F 
ATOM     44  C   UNL A   1      46.781  27.075  35.741  1.00  0.00     0.022 A 
BRANCH  41  45
ATOM     45  S   UNL A   1      45.372  25.027  37.003  1.00  0.00     0.124 S 
ATOM     46  O   UNL A   1      43.930  24.795  36.923  1.00  0.00    -0.237 OA
ATOM     47  O   UNL A   1      46.219  23.951  36.505  1.00  0.00    -0.237 OA
ATOM     48  O   UNL A   1      45.824  25.658  38.241  1.00  0.00    -0.744 OA
ENDBRANCH  41  45
ENDBRANCH  24  38
BRANCH  25  49
ATOM     49  C   UNL A   1      36.337  30.996  29.104  1.00  0.00     0.023 A 
ATOM     50  C   UNL A   1      35.907  32.329  29.039  1.00  0.00     0.031 A 
ATOM     51  C   UNL A   1      35.571  30.025  28.429  1.00  0.00     0.131 A 
ATOM     52  C   UNL A   1      34.738  32.653  28.330  1.00  0.00     0.055 A 
ATOM     53  C   UNL A   1      34.437  30.358  27.686  1.00  0.00     0.041 A 
ATOM     54  F   UNL A   1      35.933  28.732  28.457  1.00  0.00    -0.206 F 
ATOM     55  C   UNL A   1      34.010  31.680  27.640  1.00  0.00     0.022 A 
BRANCH  52  56
ATOM     56  S   UNL A   1      34.142  34.367  28.360  1.00  0.00     0.124 S 
ATOM     57  O   UNL A   1      32.702  34.183  28.224  1.00  0.00    -0.237 OA
ATOM     58  O   UNL A   1      34.610  34.828  29.664  1.00  0.00    -0.237 OA
ATOM     59  O   UNL A   1      34.804  34.979  27.212  1.00  0.00    -0.744 OA
ENDBRANCH  52  56
ENDBRANCH  25  49
BRANCH  37  60
ATOM     60  C   UNL A   1      38.688  31.880  35.651  1.00  0.00     0.023 A 
ATOM     61  C   UNL A   1      38.056  31.265  36.742  1.00  0.00     0.031 A 
ATOM     62  C   UNL A   1      38.878  33.274  35.684  1.00  0.00     0.131 A 
ATOM     63  C   UNL A   1      37.607  32.050  37.813  1.00  0.00     0.055 A 
ATOM     64  C   UNL A   1      38.481  34.041  36.776  1.00  0.00     0.041 A 
ATOM     65  F   UNL A   1      39.477  33.905  34.661  1.00  0.00    -0.206 F 
ATOM     66  C   UNL A   1      37.835  33.430  37.847  1.00  0.00     0.022 A 
BRANCH  63  67
ATOM     67  S   UNL A   1      36.669  31.254  39.145  1.00  0.00     0.124 S 
ATOM     68  O   UNL A   1      35.561  32.186  39.332  1.00  0.00    -0.237 OA
ATOM     69  O   UNL A   1      36.326  29.963  38.559  1.00  0.00    -0.237 OA
ATOM     70  O   UNL A   1      37.624  31.198  40.250  1.00  0.00    -0.744 OA
ENDBRANCH  63  67
ENDBRANCH  37  60
ENDBRANCH  11  12
ENDBRANCH   4   6
ENDBRANCH   3   4
ENDBRANCH   2   3
ENDBRANCH   1   2
BRANCH   1  71
ATOM     71  O   UNL A   1      40.674  20.904  25.787  1.00  0.00    -0.374 OA
BRANCH  71  72
ATOM     72  C   UNL A   1      39.529  21.604  26.280  1.00  0.00     0.202 C 
BRANCH  72  73
ATOM     73  C   UNL A   1      38.290  21.131  25.512  1.00  0.00     0.261 C 
BRANCH  73  74
ATOM     74  O   UNL A   1      37.775  22.240  24.763  1.00  0.00    -0.460 OA
BRANCH  74  75
ATOM     75  C   UNL A   1      36.876  23.017  25.429  1.00  0.00     0.338 C 
ATOM     76  O   UNL A   1      37.101  23.929  26.202  1.00  0.00    -0.246 OA
BRANCH  75  77
ATOM     77  C   UNL A   1      35.549  22.702  24.865  1.00  0.00     0.062 A 
ATOM     78  C   UNL A   1      35.127  21.372  24.779  1.00  0.00     0.016 A 
ATOM     79  C   UNL A   1      34.685  23.734  24.513  1.00  0.00     0.044 A 
ATOM     80  C   UNL A   1      33.804  21.084  24.440  1.00  0.00     0.003 A 
ATOM     81  C   UNL A   1      33.376  23.446  24.137  1.00  0.00     0.067 A 
ATOM     82  C   UNL A   1      32.918  22.123  24.145  1.00  0.00     0.028 A 
BRANCH  81  83
ATOM     83  N   UNL A   1      32.595  24.484  23.584  1.00  0.00    -0.221 N 
ATOM     84  N   UNL A   1      31.817  25.185  24.511  1.00  0.00    -0.260 N 
ATOM     85  C   UNL A   1      32.761  24.926  22.277  1.00  0.00     0.249 C 
ATOM     86  C   UNL A   1      31.097  26.304  24.232  1.00  0.00     0.243 C 
ATOM     87  H   UNL A   1      31.788  24.843  25.433  1.00  0.00     0.192 HD
ATOM     88  C   UNL A   1      32.292  26.339  22.019  1.00  0.00     0.097 C 
ATOM     89  O   UNL A   1      33.345  24.296  21.394  1.00  0.00    -0.272 OA
ATOM     90  O   UNL A   1      30.496  26.883  25.133  1.00  0.00    -0.273 OA
ATOM     91  C   UNL A   1      31.012  26.691  22.775  1.00  0.00     0.097 C 
ATOM     92  C   UNL A   1      33.485  27.243  22.361  1.00  0.00     0.041 C 
ATOM     93  C   UNL A   1      30.660  28.178  22.627  1.00  0.00     0.041 C 
ATOM     94  C   UNL A   1      33.115  28.670  22.601  1.00  0.00    -0.030 C 
ATOM     95  C   UNL A   1      31.849  29.093  22.710  1.00  0.00    -0.030 C 
ENDBRANCH  81  83
ENDBRANCH  75  77
ENDBRANCH  74  75
ENDBRANCH  73  74
ENDBRANCH  72  73
ENDBRANCH  71  72
ENDBRANCH   1  71
TORSDOF 18
ENDMDL
