MODEL 1
REMARK VINA RESULT:     -10.7      0.000      0.000
REMARK SMILES CCc1nc(COC)cc(N2CCCC[C@H]2C(=O)OCCOCCOC(=O)c2ccc(-c3c4nc(c(-c5cc(S(=O)(=O)[O-])ccc5F)c5ccc([nH]5)c(-c5cc(S(=O)(=O)[O-])ccc5F)c5nc(c(-c6cc(S(=O)(=O)[O-])ccc6F)c6ccc3[nH]6)C=C5)C=C4)cc2)n1
REMARK SMILES IDX 22 1 21 2 20 3 19 4 17 5 18 6 16 7 11 8 12 9 13 10 15 11
REMARK SMILES IDX 14 12 10 13 3 14 4 15 91 16 5 17 9 18 2 19 1 20 6 21 7 22
REMARK SMILES IDX 8 23 23 24 24 25 25 26 26 27 27 28 28 29 29 30 90 31 30 32
REMARK SMILES IDX 89 33 31 34 32 35 33 36 83 37 34 38 88 39 82 40 84 41 35 42
REMARK SMILES IDX 87 43 81 44 80 45 36 47 68 48 48 49 67 50 49 51 52 52 66 53
REMARK SMILES IDX 85 54 50 55 51 56 65 58 86 59 53 60 37 61 38 62 46 63 39 64
REMARK SMILES IDX 45 65 47 66 44 67 40 68 41 69 42 70 43 71 69 72 70 73 78 74
REMARK SMILES IDX 71 75 77 76 79 77 76 78 72 79 73 80 74 81 75 82 54 83 55 84
REMARK SMILES IDX 63 85 56 86 62 87 64 88 61 89 57 90 58 91 59 92 60 93
REMARK H PARENT 84 46 52 57
REMARK Flexibility Score: inf
ROOT
ATOM      1  O   UNL A   1      35.198  20.653  25.725  1.00  0.00    -0.374 OA
ENDROOT
BRANCH   1   2
ATOM      2  C   UNL A   1      35.022  22.064  25.832  1.00  0.00     0.202 C 
BRANCH   2   3
ATOM      3  C   UNL A   1      35.218  22.897  24.562  1.00  0.00     0.261 C 
BRANCH   3   4
ATOM      4  O   UNL A   1      34.963  24.289  24.796  1.00  0.00    -0.462 OA
BRANCH   4   5
ATOM      5  C   UNL A   1      34.025  24.842  23.973  1.00  0.00     0.328 C 
ATOM      6  O   UNL A   1      34.087  24.822  22.748  1.00  0.00    -0.250 OA
BRANCH   5   7
ATOM      7  C   UNL A   1      32.812  25.365  24.766  1.00  0.00     0.193 C 
ATOM      8  N   UNL A   1      31.922  26.221  23.973  1.00  0.00    -0.343 N 
ATOM      9  C   UNL A   1      31.177  25.631  22.873  1.00  0.00     0.119 C 
ATOM     10  C   UNL A   1      30.457  24.354  23.307  1.00  0.00     0.022 C 
ATOM     11  C   UNL A   1      31.998  24.175  25.293  1.00  0.00     0.037 C 
ATOM     12  C   UNL A   1      31.325  23.420  24.146  1.00  0.00     0.005 C 
BRANCH   8  13
ATOM     13  C   UNL A   1      31.681  27.531  24.328  1.00  0.00     0.133 A 
ATOM     14  C   UNL A   1      32.011  29.302  25.767  1.00  0.00     0.130 A 
ATOM     15  N   UNL A   1      31.168  30.109  25.109  1.00  0.00    -0.235 NA
ATOM     16  N   UNL A   1      32.279  28.024  25.428  1.00  0.00    -0.216 NA
ATOM     17  C   UNL A   1      30.534  29.581  24.048  1.00  0.00     0.072 A 
ATOM     18  C   UNL A   1      30.801  28.301  23.595  1.00  0.00     0.073 A 
BRANCH  14  19
ATOM     19  C   UNL A   1      32.688  29.883  26.977  1.00  0.00     0.074 C 
ATOM     20  C   UNL A   1      33.975  29.146  27.312  1.00  0.00     0.012 C 
ENDBRANCH  14  19
BRANCH  17  21
ATOM     21  C   UNL A   1      29.450  30.406  23.398  1.00  0.00     0.216 C 
BRANCH  21  22
ATOM     22  O   UNL A   1      28.419  29.637  22.775  1.00  0.00    -0.378 OA
ATOM     23  C   UNL A   1      28.022  30.134  21.502  1.00  0.00     0.195 C 
ENDBRANCH  21  22
ENDBRANCH  17  21
ENDBRANCH   8  13
ENDBRANCH   5   7
ENDBRANCH   4   5
ENDBRANCH   3   4
ENDBRANCH   2   3
ENDBRANCH   1   2
BRANCH   1  24
ATOM     24  C   UNL A   1      36.049  20.160  24.692  1.00  0.00     0.202 C 
BRANCH  24  25
ATOM     25  C   UNL A   1      37.526  19.914  25.022  1.00  0.00     0.261 C 
BRANCH  25  26
ATOM     26  O   UNL A   1      38.222  21.113  25.403  1.00  0.00    -0.460 OA
BRANCH  26  27
ATOM     27  C   UNL A   1      39.350  20.899  26.127  1.00  0.00     0.338 C 
ATOM     28  O   UNL A   1      39.972  19.849  26.225  1.00  0.00    -0.246 OA
BRANCH  27  29
ATOM     29  C   UNL A   1      39.856  22.185  26.629  1.00  0.00     0.060 A 
ATOM     30  C   UNL A   1      39.265  23.363  26.157  1.00  0.00     0.016 A 
ATOM     31  C   UNL A   1      40.925  22.239  27.522  1.00  0.00     0.016 A 
ATOM     32  C   UNL A   1      39.763  24.601  26.555  1.00  0.00     0.010 A 
ATOM     33  C   UNL A   1      41.407  23.481  27.942  1.00  0.00     0.010 A 
ATOM     34  C   UNL A   1      40.859  24.669  27.426  1.00  0.00    -0.014 A 
BRANCH  34  35
ATOM     35  C   UNL A   1      41.562  25.961  27.629  1.00  0.00     0.031 A 
ATOM     36  C   UNL A   1      40.879  27.022  28.452  1.00  0.00     0.074 A 
ATOM     37  C   UNL A   1      42.794  26.177  27.134  1.00  0.00     0.049 A 
ATOM     38  N   UNL A   1      41.267  28.238  28.739  1.00  0.00    -0.248 NA
ATOM     39  C   UNL A   1      39.568  26.660  29.015  1.00  0.00     0.031 C 
ATOM     40  C   UNL A   1      43.578  25.213  26.363  1.00  0.00     0.029 A 
ATOM     41  N   UNL A   1      43.606  27.281  27.215  1.00  0.00    -0.354 N 
ATOM     42  C   UNL A   1      40.243  28.788  29.504  1.00  0.00     0.074 A 
ATOM     43  C   UNL A   1      39.192  27.797  29.573  1.00  0.00     0.031 C 
ATOM     44  C   UNL A   1      44.767  25.763  26.058  1.00  0.00     0.029 A 
ATOM     45  C   UNL A   1      44.813  27.130  26.574  1.00  0.00     0.049 A 
ATOM     46  H   UNL A   1      43.348  28.104  27.690  1.00  0.00     0.167 HD
ATOM     47  C   UNL A   1      40.193  29.998  30.117  1.00  0.00     0.034 A 
ATOM     48  C   UNL A   1      45.829  28.001  26.413  1.00  0.00     0.034 A 
ATOM     49  C   UNL A   1      41.248  30.975  30.035  1.00  0.00     0.049 A 
ATOM     50  C   UNL A   1      45.711  29.382  27.014  1.00  0.00     0.074 A 
ATOM     51  C   UNL A   1      41.310  32.230  30.616  1.00  0.00     0.029 A 
ATOM     52  N   UNL A   1      42.428  30.812  29.318  1.00  0.00    -0.354 N 
ATOM     53  N   UNL A   1      44.739  29.893  27.737  1.00  0.00    -0.248 NA
ATOM     54  C   UNL A   1      46.832  30.303  26.781  1.00  0.00     0.031 C 
ATOM     55  C   UNL A   1      42.490  32.852  30.190  1.00  0.00     0.029 A 
ATOM     56  C   UNL A   1      43.207  31.954  29.413  1.00  0.00     0.049 A 
ATOM     57  H   UNL A   1      42.672  30.002  28.814  1.00  0.00     0.167 HD
ATOM     58  C   UNL A   1      45.151  31.180  28.074  1.00  0.00     0.074 A 
ATOM     59  C   UNL A   1      46.462  31.363  27.484  1.00  0.00     0.031 C 
ATOM     60  C   UNL A   1      44.509  32.125  28.811  1.00  0.00     0.034 A 
BRANCH  47  61
ATOM     61  C   UNL A   1      38.930  30.325  30.881  1.00  0.00     0.023 A 
ATOM     62  C   UNL A   1      37.914  31.119  30.318  1.00  0.00     0.031 A 
ATOM     63  C   UNL A   1      38.772  29.906  32.213  1.00  0.00     0.131 A 
ATOM     64  C   UNL A   1      36.845  31.557  31.114  1.00  0.00     0.055 A 
ATOM     65  C   UNL A   1      37.655  30.263  32.970  1.00  0.00     0.041 A 
ATOM     66  F   UNL A   1      39.717  29.166  32.814  1.00  0.00    -0.206 F 
ATOM     67  C   UNL A   1      36.694  31.113  32.429  1.00  0.00     0.022 A 
BRANCH  64  68
ATOM     68  S   UNL A   1      35.770  32.868  30.469  1.00  0.00     0.124 S 
ATOM     69  O   UNL A   1      36.110  32.856  29.048  1.00  0.00    -0.237 OA
ATOM     70  O   UNL A   1      34.439  32.382  30.810  1.00  0.00    -0.237 OA
ATOM     71  O   UNL A   1      36.207  34.059  31.195  1.00  0.00    -0.744 OA
ENDBRANCH  64  68
ENDBRANCH  47  61
BRANCH  48  72
ATOM     72  C   UNL A   1      47.047  27.614  25.644  1.00  0.00     0.023 A 
ATOM     73  C   UNL A   1      47.165  27.920  24.278  1.00  0.00     0.031 A 
ATOM     74  C   UNL A   1      48.089  26.889  26.248  1.00  0.00     0.131 A 
ATOM     75  C   UNL A   1      48.277  27.466  23.552  1.00  0.00     0.055 A 
ATOM     76  C   UNL A   1      49.218  26.482  25.533  1.00  0.00     0.041 A 
ATOM     77  F   UNL A   1      48.028  26.570  27.550  1.00  0.00    -0.206 F 
ATOM     78  C   UNL A   1      49.310  26.761  24.173  1.00  0.00     0.022 A 
BRANCH  75  79
ATOM     79  S   UNL A   1      48.316  27.744  21.759  1.00  0.00     0.124 S 
ATOM     80  O   UNL A   1      47.002  28.330  21.521  1.00  0.00    -0.237 OA
ATOM     81  O   UNL A   1      49.456  28.643  21.618  1.00  0.00    -0.237 OA
ATOM     82  O   UNL A   1      48.512  26.403  21.212  1.00  0.00    -0.744 OA
ENDBRANCH  75  79
ENDBRANCH  48  72
BRANCH  60  83
ATOM     83  C   UNL A   1      45.245  33.421  29.062  1.00  0.00     0.023 A 
ATOM     84  C   UNL A   1      45.103  34.533  28.214  1.00  0.00     0.031 A 
ATOM     85  C   UNL A   1      46.105  33.539  30.169  1.00  0.00     0.131 A 
ATOM     86  C   UNL A   1      45.855  35.694  28.453  1.00  0.00     0.055 A 
ATOM     87  C   UNL A   1      46.800  34.719  30.439  1.00  0.00     0.041 A 
ATOM     88  F   UNL A   1      46.280  32.509  31.012  1.00  0.00    -0.206 F 
ATOM     89  C   UNL A   1      46.688  35.800  29.570  1.00  0.00     0.022 A 
BRANCH  86  90
ATOM     90  S   UNL A   1      45.807  37.031  27.229  1.00  0.00     0.124 S 
ATOM     91  O   UNL A   1      44.372  37.232  27.055  1.00  0.00    -0.237 OA
ATOM     92  O   UNL A   1      46.523  38.105  27.910  1.00  0.00    -0.237 OA
ATOM     93  O   UNL A   1      46.498  36.463  26.073  1.00  0.00    -0.744 OA
ENDBRANCH  86  90
ENDBRANCH  60  83
ENDBRANCH  34  35
ENDBRANCH  27  29
ENDBRANCH  26  27
ENDBRANCH  25  26
ENDBRANCH  24  25
ENDBRANCH   1  24
TORSDOF 21
ENDMDL
MODEL 2
REMARK VINA RESULT:     -10.6      4.783      8.616
REMARK SMILES CCc1nc(COC)cc(N2CCCC[C@H]2C(=O)OCCOCCOC(=O)c2ccc(-c3c4nc(c(-c5cc(S(=O)(=O)[O-])ccc5F)c5ccc([nH]5)c(-c5cc(S(=O)(=O)[O-])ccc5F)c5nc(c(-c6cc(S(=O)(=O)[O-])ccc6F)c6ccc3[nH]6)C=C5)C=C4)cc2)n1
REMARK SMILES IDX 22 1 21 2 20 3 19 4 17 5 18 6 16 7 11 8 12 9 13 10 15 11
REMARK SMILES IDX 14 12 10 13 3 14 4 15 91 16 5 17 9 18 2 19 1 20 6 21 7 22
REMARK SMILES IDX 8 23 23 24 24 25 25 26 26 27 27 28 28 29 29 30 90 31 30 32
REMARK SMILES IDX 89 33 31 34 32 35 33 36 83 37 34 38 88 39 82 40 84 41 35 42
REMARK SMILES IDX 87 43 81 44 80 45 36 47 68 48 48 49 67 50 49 51 52 52 66 53
REMARK SMILES IDX 85 54 50 55 51 56 65 58 86 59 53 60 37 61 38 62 46 63 39 64
REMARK SMILES IDX 45 65 47 66 44 67 40 68 41 69 42 70 43 71 69 72 70 73 78 74
REMARK SMILES IDX 71 75 77 76 79 77 76 78 72 79 73 80 74 81 75 82 54 83 55 84
REMARK SMILES IDX 63 85 56 86 62 87 64 88 61 89 57 90 58 91 59 92 60 93
REMARK H PARENT 84 46 52 57
REMARK Flexibility Score: inf
ROOT
ATOM      1  O   UNL A   1      32.307  30.407  26.209  1.00  0.00    -0.374 OA
ENDROOT
BRANCH   1   2
ATOM      2  C   UNL A   1      31.988  29.075  25.815  1.00  0.00     0.202 C 
BRANCH   2   3
ATOM      3  C   UNL A   1      32.683  28.523  24.567  1.00  0.00     0.261 C 
BRANCH   3   4
ATOM      4  O   UNL A   1      32.226  27.202  24.244  1.00  0.00    -0.462 OA
BRANCH   4   5
ATOM      5  C   UNL A   1      33.014  26.195  24.719  1.00  0.00     0.328 C 
ATOM      6  O   UNL A   1      33.983  26.367  25.451  1.00  0.00    -0.250 OA
BRANCH   5   7
ATOM      7  C   UNL A   1      32.453  24.810  24.345  1.00  0.00     0.193 C 
ATOM      8  N   UNL A   1      32.654  23.798  25.387  1.00  0.00    -0.343 N 
ATOM      9  C   UNL A   1      31.949  23.940  26.651  1.00  0.00     0.119 C 
ATOM     10  C   UNL A   1      30.459  24.206  26.432  1.00  0.00     0.022 C 
ATOM     11  C   UNL A   1      30.947  24.929  24.068  1.00  0.00     0.037 C 
ATOM     12  C   UNL A   1      30.177  25.246  25.350  1.00  0.00     0.005 C 
BRANCH   8  13
ATOM     13  C   UNL A   1      33.388  22.656  25.148  1.00  0.00     0.133 A 
ATOM     14  C   UNL A   1      33.547  20.356  25.106  1.00  0.00     0.130 A 
ATOM     15  N   UNL A   1      34.840  20.363  24.754  1.00  0.00    -0.235 NA
ATOM     16  N   UNL A   1      32.801  21.458  25.327  1.00  0.00    -0.216 NA
ATOM     17  C   UNL A   1      35.426  21.566  24.638  1.00  0.00     0.072 A 
ATOM     18  C   UNL A   1      34.717  22.746  24.782  1.00  0.00     0.073 A 
BRANCH  14  19
ATOM     19  C   UNL A   1      32.904  19.008  25.273  1.00  0.00     0.074 C 
ATOM     20  C   UNL A   1      33.600  17.942  24.442  1.00  0.00     0.012 C 
ENDBRANCH  14  19
BRANCH  17  21
ATOM     21  C   UNL A   1      36.918  21.600  24.418  1.00  0.00     0.216 C 
BRANCH  21  22
ATOM     22  O   UNL A   1      37.681  20.987  25.460  1.00  0.00    -0.378 OA
ATOM     23  C   UNL A   1      38.446  19.868  25.029  1.00  0.00     0.195 C 
ENDBRANCH  21  22
ENDBRANCH  17  21
ENDBRANCH   8  13
ENDBRANCH   5   7
ENDBRANCH   4   5
ENDBRANCH   3   4
ENDBRANCH   2   3
ENDBRANCH   1   2
BRANCH   1  24
ATOM     24  C   UNL A   1      31.291  31.402  26.096  1.00  0.00     0.202 C 
BRANCH  24  25
ATOM     25  C   UNL A   1      31.479  32.722  26.854  1.00  0.00     0.261 C 
BRANCH  25  26
ATOM     26  O   UNL A   1      32.812  33.248  26.740  1.00  0.00    -0.460 OA
BRANCH  26  27
ATOM     27  C   UNL A   1      33.316  33.748  27.896  1.00  0.00     0.338 C 
ATOM     28  O   UNL A   1      32.776  34.550  28.648  1.00  0.00    -0.246 OA
BRANCH  27  29
ATOM     29  C   UNL A   1      34.548  33.022  28.244  1.00  0.00     0.060 A 
ATOM     30  C   UNL A   1      34.449  31.665  28.571  1.00  0.00     0.016 A 
ATOM     31  C   UNL A   1      35.779  33.673  28.288  1.00  0.00     0.016 A 
ATOM     32  C   UNL A   1      35.581  30.960  28.974  1.00  0.00     0.010 A 
ATOM     33  C   UNL A   1      36.919  32.960  28.666  1.00  0.00     0.010 A 
ATOM     34  C   UNL A   1      36.820  31.612  29.055  1.00  0.00    -0.014 A 
BRANCH  34  35
ATOM     35  C   UNL A   1      37.958  30.951  29.742  1.00  0.00     0.031 A 
ATOM     36  C   UNL A   1      38.215  31.295  31.187  1.00  0.00     0.074 A 
ATOM     37  C   UNL A   1      38.722  30.037  29.119  1.00  0.00     0.049 A 
ATOM     38  N   UNL A   1      39.162  30.885  31.989  1.00  0.00    -0.248 NA
ATOM     39  C   UNL A   1      37.276  32.247  31.801  1.00  0.00     0.031 C 
ATOM     40  C   UNL A   1      38.546  29.584  27.739  1.00  0.00     0.029 A 
ATOM     41  N   UNL A   1      39.800  29.317  29.571  1.00  0.00    -0.354 N 
ATOM     42  C   UNL A   1      38.940  31.538  33.197  1.00  0.00     0.074 A 
ATOM     43  C   UNL A   1      37.813  32.422  32.996  1.00  0.00     0.031 C 
ATOM     44  C   UNL A   1      39.472  28.649  27.465  1.00  0.00     0.029 A 
ATOM     45  C   UNL A   1      40.334  28.466  28.632  1.00  0.00     0.049 A 
ATOM     46  H   UNL A   1      40.157  29.401  30.485  1.00  0.00     0.167 HD
ATOM     47  C   UNL A   1      39.597  31.396  34.376  1.00  0.00     0.034 A 
ATOM     48  C   UNL A   1      41.401  27.646  28.706  1.00  0.00     0.034 A 
ATOM     49  C   UNL A   1      40.720  30.514  34.560  1.00  0.00     0.049 A 
ATOM     50  C   UNL A   1      42.185  27.580  29.996  1.00  0.00     0.074 A 
ATOM     51  C   UNL A   1      41.461  30.285  35.706  1.00  0.00     0.029 A 
ATOM     52  N   UNL A   1      41.276  29.719  33.564  1.00  0.00    -0.354 N 
ATOM     53  N   UNL A   1      41.966  28.201  31.133  1.00  0.00    -0.248 NA
ATOM     54  C   UNL A   1      43.358  26.696  30.012  1.00  0.00     0.031 C 
ATOM     55  C   UNL A   1      42.506  29.410  35.385  1.00  0.00     0.029 A 
ATOM     56  C   UNL A   1      42.369  29.024  34.060  1.00  0.00     0.049 A 
ATOM     57  H   UNL A   1      40.942  29.658  32.640  1.00  0.00     0.167 HD
ATOM     58  C   UNL A   1      42.953  27.752  32.008  1.00  0.00     0.074 A 
ATOM     59  C   UNL A   1      43.760  26.802  31.270  1.00  0.00     0.031 C 
ATOM     60  C   UNL A   1      43.170  28.087  33.308  1.00  0.00     0.034 A 
BRANCH  47  61
ATOM     61  C   UNL A   1      39.129  32.258  35.527  1.00  0.00     0.023 A 
ATOM     62  C   UNL A   1      39.534  33.599  35.656  1.00  0.00     0.031 A 
ATOM     63  C   UNL A   1      38.333  31.713  36.549  1.00  0.00     0.131 A 
ATOM     64  C   UNL A   1      39.236  34.312  36.827  1.00  0.00     0.055 A 
ATOM     65  C   UNL A   1      37.955  32.461  37.666  1.00  0.00     0.041 A 
ATOM     66  F   UNL A   1      37.933  30.432  36.496  1.00  0.00    -0.206 F 
ATOM     67  C   UNL A   1      38.425  33.761  37.822  1.00  0.00     0.022 A 
BRANCH  64  68
ATOM     68  S   UNL A   1      40.084  35.889  37.116  1.00  0.00     0.124 S 
ATOM     69  O   UNL A   1      39.442  36.348  38.346  1.00  0.00    -0.237 OA
ATOM     70  O   UNL A   1      41.478  35.481  37.237  1.00  0.00    -0.237 OA
ATOM     71  O   UNL A   1      39.763  36.674  35.925  1.00  0.00    -0.744 OA
ENDBRANCH  64  68
ENDBRANCH  47  61
BRANCH  48  72
ATOM     72  C   UNL A   1      41.811  26.825  27.530  1.00  0.00     0.023 A 
ATOM     73  C   UNL A   1      41.520  25.453  27.471  1.00  0.00     0.031 A 
ATOM     74  C   UNL A   1      42.546  27.388  26.471  1.00  0.00     0.131 A 
ATOM     75  C   UNL A   1      41.996  24.681  26.400  1.00  0.00     0.055 A 
ATOM     76  C   UNL A   1      42.975  26.626  25.383  1.00  0.00     0.041 A 
ATOM     77  F   UNL A   1      42.853  28.695  26.477  1.00  0.00    -0.206 F 
ATOM     78  C   UNL A   1      42.710  25.261  25.349  1.00  0.00     0.022 A 
BRANCH  75  79
ATOM     79  S   UNL A   1      41.733  22.886  26.438  1.00  0.00     0.124 S 
ATOM     80  O   UNL A   1      42.443  22.457  25.239  1.00  0.00    -0.237 OA
ATOM     81  O   UNL A   1      42.342  22.519  27.712  1.00  0.00    -0.237 OA
ATOM     82  O   UNL A   1      40.278  22.755  26.385  1.00  0.00    -0.744 OA
ENDBRANCH  75  79
ENDBRANCH  48  72
BRANCH  60  83
ATOM     83  C   UNL A   1      44.295  27.378  34.024  1.00  0.00     0.023 A 
ATOM     84  C   UNL A   1      44.107  26.138  34.660  1.00  0.00     0.031 A 
ATOM     85  C   UNL A   1      45.576  27.958  34.072  1.00  0.00     0.131 A 
ATOM     86  C   UNL A   1      45.168  25.548  35.367  1.00  0.00     0.055 A 
ATOM     87  C   UNL A   1      46.643  27.335  34.720  1.00  0.00     0.041 A 
ATOM     88  F   UNL A   1      45.813  29.142  33.484  1.00  0.00    -0.206 F 
ATOM     89  C   UNL A   1      46.439  26.129  35.384  1.00  0.00     0.022 A 
BRANCH  86  90
ATOM     90  S   UNL A   1      44.839  24.058  36.346  1.00  0.00     0.124 S 
ATOM     91  O   UNL A   1      43.742  23.443  35.605  1.00  0.00    -0.237 OA
ATOM     92  O   UNL A   1      46.118  23.357  36.288  1.00  0.00    -0.237 OA
ATOM     93  O   UNL A   1      44.481  24.583  37.662  1.00  0.00    -0.744 OA
ENDBRANCH  86  90
ENDBRANCH  60  83
ENDBRANCH  34  35
ENDBRANCH  27  29
ENDBRANCH  26  27
ENDBRANCH  25  26
ENDBRANCH  24  25
ENDBRANCH   1  24
TORSDOF 21
ENDMDL
MODEL 3
REMARK VINA RESULT:     -10.5      5.015      8.025
REMARK SMILES CCc1nc(COC)cc(N2CCCC[C@H]2C(=O)OCCOCCOC(=O)c2ccc(-c3c4nc(c(-c5cc(S(=O)(=O)[O-])ccc5F)c5ccc([nH]5)c(-c5cc(S(=O)(=O)[O-])ccc5F)c5nc(c(-c6cc(S(=O)(=O)[O-])ccc6F)c6ccc3[nH]6)C=C5)C=C4)cc2)n1
REMARK SMILES IDX 22 1 21 2 20 3 19 4 17 5 18 6 16 7 11 8 12 9 13 10 15 11
REMARK SMILES IDX 14 12 10 13 3 14 4 15 91 16 5 17 9 18 2 19 1 20 6 21 7 22
REMARK SMILES IDX 8 23 23 24 24 25 25 26 26 27 27 28 28 29 29 30 90 31 30 32
REMARK SMILES IDX 89 33 31 34 32 35 33 36 83 37 34 38 88 39 82 40 84 41 35 42
REMARK SMILES IDX 87 43 81 44 80 45 36 47 68 48 48 49 67 50 49 51 52 52 66 53
REMARK SMILES IDX 85 54 50 55 51 56 65 58 86 59 53 60 37 61 38 62 46 63 39 64
REMARK SMILES IDX 45 65 47 66 44 67 40 68 41 69 42 70 43 71 69 72 70 73 78 74
REMARK SMILES IDX 71 75 77 76 79 77 76 78 72 79 73 80 74 81 75 82 54 83 55 84
REMARK SMILES IDX 63 85 56 86 62 87 64 88 61 89 57 90 58 91 59 92 60 93
REMARK H PARENT 84 46 52 57
REMARK Flexibility Score: inf
ROOT
ATOM      1  O   UNL A   1      32.615  29.045  25.202  1.00  0.00    -0.374 OA
ENDROOT
BRANCH   1   2
ATOM      2  C   UNL A   1      33.387  28.879  24.015  1.00  0.00     0.202 C 
BRANCH   2   3
ATOM      3  C   UNL A   1      33.533  27.459  23.462  1.00  0.00     0.261 C 
BRANCH   3   4
ATOM      4  O   UNL A   1      32.632  26.544  24.103  1.00  0.00    -0.462 OA
BRANCH   4   5
ATOM      5  C   UNL A   1      33.240  25.559  24.825  1.00  0.00     0.328 C 
ATOM      6  O   UNL A   1      34.082  25.762  25.693  1.00  0.00    -0.250 OA
BRANCH   5   7
ATOM      7  C   UNL A   1      32.634  24.175  24.519  1.00  0.00     0.193 C 
ATOM      8  N   UNL A   1      32.817  23.206  25.605  1.00  0.00    -0.343 N 
ATOM      9  C   UNL A   1      32.131  23.426  26.867  1.00  0.00     0.119 C 
ATOM     10  C   UNL A   1      30.647  23.726  26.651  1.00  0.00     0.022 C 
ATOM     11  C   UNL A   1      31.129  24.326  24.252  1.00  0.00     0.037 C 
ATOM     12  C   UNL A   1      30.384  24.724  25.526  1.00  0.00     0.005 C 
BRANCH   8  13
ATOM     13  C   UNL A   1      33.515  22.033  25.410  1.00  0.00     0.133 A 
ATOM     14  C   UNL A   1      35.501  20.938  24.990  1.00  0.00     0.130 A 
ATOM     15  N   UNL A   1      34.926  19.728  24.944  1.00  0.00    -0.235 NA
ATOM     16  N   UNL A   1      34.843  22.097  25.198  1.00  0.00    -0.216 NA
ATOM     17  C   UNL A   1      33.592  19.689  25.098  1.00  0.00     0.072 A 
ATOM     18  C   UNL A   1      32.851  20.823  25.382  1.00  0.00     0.073 A 
BRANCH  14  19
ATOM     19  C   UNL A   1      36.988  20.982  24.778  1.00  0.00     0.074 C 
ATOM     20  C   UNL A   1      37.598  19.590  24.759  1.00  0.00     0.012 C 
ENDBRANCH  14  19
BRANCH  17  21
ATOM     21  C   UNL A   1      32.900  18.367  24.875  1.00  0.00     0.216 C 
BRANCH  21  22
ATOM     22  O   UNL A   1      33.180  17.761  23.611  1.00  0.00    -0.378 OA
ATOM     23  C   UNL A   1      32.412  18.291  22.537  1.00  0.00     0.195 C 
ENDBRANCH  21  22
ENDBRANCH  17  21
ENDBRANCH   8  13
ENDBRANCH   5   7
ENDBRANCH   4   5
ENDBRANCH   3   4
ENDBRANCH   2   3
ENDBRANCH   1   2
BRANCH   1  24
ATOM     24  C   UNL A   1      31.743  30.170  25.283  1.00  0.00     0.202 C 
BRANCH  24  25
ATOM     25  C   UNL A   1      31.743  30.998  26.574  1.00  0.00     0.261 C 
BRANCH  25  26
ATOM     26  O   UNL A   1      32.892  30.747  27.401  1.00  0.00    -0.460 OA
BRANCH  26  27
ATOM     27  C   UNL A   1      33.692  31.826  27.589  1.00  0.00     0.338 C 
ATOM     28  O   UNL A   1      33.360  33.004  27.548  1.00  0.00    -0.246 OA
BRANCH  27  29
ATOM     29  C   UNL A   1      35.009  31.378  28.068  1.00  0.00     0.060 A 
ATOM     30  C   UNL A   1      35.195  30.014  28.322  1.00  0.00     0.016 A 
ATOM     31  C   UNL A   1      36.038  32.288  28.303  1.00  0.00     0.016 A 
ATOM     32  C   UNL A   1      36.404  29.559  28.842  1.00  0.00     0.010 A 
ATOM     33  C   UNL A   1      37.260  31.829  28.799  1.00  0.00     0.010 A 
ATOM     34  C   UNL A   1      37.436  30.469  29.115  1.00  0.00    -0.014 A 
BRANCH  34  35
ATOM     35  C   UNL A   1      38.607  30.038  29.919  1.00  0.00     0.031 A 
ATOM     36  C   UNL A   1      38.737  30.564  31.326  1.00  0.00     0.074 A 
ATOM     37  C   UNL A   1      39.512  29.169  29.436  1.00  0.00     0.049 A 
ATOM     38  N   UNL A   1      39.681  30.368  32.209  1.00  0.00    -0.248 NA
ATOM     39  C   UNL A   1      37.654  31.446  31.789  1.00  0.00     0.031 C 
ATOM     40  C   UNL A   1      39.471  28.554  28.110  1.00  0.00     0.029 A 
ATOM     41  N   UNL A   1      40.643  28.648  30.012  1.00  0.00    -0.354 N 
ATOM     42  C   UNL A   1      39.312  31.112  33.324  1.00  0.00     0.074 A 
ATOM     43  C   UNL A   1      38.097  31.815  32.978  1.00  0.00     0.031 C 
ATOM     44  C   UNL A   1      40.521  27.723  27.982  1.00  0.00     0.029 A 
ATOM     45  C   UNL A   1      41.331  27.778  29.198  1.00  0.00     0.049 A 
ATOM     46  H   UNL A   1      40.935  28.874  30.925  1.00  0.00     0.167 HD
ATOM     47  C   UNL A   1      39.914  31.182  34.539  1.00  0.00     0.034 A 
ATOM     48  C   UNL A   1      42.486  27.116  29.409  1.00  0.00     0.034 A 
ATOM     49  C   UNL A   1      41.126  30.478  34.868  1.00  0.00     0.049 A 
ATOM     50  C   UNL A   1      43.198  27.289  30.730  1.00  0.00     0.074 A 
ATOM     51  C   UNL A   1      41.824  30.469  36.063  1.00  0.00     0.029 A 
ATOM     52  N   UNL A   1      41.832  29.659  33.993  1.00  0.00    -0.354 N 
ATOM     53  N   UNL A   1      42.840  27.994  31.780  1.00  0.00    -0.248 NA
ATOM     54  C   UNL A   1      44.470  26.571  30.895  1.00  0.00     0.031 C 
ATOM     55  C   UNL A   1      42.985  29.708  35.887  1.00  0.00     0.029 A 
ATOM     56  C   UNL A   1      42.972  29.169  34.609  1.00  0.00     0.049 A 
ATOM     57  H   UNL A   1      41.560  29.458  33.068  1.00  0.00     0.167 HD
ATOM     58  C   UNL A   1      43.824  27.773  32.741  1.00  0.00     0.074 A 
ATOM     59  C   UNL A   1      44.783  26.862  32.148  1.00  0.00     0.031 C 
ATOM     60  C   UNL A   1      43.925  28.269  34.002  1.00  0.00     0.034 A 
BRANCH  47  61
ATOM     61  C   UNL A   1      39.278  32.093  35.565  1.00  0.00     0.023 A 
ATOM     62  C   UNL A   1      39.660  33.441  35.690  1.00  0.00     0.031 A 
ATOM     63  C   UNL A   1      38.338  31.591  36.481  1.00  0.00     0.131 A 
ATOM     64  C   UNL A   1      39.189  34.206  36.767  1.00  0.00     0.055 A 
ATOM     65  C   UNL A   1      37.797  32.387  37.492  1.00  0.00     0.041 A 
ATOM     66  F   UNL A   1      37.951  30.306  36.429  1.00  0.00    -0.206 F 
ATOM     67  C   UNL A   1      38.239  33.696  37.654  1.00  0.00     0.022 A 
BRANCH  64  68
ATOM     68  S   UNL A   1      39.984  35.802  37.105  1.00  0.00     0.124 S 
ATOM     69  O   UNL A   1      39.665  36.552  35.893  1.00  0.00    -0.237 OA
ATOM     70  O   UNL A   1      39.312  36.238  38.322  1.00  0.00    -0.237 OA
ATOM     71  O   UNL A   1      41.396  35.455  37.260  1.00  0.00    -0.744 OA
ENDBRANCH  64  68
ENDBRANCH  47  61
BRANCH  48  72
ATOM     72  C   UNL A   1      43.061  26.235  28.351  1.00  0.00     0.023 A 
ATOM     73  C   UNL A   1      44.136  26.667  27.558  1.00  0.00     0.031 A 
ATOM     74  C   UNL A   1      42.511  24.969  28.081  1.00  0.00     0.131 A 
ATOM     75  C   UNL A   1      44.601  25.860  26.508  1.00  0.00     0.055 A 
ATOM     76  C   UNL A   1      43.009  24.148  27.067  1.00  0.00     0.041 A 
ATOM     77  F   UNL A   1      41.481  24.507  28.808  1.00  0.00    -0.206 F 
ATOM     78  C   UNL A   1      44.054  24.598  26.266  1.00  0.00     0.022 A 
BRANCH  75  79
ATOM     79  S   UNL A   1      45.886  26.520  25.409  1.00  0.00     0.124 S 
ATOM     80  O   UNL A   1      46.137  25.382  24.531  1.00  0.00    -0.237 OA
ATOM     81  O   UNL A   1      45.210  27.662  24.805  1.00  0.00    -0.237 OA
ATOM     82  O   UNL A   1      46.975  26.856  26.325  1.00  0.00    -0.744 OA
ENDBRANCH  75  79
ENDBRANCH  48  72
BRANCH  60  83
ATOM     83  C   UNL A   1      45.087  27.792  34.841  1.00  0.00     0.023 A 
ATOM     84  C   UNL A   1      45.006  26.633  35.633  1.00  0.00     0.031 A 
ATOM     85  C   UNL A   1      46.294  28.514  34.847  1.00  0.00     0.131 A 
ATOM     86  C   UNL A   1      46.092  26.264  36.443  1.00  0.00     0.055 A 
ATOM     87  C   UNL A   1      47.393  28.106  35.605  1.00  0.00     0.041 A 
ATOM     88  F   UNL A   1      46.427  29.629  34.112  1.00  0.00    -0.206 F 
ATOM     89  C   UNL A   1      47.290  26.983  36.420  1.00  0.00     0.022 A 
BRANCH  86  90
ATOM     90  S   UNL A   1      45.883  24.888  37.605  1.00  0.00     0.124 S 
ATOM     91  O   UNL A   1      47.265  24.570  37.951  1.00  0.00    -0.237 OA
ATOM     92  O   UNL A   1      45.084  25.492  38.666  1.00  0.00    -0.237 OA
ATOM     93  O   UNL A   1      45.193  23.872  36.814  1.00  0.00    -0.744 OA
ENDBRANCH  86  90
ENDBRANCH  60  83
ENDBRANCH  34  35
ENDBRANCH  27  29
ENDBRANCH  26  27
ENDBRANCH  25  26
ENDBRANCH  24  25
ENDBRANCH   1  24
TORSDOF 21
ENDMDL
