MODEL 1
REMARK VINA RESULT:     -12.0      0.000      0.000
REMARK SMILES CCc1ccc2c(CC(=O)OCCOCCOC(=O)c3ccc(-c4c5nc(c(-c6cc(S(=O)(=O)[O-])ccc6F)c6ccc([nH]6)c(-c6cc(S(=O)(=O)[O-])ccc6F)c6nc(c(-c7cc(S(=O)(=O)[O-])ccc7F)c7ccc4[nH]7)C=C6)C=C5)cc3)c(C(=O)c3cc(C)ccn3)[nH]c2c1
REMARK SMILES IDX 14 1 13 2 12 3 11 4 9 5 10 6 8 7 7 8 3 9 4 10 95 11 5 12
REMARK SMILES IDX 94 13 6 14 93 15 83 16 2 18 1 19 84 20 85 21 86 22 87 23
REMARK SMILES IDX 92 24 88 25 91 26 89 27 90 28 15 29 16 30 17 31 18 32 19 33
REMARK SMILES IDX 20 34 21 35 82 36 22 37 81 38 23 39 24 40 25 41 75 42 26 43
REMARK SMILES IDX 80 44 74 45 76 46 27 47 79 48 73 49 72 50 28 52 60 53 40 54
REMARK SMILES IDX 59 55 41 56 44 57 58 58 77 59 42 60 43 61 57 63 78 64 45 65
REMARK SMILES IDX 29 66 30 67 38 68 31 69 37 70 39 71 36 72 32 73 33 74 34 75
REMARK SMILES IDX 35 76 61 77 62 78 70 79 63 80 69 81 71 82 68 83 64 84 65 85
REMARK SMILES IDX 66 86 67 87 46 88 47 89 55 90 48 91 54 92 56 93 53 94 49 95
REMARK SMILES IDX 50 96 51 97 52 98
REMARK H PARENT 93 17 76 51 44 62
REMARK Flexibility Score: inf
ROOT
ATOM      1  O   UNL A   1      32.786  30.483  25.734  1.00  0.00    -0.374 OA
ENDROOT
BRANCH   1   2
ATOM      2  C   UNL A   1      33.420  29.280  26.171  1.00  0.00     0.202 C 
BRANCH   2   3
ATOM      3  C   UNL A   1      32.597  28.316  27.043  1.00  0.00     0.261 C 
BRANCH   3   4
ATOM      4  O   UNL A   1      31.809  27.364  26.295  1.00  0.00    -0.463 OA
BRANCH   4   5
ATOM      5  C   UNL A   1      32.189  26.062  26.429  1.00  0.00     0.310 C 
ATOM      6  O   UNL A   1      31.484  25.190  26.935  1.00  0.00    -0.252 OA
BRANCH   5   7
ATOM      7  C   UNL A   1      33.508  25.705  25.776  1.00  0.00     0.161 C 
BRANCH   7   8
ATOM      8  C   UNL A   1      33.532  24.592  24.763  1.00  0.00     0.000 A 
ATOM      9  C   UNL A   1      33.100  20.391  25.066  1.00  0.00    -0.046 A 
ATOM     10  C   UNL A   1      33.272  21.084  26.273  1.00  0.00     0.004 A 
ATOM     11  C   UNL A   1      33.205  21.093  23.855  1.00  0.00     0.030 A 
ATOM     12  C   UNL A   1      33.490  22.470  26.304  1.00  0.00     0.011 A 
ATOM     13  C   UNL A   1      33.395  22.481  23.908  1.00  0.00     0.046 A 
ATOM     14  C   UNL A   1      33.508  23.193  25.096  1.00  0.00     0.004 A 
ATOM     15  N   UNL A   1      33.487  23.396  22.888  1.00  0.00    -0.352 N 
ATOM     16  C   UNL A   1      33.363  24.683  23.374  1.00  0.00     0.093 A 
ATOM     17  H   UNL A   1      33.622  23.167  21.941  1.00  0.00     0.167 HD
BRANCH   9  18
ATOM     18  C   UNL A   1      32.745  18.920  25.140  1.00  0.00     0.032 C 
ATOM     19  C   UNL A   1      32.822  18.122  23.844  1.00  0.00     0.009 C 
ENDBRANCH   9  18
BRANCH  16  20
ATOM     20  C   UNL A   1      33.081  25.850  22.538  1.00  0.00     0.227 C 
ATOM     21  O   UNL A   1      33.733  26.150  21.541  1.00  0.00    -0.285 OA
BRANCH  20  22
ATOM     22  C   UNL A   1      31.930  26.733  22.902  1.00  0.00     0.113 A 
ATOM     23  C   UNL A   1      30.686  26.206  23.222  1.00  0.00     0.036 A 
ATOM     24  N   UNL A   1      32.185  28.061  22.848  1.00  0.00    -0.253 NA
ATOM     25  C   UNL A   1      29.643  27.106  23.479  1.00  0.00    -0.047 A 
ATOM     26  C   UNL A   1      31.168  28.908  23.082  1.00  0.00     0.112 A 
ATOM     27  C   UNL A   1      28.265  26.634  23.830  1.00  0.00     0.044 C 
ATOM     28  C   UNL A   1      29.893  28.480  23.395  1.00  0.00     0.023 A 
ENDBRANCH  20  22
ENDBRANCH  16  20
ENDBRANCH   7   8
ENDBRANCH   5   7
ENDBRANCH   4   5
ENDBRANCH   3   4
ENDBRANCH   2   3
ENDBRANCH   1   2
BRANCH   1  29
ATOM     29  C   UNL A   1      31.587  30.861  26.401  1.00  0.00     0.202 C 
BRANCH  29  30
ATOM     30  C   UNL A   1      31.522  32.268  27.000  1.00  0.00     0.261 C 
BRANCH  30  31
ATOM     31  O   UNL A   1      32.674  33.080  26.780  1.00  0.00    -0.460 OA
BRANCH  31  32
ATOM     32  C   UNL A   1      33.190  33.633  27.897  1.00  0.00     0.338 C 
ATOM     33  O   UNL A   1      32.728  34.540  28.575  1.00  0.00    -0.246 OA
BRANCH  32  34
ATOM     34  C   UNL A   1      34.434  32.932  28.221  1.00  0.00     0.060 A 
ATOM     35  C   UNL A   1      34.371  31.598  28.632  1.00  0.00     0.016 A 
ATOM     36  C   UNL A   1      35.642  33.631  28.203  1.00  0.00     0.016 A 
ATOM     37  C   UNL A   1      35.530  30.971  29.085  1.00  0.00     0.010 A 
ATOM     38  C   UNL A   1      36.802  32.996  28.645  1.00  0.00     0.010 A 
ATOM     39  C   UNL A   1      36.743  31.676  29.125  1.00  0.00    -0.014 A 
BRANCH  39  40
ATOM     40  C   UNL A   1      37.914  31.071  29.802  1.00  0.00     0.031 A 
ATOM     41  C   UNL A   1      38.215  31.468  31.221  1.00  0.00     0.074 A 
ATOM     42  C   UNL A   1      38.652  30.140  29.172  1.00  0.00     0.049 A 
ATOM     43  N   UNL A   1      39.168  31.052  32.014  1.00  0.00    -0.248 NA
ATOM     44  C   UNL A   1      37.322  32.470  31.826  1.00  0.00     0.031 C 
ATOM     45  C   UNL A   1      38.416  29.661  27.809  1.00  0.00     0.029 A 
ATOM     46  N   UNL A   1      39.740  29.423  29.596  1.00  0.00    -0.354 N 
ATOM     47  C   UNL A   1      38.976  31.722  33.219  1.00  0.00     0.074 A 
ATOM     48  C   UNL A   1      37.853  32.614  33.031  1.00  0.00     0.031 C 
ATOM     49  C   UNL A   1      39.329  28.719  27.513  1.00  0.00     0.029 A 
ATOM     50  C   UNL A   1      40.232  28.554  28.649  1.00  0.00     0.049 A 
ATOM     51  H   UNL A   1      40.134  29.521  30.493  1.00  0.00     0.167 HD
ATOM     52  C   UNL A   1      39.664  31.588  34.380  1.00  0.00     0.034 A 
ATOM     53  C   UNL A   1      41.298  27.729  28.697  1.00  0.00     0.034 A 
ATOM     54  C   UNL A   1      40.798  30.711  34.538  1.00  0.00     0.049 A 
ATOM     55  C   UNL A   1      42.104  27.670  29.974  1.00  0.00     0.074 A 
ATOM     56  C   UNL A   1      41.595  30.518  35.652  1.00  0.00     0.029 A 
ATOM     57  N   UNL A   1      41.299  29.880  33.543  1.00  0.00    -0.354 N 
ATOM     58  N   UNL A   1      41.913  28.313  31.105  1.00  0.00    -0.248 NA
ATOM     59  C   UNL A   1      43.260  26.766  29.985  1.00  0.00     0.031 C 
ATOM     60  C   UNL A   1      42.609  29.614  35.314  1.00  0.00     0.029 A 
ATOM     61  C   UNL A   1      42.404  29.189  34.011  1.00  0.00     0.049 A 
ATOM     62  H   UNL A   1      40.924  29.795  32.636  1.00  0.00     0.167 HD
ATOM     63  C   UNL A   1      42.903  27.858  31.972  1.00  0.00     0.074 A 
ATOM     64  C   UNL A   1      43.676  26.877  31.238  1.00  0.00     0.031 C 
ATOM     65  C   UNL A   1      43.156  28.214  33.257  1.00  0.00     0.034 A 
BRANCH  52  66
ATOM     66  C   UNL A   1      39.223  32.436  35.548  1.00  0.00     0.023 A 
ATOM     67  C   UNL A   1      39.673  33.759  35.707  1.00  0.00     0.031 A 
ATOM     68  C   UNL A   1      38.361  31.912  36.527  1.00  0.00     0.131 A 
ATOM     69  C   UNL A   1      39.306  34.492  36.846  1.00  0.00     0.055 A 
ATOM     70  C   UNL A   1      37.941  32.671  37.621  1.00  0.00     0.041 A 
ATOM     71  F   UNL A   1      37.918  30.647  36.441  1.00  0.00    -0.206 F 
ATOM     72  C   UNL A   1      38.424  33.966  37.792  1.00  0.00     0.022 A 
BRANCH  69  73
ATOM     73  S   UNL A   1      40.089  36.103  37.135  1.00  0.00     0.124 S 
ATOM     74  O   UNL A   1      39.920  36.749  35.837  1.00  0.00    -0.237 OA
ATOM     75  O   UNL A   1      39.296  36.649  38.231  1.00  0.00    -0.237 OA
ATOM     76  O   UNL A   1      41.468  35.757  37.476  1.00  0.00    -0.744 OA
ENDBRANCH  69  73
ENDBRANCH  52  66
BRANCH  53  77
ATOM     77  C   UNL A   1      41.691  26.912  27.513  1.00  0.00     0.023 A 
ATOM     78  C   UNL A   1      41.389  25.543  27.441  1.00  0.00     0.031 A 
ATOM     79  C   UNL A   1      42.448  27.471  26.467  1.00  0.00     0.131 A 
ATOM     80  C   UNL A   1      41.895  24.766  26.387  1.00  0.00     0.055 A 
ATOM     81  C   UNL A   1      42.896  26.708  25.388  1.00  0.00     0.041 A 
ATOM     82  F   UNL A   1      42.769  28.775  26.482  1.00  0.00    -0.206 F 
ATOM     83  C   UNL A   1      42.636  25.342  25.353  1.00  0.00     0.022 A 
BRANCH  80  84
ATOM     84  S   UNL A   1      41.678  22.965  26.454  1.00  0.00     0.124 S 
ATOM     85  O   UNL A   1      42.340  22.540  25.226  1.00  0.00    -0.237 OA
ATOM     86  O   UNL A   1      42.357  22.627  27.700  1.00  0.00    -0.237 OA
ATOM     87  O   UNL A   1      40.226  22.800  26.471  1.00  0.00    -0.744 OA
ENDBRANCH  80  84
ENDBRANCH  53  77
BRANCH  65  88
ATOM     88  C   UNL A   1      44.283  27.493  33.953  1.00  0.00     0.023 A 
ATOM     89  C   UNL A   1      44.077  26.273  34.622  1.00  0.00     0.031 A 
ATOM     90  C   UNL A   1      45.575  28.047  33.965  1.00  0.00     0.131 A 
ATOM     91  C   UNL A   1      45.132  25.681  35.330  1.00  0.00     0.055 A 
ATOM     92  C   UNL A   1      46.636  27.421  34.621  1.00  0.00     0.041 A 
ATOM     93  F   UNL A   1      45.826  29.208  33.341  1.00  0.00    -0.206 F 
ATOM     94  C   UNL A   1      46.414  26.238  35.321  1.00  0.00     0.022 A 
BRANCH  91  95
ATOM     95  S   UNL A   1      44.784  24.218  36.344  1.00  0.00     0.124 S 
ATOM     96  O   UNL A   1      46.090  23.572  36.405  1.00  0.00    -0.237 OA
ATOM     97  O   UNL A   1      44.306  24.808  37.590  1.00  0.00    -0.237 OA
ATOM     98  O   UNL A   1      43.772  23.498  35.572  1.00  0.00    -0.744 OA
ENDBRANCH  91  95
ENDBRANCH  65  88
ENDBRANCH  39  40
ENDBRANCH  32  34
ENDBRANCH  31  32
ENDBRANCH  30  31
ENDBRANCH  29  30
ENDBRANCH   1  29
TORSDOF 21
ENDMDL
MODEL 2
REMARK VINA RESULT:     -11.6      4.603     10.389
REMARK SMILES CCc1ccc2c(CC(=O)OCCOCCOC(=O)c3ccc(-c4c5nc(c(-c6cc(S(=O)(=O)[O-])ccc6F)c6ccc([nH]6)c(-c6cc(S(=O)(=O)[O-])ccc6F)c6nc(c(-c7cc(S(=O)(=O)[O-])ccc7F)c7ccc4[nH]7)C=C6)C=C5)cc3)c(C(=O)c3cc(C)ccn3)[nH]c2c1
REMARK SMILES IDX 14 1 13 2 12 3 11 4 9 5 10 6 8 7 7 8 3 9 4 10 95 11 5 12
REMARK SMILES IDX 94 13 6 14 93 15 83 16 2 18 1 19 84 20 85 21 86 22 87 23
REMARK SMILES IDX 92 24 88 25 91 26 89 27 90 28 15 29 16 30 17 31 18 32 19 33
REMARK SMILES IDX 20 34 21 35 82 36 22 37 81 38 23 39 24 40 25 41 75 42 26 43
REMARK SMILES IDX 80 44 74 45 76 46 27 47 79 48 73 49 72 50 28 52 60 53 40 54
REMARK SMILES IDX 59 55 41 56 44 57 58 58 77 59 42 60 43 61 57 63 78 64 45 65
REMARK SMILES IDX 29 66 30 67 38 68 31 69 37 70 39 71 36 72 32 73 33 74 34 75
REMARK SMILES IDX 35 76 61 77 62 78 70 79 63 80 69 81 71 82 68 83 64 84 65 85
REMARK SMILES IDX 66 86 67 87 46 88 47 89 55 90 48 91 54 92 56 93 53 94 49 95
REMARK SMILES IDX 50 96 51 97 52 98
REMARK H PARENT 93 17 76 51 44 62
REMARK Flexibility Score: inf
ROOT
ATOM      1  O   UNL A   1      37.617  21.577  24.905  1.00  0.00    -0.374 OA
ENDROOT
BRANCH   1   2
ATOM      2  C   UNL A   1      36.706  22.385  25.651  1.00  0.00     0.202 C 
BRANCH   2   3
ATOM      3  C   UNL A   1      36.210  23.687  24.999  1.00  0.00     0.261 C 
BRANCH   3   4
ATOM      4  O   UNL A   1      35.042  23.527  24.163  1.00  0.00    -0.463 OA
BRANCH   4   5
ATOM      5  C   UNL A   1      34.394  24.681  23.842  1.00  0.00     0.310 C 
ATOM      6  O   UNL A   1      34.090  25.001  22.693  1.00  0.00    -0.252 OA
BRANCH   5   7
ATOM      7  C   UNL A   1      33.927  25.509  25.022  1.00  0.00     0.161 C 
BRANCH   7   8
ATOM      8  C   UNL A   1      32.461  25.820  25.149  1.00  0.00     0.000 A 
ATOM      9  C   UNL A   1      29.885  28.507  23.130  1.00  0.00    -0.046 A 
ATOM     10  C   UNL A   1      31.259  28.679  22.905  1.00  0.00     0.004 A 
ATOM     11  C   UNL A   1      29.463  27.565  24.080  1.00  0.00     0.030 A 
ATOM     12  C   UNL A   1      32.219  27.896  23.564  1.00  0.00     0.011 A 
ATOM     13  C   UNL A   1      30.435  26.773  24.707  1.00  0.00     0.046 A 
ATOM     14  C   UNL A   1      31.796  26.889  24.453  1.00  0.00     0.004 A 
ATOM     15  N   UNL A   1      30.290  25.764  25.627  1.00  0.00    -0.352 N 
ATOM     16  C   UNL A   1      31.461  25.044  25.753  1.00  0.00     0.093 A 
ATOM     17  H   UNL A   1      29.464  25.580  26.130  1.00  0.00     0.167 HD
BRANCH   9  18
ATOM     18  C   UNL A   1      28.924  29.312  22.280  1.00  0.00     0.032 C 
ATOM     19  C   UNL A   1      27.994  30.275  23.009  1.00  0.00     0.009 C 
ENDBRANCH   9  18
BRANCH  16  20
ATOM     20  C   UNL A   1      31.549  23.725  26.380  1.00  0.00     0.227 C 
ATOM     21  O   UNL A   1      31.165  23.485  27.522  1.00  0.00    -0.285 OA
BRANCH  20  22
ATOM     22  C   UNL A   1      32.128  22.593  25.593  1.00  0.00     0.113 A 
ATOM     23  C   UNL A   1      31.768  22.370  24.272  1.00  0.00     0.036 A 
ATOM     24  N   UNL A   1      32.978  21.794  26.279  1.00  0.00    -0.253 NA
ATOM     25  C   UNL A   1      32.301  21.244  23.630  1.00  0.00    -0.047 A 
ATOM     26  C   UNL A   1      33.468  20.710  25.652  1.00  0.00     0.112 A 
ATOM     27  C   UNL A   1      31.970  20.919  22.206  1.00  0.00     0.044 C 
ATOM     28  C   UNL A   1      33.158  20.397  24.343  1.00  0.00     0.023 A 
ENDBRANCH  20  22
ENDBRANCH  16  20
ENDBRANCH   7   8
ENDBRANCH   5   7
ENDBRANCH   4   5
ENDBRANCH   3   4
ENDBRANCH   2   3
ENDBRANCH   1   2
BRANCH   1  29
ATOM     29  C   UNL A   1      37.401  20.170  24.927  1.00  0.00     0.202 C 
BRANCH  29  30
ATOM     30  C   UNL A   1      38.601  19.273  25.240  1.00  0.00     0.261 C 
BRANCH  30  31
ATOM     31  O   UNL A   1      39.303  19.588  26.440  1.00  0.00    -0.460 OA
BRANCH  31  32
ATOM     32  C   UNL A   1      40.587  19.959  26.255  1.00  0.00     0.338 C 
ATOM     33  O   UNL A   1      41.491  19.320  25.736  1.00  0.00    -0.246 OA
BRANCH  32  34
ATOM     34  C   UNL A   1      40.746  21.322  26.764  1.00  0.00     0.060 A 
ATOM     35  C   UNL A   1      40.316  22.393  25.976  1.00  0.00     0.016 A 
ATOM     36  C   UNL A   1      41.406  21.531  27.976  1.00  0.00     0.016 A 
ATOM     37  C   UNL A   1      40.599  23.694  26.383  1.00  0.00     0.010 A 
ATOM     38  C   UNL A   1      41.676  22.836  28.387  1.00  0.00     0.010 A 
ATOM     39  C   UNL A   1      41.309  23.921  27.573  1.00  0.00    -0.014 A 
BRANCH  39  40
ATOM     40  C   UNL A   1      41.786  25.289  27.885  1.00  0.00     0.031 A 
ATOM     41  C   UNL A   1      43.177  25.684  27.470  1.00  0.00     0.074 A 
ATOM     42  C   UNL A   1      40.963  26.174  28.475  1.00  0.00     0.049 A 
ATOM     43  N   UNL A   1      43.793  26.828  27.616  1.00  0.00    -0.248 NA
ATOM     44  C   UNL A   1      43.980  24.648  26.799  1.00  0.00     0.031 C 
ATOM     45  C   UNL A   1      39.584  25.897  28.881  1.00  0.00     0.029 A 
ATOM     46  N   UNL A   1      41.159  27.484  28.825  1.00  0.00    -0.354 N 
ATOM     47  C   UNL A   1      45.047  26.658  27.037  1.00  0.00     0.074 A 
ATOM     48  C   UNL A   1      45.123  25.284  26.590  1.00  0.00     0.031 C 
ATOM     49  C   UNL A   1      39.055  27.012  29.417  1.00  0.00     0.029 A 
ATOM     50  C   UNL A   1      40.066  28.066  29.424  1.00  0.00     0.049 A 
ATOM     51  H   UNL A   1      42.004  27.964  28.665  1.00  0.00     0.167 HD
ATOM     52  C   UNL A   1      46.035  27.573  26.876  1.00  0.00     0.034 A 
ATOM     53  C   UNL A   1      39.908  29.307  29.926  1.00  0.00     0.034 A 
ATOM     54  C   UNL A   1      45.949  28.932  27.353  1.00  0.00     0.049 A 
ATOM     55  C   UNL A   1      41.061  30.279  29.818  1.00  0.00     0.074 A 
ATOM     56  C   UNL A   1      46.896  29.937  27.281  1.00  0.00     0.029 A 
ATOM     57  N   UNL A   1      44.843  29.474  27.997  1.00  0.00    -0.354 N 
ATOM     58  N   UNL A   1      42.242  30.103  29.270  1.00  0.00    -0.248 NA
ATOM     59  C   UNL A   1      40.853  31.618  30.383  1.00  0.00     0.031 C 
ATOM     60  C   UNL A   1      46.386  31.068  27.930  1.00  0.00     0.029 A 
ATOM     61  C   UNL A   1      45.093  30.791  28.345  1.00  0.00     0.049 A 
ATOM     62  H   UNL A   1      44.004  28.992  28.181  1.00  0.00     0.167 HD
ATOM     63  C   UNL A   1      42.902  31.323  29.392  1.00  0.00     0.074 A 
ATOM     64  C   UNL A   1      41.980  32.228  30.047  1.00  0.00     0.031 C 
ATOM     65  C   UNL A   1      44.154  31.671  28.999  1.00  0.00     0.034 A 
BRANCH  52  66
ATOM     66  C   UNL A   1      47.298  27.116  26.188  1.00  0.00     0.023 A 
ATOM     67  C   UNL A   1      48.293  26.400  26.878  1.00  0.00     0.031 A 
ATOM     68  C   UNL A   1      47.522  27.415  24.833  1.00  0.00     0.131 A 
ATOM     69  C   UNL A   1      49.489  26.059  26.227  1.00  0.00     0.055 A 
ATOM     70  C   UNL A   1      48.684  27.010  24.172  1.00  0.00     0.041 A 
ATOM     71  F   UNL A   1      46.619  28.117  24.129  1.00  0.00    -0.206 F 
ATOM     72  C   UNL A   1      49.681  26.338  24.873  1.00  0.00     0.022 A 
BRANCH  69  73
ATOM     73  S   UNL A   1      50.840  25.347  27.206  1.00  0.00     0.124 S 
ATOM     74  O   UNL A   1      50.132  24.349  28.004  1.00  0.00    -0.237 OA
ATOM     75  O   UNL A   1      51.737  24.828  26.180  1.00  0.00    -0.237 OA
ATOM     76  O   UNL A   1      51.353  26.488  27.963  1.00  0.00    -0.744 OA
ENDBRANCH  69  73
ENDBRANCH  52  66
BRANCH  53  77
ATOM     77  C   UNL A   1      38.637  29.709  30.598  1.00  0.00     0.023 A 
ATOM     78  C   UNL A   1      37.663  30.459  29.921  1.00  0.00     0.031 A 
ATOM     79  C   UNL A   1      38.413  29.416  31.955  1.00  0.00     0.131 A 
ATOM     80  C   UNL A   1      36.546  30.948  30.616  1.00  0.00     0.055 A 
ATOM     81  C   UNL A   1      37.269  29.851  32.627  1.00  0.00     0.041 A 
ATOM     82  F   UNL A   1      39.311  28.703  32.655  1.00  0.00    -0.206 F 
ATOM     83  C   UNL A   1      36.335  30.639  31.961  1.00  0.00     0.022 A 
BRANCH  80  84
ATOM     84  S   UNL A   1      35.433  32.104  29.766  1.00  0.00     0.124 S 
ATOM     85  O   UNL A   1      34.511  32.470  30.836  1.00  0.00    -0.237 OA
ATOM     86  O   UNL A   1      36.357  33.145  29.331  1.00  0.00    -0.237 OA
ATOM     87  O   UNL A   1      34.857  31.293  28.695  1.00  0.00    -0.744 OA
ENDBRANCH  80  84
ENDBRANCH  53  77
BRANCH  65  88
ATOM     88  C   UNL A   1      44.564  33.105  29.228  1.00  0.00     0.023 A 
ATOM     89  C   UNL A   1      44.263  34.116  28.298  1.00  0.00     0.031 A 
ATOM     90  C   UNL A   1      45.286  33.457  30.382  1.00  0.00     0.131 A 
ATOM     91  C   UNL A   1      44.739  35.418  28.507  1.00  0.00     0.055 A 
ATOM     92  C   UNL A   1      45.704  34.768  30.613  1.00  0.00     0.041 A 
ATOM     93  F   UNL A   1      45.598  32.531  31.302  1.00  0.00    -0.206 F 
ATOM     94  C   UNL A   1      45.444  35.754  29.666  1.00  0.00     0.022 A 
BRANCH  91  95
ATOM     95  S   UNL A   1      44.505  36.649  27.195  1.00  0.00     0.124 S 
ATOM     96  O   UNL A   1      43.466  36.030  26.380  1.00  0.00    -0.237 OA
ATOM     97  O   UNL A   1      44.104  37.833  27.947  1.00  0.00    -0.237 OA
ATOM     98  O   UNL A   1      45.821  36.733  26.564  1.00  0.00    -0.744 OA
ENDBRANCH  91  95
ENDBRANCH  65  88
ENDBRANCH  39  40
ENDBRANCH  32  34
ENDBRANCH  31  32
ENDBRANCH  30  31
ENDBRANCH  29  30
ENDBRANCH   1  29
TORSDOF 21
ENDMDL
MODEL 3
REMARK VINA RESULT:     -11.3      2.143      7.524
REMARK SMILES CCc1ccc2c(CC(=O)OCCOCCOC(=O)c3ccc(-c4c5nc(c(-c6cc(S(=O)(=O)[O-])ccc6F)c6ccc([nH]6)c(-c6cc(S(=O)(=O)[O-])ccc6F)c6nc(c(-c7cc(S(=O)(=O)[O-])ccc7F)c7ccc4[nH]7)C=C6)C=C5)cc3)c(C(=O)c3cc(C)ccn3)[nH]c2c1
REMARK SMILES IDX 14 1 13 2 12 3 11 4 9 5 10 6 8 7 7 8 3 9 4 10 95 11 5 12
REMARK SMILES IDX 94 13 6 14 93 15 83 16 2 18 1 19 84 20 85 21 86 22 87 23
REMARK SMILES IDX 92 24 88 25 91 26 89 27 90 28 15 29 16 30 17 31 18 32 19 33
REMARK SMILES IDX 20 34 21 35 82 36 22 37 81 38 23 39 24 40 25 41 75 42 26 43
REMARK SMILES IDX 80 44 74 45 76 46 27 47 79 48 73 49 72 50 28 52 60 53 40 54
REMARK SMILES IDX 59 55 41 56 44 57 58 58 77 59 42 60 43 61 57 63 78 64 45 65
REMARK SMILES IDX 29 66 30 67 38 68 31 69 37 70 39 71 36 72 32 73 33 74 34 75
REMARK SMILES IDX 35 76 61 77 62 78 70 79 63 80 69 81 71 82 68 83 64 84 65 85
REMARK SMILES IDX 66 86 67 87 46 88 47 89 55 90 48 91 54 92 56 93 53 94 49 95
REMARK SMILES IDX 50 96 51 97 52 98
REMARK H PARENT 93 17 76 51 44 62
REMARK Flexibility Score: inf
ROOT
ATOM      1  O   UNL A   1      34.061  30.785  27.193  1.00  0.00    -0.374 OA
ENDROOT
BRANCH   1   2
ATOM      2  C   UNL A   1      34.371  29.412  26.950  1.00  0.00     0.202 C 
BRANCH   2   3
ATOM      3  C   UNL A   1      33.281  28.370  27.256  1.00  0.00     0.261 C 
BRANCH   3   4
ATOM      4  O   UNL A   1      32.747  27.708  26.089  1.00  0.00    -0.463 OA
BRANCH   4   5
ATOM      5  C   UNL A   1      32.815  26.348  26.110  1.00  0.00     0.310 C 
ATOM      6  O   UNL A   1      31.924  25.622  26.549  1.00  0.00    -0.252 OA
BRANCH   5   7
ATOM      7  C   UNL A   1      34.022  25.752  25.414  1.00  0.00     0.161 C 
BRANCH   7   8
ATOM      8  C   UNL A   1      33.805  24.650  24.413  1.00  0.00     0.000 A 
ATOM      9  C   UNL A   1      33.144  20.484  24.791  1.00  0.00    -0.046 A 
ATOM     10  C   UNL A   1      33.558  21.154  25.953  1.00  0.00     0.004 A 
ATOM     11  C   UNL A   1      33.098  21.188  23.578  1.00  0.00     0.030 A 
ATOM     12  C   UNL A   1      33.871  22.521  25.945  1.00  0.00     0.011 A 
ATOM     13  C   UNL A   1      33.388  22.560  23.596  1.00  0.00     0.046 A 
ATOM     14  C   UNL A   1      33.741  23.252  24.748  1.00  0.00     0.004 A 
ATOM     15  N   UNL A   1      33.374  23.476  22.574  1.00  0.00    -0.352 N 
ATOM     16  C   UNL A   1      33.419  24.764  23.070  1.00  0.00     0.093 A 
ATOM     17  H   UNL A   1      33.337  23.247  21.617  1.00  0.00     0.167 HD
BRANCH   9  18
ATOM     18  C   UNL A   1      32.708  19.039  24.926  1.00  0.00     0.032 C 
ATOM     19  C   UNL A   1      33.732  17.970  24.566  1.00  0.00     0.009 C 
ENDBRANCH   9  18
BRANCH  16  20
ATOM     20  C   UNL A   1      33.083  25.955  22.289  1.00  0.00     0.227 C 
ATOM     21  O   UNL A   1      33.685  26.297  21.274  1.00  0.00    -0.285 OA
BRANCH  20  22
ATOM     22  C   UNL A   1      31.941  26.809  22.737  1.00  0.00     0.113 A 
ATOM     23  C   UNL A   1      30.736  26.253  23.141  1.00  0.00     0.036 A 
ATOM     24  N   UNL A   1      32.162  28.143  22.671  1.00  0.00    -0.253 NA
ATOM     25  C   UNL A   1      29.692  27.127  23.475  1.00  0.00    -0.047 A 
ATOM     26  C   UNL A   1      31.144  28.966  22.980  1.00  0.00     0.112 A 
ATOM     27  C   UNL A   1      28.354  26.622  23.919  1.00  0.00     0.044 C 
ATOM     28  C   UNL A   1      29.905  28.508  23.379  1.00  0.00     0.023 A 
ENDBRANCH  20  22
ENDBRANCH  16  20
ENDBRANCH   7   8
ENDBRANCH   5   7
ENDBRANCH   4   5
ENDBRANCH   3   4
ENDBRANCH   2   3
ENDBRANCH   1   2
BRANCH   1  29
ATOM     29  C   UNL A   1      32.697  31.172  27.067  1.00  0.00     0.202 C 
BRANCH  29  30
ATOM     30  C   UNL A   1      32.357  32.649  27.281  1.00  0.00     0.261 C 
BRANCH  30  31
ATOM     31  O   UNL A   1      33.476  33.519  27.431  1.00  0.00    -0.460 OA
BRANCH  31  32
ATOM     32  C   UNL A   1      33.399  34.351  28.490  1.00  0.00     0.338 C 
ATOM     33  O   UNL A   1      32.576  35.232  28.702  1.00  0.00    -0.246 OA
BRANCH  32  34
ATOM     34  C   UNL A   1      34.479  34.012  29.418  1.00  0.00     0.060 A 
ATOM     35  C   UNL A   1      35.801  34.252  29.034  1.00  0.00     0.016 A 
ATOM     36  C   UNL A   1      34.176  33.372  30.621  1.00  0.00     0.016 A 
ATOM     37  C   UNL A   1      36.838  33.797  29.845  1.00  0.00     0.010 A 
ATOM     38  C   UNL A   1      35.217  32.928  31.436  1.00  0.00     0.010 A 
ATOM     39  C   UNL A   1      36.552  33.104  31.031  1.00  0.00    -0.014 A 
BRANCH  39  40
ATOM     40  C   UNL A   1      37.654  32.443  31.770  1.00  0.00     0.031 A 
ATOM     41  C   UNL A   1      38.388  31.306  31.113  1.00  0.00     0.074 A 
ATOM     42  C   UNL A   1      38.023  32.896  32.981  1.00  0.00     0.049 A 
ATOM     43  N   UNL A   1      39.394  30.600  31.559  1.00  0.00    -0.248 NA
ATOM     44  C   UNL A   1      37.924  30.913  29.772  1.00  0.00     0.031 C 
ATOM     45  C   UNL A   1      37.397  34.017  33.686  1.00  0.00     0.029 A 
ATOM     46  N   UNL A   1      39.017  32.481  33.828  1.00  0.00    -0.354 N 
ATOM     47  C   UNL A   1      39.699  29.696  30.546  1.00  0.00     0.074 A 
ATOM     48  C   UNL A   1      38.733  29.905  29.489  1.00  0.00     0.031 C 
ATOM     49  C   UNL A   1      38.031  34.205  34.856  1.00  0.00     0.029 A 
ATOM     50  C   UNL A   1      39.082  33.201  34.999  1.00  0.00     0.049 A 
ATOM     51  H   UNL A   1      39.626  31.737  33.620  1.00  0.00     0.167 HD
ATOM     52  C   UNL A   1      40.705  28.789  30.498  1.00  0.00     0.034 A 
ATOM     53  C   UNL A   1      39.894  33.054  36.065  1.00  0.00     0.034 A 
ATOM     54  C   UNL A   1      41.641  28.578  31.575  1.00  0.00     0.049 A 
ATOM     55  C   UNL A   1      40.948  31.971  36.023  1.00  0.00     0.074 A 
ATOM     56  C   UNL A   1      42.678  27.666  31.656  1.00  0.00     0.029 A 
ATOM     57  N   UNL A   1      41.649  29.294  32.766  1.00  0.00    -0.354 N 
ATOM     58  N   UNL A   1      41.222  31.121  35.059  1.00  0.00    -0.248 NA
ATOM     59  C   UNL A   1      41.808  31.838  37.205  1.00  0.00     0.031 C 
ATOM     60  C   UNL A   1      43.276  27.791  32.915  1.00  0.00     0.029 A 
ATOM     61  C   UNL A   1      42.658  28.830  33.594  1.00  0.00     0.049 A 
ATOM     62  H   UNL A   1      41.027  30.023  32.990  1.00  0.00     0.167 HD
ATOM     63  C   UNL A   1      42.312  30.379  35.507  1.00  0.00     0.074 A 
ATOM     64  C   UNL A   1      42.653  30.895  36.817  1.00  0.00     0.031 C 
ATOM     65  C   UNL A   1      42.976  29.364  34.897  1.00  0.00     0.034 A 
BRANCH  52  66
ATOM     66  C   UNL A   1      40.815  27.940  29.254  1.00  0.00     0.023 A 
ATOM     67  C   UNL A   1      41.771  28.213  28.260  1.00  0.00     0.031 A 
ATOM     68  C   UNL A   1      39.940  26.859  29.047  1.00  0.00     0.131 A 
ATOM     69  C   UNL A   1      41.793  27.452  27.081  1.00  0.00     0.055 A 
ATOM     70  C   UNL A   1      40.014  26.061  27.904  1.00  0.00     0.041 A 
ATOM     71  F   UNL A   1      38.991  26.565  29.950  1.00  0.00    -0.206 F 
ATOM     72  C   UNL A   1      40.937  26.363  26.907  1.00  0.00     0.022 A 
BRANCH  69  73
ATOM     73  S   UNL A   1      42.879  27.977  25.726  1.00  0.00     0.124 S 
ATOM     74  O   UNL A   1      41.940  28.672  24.848  1.00  0.00    -0.237 OA
ATOM     75  O   UNL A   1      43.857  28.816  26.409  1.00  0.00    -0.237 OA
ATOM     76  O   UNL A   1      43.400  26.718  25.197  1.00  0.00    -0.744 OA
ENDBRANCH  69  73
ENDBRANCH  52  66
BRANCH  53  77
ATOM     77  C   UNL A   1      39.743  33.920  37.271  1.00  0.00     0.023 A 
ATOM     78  C   UNL A   1      39.094  33.453  38.424  1.00  0.00     0.031 A 
ATOM     79  C   UNL A   1      40.176  35.259  37.258  1.00  0.00     0.131 A 
ATOM     80  C   UNL A   1      38.835  34.332  39.489  1.00  0.00     0.055 A 
ATOM     81  C   UNL A   1      39.973  36.112  38.344  1.00  0.00     0.041 A 
ATOM     82  F   UNL A   1      40.801  35.762  36.181  1.00  0.00    -0.206 F 
ATOM     83  C   UNL A   1      39.282  35.655  39.462  1.00  0.00     0.022 A 
BRANCH  80  84
ATOM     84  S   UNL A   1      37.794  33.754  40.858  1.00  0.00     0.124 S 
ATOM     85  O   UNL A   1      37.408  35.010  41.490  1.00  0.00    -0.237 OA
ATOM     86  O   UNL A   1      36.737  33.040  40.150  1.00  0.00    -0.237 OA
ATOM     87  O   UNL A   1      38.698  32.913  41.639  1.00  0.00    -0.744 OA
ENDBRANCH  80  84
ENDBRANCH  53  77
BRANCH  65  88
ATOM     88  C   UNL A   1      44.165  28.793  35.629  1.00  0.00     0.023 A 
ATOM     89  C   UNL A   1      44.036  27.704  36.509  1.00  0.00     0.031 A 
ATOM     90  C   UNL A   1      45.439  29.363  35.459  1.00  0.00     0.131 A 
ATOM     91  C   UNL A   1      45.150  27.261  37.236  1.00  0.00     0.055 A 
ATOM     92  C   UNL A   1      46.556  28.877  36.140  1.00  0.00     0.041 A 
ATOM     93  F   UNL A   1      45.617  30.402  34.629  1.00  0.00    -0.206 F 
ATOM     94  C   UNL A   1      46.413  27.830  37.045  1.00  0.00     0.022 A 
BRANCH  91  95
ATOM     95  S   UNL A   1      44.908  25.990  38.507  1.00  0.00     0.124 S 
ATOM     96  O   UNL A   1      46.281  25.627  38.840  1.00  0.00    -0.237 OA
ATOM     97  O   UNL A   1      44.172  26.716  39.538  1.00  0.00    -0.237 OA
ATOM     98  O   UNL A   1      44.142  24.954  37.815  1.00  0.00    -0.744 OA
ENDBRANCH  91  95
ENDBRANCH  65  88
ENDBRANCH  39  40
ENDBRANCH  32  34
ENDBRANCH  31  32
ENDBRANCH  30  31
ENDBRANCH  29  30
ENDBRANCH   1  29
TORSDOF 21
ENDMDL
