MODEL 1
REMARK VINA RESULT:     -11.8      0.000      0.000
REMARK SMILES Cc1ccc(CNc2ccc(C(=O)OCCOCCOC(=O)c3ccc(-c4c5nc(c(-c6cc(S(=O)(=O)[O-])ccc6F)c6ccc([nH]6)c(-c6cc(S(=O)(=O)[O-])ccc6F)c6nc(c(-c7cc(S(=O)(=O)[O-])ccc7F)c7ccc4[nH]7)C=C6)C=C5)cc3)cc2Br)cc1
REMARK SMILES IDX 17 1 16 2 15 3 14 4 12 5 13 6 11 7 8 8 9 9 87 10 10 11 86 12
REMARK SMILES IDX 88 13 7 14 6 16 5 17 1 18 2 19 3 20 90 21 4 22 89 23 18 24
REMARK SMILES IDX 19 25 20 26 21 27 22 28 23 29 24 30 85 31 25 32 84 33 26 34
REMARK SMILES IDX 27 35 28 36 78 37 29 38 83 39 77 40 79 41 30 42 82 43 76 44
REMARK SMILES IDX 75 45 31 47 63 48 43 49 62 50 44 51 47 52 61 53 80 54 45 55
REMARK SMILES IDX 46 56 60 58 81 59 48 60 32 61 33 62 41 63 34 64 40 65 42 66
REMARK SMILES IDX 39 67 35 68 36 69 37 70 38 71 64 72 65 73 73 74 66 75 72 76
REMARK SMILES IDX 74 77 71 78 67 79 68 80 69 81 70 82 49 83 50 84 58 85 51 86
REMARK SMILES IDX 57 87 59 88 56 89 52 90 53 91 54 92 55 93
REMARK H PARENT 7 15 79 46 47 57
REMARK Flexibility Score: inf
ROOT
ATOM      1  O   UNL A   1      33.808  34.833  28.814  1.00  0.00    -0.374 OA
ENDROOT
BRANCH   1   2
ATOM      2  C   UNL A   1      33.232  33.813  28.002  1.00  0.00     0.202 C 
BRANCH   2   3
ATOM      3  C   UNL A   1      33.992  32.596  28.361  1.00  0.00     0.261 C 
BRANCH   3   4
ATOM      4  O   UNL A   1      33.557  31.470  27.609  1.00  0.00    -0.460 OA
BRANCH   4   5
ATOM      5  C   UNL A   1      34.427  30.459  27.368  1.00  0.00     0.338 C 
ATOM      6  O   UNL A   1      35.606  30.383  27.617  1.00  0.00    -0.246 OA
BRANCH   5   7
ATOM      7  C   UNL A   1      33.580  29.358  26.874  1.00  0.00     0.061 A 
ATOM      8  C   UNL A   1      31.979  27.195  26.175  1.00  0.00     0.049 A 
ATOM      9  C   UNL A   1      31.403  28.356  26.695  1.00  0.00     0.028 A 
ATOM     10  C   UNL A   1      33.383  27.106  26.078  1.00  0.00     0.042 A 
ATOM     11  C   UNL A   1      32.188  29.443  26.999  1.00  0.00     0.018 A 
ATOM     12  C   UNL A   1      34.189  28.189  26.420  1.00  0.00     0.033 A 
ATOM     13  Br  UNL A   1      34.225  25.520  25.456  1.00  0.00    -0.049 Br
BRANCH   8  14
ATOM     14  N   UNL A   1      31.129  26.236  25.615  1.00  0.00    -0.380 N 
ATOM     15  H   UNL A   1      30.541  25.660  26.154  1.00  0.00     0.160 HD
BRANCH  14  16
ATOM     16  C   UNL A   1      31.194  26.170  24.159  1.00  0.00     0.148 C 
BRANCH  16  17
ATOM     17  C   UNL A   1      30.383  27.298  23.590  1.00  0.00    -0.029 A 
ATOM     18  C   UNL A   1      28.037  30.391  21.757  1.00  0.00     0.044 C 
ATOM     19  C   UNL A   1      28.853  29.323  22.417  1.00  0.00    -0.051 A 
ATOM     20  C   UNL A   1      30.248  29.352  22.313  1.00  0.00     0.004 A 
ATOM     21  C   UNL A   1      28.233  28.286  23.124  1.00  0.00     0.004 A 
ATOM     22  C   UNL A   1      31.010  28.348  22.904  1.00  0.00     0.006 A 
ATOM     23  C   UNL A   1      28.993  27.277  23.704  1.00  0.00     0.006 A 
ENDBRANCH  16  17
ENDBRANCH  14  16
ENDBRANCH   8  14
ENDBRANCH   5   7
ENDBRANCH   4   5
ENDBRANCH   3   4
ENDBRANCH   2   3
ENDBRANCH   1   2
BRANCH   1  24
ATOM     24  C   UNL A   1      32.904  35.832  29.210  1.00  0.00     0.202 C 
BRANCH  24  25
ATOM     25  C   UNL A   1      33.035  36.177  30.699  1.00  0.00     0.261 C 
BRANCH  25  26
ATOM     26  O   UNL A   1      33.291  34.971  31.459  1.00  0.00    -0.460 OA
BRANCH  26  27
ATOM     27  C   UNL A   1      34.460  34.924  32.164  1.00  0.00     0.338 C 
ATOM     28  O   UNL A   1      34.871  35.806  32.898  1.00  0.00    -0.246 OA
BRANCH  27  29
ATOM     29  C   UNL A   1      35.240  33.703  31.785  1.00  0.00     0.060 A 
ATOM     30  C   UNL A   1      35.141  32.515  32.544  1.00  0.00     0.016 A 
ATOM     31  C   UNL A   1      36.274  33.849  30.867  1.00  0.00     0.016 A 
ATOM     32  C   UNL A   1      36.172  31.558  32.505  1.00  0.00     0.010 A 
ATOM     33  C   UNL A   1      37.330  32.965  30.917  1.00  0.00     0.010 A 
ATOM     34  C   UNL A   1      37.313  31.832  31.757  1.00  0.00    -0.014 A 
BRANCH  34  35
ATOM     35  C   UNL A   1      38.607  31.134  31.823  1.00  0.00     0.031 A 
ATOM     36  C   UNL A   1      38.730  29.905  31.015  1.00  0.00     0.074 A 
ATOM     37  C   UNL A   1      39.725  31.728  32.318  1.00  0.00     0.049 A 
ATOM     38  N   UNL A   1      39.717  29.088  31.085  1.00  0.00    -0.248 NA
ATOM     39  C   UNL A   1      37.700  29.448  30.082  1.00  0.00     0.031 C 
ATOM     40  C   UNL A   1      41.132  31.489  31.975  1.00  0.00     0.029 A 
ATOM     41  N   UNL A   1      39.828  32.733  33.279  1.00  0.00    -0.354 N 
ATOM     42  C   UNL A   1      39.643  28.249  29.999  1.00  0.00     0.074 A 
ATOM     43  C   UNL A   1      38.304  28.411  29.505  1.00  0.00     0.031 C 
ATOM     44  C   UNL A   1      41.932  32.097  32.877  1.00  0.00     0.029 A 
ATOM     45  C   UNL A   1      41.074  32.655  33.910  1.00  0.00     0.049 A 
ATOM     46  H   UNL A   1      39.129  33.396  33.484  1.00  0.00     0.167 HD
ATOM     47  C   UNL A   1      40.788  27.644  29.580  1.00  0.00     0.034 A 
ATOM     48  C   UNL A   1      41.134  32.512  35.260  1.00  0.00     0.034 A 
ATOM     49  C   UNL A   1      41.885  27.946  30.520  1.00  0.00     0.049 A 
ATOM     50  C   UNL A   1      41.675  31.128  35.496  1.00  0.00     0.074 A 
ATOM     51  C   UNL A   1      42.988  28.781  30.460  1.00  0.00     0.029 A 
ATOM     52  N   UNL A   1      41.728  27.614  31.867  1.00  0.00    -0.354 N 
ATOM     53  N   UNL A   1      41.636  30.202  34.572  1.00  0.00    -0.248 NA
ATOM     54  C   UNL A   1      42.414  30.709  36.678  1.00  0.00     0.031 C 
ATOM     55  C   UNL A   1      43.425  29.022  31.800  1.00  0.00     0.029 A 
ATOM     56  C   UNL A   1      42.613  28.308  32.671  1.00  0.00     0.049 A 
ATOM     57  H   UNL A   1      41.068  26.965  32.203  1.00  0.00     0.167 HD
ATOM     58  C   UNL A   1      42.409  29.152  34.940  1.00  0.00     0.074 A 
ATOM     59  C   UNL A   1      42.840  29.493  36.291  1.00  0.00     0.031 C 
ATOM     60  C   UNL A   1      42.629  28.086  34.115  1.00  0.00     0.034 A 
BRANCH  47  61
ATOM     61  C   UNL A   1      41.006  26.978  28.231  1.00  0.00     0.023 A 
ATOM     62  C   UNL A   1      41.451  25.639  28.218  1.00  0.00     0.031 A 
ATOM     63  C   UNL A   1      40.856  27.557  26.951  1.00  0.00     0.131 A 
ATOM     64  C   UNL A   1      41.751  24.967  27.017  1.00  0.00     0.055 A 
ATOM     65  C   UNL A   1      41.156  26.890  25.755  1.00  0.00     0.041 A 
ATOM     66  F   UNL A   1      40.402  28.795  26.756  1.00  0.00    -0.206 F 
ATOM     67  C   UNL A   1      41.610  25.588  25.780  1.00  0.00     0.022 A 
BRANCH  64  68
ATOM     68  S   UNL A   1      42.333  23.253  27.090  1.00  0.00     0.124 S 
ATOM     69  O   UNL A   1      42.248  22.842  25.693  1.00  0.00    -0.237 OA
ATOM     70  O   UNL A   1      43.674  23.405  27.644  1.00  0.00    -0.237 OA
ATOM     71  O   UNL A   1      41.370  22.608  27.982  1.00  0.00    -0.744 OA
ENDBRANCH  64  68
ENDBRANCH  47  61
BRANCH  48  72
ATOM     72  C   UNL A   1      39.999  33.248  35.926  1.00  0.00     0.023 A 
ATOM     73  C   UNL A   1      38.988  32.451  36.540  1.00  0.00     0.031 A 
ATOM     74  C   UNL A   1      40.164  34.553  36.413  1.00  0.00     0.131 A 
ATOM     75  C   UNL A   1      38.310  32.901  37.692  1.00  0.00     0.055 A 
ATOM     76  C   UNL A   1      39.468  35.005  37.548  1.00  0.00     0.041 A 
ATOM     77  F   UNL A   1      41.117  35.352  35.910  1.00  0.00    -0.206 F 
ATOM     78  C   UNL A   1      38.575  34.167  38.219  1.00  0.00     0.022 A 
BRANCH  75  79
ATOM     79  S   UNL A   1      37.373  31.701  38.718  1.00  0.00     0.124 S 
ATOM     80  O   UNL A   1      38.152  31.666  39.949  1.00  0.00    -0.237 OA
ATOM     81  O   UNL A   1      36.050  32.312  38.819  1.00  0.00    -0.237 OA
ATOM     82  O   UNL A   1      37.401  30.478  37.915  1.00  0.00    -0.744 OA
ENDBRANCH  75  79
ENDBRANCH  48  72
BRANCH  60  83
ATOM     83  C   UNL A   1      42.928  26.722  34.660  1.00  0.00     0.023 A 
ATOM     84  C   UNL A   1      44.246  26.293  34.839  1.00  0.00     0.031 A 
ATOM     85  C   UNL A   1      41.922  25.856  35.133  1.00  0.00     0.131 A 
ATOM     86  C   UNL A   1      44.530  25.009  35.297  1.00  0.00     0.055 A 
ATOM     87  C   UNL A   1      42.214  24.628  35.729  1.00  0.00     0.041 A 
ATOM     88  F   UNL A   1      40.619  26.166  35.058  1.00  0.00    -0.206 F 
ATOM     89  C   UNL A   1      43.526  24.178  35.780  1.00  0.00     0.022 A 
BRANCH  86  90
ATOM     90  S   UNL A   1      46.227  24.430  35.087  1.00  0.00     0.124 S 
ATOM     91  O   UNL A   1      46.413  24.583  33.645  1.00  0.00    -0.237 OA
ATOM     92  O   UNL A   1      46.985  25.358  35.920  1.00  0.00    -0.237 OA
ATOM     93  O   UNL A   1      46.179  23.053  35.566  1.00  0.00    -0.744 OA
ENDBRANCH  86  90
ENDBRANCH  60  83
ENDBRANCH  34  35
ENDBRANCH  27  29
ENDBRANCH  26  27
ENDBRANCH  25  26
ENDBRANCH  24  25
ENDBRANCH   1  24
TORSDOF 20
ENDMDL
MODEL 2
REMARK VINA RESULT:     -11.5      2.953      4.787
REMARK SMILES Cc1ccc(CNc2ccc(C(=O)OCCOCCOC(=O)c3ccc(-c4c5nc(c(-c6cc(S(=O)(=O)[O-])ccc6F)c6ccc([nH]6)c(-c6cc(S(=O)(=O)[O-])ccc6F)c6nc(c(-c7cc(S(=O)(=O)[O-])ccc7F)c7ccc4[nH]7)C=C6)C=C5)cc3)cc2Br)cc1
REMARK SMILES IDX 17 1 16 2 15 3 14 4 12 5 13 6 11 7 8 8 9 9 87 10 10 11 86 12
REMARK SMILES IDX 88 13 7 14 6 16 5 17 1 18 2 19 3 20 90 21 4 22 89 23 18 24
REMARK SMILES IDX 19 25 20 26 21 27 22 28 23 29 24 30 85 31 25 32 84 33 26 34
REMARK SMILES IDX 27 35 28 36 78 37 29 38 83 39 77 40 79 41 30 42 82 43 76 44
REMARK SMILES IDX 75 45 31 47 63 48 43 49 62 50 44 51 47 52 61 53 80 54 45 55
REMARK SMILES IDX 46 56 60 58 81 59 48 60 32 61 33 62 41 63 34 64 40 65 42 66
REMARK SMILES IDX 39 67 35 68 36 69 37 70 38 71 64 72 65 73 73 74 66 75 72 76
REMARK SMILES IDX 74 77 71 78 67 79 68 80 69 81 70 82 49 83 50 84 58 85 51 86
REMARK SMILES IDX 57 87 59 88 56 89 52 90 53 91 54 92 55 93
REMARK H PARENT 7 15 79 46 47 57
REMARK Flexibility Score: inf
ROOT
ATOM      1  O   UNL A   1      33.250  29.344  26.058  1.00  0.00    -0.374 OA
ENDROOT
BRANCH   1   2
ATOM      2  C   UNL A   1      32.788  29.262  24.713  1.00  0.00     0.202 C 
BRANCH   2   3
ATOM      3  C   UNL A   1      31.314  29.281  24.838  1.00  0.00     0.261 C 
BRANCH   3   4
ATOM      4  O   UNL A   1      30.692  29.615  23.603  1.00  0.00    -0.460 OA
BRANCH   4   5
ATOM      5  C   UNL A   1      29.557  28.969  23.239  1.00  0.00     0.338 C 
ATOM      6  O   UNL A   1      28.479  29.419  22.935  1.00  0.00    -0.246 OA
BRANCH   5   7
ATOM      7  C   UNL A   1      29.963  27.556  23.122  1.00  0.00     0.061 A 
ATOM      8  C   UNL A   1      30.894  24.937  23.081  1.00  0.00     0.049 A 
ATOM      9  C   UNL A   1      29.924  25.323  24.008  1.00  0.00     0.028 A 
ATOM     10  C   UNL A   1      31.446  25.905  22.217  1.00  0.00     0.042 A 
ATOM     11  C   UNL A   1      29.430  26.605  24.001  1.00  0.00     0.018 A 
ATOM     12  C   UNL A   1      30.978  27.217  22.229  1.00  0.00     0.033 A 
ATOM     13  Br  UNL A   1      32.827  25.455  20.993  1.00  0.00    -0.049 Br
BRANCH   8  14
ATOM     14  N   UNL A   1      31.153  23.571  22.934  1.00  0.00    -0.380 N 
ATOM     15  H   UNL A   1      31.062  23.097  22.076  1.00  0.00     0.160 HD
BRANCH  14  16
ATOM     16  C   UNL A   1      31.568  22.913  24.168  1.00  0.00     0.148 C 
BRANCH  16  17
ATOM     17  C   UNL A   1      33.035  23.156  24.372  1.00  0.00    -0.029 A 
ATOM     18  C   UNL A   1      37.216  23.727  25.166  1.00  0.00     0.044 C 
ATOM     19  C   UNL A   1      35.761  23.535  24.867  1.00  0.00    -0.051 A 
ATOM     20  C   UNL A   1      34.836  24.506  25.266  1.00  0.00     0.004 A 
ATOM     21  C   UNL A   1      35.315  22.384  24.206  1.00  0.00     0.004 A 
ATOM     22  C   UNL A   1      33.481  24.321  25.012  1.00  0.00     0.006 A 
ATOM     23  C   UNL A   1      33.959  22.194  23.963  1.00  0.00     0.006 A 
ENDBRANCH  16  17
ENDBRANCH  14  16
ENDBRANCH   8  14
ENDBRANCH   5   7
ENDBRANCH   4   5
ENDBRANCH   3   4
ENDBRANCH   2   3
ENDBRANCH   1   2
BRANCH   1  24
ATOM     24  C   UNL A   1      32.411  30.080  26.911  1.00  0.00     0.202 C 
BRANCH  24  25
ATOM     25  C   UNL A   1      33.061  31.389  27.377  1.00  0.00     0.261 C 
BRANCH  25  26
ATOM     26  O   UNL A   1      33.982  31.119  28.461  1.00  0.00    -0.460 OA
BRANCH  26  27
ATOM     27  C   UNL A   1      35.267  31.557  28.301  1.00  0.00     0.338 C 
ATOM     28  O   UNL A   1      35.584  32.676  27.936  1.00  0.00    -0.246 OA
BRANCH  27  29
ATOM     29  C   UNL A   1      36.224  30.421  28.487  1.00  0.00     0.060 A 
ATOM     30  C   UNL A   1      36.493  29.904  29.774  1.00  0.00     0.016 A 
ATOM     31  C   UNL A   1      37.057  30.090  27.425  1.00  0.00     0.016 A 
ATOM     32  C   UNL A   1      37.687  29.201  30.024  1.00  0.00     0.010 A 
ATOM     33  C   UNL A   1      38.272  29.500  27.698  1.00  0.00     0.010 A 
ATOM     34  C   UNL A   1      38.621  29.082  28.999  1.00  0.00    -0.014 A 
BRANCH  34  35
ATOM     35  C   UNL A   1      40.029  28.673  29.124  1.00  0.00     0.031 A 
ATOM     36  C   UNL A   1      40.345  27.284  28.734  1.00  0.00     0.074 A 
ATOM     37  C   UNL A   1      41.035  29.576  29.269  1.00  0.00     0.049 A 
ATOM     38  N   UNL A   1      41.477  26.716  28.937  1.00  0.00    -0.248 NA
ATOM     39  C   UNL A   1      39.373  26.380  28.123  1.00  0.00     0.031 C 
ATOM     40  C   UNL A   1      42.437  29.477  28.852  1.00  0.00     0.029 A 
ATOM     41  N   UNL A   1      40.992  30.844  29.847  1.00  0.00    -0.354 N 
ATOM     42  C   UNL A   1      41.505  25.565  28.186  1.00  0.00     0.074 A 
ATOM     43  C   UNL A   1      40.135  25.326  27.831  1.00  0.00     0.031 C 
ATOM     44  C   UNL A   1      43.153  30.474  29.414  1.00  0.00     0.029 A 
ATOM     45  C   UNL A   1      42.265  31.190  30.316  1.00  0.00     0.049 A 
ATOM     46  H   UNL A   1      40.189  31.410  29.916  1.00  0.00     0.167 HD
ATOM     47  C   UNL A   1      42.721  25.057  27.843  1.00  0.00     0.034 A 
ATOM     48  C   UNL A   1      42.432  31.514  31.625  1.00  0.00     0.034 A 
ATOM     49  C   UNL A   1      43.790  25.832  28.501  1.00  0.00     0.049 A 
ATOM     50  C   UNL A   1      43.250  30.397  32.215  1.00  0.00     0.074 A 
ATOM     51  C   UNL A   1      44.701  26.773  28.050  1.00  0.00     0.029 A 
ATOM     52  N   UNL A   1      43.783  25.943  29.893  1.00  0.00    -0.354 N 
ATOM     53  N   UNL A   1      43.340  29.226  31.640  1.00  0.00    -0.248 NA
ATOM     54  C   UNL A   1      44.126  30.524  33.371  1.00  0.00     0.031 C 
ATOM     55  C   UNL A   1      45.160  27.514  29.184  1.00  0.00     0.029 A 
ATOM     56  C   UNL A   1      44.558  27.002  30.326  1.00  0.00     0.049 A 
ATOM     57  H   UNL A   1      43.285  25.341  30.492  1.00  0.00     0.167 HD
ATOM     58  C   UNL A   1      44.326  28.502  32.223  1.00  0.00     0.074 A 
ATOM     59  C   UNL A   1      44.760  29.338  33.336  1.00  0.00     0.031 C 
ATOM     60  C   UNL A   1      44.703  27.276  31.754  1.00  0.00     0.034 A 
BRANCH  47  61
ATOM     61  C   UNL A   1      42.986  24.028  26.756  1.00  0.00     0.023 A 
ATOM     62  C   UNL A   1      42.415  22.747  26.903  1.00  0.00     0.031 A 
ATOM     63  C   UNL A   1      43.791  24.182  25.604  1.00  0.00     0.131 A 
ATOM     64  C   UNL A   1      42.668  21.709  25.984  1.00  0.00     0.055 A 
ATOM     65  C   UNL A   1      44.045  23.150  24.690  1.00  0.00     0.041 A 
ATOM     66  F   UNL A   1      44.376  25.330  25.268  1.00  0.00    -0.206 F 
ATOM     67  C   UNL A   1      43.486  21.903  24.875  1.00  0.00     0.022 A 
BRANCH  64  68
ATOM     68  S   UNL A   1      41.907  20.089  26.256  1.00  0.00     0.124 S 
ATOM     69  O   UNL A   1      40.486  20.395  26.139  1.00  0.00    -0.237 OA
ATOM     70  O   UNL A   1      42.490  19.289  25.184  1.00  0.00    -0.237 OA
ATOM     71  O   UNL A   1      42.351  19.729  27.602  1.00  0.00    -0.744 OA
ENDBRANCH  64  68
ENDBRANCH  47  61
BRANCH  48  72
ATOM     72  C   UNL A   1      41.215  32.227  32.157  1.00  0.00     0.023 A 
ATOM     73  C   UNL A   1      40.306  31.452  32.938  1.00  0.00     0.031 A 
ATOM     74  C   UNL A   1      41.221  33.613  32.377  1.00  0.00     0.131 A 
ATOM     75  C   UNL A   1      39.576  32.037  33.994  1.00  0.00     0.055 A 
ATOM     76  C   UNL A   1      40.473  34.193  33.416  1.00  0.00     0.041 A 
ATOM     77  F   UNL A   1      42.071  34.404  31.706  1.00  0.00    -0.206 F 
ATOM     78  C   UNL A   1      39.686  33.404  34.257  1.00  0.00     0.022 A 
BRANCH  75  79
ATOM     79  S   UNL A   1      38.789  30.960  35.255  1.00  0.00     0.124 S 
ATOM     80  O   UNL A   1      39.774  30.962  36.328  1.00  0.00    -0.237 OA
ATOM     81  O   UNL A   1      37.533  31.649  35.542  1.00  0.00    -0.237 OA
ATOM     82  O   UNL A   1      38.619  29.687  34.552  1.00  0.00    -0.744 OA
ENDBRANCH  75  79
ENDBRANCH  48  72
BRANCH  60  83
ATOM     83  C   UNL A   1      45.299  26.240  32.658  1.00  0.00     0.023 A 
ATOM     84  C   UNL A   1      44.485  25.376  33.396  1.00  0.00     0.031 A 
ATOM     85  C   UNL A   1      46.685  25.995  32.723  1.00  0.00     0.131 A 
ATOM     86  C   UNL A   1      45.031  24.445  34.276  1.00  0.00     0.055 A 
ATOM     87  C   UNL A   1      47.226  24.964  33.494  1.00  0.00     0.041 A 
ATOM     88  F   UNL A   1      47.573  26.726  32.033  1.00  0.00    -0.206 F 
ATOM     89  C   UNL A   1      46.399  24.203  34.309  1.00  0.00     0.022 A 
BRANCH  86  90
ATOM     90  S   UNL A   1      43.901  23.693  35.466  1.00  0.00     0.124 S 
ATOM     91  O   UNL A   1      42.666  23.613  34.687  1.00  0.00    -0.237 OA
ATOM     92  O   UNL A   1      44.546  22.417  35.755  1.00  0.00    -0.237 OA
ATOM     93  O   UNL A   1      43.880  24.650  36.567  1.00  0.00    -0.744 OA
ENDBRANCH  86  90
ENDBRANCH  60  83
ENDBRANCH  34  35
ENDBRANCH  27  29
ENDBRANCH  26  27
ENDBRANCH  25  26
ENDBRANCH  24  25
ENDBRANCH   1  24
TORSDOF 20
ENDMDL
MODEL 3
REMARK VINA RESULT:     -11.3      3.519      5.330
REMARK SMILES Cc1ccc(CNc2ccc(C(=O)OCCOCCOC(=O)c3ccc(-c4c5nc(c(-c6cc(S(=O)(=O)[O-])ccc6F)c6ccc([nH]6)c(-c6cc(S(=O)(=O)[O-])ccc6F)c6nc(c(-c7cc(S(=O)(=O)[O-])ccc7F)c7ccc4[nH]7)C=C6)C=C5)cc3)cc2Br)cc1
REMARK SMILES IDX 17 1 16 2 15 3 14 4 12 5 13 6 11 7 8 8 9 9 87 10 10 11 86 12
REMARK SMILES IDX 88 13 7 14 6 16 5 17 1 18 2 19 3 20 90 21 4 22 89 23 18 24
REMARK SMILES IDX 19 25 20 26 21 27 22 28 23 29 24 30 85 31 25 32 84 33 26 34
REMARK SMILES IDX 27 35 28 36 78 37 29 38 83 39 77 40 79 41 30 42 82 43 76 44
REMARK SMILES IDX 75 45 31 47 63 48 43 49 62 50 44 51 47 52 61 53 80 54 45 55
REMARK SMILES IDX 46 56 60 58 81 59 48 60 32 61 33 62 41 63 34 64 40 65 42 66
REMARK SMILES IDX 39 67 35 68 36 69 37 70 38 71 64 72 65 73 73 74 66 75 72 76
REMARK SMILES IDX 74 77 71 78 67 79 68 80 69 81 70 82 49 83 50 84 58 85 51 86
REMARK SMILES IDX 57 87 59 88 56 89 52 90 53 91 54 92 55 93
REMARK H PARENT 7 15 79 46 47 57
REMARK Flexibility Score: inf
ROOT
ATOM      1  O   UNL A   1      33.776  28.911  25.691  1.00  0.00    -0.374 OA
ENDROOT
BRANCH   1   2
ATOM      2  C   UNL A   1      33.066  28.939  24.457  1.00  0.00     0.202 C 
BRANCH   2   3
ATOM      3  C   UNL A   1      31.727  28.411  24.801  1.00  0.00     0.261 C 
BRANCH   3   4
ATOM      4  O   UNL A   1      30.892  28.324  23.652  1.00  0.00    -0.460 OA
BRANCH   4   5
ATOM      5  C   UNL A   1      29.847  27.461  23.660  1.00  0.00     0.338 C 
ATOM      6  O   UNL A   1      28.683  27.659  23.409  1.00  0.00    -0.246 OA
BRANCH   5   7
ATOM      7  C   UNL A   1      30.466  26.140  23.881  1.00  0.00     0.061 A 
ATOM      8  C   UNL A   1      31.431  23.552  24.192  1.00  0.00     0.049 A 
ATOM      9  C   UNL A   1      31.624  24.233  22.989  1.00  0.00     0.028 A 
ATOM     10  C   UNL A   1      30.681  24.163  25.218  1.00  0.00     0.042 A 
ATOM     11  C   UNL A   1      31.187  25.529  22.849  1.00  0.00     0.018 A 
ATOM     12  C   UNL A   1      30.201  25.462  25.070  1.00  0.00     0.033 A 
ATOM     13  Br  UNL A   1      30.318  23.251  26.845  1.00  0.00    -0.049 Br
BRANCH   8  14
ATOM     14  N   UNL A   1      32.137  22.361  24.391  1.00  0.00    -0.380 N 
ATOM     15  H   UNL A   1      32.485  22.083  25.268  1.00  0.00     0.160 HD
BRANCH  14  16
ATOM     16  C   UNL A   1      32.307  21.568  23.178  1.00  0.00     0.148 C 
BRANCH  16  17
ATOM     17  C   UNL A   1      32.454  20.125  23.562  1.00  0.00    -0.029 A 
ATOM     18  C   UNL A   1      33.114  16.021  24.635  1.00  0.00     0.044 C 
ATOM     19  C   UNL A   1      32.861  17.451  24.269  1.00  0.00    -0.051 A 
ATOM     20  C   UNL A   1      32.593  17.789  22.938  1.00  0.00     0.004 A 
ATOM     21  C   UNL A   1      32.909  18.455  25.243  1.00  0.00     0.004 A 
ATOM     22  C   UNL A   1      32.381  19.119  22.588  1.00  0.00     0.006 A 
ATOM     23  C   UNL A   1      32.710  19.786  24.891  1.00  0.00     0.006 A 
ENDBRANCH  16  17
ENDBRANCH  14  16
ENDBRANCH   8  14
ENDBRANCH   5   7
ENDBRANCH   4   5
ENDBRANCH   3   4
ENDBRANCH   2   3
ENDBRANCH   1   2
BRANCH   1  24
ATOM     24  C   UNL A   1      33.016  29.313  26.803  1.00  0.00     0.202 C 
BRANCH  24  25
ATOM     25  C   UNL A   1      33.156  30.813  27.091  1.00  0.00     0.261 C 
BRANCH  25  26
ATOM     26  O   UNL A   1      33.930  31.008  28.299  1.00  0.00    -0.460 OA
BRANCH  26  27
ATOM     27  C   UNL A   1      35.212  31.456  28.141  1.00  0.00     0.338 C 
ATOM     28  O   UNL A   1      35.522  32.568  27.751  1.00  0.00    -0.246 OA
BRANCH  27  29
ATOM     29  C   UNL A   1      36.179  30.335  28.369  1.00  0.00     0.060 A 
ATOM     30  C   UNL A   1      36.434  29.851  29.671  1.00  0.00     0.016 A 
ATOM     31  C   UNL A   1      37.032  29.989  27.327  1.00  0.00     0.016 A 
ATOM     32  C   UNL A   1      37.631  29.168  29.956  1.00  0.00     0.010 A 
ATOM     33  C   UNL A   1      38.249  29.420  27.633  1.00  0.00     0.010 A 
ATOM     34  C   UNL A   1      38.582  29.035  28.948  1.00  0.00    -0.014 A 
BRANCH  34  35
ATOM     35  C   UNL A   1      39.993  28.646  29.104  1.00  0.00     0.031 A 
ATOM     36  C   UNL A   1      40.333  27.257  28.736  1.00  0.00     0.074 A 
ATOM     37  C   UNL A   1      40.984  29.563  29.258  1.00  0.00     0.049 A 
ATOM     38  N   UNL A   1      41.468  26.705  28.967  1.00  0.00    -0.248 NA
ATOM     39  C   UNL A   1      39.383  26.333  28.118  1.00  0.00     0.031 C 
ATOM     40  C   UNL A   1      42.396  29.477  28.867  1.00  0.00     0.029 A 
ATOM     41  N   UNL A   1      40.916  30.837  29.820  1.00  0.00    -0.354 N 
ATOM     42  C   UNL A   1      41.525  25.546  28.230  1.00  0.00     0.074 A 
ATOM     43  C   UNL A   1      40.164  25.286  27.852  1.00  0.00     0.031 C 
ATOM     44  C   UNL A   1      43.089  30.489  29.431  1.00  0.00     0.029 A 
ATOM     45  C   UNL A   1      42.175  31.204  30.308  1.00  0.00     0.049 A 
ATOM     46  H   UNL A   1      40.105  31.393  29.867  1.00  0.00     0.167 HD
ATOM     47  C   UNL A   1      42.753  25.049  27.916  1.00  0.00     0.034 A 
ATOM     48  C   UNL A   1      42.313  31.545  31.616  1.00  0.00     0.034 A 
ATOM     49  C   UNL A   1      43.800  25.846  28.585  1.00  0.00     0.049 A 
ATOM     50  C   UNL A   1      43.133  30.445  32.234  1.00  0.00     0.074 A 
ATOM     51  C   UNL A   1      44.707  26.792  28.139  1.00  0.00     0.029 A 
ATOM     52  N   UNL A   1      43.765  25.972  29.975  1.00  0.00    -0.354 N 
ATOM     53  N   UNL A   1      43.249  29.268  31.675  1.00  0.00    -0.248 NA
ATOM     54  C   UNL A   1      43.986  30.596  33.405  1.00  0.00     0.031 C 
ATOM     55  C   UNL A   1      45.135  27.552  29.273  1.00  0.00     0.029 A 
ATOM     56  C   UNL A   1      44.519  27.045  30.409  1.00  0.00     0.049 A 
ATOM     57  H   UNL A   1      43.263  25.370  30.572  1.00  0.00     0.167 HD
ATOM     58  C   UNL A   1      44.233  28.564  32.284  1.00  0.00     0.074 A 
ATOM     59  C   UNL A   1      44.636  29.418  33.395  1.00  0.00     0.031 C 
ATOM     60  C   UNL A   1      44.634  27.338  31.836  1.00  0.00     0.034 A 
BRANCH  47  61
ATOM     61  C   UNL A   1      43.051  24.012  26.845  1.00  0.00     0.023 A 
ATOM     62  C   UNL A   1      42.444  22.744  26.965  1.00  0.00     0.031 A 
ATOM     63  C   UNL A   1      43.917  24.144  25.737  1.00  0.00     0.131 A 
ATOM     64  C   UNL A   1      42.721  21.698  26.062  1.00  0.00     0.055 A 
ATOM     65  C   UNL A   1      44.196  23.103  24.839  1.00  0.00     0.041 A 
ATOM     66  F   UNL A   1      44.546  25.278  25.430  1.00  0.00    -0.206 F 
ATOM     67  C   UNL A   1      43.600  21.870  24.998  1.00  0.00     0.022 A 
BRANCH  64  68
ATOM     68  S   UNL A   1      41.910  20.096  26.297  1.00  0.00     0.124 S 
ATOM     69  O   UNL A   1      40.499  20.453  26.212  1.00  0.00    -0.237 OA
ATOM     70  O   UNL A   1      42.451  19.311  25.193  1.00  0.00    -0.237 OA
ATOM     71  O   UNL A   1      42.361  19.681  27.625  1.00  0.00    -0.744 OA
ENDBRANCH  64  68
ENDBRANCH  47  61
BRANCH  48  72
ATOM     72  C   UNL A   1      41.078  32.248  32.117  1.00  0.00     0.023 A 
ATOM     73  C   UNL A   1      40.219  31.504  32.980  1.00  0.00     0.031 A 
ATOM     74  C   UNL A   1      41.028  33.647  32.223  1.00  0.00     0.131 A 
ATOM     75  C   UNL A   1      39.486  32.143  34.002  1.00  0.00     0.055 A 
ATOM     76  C   UNL A   1      40.278  34.280  33.229  1.00  0.00     0.041 A 
ATOM     77  F   UNL A   1      41.830  34.415  31.470  1.00  0.00    -0.206 F 
ATOM     78  C   UNL A   1      39.543  33.531  34.150  1.00  0.00     0.022 A 
BRANCH  75  79
ATOM     79  S   UNL A   1      38.772  31.142  35.364  1.00  0.00     0.124 S 
ATOM     80  O   UNL A   1      38.649  29.824  34.755  1.00  0.00    -0.237 OA
ATOM     81  O   UNL A   1      39.770  31.263  36.423  1.00  0.00    -0.237 OA
ATOM     82  O   UNL A   1      37.511  31.824  35.658  1.00  0.00    -0.744 OA
ENDBRANCH  75  79
ENDBRANCH  48  72
BRANCH  60  83
ATOM     83  C   UNL A   1      45.225  26.320  32.764  1.00  0.00     0.023 A 
ATOM     84  C   UNL A   1      44.413  25.401  33.435  1.00  0.00     0.031 A 
ATOM     85  C   UNL A   1      46.616  26.147  32.916  1.00  0.00     0.131 A 
ATOM     86  C   UNL A   1      44.951  24.486  34.337  1.00  0.00     0.055 A 
ATOM     87  C   UNL A   1      47.160  25.134  33.706  1.00  0.00     0.041 A 
ATOM     88  F   UNL A   1      47.505  26.936  32.294  1.00  0.00    -0.206 F 
ATOM     89  C   UNL A   1      46.325  24.317  34.456  1.00  0.00     0.022 A 
BRANCH  86  90
ATOM     90  S   UNL A   1      43.789  23.655  35.440  1.00  0.00     0.124 S 
ATOM     91  O   UNL A   1      44.208  22.260  35.311  1.00  0.00    -0.237 OA
ATOM     92  O   UNL A   1      44.072  24.279  36.728  1.00  0.00    -0.237 OA
ATOM     93  O   UNL A   1      42.487  23.969  34.862  1.00  0.00    -0.744 OA
ENDBRANCH  86  90
ENDBRANCH  60  83
ENDBRANCH  34  35
ENDBRANCH  27  29
ENDBRANCH  26  27
ENDBRANCH  25  26
ENDBRANCH  24  25
ENDBRANCH   1  24
TORSDOF 20
ENDMDL
