MODEL 1
REMARK VINA RESULT:     -12.8      0.000      0.000
REMARK SMILES Cc1ccc(C(=O)NC2CC2)cc1NC(=O)[C@@H]1[C@@H](C(=O)OCCOCCOC(=O)c2ccc(-c3c4nc(c(-c5cc(S(=O)(=O)[O-])ccc5F)c5ccc([nH]5)c(-c5cc(S(=O)(=O)[O-])ccc5F)c5nc(c(-c6cc(S(=O)(=O)[O-])ccc6F)c6ccc3[nH]6)C=C5)C=C4)cc2)[C@H]2C=C[C@@H]1C2
REMARK SMILES IDX 23 1 22 2 21 3 19 4 20 5 18 6 17 7 96 8 93 9 95 10 97 11
REMARK SMILES IDX 94 12 15 13 14 14 16 16 13 17 1 18 2 19 3 20 4 21 12 22 5 23
REMARK SMILES IDX 6 24 7 25 8 26 9 28 10 29 11 30 24 31 25 32 26 33 27 34
REMARK SMILES IDX 28 35 29 36 30 37 31 38 92 39 32 40 91 41 33 42 34 43 35 44
REMARK SMILES IDX 85 45 36 46 90 47 84 48 86 49 37 50 89 51 83 52 82 53 38 55
REMARK SMILES IDX 70 56 50 57 69 58 51 59 54 60 68 61 87 62 52 63 53 64 67 66
REMARK SMILES IDX 88 67 55 68 39 69 40 70 48 71 41 72 47 73 49 74 46 75 42 76
REMARK SMILES IDX 43 77 44 78 45 79 71 80 72 81 80 82 73 83 79 84 81 85 78 86
REMARK SMILES IDX 74 87 75 88 76 89 77 90 56 91 57 92 65 93 58 94 64 95 66 96
REMARK SMILES IDX 63 97 59 98 60 99 61 100 62 101
REMARK H PARENT 14 15 8 27 86 54 54 65
REMARK Flexibility Score: inf
ROOT
ATOM      1  C   UNL A   1      31.796  30.353  25.499  1.00  0.00     0.202 C 
ENDROOT
BRANCH   1   2
ATOM      2  C   UNL A   1      31.657  29.009  24.819  1.00  0.00     0.261 C 
BRANCH   2   3
ATOM      3  O   UNL A   1      31.277  27.995  25.759  1.00  0.00    -0.463 OA
BRANCH   3   4
ATOM      4  C   UNL A   1      31.969  26.833  25.712  1.00  0.00     0.310 C 
ATOM      5  O   UNL A   1      33.090  26.652  26.173  1.00  0.00    -0.252 OA
BRANCH   4   6
ATOM      6  C   UNL A   1      31.101  25.750  25.118  1.00  0.00     0.119 C 
ATOM      7  C   UNL A   1      31.782  24.350  25.222  1.00  0.00     0.100 C 
ATOM      8  C   UNL A   1      31.596  23.777  23.794  1.00  0.00     0.025 C 
ATOM      9  C   UNL A   1      30.852  25.884  23.597  1.00  0.00     0.027 C 
ATOM     10  C   UNL A   1      32.575  24.509  22.902  1.00  0.00    -0.027 C 
ATOM     11  C   UNL A   1      30.314  24.475  23.317  1.00  0.00     0.017 C 
ATOM     12  C   UNL A   1      32.144  25.776  22.809  1.00  0.00    -0.027 C 
BRANCH   7  13
ATOM     13  C   UNL A   1      31.266  23.441  26.325  1.00  0.00     0.228 C 
ATOM     14  N   UNL A   1      31.674  22.134  26.466  1.00  0.00    -0.326 N 
ATOM     15  H   UNL A   1      31.224  21.668  27.209  1.00  0.00     0.169 HD
ATOM     16  O   UNL A   1      30.410  23.837  27.125  1.00  0.00    -0.274 OA
BRANCH  14  17
ATOM     17  C   UNL A   1      32.599  21.311  25.779  1.00  0.00     0.044 A 
ATOM     18  C   UNL A   1      34.612  22.460  26.876  1.00  0.00     0.046 C 
ATOM     19  C   UNL A   1      33.977  21.407  26.014  1.00  0.00    -0.027 A 
ATOM     20  C   UNL A   1      34.844  20.479  25.392  1.00  0.00     0.006 A 
ATOM     21  C   UNL A   1      34.359  19.466  24.558  1.00  0.00     0.014 A 
ATOM     22  C   UNL A   1      32.185  20.380  24.833  1.00  0.00     0.040 A 
ATOM     23  C   UNL A   1      33.006  19.412  24.252  1.00  0.00     0.041 A 
BRANCH  23  24
ATOM     24  C   UNL A   1      32.501  18.277  23.407  1.00  0.00     0.251 C 
ATOM     25  O   UNL A   1      32.212  18.517  22.235  1.00  0.00    -0.269 OA
ATOM     26  N   UNL A   1      32.405  16.981  23.878  1.00  0.00    -0.349 N 
ATOM     27  H   UNL A   1      32.009  16.323  23.262  1.00  0.00     0.164 HD
BRANCH  26  28
ATOM     28  C   UNL A   1      32.806  16.488  25.138  1.00  0.00     0.082 C 
ATOM     29  C   UNL A   1      32.782  15.038  25.382  1.00  0.00     0.027 C 
ATOM     30  C   UNL A   1      34.086  15.787  25.478  1.00  0.00     0.027 C 
ENDBRANCH  26  28
ENDBRANCH  23  24
ENDBRANCH  14  17
ENDBRANCH   7  13
ENDBRANCH   4   6
ENDBRANCH   3   4
ENDBRANCH   2   3
ENDBRANCH   1   2
BRANCH   1  31
ATOM     31  O   UNL A   1      32.013  30.103  26.893  1.00  0.00    -0.374 OA
BRANCH  31  32
ATOM     32  C   UNL A   1      33.216  30.652  27.412  1.00  0.00     0.202 C 
BRANCH  32  33
ATOM     33  C   UNL A   1      34.408  29.685  27.381  1.00  0.00     0.261 C 
BRANCH  33  34
ATOM     34  O   UNL A   1      35.599  30.407  27.021  1.00  0.00    -0.460 OA
BRANCH  34  35
ATOM     35  C   UNL A   1      36.376  30.775  28.084  1.00  0.00     0.338 C 
ATOM     36  O   UNL A   1      36.293  31.816  28.678  1.00  0.00    -0.246 OA
BRANCH  35  37
ATOM     37  C   UNL A   1      37.421  29.731  28.311  1.00  0.00     0.060 A 
ATOM     38  C   UNL A   1      37.395  28.967  29.489  1.00  0.00     0.016 A 
ATOM     39  C   UNL A   1      38.517  29.648  27.454  1.00  0.00     0.016 A 
ATOM     40  C   UNL A   1      38.505  28.185  29.845  1.00  0.00     0.010 A 
ATOM     41  C   UNL A   1      39.631  28.927  27.841  1.00  0.00     0.010 A 
ATOM     42  C   UNL A   1      39.644  28.199  29.041  1.00  0.00    -0.014 A 
BRANCH  42  43
ATOM     43  C   UNL A   1      40.921  27.558  29.397  1.00  0.00     0.031 A 
ATOM     44  C   UNL A   1      41.290  26.260  28.767  1.00  0.00     0.074 A 
ATOM     45  C   UNL A   1      41.873  28.285  30.033  1.00  0.00     0.049 A 
ATOM     46  N   UNL A   1      42.309  25.539  29.089  1.00  0.00    -0.248 NA
ATOM     47  C   UNL A   1      40.559  25.701  27.635  1.00  0.00     0.031 C 
ATOM     48  C   UNL A   1      43.308  28.004  30.149  1.00  0.00     0.029 A 
ATOM     49  N   UNL A   1      41.737  29.481  30.746  1.00  0.00    -0.354 N 
ATOM     50  C   UNL A   1      42.603  24.712  28.022  1.00  0.00     0.074 A 
ATOM     51  C   UNL A   1      41.431  24.797  27.182  1.00  0.00     0.031 C 
ATOM     52  C   UNL A   1      43.872  28.837  31.036  1.00  0.00     0.029 A 
ATOM     53  C   UNL A   1      42.774  29.511  31.697  1.00  0.00     0.049 A 
ATOM     54  H   UNL A   1      41.048  30.170  30.608  1.00  0.00     0.167 HD
ATOM     55  C   UNL A   1      43.866  24.186  27.904  1.00  0.00     0.034 A 
ATOM     56  C   UNL A   1      42.476  29.377  33.019  1.00  0.00     0.034 A 
ATOM     57  C   UNL A   1      44.713  24.565  29.064  1.00  0.00     0.049 A 
ATOM     58  C   UNL A   1      43.050  28.061  33.508  1.00  0.00     0.074 A 
ATOM     59  C   UNL A   1      45.912  25.244  29.207  1.00  0.00     0.029 A 
ATOM     60  N   UNL A   1      44.213  24.425  30.373  1.00  0.00    -0.354 N 
ATOM     61  N   UNL A   1      43.181  26.991  32.756  1.00  0.00    -0.248 NA
ATOM     62  C   UNL A   1      43.735  27.939  34.788  1.00  0.00     0.031 C 
ATOM     63  C   UNL A   1      46.035  25.653  30.567  1.00  0.00     0.029 A 
ATOM     64  C   UNL A   1      44.958  25.150  31.285  1.00  0.00     0.049 A 
ATOM     65  H   UNL A   1      43.430  23.879  30.609  1.00  0.00     0.167 HD
ATOM     66  C   UNL A   1      44.090  26.148  33.339  1.00  0.00     0.074 A 
ATOM     67  C   UNL A   1      44.350  26.753  34.642  1.00  0.00     0.031 C 
ATOM     68  C   UNL A   1      44.704  25.088  32.723  1.00  0.00     0.034 A 
BRANCH  55  69
ATOM     69  C   UNL A   1      44.415  23.568  26.603  1.00  0.00     0.023 A 
ATOM     70  C   UNL A   1      44.193  22.206  26.282  1.00  0.00     0.031 A 
ATOM     71  C   UNL A   1      45.181  24.259  25.638  1.00  0.00     0.131 A 
ATOM     72  C   UNL A   1      44.809  21.586  25.165  1.00  0.00     0.055 A 
ATOM     73  C   UNL A   1      45.852  23.635  24.573  1.00  0.00     0.041 A 
ATOM     74  F   UNL A   1      45.241  25.594  25.606  1.00  0.00    -0.206 F 
ATOM     75  C   UNL A   1      45.679  22.286  24.337  1.00  0.00     0.022 A 
BRANCH  72  76
ATOM     76  S   UNL A   1      44.398  19.870  24.721  1.00  0.00     0.124 S 
ATOM     77  O   UNL A   1      43.056  19.724  25.272  1.00  0.00    -0.237 OA
ATOM     78  O   UNL A   1      44.509  19.882  23.267  1.00  0.00    -0.237 OA
ATOM     79  O   UNL A   1      45.431  19.087  25.404  1.00  0.00    -0.744 OA
ENDBRANCH  72  76
ENDBRANCH  55  69
BRANCH  56  80
ATOM     80  C   UNL A   1      41.213  30.090  33.381  1.00  0.00     0.023 A 
ATOM     81  C   UNL A   1      41.289  31.506  33.500  1.00  0.00     0.031 A 
ATOM     82  C   UNL A   1      39.943  29.531  33.193  1.00  0.00     0.131 A 
ATOM     83  C   UNL A   1      40.155  32.313  33.300  1.00  0.00     0.055 A 
ATOM     84  C   UNL A   1      38.805  30.340  33.029  1.00  0.00     0.041 A 
ATOM     85  F   UNL A   1      39.795  28.208  33.033  1.00  0.00    -0.206 F 
ATOM     86  C   UNL A   1      38.913  31.733  33.041  1.00  0.00     0.022 A 
BRANCH  83  87
ATOM     87  S   UNL A   1      40.338  34.118  33.090  1.00  0.00     0.124 S 
ATOM     88  O   UNL A   1      41.162  34.209  31.891  1.00  0.00    -0.237 OA
ATOM     89  O   UNL A   1      38.961  34.585  32.949  1.00  0.00    -0.237 OA
ATOM     90  O   UNL A   1      40.987  34.527  34.336  1.00  0.00    -0.744 OA
ENDBRANCH  83  87
ENDBRANCH  56  80
BRANCH  68  91
ATOM     91  C   UNL A   1      45.302  23.942  33.503  1.00  0.00     0.023 A 
ATOM     92  C   UNL A   1      46.618  23.989  33.979  1.00  0.00     0.031 A 
ATOM     93  C   UNL A   1      44.535  22.829  33.918  1.00  0.00     0.131 A 
ATOM     94  C   UNL A   1      47.164  22.927  34.708  1.00  0.00     0.055 A 
ATOM     95  C   UNL A   1      45.054  21.811  34.720  1.00  0.00     0.041 A 
ATOM     96  F   UNL A   1      43.241  22.690  33.592  1.00  0.00    -0.206 F 
ATOM     97  C   UNL A   1      46.386  21.844  35.104  1.00  0.00     0.022 A 
BRANCH  94  98
ATOM     98  S   UNL A   1      48.935  22.978  35.063  1.00  0.00     0.124 S 
ATOM     99  O   UNL A   1      48.973  23.829  36.250  1.00  0.00    -0.237 OA
ATOM    100  O   UNL A   1      49.256  21.572  35.283  1.00  0.00    -0.237 OA
ATOM    101  O   UNL A   1      49.510  23.566  33.856  1.00  0.00    -0.744 OA
ENDBRANCH  94  98
ENDBRANCH  68  91
ENDBRANCH  42  43
ENDBRANCH  35  37
ENDBRANCH  34  35
ENDBRANCH  33  34
ENDBRANCH  32  33
ENDBRANCH  31  32
ENDBRANCH   1  31
TORSDOF 21
ENDMDL
MODEL 2
REMARK VINA RESULT:     -12.4      2.037      2.453
REMARK SMILES Cc1ccc(C(=O)NC2CC2)cc1NC(=O)[C@@H]1[C@@H](C(=O)OCCOCCOC(=O)c2ccc(-c3c4nc(c(-c5cc(S(=O)(=O)[O-])ccc5F)c5ccc([nH]5)c(-c5cc(S(=O)(=O)[O-])ccc5F)c5nc(c(-c6cc(S(=O)(=O)[O-])ccc6F)c6ccc3[nH]6)C=C5)C=C4)cc2)[C@H]2C=C[C@@H]1C2
REMARK SMILES IDX 23 1 22 2 21 3 19 4 20 5 18 6 17 7 96 8 93 9 95 10 97 11
REMARK SMILES IDX 94 12 15 13 14 14 16 16 13 17 1 18 2 19 3 20 4 21 12 22 5 23
REMARK SMILES IDX 6 24 7 25 8 26 9 28 10 29 11 30 24 31 25 32 26 33 27 34
REMARK SMILES IDX 28 35 29 36 30 37 31 38 92 39 32 40 91 41 33 42 34 43 35 44
REMARK SMILES IDX 85 45 36 46 90 47 84 48 86 49 37 50 89 51 83 52 82 53 38 55
REMARK SMILES IDX 70 56 50 57 69 58 51 59 54 60 68 61 87 62 52 63 53 64 67 66
REMARK SMILES IDX 88 67 55 68 39 69 40 70 48 71 41 72 47 73 49 74 46 75 42 76
REMARK SMILES IDX 43 77 44 78 45 79 71 80 72 81 80 82 73 83 79 84 81 85 78 86
REMARK SMILES IDX 74 87 75 88 76 89 77 90 56 91 57 92 65 93 58 94 64 95 66 96
REMARK SMILES IDX 63 97 59 98 60 99 61 100 62 101
REMARK H PARENT 14 15 8 27 86 54 54 65
REMARK Flexibility Score: inf
ROOT
ATOM      1  C   UNL A   1      33.966  29.400  24.790  1.00  0.00     0.202 C 
ENDROOT
BRANCH   1   2
ATOM      2  C   UNL A   1      34.023  27.960  24.332  1.00  0.00     0.261 C 
BRANCH   2   3
ATOM      3  O   UNL A   1      33.948  27.063  25.448  1.00  0.00    -0.463 OA
BRANCH   3   4
ATOM      4  C   UNL A   1      33.575  25.790  25.181  1.00  0.00     0.310 C 
ATOM      5  O   UNL A   1      34.325  24.885  24.835  1.00  0.00    -0.252 OA
BRANCH   4   6
ATOM      6  C   UNL A   1      32.108  25.615  25.496  1.00  0.00     0.119 C 
ATOM      7  C   UNL A   1      31.650  24.139  25.286  1.00  0.00     0.100 C 
ATOM      8  C   UNL A   1      30.343  24.304  24.470  1.00  0.00     0.025 C 
ATOM      9  C   UNL A   1      31.151  26.394  24.563  1.00  0.00     0.027 C 
ATOM     10  C   UNL A   1      30.754  24.681  23.063  1.00  0.00    -0.027 C 
ATOM     11  C   UNL A   1      29.839  25.683  24.919  1.00  0.00     0.017 C 
ATOM     12  C   UNL A   1      31.265  25.920  23.127  1.00  0.00    -0.027 C 
BRANCH   7  13
ATOM     13  C   UNL A   1      31.491  23.308  26.549  1.00  0.00     0.228 C 
ATOM     14  N   UNL A   1      32.063  22.066  26.700  1.00  0.00    -0.326 N 
ATOM     15  H   UNL A   1      31.841  21.641  27.561  1.00  0.00     0.169 HD
ATOM     16  O   UNL A   1      30.790  23.706  27.487  1.00  0.00    -0.274 OA
BRANCH  14  17
ATOM     17  C   UNL A   1      32.904  21.263  25.891  1.00  0.00     0.044 A 
ATOM     18  C   UNL A   1      35.032  22.356  26.815  1.00  0.00     0.046 C 
ATOM     19  C   UNL A   1      34.300  21.340  25.985  1.00  0.00    -0.027 A 
ATOM     20  C   UNL A   1      35.088  20.431  25.243  1.00  0.00     0.006 A 
ATOM     21  C   UNL A   1      34.508  19.453  24.426  1.00  0.00     0.014 A 
ATOM     22  C   UNL A   1      32.385  20.370  24.959  1.00  0.00     0.040 A 
ATOM     23  C   UNL A   1      33.130  19.420  24.261  1.00  0.00     0.041 A 
BRANCH  23  24
ATOM     24  C   UNL A   1      32.529  18.321  23.431  1.00  0.00     0.251 C 
ATOM     25  O   UNL A   1      32.325  18.546  22.239  1.00  0.00    -0.269 OA
ATOM     26  N   UNL A   1      32.254  17.066  23.942  1.00  0.00    -0.349 N 
ATOM     27  H   UNL A   1      31.809  16.437  23.330  1.00  0.00     0.164 HD
BRANCH  26  28
ATOM     28  C   UNL A   1      32.535  16.579  25.237  1.00  0.00     0.082 C 
ATOM     29  C   UNL A   1      32.834  15.151  25.417  1.00  0.00     0.027 C 
ATOM     30  C   UNL A   1      33.868  16.182  25.793  1.00  0.00     0.027 C 
ENDBRANCH  26  28
ENDBRANCH  23  24
ENDBRANCH  14  17
ENDBRANCH   7  13
ENDBRANCH   4   6
ENDBRANCH   3   4
ENDBRANCH   2   3
ENDBRANCH   1   2
BRANCH   1  31
ATOM     31  O   UNL A   1      32.590  29.713  25.036  1.00  0.00    -0.374 OA
BRANCH  31  32
ATOM     32  C   UNL A   1      32.337  30.314  26.298  1.00  0.00     0.202 C 
BRANCH  32  33
ATOM     33  C   UNL A   1      33.419  30.034  27.351  1.00  0.00     0.261 C 
BRANCH  33  34
ATOM     34  O   UNL A   1      34.389  31.096  27.331  1.00  0.00    -0.460 OA
BRANCH  34  35
ATOM     35  C   UNL A   1      35.024  31.298  28.525  1.00  0.00     0.338 C 
ATOM     36  O   UNL A   1      34.774  32.177  29.305  1.00  0.00    -0.246 OA
BRANCH  35  37
ATOM     37  C   UNL A   1      36.156  30.330  28.647  1.00  0.00     0.060 A 
ATOM     38  C   UNL A   1      36.373  29.665  29.864  1.00  0.00     0.016 A 
ATOM     39  C   UNL A   1      37.099  30.232  27.625  1.00  0.00     0.016 A 
ATOM     40  C   UNL A   1      37.573  28.971  30.083  1.00  0.00     0.010 A 
ATOM     41  C   UNL A   1      38.305  29.602  27.869  1.00  0.00     0.010 A 
ATOM     42  C   UNL A   1      38.562  28.977  29.099  1.00  0.00    -0.014 A 
BRANCH  42  43
ATOM     43  C   UNL A   1      39.917  28.432  29.280  1.00  0.00     0.031 A 
ATOM     44  C   UNL A   1      40.178  26.998  28.972  1.00  0.00     0.074 A 
ATOM     45  C   UNL A   1      40.962  29.286  29.413  1.00  0.00     0.049 A 
ATOM     46  N   UNL A   1      41.280  26.374  29.211  1.00  0.00    -0.248 NA
ATOM     47  C   UNL A   1      39.211  26.156  28.276  1.00  0.00     0.031 C 
ATOM     48  C   UNL A   1      42.392  29.012  29.228  1.00  0.00     0.029 A 
ATOM     49  N   UNL A   1      40.954  30.639  29.765  1.00  0.00    -0.354 N 
ATOM     50  C   UNL A   1      41.333  25.267  28.386  1.00  0.00     0.074 A 
ATOM     51  C   UNL A   1      39.982  25.137  27.890  1.00  0.00     0.031 C 
ATOM     52  C   UNL A   1      43.122  30.050  29.663  1.00  0.00     0.029 A 
ATOM     53  C   UNL A   1      42.196  30.915  30.366  1.00  0.00     0.049 A 
ATOM     54  H   UNL A   1      40.218  31.278  29.620  1.00  0.00     0.167 HD
ATOM     55  C   UNL A   1      42.549  24.696  28.100  1.00  0.00     0.034 A 
ATOM     56  C   UNL A   1      42.253  31.176  31.701  1.00  0.00     0.034 A 
ATOM     57  C   UNL A   1      43.644  25.371  28.843  1.00  0.00     0.049 A 
ATOM     58  C   UNL A   1      42.998  30.042  32.379  1.00  0.00     0.074 A 
ATOM     59  C   UNL A   1      44.804  26.030  28.471  1.00  0.00     0.029 A 
ATOM     60  N   UNL A   1      43.503  25.627  30.220  1.00  0.00    -0.354 N 
ATOM     61  N   UNL A   1      42.986  28.798  31.955  1.00  0.00    -0.248 NA
ATOM     62  C   UNL A   1      43.993  30.276  33.417  1.00  0.00     0.031 C 
ATOM     63  C   UNL A   1      45.250  26.810  29.577  1.00  0.00     0.029 A 
ATOM     64  C   UNL A   1      44.418  26.564  30.662  1.00  0.00     0.049 A 
ATOM     65  H   UNL A   1      42.835  25.193  30.797  1.00  0.00     0.167 HD
ATOM     66  C   UNL A   1      44.055  28.134  32.498  1.00  0.00     0.074 A 
ATOM     67  C   UNL A   1      44.609  29.082  33.462  1.00  0.00     0.031 C 
ATOM     68  C   UNL A   1      44.544  26.925  32.073  1.00  0.00     0.034 A 
BRANCH  55  69
ATOM     69  C   UNL A   1      42.778  23.715  26.933  1.00  0.00     0.023 A 
ATOM     70  C   UNL A   1      42.351  22.366  27.009  1.00  0.00     0.031 A 
ATOM     71  C   UNL A   1      43.425  24.036  25.719  1.00  0.00     0.131 A 
ATOM     72  C   UNL A   1      42.679  21.416  26.008  1.00  0.00     0.055 A 
ATOM     73  C   UNL A   1      43.815  23.086  24.761  1.00  0.00     0.041 A 
ATOM     74  F   UNL A   1      43.625  25.302  25.338  1.00  0.00    -0.206 F 
ATOM     75  C   UNL A   1      43.454  21.762  24.907  1.00  0.00     0.022 A 
BRANCH  72  76
ATOM     76  S   UNL A   1      42.006  19.727  26.086  1.00  0.00     0.124 S 
ATOM     77  O   UNL A   1      40.570  19.966  26.014  1.00  0.00    -0.237 OA
ATOM     78  O   UNL A   1      42.620  19.086  24.928  1.00  0.00    -0.237 OA
ATOM     79  O   UNL A   1      42.483  19.232  27.379  1.00  0.00    -0.744 OA
ENDBRANCH  72  76
ENDBRANCH  55  69
BRANCH  56  80
ATOM     80  C   UNL A   1      41.090  31.996  32.159  1.00  0.00     0.023 A 
ATOM     81  C   UNL A   1      40.157  31.356  33.022  1.00  0.00     0.031 A 
ATOM     82  C   UNL A   1      41.095  33.396  32.147  1.00  0.00     0.131 A 
ATOM     83  C   UNL A   1      39.372  32.099  33.921  1.00  0.00     0.055 A 
ATOM     84  C   UNL A   1      40.281  34.137  33.023  1.00  0.00     0.041 A 
ATOM     85  F   UNL A   1      41.972  34.071  31.390  1.00  0.00    -0.206 F 
ATOM     86  C   UNL A   1      39.448  33.492  33.940  1.00  0.00     0.022 A 
BRANCH  83  87
ATOM     87  S   UNL A   1      38.463  31.255  35.262  1.00  0.00     0.124 S 
ATOM     88  O   UNL A   1      38.189  29.949  34.676  1.00  0.00    -0.237 OA
ATOM     89  O   UNL A   1      39.411  31.265  36.373  1.00  0.00    -0.237 OA
ATOM     90  O   UNL A   1      37.297  32.118  35.458  1.00  0.00    -0.744 OA
ENDBRANCH  83  87
ENDBRANCH  56  80
BRANCH  68  91
ATOM     91  C   UNL A   1      45.378  26.038  32.965  1.00  0.00     0.023 A 
ATOM     92  C   UNL A   1      44.832  24.912  33.595  1.00  0.00     0.031 A 
ATOM     93  C   UNL A   1      46.775  26.205  33.102  1.00  0.00     0.131 A 
ATOM     94  C   UNL A   1      45.612  24.089  34.414  1.00  0.00     0.055 A 
ATOM     95  C   UNL A   1      47.570  25.333  33.849  1.00  0.00     0.041 A 
ATOM     96  F   UNL A   1      47.440  27.201  32.498  1.00  0.00    -0.206 F 
ATOM     97  C   UNL A   1      46.986  24.276  34.530  1.00  0.00     0.022 A 
BRANCH  94  98
ATOM     98  S   UNL A   1      44.762  22.813  35.370  1.00  0.00     0.124 S 
ATOM     99  O   UNL A   1      45.280  23.059  36.714  1.00  0.00    -0.237 OA
ATOM    100  O   UNL A   1      43.356  23.146  35.164  1.00  0.00    -0.237 OA
ATOM    101  O   UNL A   1      45.205  21.567  34.749  1.00  0.00    -0.744 OA
ENDBRANCH  94  98
ENDBRANCH  68  91
ENDBRANCH  42  43
ENDBRANCH  35  37
ENDBRANCH  34  35
ENDBRANCH  33  34
ENDBRANCH  32  33
ENDBRANCH  31  32
ENDBRANCH   1  31
TORSDOF 21
ENDMDL
MODEL 3
REMARK VINA RESULT:     -12.3      4.345     10.195
REMARK SMILES Cc1ccc(C(=O)NC2CC2)cc1NC(=O)[C@@H]1[C@@H](C(=O)OCCOCCOC(=O)c2ccc(-c3c4nc(c(-c5cc(S(=O)(=O)[O-])ccc5F)c5ccc([nH]5)c(-c5cc(S(=O)(=O)[O-])ccc5F)c5nc(c(-c6cc(S(=O)(=O)[O-])ccc6F)c6ccc3[nH]6)C=C5)C=C4)cc2)[C@H]2C=C[C@@H]1C2
REMARK SMILES IDX 23 1 22 2 21 3 19 4 20 5 18 6 17 7 96 8 93 9 95 10 97 11
REMARK SMILES IDX 94 12 15 13 14 14 16 16 13 17 1 18 2 19 3 20 4 21 12 22 5 23
REMARK SMILES IDX 6 24 7 25 8 26 9 28 10 29 11 30 24 31 25 32 26 33 27 34
REMARK SMILES IDX 28 35 29 36 30 37 31 38 92 39 32 40 91 41 33 42 34 43 35 44
REMARK SMILES IDX 85 45 36 46 90 47 84 48 86 49 37 50 89 51 83 52 82 53 38 55
REMARK SMILES IDX 70 56 50 57 69 58 51 59 54 60 68 61 87 62 52 63 53 64 67 66
REMARK SMILES IDX 88 67 55 68 39 69 40 70 48 71 41 72 47 73 49 74 46 75 42 76
REMARK SMILES IDX 43 77 44 78 45 79 71 80 72 81 80 82 73 83 79 84 81 85 78 86
REMARK SMILES IDX 74 87 75 88 76 89 77 90 56 91 57 92 65 93 58 94 64 95 66 96
REMARK SMILES IDX 63 97 59 98 60 99 61 100 62 101
REMARK H PARENT 14 15 8 27 86 54 54 65
REMARK Flexibility Score: inf
ROOT
ATOM      1  C   UNL A   1      35.488  22.135  26.526  1.00  0.00     0.202 C 
ENDROOT
BRANCH   1   2
ATOM      2  C   UNL A   1      34.332  22.587  25.662  1.00  0.00     0.261 C 
BRANCH   2   3
ATOM      3  O   UNL A   1      33.827  23.855  26.101  1.00  0.00    -0.463 OA
BRANCH   3   4
ATOM      4  C   UNL A   1      33.870  24.869  25.207  1.00  0.00     0.310 C 
ATOM      5  O   UNL A   1      34.885  25.437  24.822  1.00  0.00    -0.252 OA
BRANCH   4   6
ATOM      6  C   UNL A   1      32.486  25.117  24.655  1.00  0.00     0.119 C 
ATOM      7  C   UNL A   1      31.458  24.079  25.202  1.00  0.00     0.100 C 
ATOM      8  C   UNL A   1      30.712  23.634  23.918  1.00  0.00     0.025 C 
ATOM      9  C   UNL A   1      32.360  24.932  23.124  1.00  0.00     0.027 C 
ATOM     10  C   UNL A   1      31.658  22.730  23.158  1.00  0.00    -0.027 C 
ATOM     11  C   UNL A   1      30.831  24.870  23.016  1.00  0.00     0.017 C 
ATOM     12  C   UNL A   1      32.659  23.504  22.709  1.00  0.00    -0.027 C 
BRANCH   7  13
ATOM     13  C   UNL A   1      30.542  24.573  26.310  1.00  0.00     0.228 C 
ATOM     14  N   UNL A   1      30.306  25.908  26.542  1.00  0.00    -0.326 N 
ATOM     15  H   UNL A   1      29.717  26.067  27.315  1.00  0.00     0.169 HD
ATOM     16  O   UNL A   1      30.001  23.778  27.087  1.00  0.00    -0.274 OA
BRANCH  14  17
ATOM     17  C   UNL A   1      30.724  27.107  25.912  1.00  0.00     0.044 A 
ATOM     18  C   UNL A   1      32.296  27.711  27.844  1.00  0.00     0.046 C 
ATOM     19  C   UNL A   1      31.708  27.926  26.480  1.00  0.00    -0.027 A 
ATOM     20  C   UNL A   1      32.173  29.044  25.749  1.00  0.00     0.006 A 
ATOM     21  C   UNL A   1      31.682  29.344  24.474  1.00  0.00     0.014 A 
ATOM     22  C   UNL A   1      30.170  27.529  24.708  1.00  0.00     0.040 A 
ATOM     23  C   UNL A   1      30.649  28.589  23.936  1.00  0.00     0.041 A 
BRANCH  23  24
ATOM     24  C   UNL A   1      30.184  28.891  22.540  1.00  0.00     0.251 C 
ATOM     25  O   UNL A   1      30.435  28.069  21.660  1.00  0.00    -0.269 OA
ATOM     26  N   UNL A   1      29.447  30.017  22.226  1.00  0.00    -0.349 N 
ATOM     27  H   UNL A   1      29.241  30.150  21.273  1.00  0.00     0.164 HD
BRANCH  26  28
ATOM     28  C   UNL A   1      28.954  31.002  23.110  1.00  0.00     0.082 C 
ATOM     29  C   UNL A   1      28.429  32.260  22.562  1.00  0.00     0.027 C 
ATOM     30  C   UNL A   1      27.524  31.364  23.366  1.00  0.00     0.027 C 
ENDBRANCH  26  28
ENDBRANCH  23  24
ENDBRANCH  14  17
ENDBRANCH   7  13
ENDBRANCH   4   6
ENDBRANCH   3   4
ENDBRANCH   2   3
ENDBRANCH   1   2
BRANCH   1  31
ATOM     31  O   UNL A   1      36.638  22.891  26.128  1.00  0.00    -0.374 OA
BRANCH  31  32
ATOM     32  C   UNL A   1      37.410  22.295  25.096  1.00  0.00     0.202 C 
BRANCH  32  33
ATOM     33  C   UNL A   1      38.598  21.467  25.605  1.00  0.00     0.261 C 
BRANCH  33  34
ATOM     34  O   UNL A   1      39.200  22.137  26.727  1.00  0.00    -0.460 OA
BRANCH  34  35
ATOM     35  C   UNL A   1      40.341  22.827  26.422  1.00  0.00     0.338 C 
ATOM     36  O   UNL A   1      41.341  22.347  25.962  1.00  0.00    -0.246 OA
BRANCH  35  37
ATOM     37  C   UNL A   1      40.187  24.246  26.866  1.00  0.00     0.060 A 
ATOM     38  C   UNL A   1      40.867  25.265  26.180  1.00  0.00     0.016 A 
ATOM     39  C   UNL A   1      39.531  24.532  28.062  1.00  0.00     0.016 A 
ATOM     40  C   UNL A   1      40.957  26.550  26.738  1.00  0.00     0.010 A 
ATOM     41  C   UNL A   1      39.675  25.781  28.636  1.00  0.00     0.010 A 
ATOM     42  C   UNL A   1      40.396  26.798  27.991  1.00  0.00    -0.014 A 
BRANCH  42  43
ATOM     43  C   UNL A   1      40.571  28.049  28.747  1.00  0.00     0.031 A 
ATOM     44  C   UNL A   1      39.567  29.140  28.600  1.00  0.00     0.074 A 
ATOM     45  C   UNL A   1      41.442  28.080  29.785  1.00  0.00     0.049 A 
ATOM     46  N   UNL A   1      39.674  30.322  29.102  1.00  0.00    -0.248 NA
ATOM     47  C   UNL A   1      38.289  28.945  27.925  1.00  0.00     0.031 C 
ATOM     48  C   UNL A   1      41.513  29.047  30.887  1.00  0.00     0.029 A 
ATOM     49  N   UNL A   1      42.500  27.211  30.073  1.00  0.00    -0.354 N 
ATOM     50  C   UNL A   1      38.408  30.868  29.186  1.00  0.00     0.074 A 
ATOM     51  C   UNL A   1      37.599  30.001  28.361  1.00  0.00     0.031 C 
ATOM     52  C   UNL A   1      42.642  28.867  31.588  1.00  0.00     0.029 A 
ATOM     53  C   UNL A   1      43.446  27.947  30.810  1.00  0.00     0.049 A 
ATOM     54  H   UNL A   1      42.569  26.265  29.809  1.00  0.00     0.167 HD
ATOM     55  C   UNL A   1      38.171  31.891  30.071  1.00  0.00     0.034 A 
ATOM     56  C   UNL A   1      44.641  28.265  30.241  1.00  0.00     0.034 A 
ATOM     57  C   UNL A   1      39.421  32.300  30.762  1.00  0.00     0.049 A 
ATOM     58  C   UNL A   1      44.697  29.769  30.053  1.00  0.00     0.074 A 
ATOM     59  C   UNL A   1      39.820  32.360  32.087  1.00  0.00     0.029 A 
ATOM     60  N   UNL A   1      40.594  32.521  30.016  1.00  0.00    -0.354 N 
ATOM     61  N   UNL A   1      43.643  30.521  29.826  1.00  0.00    -0.248 NA
ATOM     62  C   UNL A   1      45.892  30.547  30.354  1.00  0.00     0.031 C 
ATOM     63  C   UNL A   1      41.243  32.444  32.122  1.00  0.00     0.029 A 
ATOM     64  C   UNL A   1      41.719  32.526  30.820  1.00  0.00     0.049 A 
ATOM     65  H   UNL A   1      40.612  32.655  29.041  1.00  0.00     0.167 HD
ATOM     66  C   UNL A   1      43.952  31.821  30.127  1.00  0.00     0.074 A 
ATOM     67  C   UNL A   1      45.391  31.794  30.380  1.00  0.00     0.031 C 
ATOM     68  C   UNL A   1      43.048  32.838  30.299  1.00  0.00     0.034 A 
BRANCH  55  69
ATOM     69  C   UNL A   1      36.761  32.326  30.516  1.00  0.00     0.023 A 
ATOM     70  C   UNL A   1      35.928  33.102  29.674  1.00  0.00     0.031 A 
ATOM     71  C   UNL A   1      36.176  32.024  31.767  1.00  0.00     0.131 A 
ATOM     72  C   UNL A   1      34.690  33.631  30.120  1.00  0.00     0.055 A 
ATOM     73  C   UNL A   1      34.987  32.603  32.239  1.00  0.00     0.041 A 
ATOM     74  F   UNL A   1      36.666  31.069  32.564  1.00  0.00    -0.206 F 
ATOM     75  C   UNL A   1      34.240  33.424  31.419  1.00  0.00     0.022 A 
BRANCH  72  76
ATOM     76  S   UNL A   1      33.597  34.517  28.965  1.00  0.00     0.124 S 
ATOM     77  O   UNL A   1      33.232  33.468  28.022  1.00  0.00    -0.237 OA
ATOM     78  O   UNL A   1      32.537  35.004  29.841  1.00  0.00    -0.237 OA
ATOM     79  O   UNL A   1      34.462  35.564  28.418  1.00  0.00    -0.744 OA
ENDBRANCH  72  76
ENDBRANCH  55  69
BRANCH  56  80
ATOM     80  C   UNL A   1      45.169  27.152  29.393  1.00  0.00     0.023 A 
ATOM     81  C   UNL A   1      44.824  27.180  28.013  1.00  0.00     0.031 A 
ATOM     82  C   UNL A   1      46.274  26.375  29.761  1.00  0.00     0.131 A 
ATOM     83  C   UNL A   1      45.639  26.563  27.048  1.00  0.00     0.055 A 
ATOM     84  C   UNL A   1      47.068  25.729  28.795  1.00  0.00     0.041 A 
ATOM     85  F   UNL A   1      46.686  26.330  31.036  1.00  0.00    -0.206 F 
ATOM     86  C   UNL A   1      46.777  25.854  27.435  1.00  0.00     0.022 A 
BRANCH  83  87
ATOM     87  S   UNL A   1      45.390  26.916  25.273  1.00  0.00     0.124 S 
ATOM     88  O   UNL A   1      46.413  26.088  24.646  1.00  0.00    -0.237 OA
ATOM     89  O   UNL A   1      44.009  26.506  25.035  1.00  0.00    -0.237 OA
ATOM     90  O   UNL A   1      45.612  28.360  25.195  1.00  0.00    -0.744 OA
ENDBRANCH  83  87
ENDBRANCH  56  80
BRANCH  68  91
ATOM     91  C   UNL A   1      43.435  34.290  30.155  1.00  0.00     0.023 A 
ATOM     92  C   UNL A   1      43.374  34.944  28.917  1.00  0.00     0.031 A 
ATOM     93  C   UNL A   1      43.741  35.104  31.269  1.00  0.00     0.131 A 
ATOM     94  C   UNL A   1      43.727  36.292  28.792  1.00  0.00     0.055 A 
ATOM     95  C   UNL A   1      44.008  36.470  31.156  1.00  0.00     0.041 A 
ATOM     96  F   UNL A   1      43.768  34.623  32.521  1.00  0.00    -0.206 F 
ATOM     97  C   UNL A   1      44.023  37.071  29.906  1.00  0.00     0.022 A 
BRANCH  94  98
ATOM     98  S   UNL A   1      43.850  36.973  27.123  1.00  0.00     0.124 S 
ATOM     99  O   UNL A   1      42.741  36.302  26.449  1.00  0.00    -0.237 OA
ATOM    100  O   UNL A   1      43.679  38.404  27.350  1.00  0.00    -0.237 OA
ATOM    101  O   UNL A   1      45.183  36.567  26.684  1.00  0.00    -0.744 OA
ENDBRANCH  94  98
ENDBRANCH  68  91
ENDBRANCH  42  43
ENDBRANCH  35  37
ENDBRANCH  34  35
ENDBRANCH  33  34
ENDBRANCH  32  33
ENDBRANCH  31  32
ENDBRANCH   1  31
TORSDOF 21
ENDMDL
