MODEL 1
REMARK VINA RESULT:     -10.8      0.000      0.000
REMARK SMILES C=C[C@@H]1[C@@H](O)C[C@@H]2[C@@]3(CC[C@@]4(C)[C@@H]([C@H](C)CCC=C(C)C)CC[C@@]24C)C[C@@]13CCC(=O)OCCOCCOC(=O)c1ccc(-c2c3nc(c(-c4cc(S(=O)(=O)[O-])ccc4F)c4ccc([nH]4)c(-c4cc(S(=O)(=O)[O-])ccc4F)c4nc(c(-c5cc(S(=O)(=O)[O-])ccc5F)c5ccc2[nH]5)C=C4)C=C3)cc1
REMARK SMILES IDX 33 1 32 2 30 3 31 4 29 5 28 6 27 7 3 8 4 9 6 10 8 11 26 12
REMARK SMILES IDX 7 13 9 14 24 15 10 16 11 17 23 18 25 19 12 20 13 21 22 22
REMARK SMILES IDX 2 23 1 24 5 25 14 27 15 28 16 29 17 30 18 31 19 32 20 33
REMARK SMILES IDX 21 34 34 35 35 36 36 37 37 38 38 39 39 40 40 41 41 42 42 43
REMARK SMILES IDX 103 44 43 45 102 46 44 47 45 48 46 49 96 50 47 51 101 52
REMARK SMILES IDX 95 53 97 54 48 55 100 56 94 57 93 58 49 60 81 61 61 62 80 63
REMARK SMILES IDX 62 64 65 65 79 66 98 67 63 68 64 69 78 71 99 72 66 73 50 74
REMARK SMILES IDX 51 75 59 76 52 77 58 78 60 79 57 80 53 81 54 82 55 83 56 84
REMARK SMILES IDX 82 85 83 86 91 87 84 88 90 89 92 90 89 91 85 92 86 93 87 94
REMARK SMILES IDX 88 95 67 96 68 97 76 98 69 99 75 100 77 101 74 102 70 103
REMARK SMILES IDX 71 104 72 105 73 106
REMARK H PARENT 5 26 97 59 65 70
REMARK Flexibility Score: inf
ROOT
ATOM      1  C   UNL A   1      30.422  29.717  23.760  1.00  0.00     0.261 C 
ENDROOT
BRANCH   1   2
ATOM      2  O   UNL A   1      31.000  29.232  22.562  1.00  0.00    -0.463 OA
BRANCH   2   3
ATOM      3  C   UNL A   1      30.444  28.006  22.265  1.00  0.00     0.305 C 
ATOM      4  O   UNL A   1      29.316  27.654  22.494  1.00  0.00    -0.252 OA
BRANCH   3   5
ATOM      5  C   UNL A   1      31.460  27.091  21.661  1.00  0.00     0.123 C 
BRANCH   5   6
ATOM      6  C   UNL A   1      32.506  26.644  22.682  1.00  0.00     0.020 C 
BRANCH   6   7
ATOM      7  C   UNL A   1      31.956  26.102  24.011  1.00  0.00    -0.014 C 
ATOM      8  C   UNL A   1      32.076  27.039  25.257  1.00  0.00     0.047 C 
ATOM      9  C   UNL A   1      32.578  26.290  26.516  1.00  0.00     0.122 C 
ATOM     10  C   UNL A   1      31.981  24.893  26.654  1.00  0.00     0.037 C 
ATOM     11  C   UNL A   1      31.732  24.533  24.162  1.00  0.00    -0.019 C 
ATOM     12  C   UNL A   1      30.577  25.515  24.027  1.00  0.00     0.016 C 
ATOM     13  C   UNL A   1      32.406  24.006  25.467  1.00  0.00     0.005 C 
ATOM     14  C   UNL A   1      31.538  23.512  23.042  1.00  0.00     0.008 C 
ATOM     15  C   UNL A   1      32.183  22.482  25.752  1.00  0.00    -0.023 C 
ATOM     16  C   UNL A   1      31.879  22.043  23.356  1.00  0.00     0.008 C 
ATOM     17  C   UNL A   1      32.733  21.592  24.578  1.00  0.00    -0.024 C 
ATOM     18  C   UNL A   1      32.995  21.925  26.939  1.00  0.00     0.008 C 
ATOM     19  C   UNL A   1      30.663  22.333  26.032  1.00  0.00     0.012 C 
ATOM     20  C   UNL A   1      32.250  20.078  24.747  1.00  0.00     0.012 C 
ATOM     21  C   UNL A   1      34.385  21.375  24.845  1.00  0.00    -0.002 C 
ATOM     22  C   UNL A   1      34.293  21.276  26.420  1.00  0.00     0.005 C 
BRANCH   8  23
ATOM     23  C   UNL A   1      32.825  28.347  25.106  1.00  0.00    -0.028 C 
ATOM     24  C   UNL A   1      33.962  28.642  25.753  1.00  0.00     0.004 C 
ENDBRANCH   8  23
BRANCH   9  25
ATOM     25  O   UNL A   1      32.230  27.029  27.696  1.00  0.00    -0.392 OA
ATOM     26  H   UNL A   1      31.722  26.460  28.296  1.00  0.00     0.210 HD
ENDBRANCH   9  25
BRANCH  21  27
ATOM     27  C   UNL A   1      35.977  21.867  24.504  1.00  0.00    -0.010 C 
ATOM     28  C   UNL A   1      36.144  23.017  23.502  1.00  0.00     0.008 C 
BRANCH  27  29
ATOM     29  C   UNL A   1      37.415  21.118  24.818  1.00  0.00     0.008 C 
BRANCH  29  30
ATOM     30  C   UNL A   1      38.818  21.652  25.369  1.00  0.00     0.027 C 
BRANCH  30  31
ATOM     31  C   UNL A   1      39.189  22.391  26.638  1.00  0.00    -0.028 C 
ATOM     32  C   UNL A   1      38.785  23.667  26.912  1.00  0.00    -0.080 C 
ATOM     33  C   UNL A   1      39.422  24.496  27.999  1.00  0.00     0.039 C 
ATOM     34  C   UNL A   1      37.746  24.468  26.144  1.00  0.00     0.039 C 
ENDBRANCH  30  31
ENDBRANCH  29  30
ENDBRANCH  27  29
ENDBRANCH  21  27
ENDBRANCH   6   7
ENDBRANCH   5   6
ENDBRANCH   3   5
ENDBRANCH   2   3
ENDBRANCH   1   2
BRANCH   1  35
ATOM     35  C   UNL A   1      29.528  30.972  23.725  1.00  0.00     0.202 C 
BRANCH  35  36
ATOM     36  O   UNL A   1      29.944  31.957  24.657  1.00  0.00    -0.374 OA
BRANCH  36  37
ATOM     37  C   UNL A   1      30.667  31.379  25.756  1.00  0.00     0.202 C 
BRANCH  37  38
ATOM     38  C   UNL A   1      31.423  32.506  26.461  1.00  0.00     0.261 C 
BRANCH  38  39
ATOM     39  O   UNL A   1      32.661  32.061  27.067  1.00  0.00    -0.460 OA
BRANCH  39  40
ATOM     40  C   UNL A   1      33.463  33.019  27.608  1.00  0.00     0.338 C 
ATOM     41  O   UNL A   1      33.163  34.198  27.713  1.00  0.00    -0.246 OA
BRANCH  40  42
ATOM     42  C   UNL A   1      34.720  32.417  28.168  1.00  0.00     0.060 A 
ATOM     43  C   UNL A   1      34.710  31.069  28.564  1.00  0.00     0.016 A 
ATOM     44  C   UNL A   1      35.933  33.117  28.220  1.00  0.00     0.016 A 
ATOM     45  C   UNL A   1      35.906  30.409  28.925  1.00  0.00     0.010 A 
ATOM     46  C   UNL A   1      37.130  32.453  28.565  1.00  0.00     0.010 A 
ATOM     47  C   UNL A   1      37.138  31.083  28.907  1.00  0.00    -0.014 A 
BRANCH  47  48
ATOM     48  C   UNL A   1      38.350  30.467  29.551  1.00  0.00     0.031 A 
ATOM     49  C   UNL A   1      38.629  30.939  30.953  1.00  0.00     0.074 A 
ATOM     50  C   UNL A   1      39.167  29.531  29.009  1.00  0.00     0.049 A 
ATOM     51  N   UNL A   1      39.524  30.523  31.808  1.00  0.00    -0.248 NA
ATOM     52  C   UNL A   1      37.742  31.996  31.466  1.00  0.00     0.031 C 
ATOM     53  C   UNL A   1      38.997  28.875  27.719  1.00  0.00     0.029 A 
ATOM     54  N   UNL A   1      40.337  28.966  29.485  1.00  0.00    -0.354 N 
ATOM     55  C   UNL A   1      39.259  31.217  32.980  1.00  0.00     0.074 A 
ATOM     56  C   UNL A   1      38.186  32.144  32.699  1.00  0.00     0.031 C 
ATOM     57  C   UNL A   1      40.065  28.100  27.449  1.00  0.00     0.029 A 
ATOM     58  C   UNL A   1      40.969  28.117  28.592  1.00  0.00     0.049 A 
ATOM     59  H   UNL A   1      40.691  29.151  30.385  1.00  0.00     0.167 HD
ATOM     60  C   UNL A   1      39.823  31.075  34.201  1.00  0.00     0.034 A 
ATOM     61  C   UNL A   1      42.117  27.404  28.693  1.00  0.00     0.034 A 
ATOM     62  C   UNL A   1      40.941  30.218  34.473  1.00  0.00     0.049 A 
ATOM     63  C   UNL A   1      42.837  27.381  30.026  1.00  0.00     0.074 A 
ATOM     64  C   UNL A   1      41.628  30.051  35.660  1.00  0.00     0.029 A 
ATOM     65  N   UNL A   1      41.564  29.412  33.530  1.00  0.00    -0.354 N 
ATOM     66  N   UNL A   1      42.509  27.978  31.149  1.00  0.00    -0.248 NA
ATOM     67  C   UNL A   1      44.045  26.546  30.126  1.00  0.00     0.031 C 
ATOM     68  C   UNL A   1      42.708  29.196  35.420  1.00  0.00     0.029 A 
ATOM     69  C   UNL A   1      42.652  28.775  34.100  1.00  0.00     0.049 A 
ATOM     70  H   UNL A   1      41.274  29.309  32.595  1.00  0.00     0.167 HD
ATOM     71  C   UNL A   1      43.431  27.540  32.096  1.00  0.00     0.074 A 
ATOM     72  C   UNL A   1      44.326  26.628  31.418  1.00  0.00     0.031 C 
ATOM     73  C   UNL A   1      43.525  27.855  33.413  1.00  0.00     0.034 A 
BRANCH  60  74
ATOM     74  C   UNL A   1      39.246  31.937  35.288  1.00  0.00     0.023 A 
ATOM     75  C   UNL A   1      39.747  33.232  35.524  1.00  0.00     0.031 A 
ATOM     76  C   UNL A   1      38.308  31.407  36.187  1.00  0.00     0.131 A 
ATOM     77  C   UNL A   1      39.383  33.910  36.695  1.00  0.00     0.055 A 
ATOM     78  C   UNL A   1      37.886  32.126  37.304  1.00  0.00     0.041 A 
ATOM     79  F   UNL A   1      37.836  30.162  36.024  1.00  0.00    -0.206 F 
ATOM     80  C   UNL A   1      38.438  33.376  37.574  1.00  0.00     0.022 A 
BRANCH  77  81
ATOM     81  S   UNL A   1      40.299  35.409  37.147  1.00  0.00     0.124 S 
ATOM     82  O   UNL A   1      40.065  35.471  38.588  1.00  0.00    -0.237 OA
ATOM     83  O   UNL A   1      41.660  35.090  36.733  1.00  0.00    -0.237 OA
ATOM     84  O   UNL A   1      39.642  36.458  36.370  1.00  0.00    -0.744 OA
ENDBRANCH  77  81
ENDBRANCH  60  74
BRANCH  61  85
ATOM     85  C   UNL A   1      42.686  26.633  27.534  1.00  0.00     0.023 A 
ATOM     86  C   UNL A   1      42.514  25.240  27.408  1.00  0.00     0.031 A 
ATOM     87  C   UNL A   1      43.542  27.263  26.610  1.00  0.00     0.131 A 
ATOM     88  C   UNL A   1      43.241  24.519  26.440  1.00  0.00     0.055 A 
ATOM     89  C   UNL A   1      44.221  26.549  25.616  1.00  0.00     0.041 A 
ATOM     90  F   UNL A   1      43.757  28.586  26.679  1.00  0.00    -0.206 F 
ATOM     91  C   UNL A   1      44.089  25.166  25.540  1.00  0.00     0.022 A 
BRANCH  88  92
ATOM     92  S   UNL A   1      43.172  22.702  26.460  1.00  0.00     0.124 S 
ATOM     93  O   UNL A   1      42.293  22.423  25.330  1.00  0.00    -0.237 OA
ATOM     94  O   UNL A   1      44.575  22.346  26.285  1.00  0.00    -0.237 OA
ATOM     95  O   UNL A   1      42.611  22.394  27.775  1.00  0.00    -0.744 OA
ENDBRANCH  88  92
ENDBRANCH  61  85
BRANCH  73  96
ATOM     96  C   UNL A   1      44.596  27.169  34.221  1.00  0.00     0.023 A 
ATOM     97  C   UNL A   1      44.423  25.870  34.728  1.00  0.00     0.031 A 
ATOM     98  C   UNL A   1      45.821  27.818  34.458  1.00  0.00     0.131 A 
ATOM     99  C   UNL A   1      45.446  25.274  35.481  1.00  0.00     0.055 A 
ATOM    100  C   UNL A   1      46.855  27.199  35.160  1.00  0.00     0.041 A 
ATOM    101  F   UNL A   1      46.037  29.060  33.995  1.00  0.00    -0.206 F 
ATOM    102  C   UNL A   1      46.667  25.923  35.685  1.00  0.00     0.022 A 
BRANCH  99 103
ATOM    103  S   UNL A   1      45.137  23.659  36.244  1.00  0.00     0.124 S 
ATOM    104  O   UNL A   1      45.228  23.972  37.666  1.00  0.00    -0.237 OA
ATOM    105  O   UNL A   1      43.804  23.330  35.748  1.00  0.00    -0.237 OA
ATOM    106  O   UNL A   1      46.215  22.822  35.721  1.00  0.00    -0.744 OA
ENDBRANCH  99 103
ENDBRANCH  73  96
ENDBRANCH  47  48
ENDBRANCH  40  42
ENDBRANCH  39  40
ENDBRANCH  38  39
ENDBRANCH  37  38
ENDBRANCH  36  37
ENDBRANCH  35  36
ENDBRANCH   1  35
TORSDOF 25
ENDMDL
MODEL 2
REMARK VINA RESULT:     -10.8      2.216      2.738
REMARK SMILES C=C[C@@H]1[C@@H](O)C[C@@H]2[C@@]3(CC[C@@]4(C)[C@@H]([C@H](C)CCC=C(C)C)CC[C@@]24C)C[C@@]13CCC(=O)OCCOCCOC(=O)c1ccc(-c2c3nc(c(-c4cc(S(=O)(=O)[O-])ccc4F)c4ccc([nH]4)c(-c4cc(S(=O)(=O)[O-])ccc4F)c4nc(c(-c5cc(S(=O)(=O)[O-])ccc5F)c5ccc2[nH]5)C=C4)C=C3)cc1
REMARK SMILES IDX 33 1 32 2 30 3 31 4 29 5 28 6 27 7 3 8 4 9 6 10 8 11 26 12
REMARK SMILES IDX 7 13 9 14 24 15 10 16 11 17 23 18 25 19 12 20 13 21 22 22
REMARK SMILES IDX 2 23 1 24 5 25 14 27 15 28 16 29 17 30 18 31 19 32 20 33
REMARK SMILES IDX 21 34 34 35 35 36 36 37 37 38 38 39 39 40 40 41 41 42 42 43
REMARK SMILES IDX 103 44 43 45 102 46 44 47 45 48 46 49 96 50 47 51 101 52
REMARK SMILES IDX 95 53 97 54 48 55 100 56 94 57 93 58 49 60 81 61 61 62 80 63
REMARK SMILES IDX 62 64 65 65 79 66 98 67 63 68 64 69 78 71 99 72 66 73 50 74
REMARK SMILES IDX 51 75 59 76 52 77 58 78 60 79 57 80 53 81 54 82 55 83 56 84
REMARK SMILES IDX 82 85 83 86 91 87 84 88 90 89 92 90 89 91 85 92 86 93 87 94
REMARK SMILES IDX 88 95 67 96 68 97 76 98 69 99 75 100 77 101 74 102 70 103
REMARK SMILES IDX 71 104 72 105 73 106
REMARK H PARENT 5 26 97 59 65 70
REMARK Flexibility Score: inf
ROOT
ATOM      1  C   UNL A   1      33.564  28.550  22.348  1.00  0.00     0.261 C 
ENDROOT
BRANCH   1   2
ATOM      2  O   UNL A   1      34.154  27.425  21.726  1.00  0.00    -0.463 OA
BRANCH   2   3
ATOM      3  C   UNL A   1      33.735  26.285  22.379  1.00  0.00     0.305 C 
ATOM      4  O   UNL A   1      34.092  25.906  23.464  1.00  0.00    -0.252 OA
BRANCH   3   5
ATOM      5  C   UNL A   1      32.794  25.497  21.527  1.00  0.00     0.123 C 
BRANCH   5   6
ATOM      6  C   UNL A   1      31.336  25.717  21.932  1.00  0.00     0.020 C 
BRANCH   6   7
ATOM      7  C   UNL A   1      30.933  25.165  23.309  1.00  0.00    -0.014 C 
ATOM      8  C   UNL A   1      30.551  26.214  24.403  1.00  0.00     0.047 C 
ATOM      9  C   UNL A   1      31.196  25.900  25.776  1.00  0.00     0.122 C 
ATOM     10  C   UNL A   1      31.204  24.410  26.102  1.00  0.00     0.037 C 
ATOM     11  C   UNL A   1      31.349  23.675  23.685  1.00  0.00    -0.019 C 
ATOM     12  C   UNL A   1      29.913  24.068  23.369  1.00  0.00     0.016 C 
ATOM     13  C   UNL A   1      32.057  23.638  25.075  1.00  0.00     0.005 C 
ATOM     14  C   UNL A   1      31.685  22.535  22.726  1.00  0.00     0.008 C 
ATOM     15  C   UNL A   1      32.443  22.206  25.579  1.00  0.00    -0.023 C 
ATOM     16  C   UNL A   1      32.561  21.388  23.267  1.00  0.00     0.008 C 
ATOM     17  C   UNL A   1      33.409  21.484  24.570  1.00  0.00    -0.024 C 
ATOM     18  C   UNL A   1      33.299  22.185  26.861  1.00  0.00     0.008 C 
ATOM     19  C   UNL A   1      31.095  21.480  25.829  1.00  0.00     0.012 C 
ATOM     20  C   UNL A   1      33.566  19.940  24.948  1.00  0.00     0.012 C 
ATOM     21  C   UNL A   1      34.977  22.003  24.919  1.00  0.00    -0.002 C 
ATOM     22  C   UNL A   1      34.790  22.070  26.486  1.00  0.00     0.005 C 
BRANCH   8  23
ATOM     23  C   UNL A   1      30.719  27.685  24.081  1.00  0.00    -0.028 C 
ATOM     24  C   UNL A   1      29.878  28.385  23.307  1.00  0.00     0.004 C 
ENDBRANCH   8  23
BRANCH   9  25
ATOM     25  O   UNL A   1      30.474  26.569  26.820  1.00  0.00    -0.392 OA
ATOM     26  H   UNL A   1      30.020  25.913  27.371  1.00  0.00     0.210 HD
ENDBRANCH   9  25
BRANCH  21  27
ATOM     27  C   UNL A   1      36.259  23.062  24.558  1.00  0.00    -0.010 C 
ATOM     28  C   UNL A   1      36.543  23.322  23.073  1.00  0.00     0.008 C 
BRANCH  27  29
ATOM     29  C   UNL A   1      37.475  23.628  25.521  1.00  0.00     0.008 C 
BRANCH  29  30
ATOM     30  C   UNL A   1      38.651  22.899  26.323  1.00  0.00     0.027 C 
BRANCH  30  31
ATOM     31  C   UNL A   1      39.319  21.552  26.134  1.00  0.00    -0.028 C 
ATOM     32  C   UNL A   1      40.449  21.172  26.800  1.00  0.00    -0.080 C 
ATOM     33  C   UNL A   1      41.278  19.987  26.367  1.00  0.00     0.039 C 
ATOM     34  C   UNL A   1      41.093  21.897  27.970  1.00  0.00     0.039 C 
ENDBRANCH  30  31
ENDBRANCH  29  30
ENDBRANCH  27  29
ENDBRANCH  21  27
ENDBRANCH   6   7
ENDBRANCH   5   6
ENDBRANCH   3   5
ENDBRANCH   2   3
ENDBRANCH   1   2
BRANCH   1  35
ATOM     35  C   UNL A   1      34.082  29.025  23.720  1.00  0.00     0.202 C 
BRANCH  35  36
ATOM     36  O   UNL A   1      33.234  28.625  24.785  1.00  0.00    -0.374 OA
BRANCH  36  37
ATOM     37  C   UNL A   1      33.666  29.165  26.044  1.00  0.00     0.202 C 
BRANCH  37  38
ATOM     38  C   UNL A   1      32.890  30.461  26.284  1.00  0.00     0.261 C 
BRANCH  38  39
ATOM     39  O   UNL A   1      33.098  31.003  27.612  1.00  0.00    -0.460 OA
BRANCH  39  40
ATOM     40  C   UNL A   1      33.974  32.040  27.724  1.00  0.00     0.338 C 
ATOM     41  O   UNL A   1      33.731  33.192  27.404  1.00  0.00    -0.246 OA
BRANCH  40  42
ATOM     42  C   UNL A   1      35.240  31.604  28.405  1.00  0.00     0.060 A 
ATOM     43  C   UNL A   1      35.304  30.315  28.961  1.00  0.00     0.016 A 
ATOM     44  C   UNL A   1      36.398  32.394  28.422  1.00  0.00     0.016 A 
ATOM     45  C   UNL A   1      36.523  29.793  29.449  1.00  0.00     0.010 A 
ATOM     46  C   UNL A   1      37.619  31.867  28.894  1.00  0.00     0.010 A 
ATOM     47  C   UNL A   1      37.705  30.551  29.401  1.00  0.00    -0.014 A 
BRANCH  47  48
ATOM     48  C   UNL A   1      38.922  30.108  30.164  1.00  0.00     0.031 A 
ATOM     49  C   UNL A   1      39.093  30.754  31.513  1.00  0.00     0.074 A 
ATOM     50  C   UNL A   1      39.833  29.184  29.772  1.00  0.00     0.049 A 
ATOM     51  N   UNL A   1      39.969  30.509  32.450  1.00  0.00    -0.248 NA
ATOM     52  C   UNL A   1      38.105  31.790  31.861  1.00  0.00     0.031 C 
ATOM     53  C   UNL A   1      39.779  28.375  28.560  1.00  0.00     0.029 A 
ATOM     54  N   UNL A   1      41.014  28.769  30.361  1.00  0.00    -0.354 N 
ATOM     55  C   UNL A   1      39.592  31.307  33.520  1.00  0.00     0.074 A 
ATOM     56  C   UNL A   1      38.471  32.110  33.086  1.00  0.00     0.031 C 
ATOM     57  C   UNL A   1      40.914  27.661  28.429  1.00  0.00     0.029 A 
ATOM     58  C   UNL A   1      41.752  27.877  29.602  1.00  0.00     0.049 A 
ATOM     59  H   UNL A   1      41.306  29.081  31.248  1.00  0.00     0.167 HD
ATOM     60  C   UNL A   1      40.100  31.348  34.773  1.00  0.00     0.034 A 
ATOM     61  C   UNL A   1      42.942  27.272  29.835  1.00  0.00     0.034 A 
ATOM     62  C   UNL A   1      41.261  30.617  35.192  1.00  0.00     0.049 A 
ATOM     63  C   UNL A   1      43.591  27.455  31.192  1.00  0.00     0.074 A 
ATOM     64  C   UNL A   1      41.895  30.638  36.420  1.00  0.00     0.029 A 
ATOM     65  N   UNL A   1      41.990  29.761  34.377  1.00  0.00    -0.354 N 
ATOM     66  N   UNL A   1      43.161  28.147  32.223  1.00  0.00    -0.248 NA
ATOM     67  C   UNL A   1      44.849  26.734  31.441  1.00  0.00     0.031 C 
ATOM     68  C   UNL A   1      43.046  29.849  36.328  1.00  0.00     0.029 A 
ATOM     69  C   UNL A   1      43.090  29.279  35.064  1.00  0.00     0.049 A 
ATOM     70  H   UNL A   1      41.758  29.531  33.448  1.00  0.00     0.167 HD
ATOM     71  C   UNL A   1      44.062  27.892  33.254  1.00  0.00     0.074 A 
ATOM     72  C   UNL A   1      45.055  26.982  32.726  1.00  0.00     0.031 C 
ATOM     73  C   UNL A   1      44.062  28.359  34.528  1.00  0.00     0.034 A 
BRANCH  60  74
ATOM     74  C   UNL A   1      39.406  32.279  35.726  1.00  0.00     0.023 A 
ATOM     75  C   UNL A   1      39.783  33.633  35.816  1.00  0.00     0.031 A 
ATOM     76  C   UNL A   1      38.479  31.778  36.653  1.00  0.00     0.131 A 
ATOM     77  C   UNL A   1      39.312  34.411  36.882  1.00  0.00     0.055 A 
ATOM     78  C   UNL A   1      37.949  32.585  37.659  1.00  0.00     0.041 A 
ATOM     79  F   UNL A   1      38.123  30.485  36.631  1.00  0.00    -0.206 F 
ATOM     80  C   UNL A   1      38.380  33.904  37.790  1.00  0.00     0.022 A 
BRANCH  77  81
ATOM     81  S   UNL A   1      40.077  36.030  37.174  1.00  0.00     0.124 S 
ATOM     82  O   UNL A   1      41.440  35.649  37.534  1.00  0.00    -0.237 OA
ATOM     83  O   UNL A   1      39.918  36.696  35.886  1.00  0.00    -0.237 OA
ATOM     84  O   UNL A   1      39.283  36.590  38.266  1.00  0.00    -0.744 OA
ENDBRANCH  77  81
ENDBRANCH  60  74
BRANCH  61  85
ATOM     85  C   UNL A   1      43.626  26.422  28.799  1.00  0.00     0.023 A 
ATOM     86  C   UNL A   1      44.511  26.969  27.850  1.00  0.00     0.031 A 
ATOM     87  C   UNL A   1      43.282  25.064  28.652  1.00  0.00     0.131 A 
ATOM     88  C   UNL A   1      44.958  26.192  26.763  1.00  0.00     0.055 A 
ATOM     89  C   UNL A   1      43.770  24.281  27.599  1.00  0.00     0.041 A 
ATOM     90  F   UNL A   1      42.435  24.482  29.516  1.00  0.00    -0.206 F 
ATOM     91  C   UNL A   1      44.597  24.850  26.636  1.00  0.00     0.022 A 
BRANCH  88  92
ATOM     92  S   UNL A   1      45.908  26.995  25.437  1.00  0.00     0.124 S 
ATOM     93  O   UNL A   1      44.892  27.827  24.802  1.00  0.00    -0.237 OA
ATOM     94  O   UNL A   1      46.938  27.701  26.190  1.00  0.00    -0.237 OA
ATOM     95  O   UNL A   1      46.386  25.874  24.630  1.00  0.00    -0.744 OA
ENDBRANCH  88  92
ENDBRANCH  61  85
BRANCH  73  96
ATOM     96  C   UNL A   1      45.136  27.854  35.457  1.00  0.00     0.023 A 
ATOM     97  C   UNL A   1      46.407  28.449  35.512  1.00  0.00     0.031 A 
ATOM     98  C   UNL A   1      44.867  26.779  36.324  1.00  0.00     0.131 A 
ATOM     99  C   UNL A   1      47.378  27.940  36.388  1.00  0.00     0.055 A 
ATOM    100  C   UNL A   1      45.818  26.313  37.232  1.00  0.00     0.041 A 
ATOM    101  F   UNL A   1      43.667  26.176  36.312  1.00  0.00    -0.206 F 
ATOM    102  C   UNL A   1      47.085  26.888  37.261  1.00  0.00     0.022 A 
BRANCH  99 103
ATOM    103  S   UNL A   1      49.051  28.634  36.330  1.00  0.00     0.124 S 
ATOM    104  O   UNL A   1      49.266  28.792  34.896  1.00  0.00    -0.237 OA
ATOM    105  O   UNL A   1      48.904  29.870  37.092  1.00  0.00    -0.237 OA
ATOM    106  O   UNL A   1      49.871  27.607  36.972  1.00  0.00    -0.744 OA
ENDBRANCH  99 103
ENDBRANCH  73  96
ENDBRANCH  47  48
ENDBRANCH  40  42
ENDBRANCH  39  40
ENDBRANCH  38  39
ENDBRANCH  37  38
ENDBRANCH  36  37
ENDBRANCH  35  36
ENDBRANCH   1  35
TORSDOF 25
ENDMDL
MODEL 3
REMARK VINA RESULT:     -10.4      2.162      2.812
REMARK SMILES C=C[C@@H]1[C@@H](O)C[C@@H]2[C@@]3(CC[C@@]4(C)[C@@H]([C@H](C)CCC=C(C)C)CC[C@@]24C)C[C@@]13CCC(=O)OCCOCCOC(=O)c1ccc(-c2c3nc(c(-c4cc(S(=O)(=O)[O-])ccc4F)c4ccc([nH]4)c(-c4cc(S(=O)(=O)[O-])ccc4F)c4nc(c(-c5cc(S(=O)(=O)[O-])ccc5F)c5ccc2[nH]5)C=C4)C=C3)cc1
REMARK SMILES IDX 33 1 32 2 30 3 31 4 29 5 28 6 27 7 3 8 4 9 6 10 8 11 26 12
REMARK SMILES IDX 7 13 9 14 24 15 10 16 11 17 23 18 25 19 12 20 13 21 22 22
REMARK SMILES IDX 2 23 1 24 5 25 14 27 15 28 16 29 17 30 18 31 19 32 20 33
REMARK SMILES IDX 21 34 34 35 35 36 36 37 37 38 38 39 39 40 40 41 41 42 42 43
REMARK SMILES IDX 103 44 43 45 102 46 44 47 45 48 46 49 96 50 47 51 101 52
REMARK SMILES IDX 95 53 97 54 48 55 100 56 94 57 93 58 49 60 81 61 61 62 80 63
REMARK SMILES IDX 62 64 65 65 79 66 98 67 63 68 64 69 78 71 99 72 66 73 50 74
REMARK SMILES IDX 51 75 59 76 52 77 58 78 60 79 57 80 53 81 54 82 55 83 56 84
REMARK SMILES IDX 82 85 83 86 91 87 84 88 90 89 92 90 89 91 85 92 86 93 87 94
REMARK SMILES IDX 88 95 67 96 68 97 76 98 69 99 75 100 77 101 74 102 70 103
REMARK SMILES IDX 71 104 72 105 73 106
REMARK H PARENT 5 26 97 59 65 70
REMARK Flexibility Score: inf
ROOT
ATOM      1  C   UNL A   1      32.342  28.963  23.119  1.00  0.00     0.261 C 
ENDROOT
BRANCH   1   2
ATOM      2  O   UNL A   1      33.390  28.111  22.698  1.00  0.00    -0.463 OA
BRANCH   2   3
ATOM      3  C   UNL A   1      33.288  26.914  23.375  1.00  0.00     0.305 C 
ATOM      4  O   UNL A   1      33.382  26.750  24.563  1.00  0.00    -0.252 OA
BRANCH   3   5
ATOM      5  C   UNL A   1      33.105  25.776  22.423  1.00  0.00     0.123 C 
BRANCH   5   6
ATOM      6  C   UNL A   1      31.640  25.353  22.313  1.00  0.00     0.020 C 
BRANCH   6   7
ATOM      7  C   UNL A   1      31.138  24.387  23.399  1.00  0.00    -0.014 C 
ATOM      8  C   UNL A   1      30.158  24.974  24.466  1.00  0.00     0.047 C 
ATOM      9  C   UNL A   1      30.521  24.539  25.907  1.00  0.00     0.122 C 
ATOM     10  C   UNL A   1      30.976  23.086  25.993  1.00  0.00     0.037 C 
ATOM     11  C   UNL A   1      31.951  23.042  23.658  1.00  0.00    -0.019 C 
ATOM     12  C   UNL A   1      30.591  23.058  22.975  1.00  0.00     0.016 C 
ATOM     13  C   UNL A   1      32.267  22.877  25.177  1.00  0.00     0.005 C 
ATOM     14  C   UNL A   1      32.890  22.324  22.691  1.00  0.00     0.008 C 
ATOM     15  C   UNL A   1      33.002  21.546  25.554  1.00  0.00    -0.023 C 
ATOM     16  C   UNL A   1      33.956  21.393  23.298  1.00  0.00     0.008 C 
ATOM     17  C   UNL A   1      34.374  21.413  24.798  1.00  0.00    -0.024 C 
ATOM     18  C   UNL A   1      33.473  21.466  27.020  1.00  0.00     0.008 C 
ATOM     19  C   UNL A   1      31.980  20.415  25.264  1.00  0.00     0.012 C 
ATOM     20  C   UNL A   1      34.971  19.941  24.971  1.00  0.00     0.012 C 
ATOM     21  C   UNL A   1      35.523  22.271  25.689  1.00  0.00    -0.002 C 
ATOM     22  C   UNL A   1      34.952  21.893  27.113  1.00  0.00     0.005 C 
BRANCH   8  23
ATOM     23  C   UNL A   1      29.867  26.461  24.436  1.00  0.00    -0.028 C 
ATOM     24  C   UNL A   1      28.846  27.013  23.765  1.00  0.00     0.004 C 
ENDBRANCH   8  23
BRANCH   9  25
ATOM     25  O   UNL A   1      29.379  24.688  26.764  1.00  0.00    -0.392 OA
ATOM     26  H   UNL A   1      28.570  24.522  26.257  1.00  0.00     0.210 HD
ENDBRANCH   9  25
BRANCH  21  27
ATOM     27  C   UNL A   1      36.393  23.716  25.906  1.00  0.00    -0.010 C 
ATOM     28  C   UNL A   1      35.653  25.022  25.589  1.00  0.00     0.008 C 
BRANCH  27  29
ATOM     29  C   UNL A   1      38.014  23.965  26.098  1.00  0.00     0.008 C 
BRANCH  29  30
ATOM     30  C   UNL A   1      39.175  23.084  26.756  1.00  0.00     0.027 C 
BRANCH  30  31
ATOM     31  C   UNL A   1      40.434  23.469  27.506  1.00  0.00    -0.028 C 
ATOM     32  C   UNL A   1      41.364  22.564  27.932  1.00  0.00    -0.080 C 
ATOM     33  C   UNL A   1      42.423  22.916  28.947  1.00  0.00     0.039 C 
ATOM     34  C   UNL A   1      41.429  21.093  27.554  1.00  0.00     0.039 C 
ENDBRANCH  30  31
ENDBRANCH  29  30
ENDBRANCH  27  29
ENDBRANCH  21  27
ENDBRANCH   6   7
ENDBRANCH   5   6
ENDBRANCH   3   5
ENDBRANCH   2   3
ENDBRANCH   1   2
BRANCH   1  35
ATOM     35  C   UNL A   1      32.428  29.661  24.492  1.00  0.00     0.202 C 
BRANCH  35  36
ATOM     36  O   UNL A   1      31.318  29.358  25.322  1.00  0.00    -0.374 OA
BRANCH  36  37
ATOM     37  C   UNL A   1      31.716  29.130  26.683  1.00  0.00     0.202 C 
BRANCH  37  38
ATOM     38  C   UNL A   1      33.190  29.518  26.808  1.00  0.00     0.261 C 
BRANCH  38  39
ATOM     39  O   UNL A   1      33.448  30.390  27.937  1.00  0.00    -0.460 OA
BRANCH  39  40
ATOM     40  C   UNL A   1      34.317  31.418  27.735  1.00  0.00     0.338 C 
ATOM     41  O   UNL A   1      34.014  32.501  27.261  1.00  0.00    -0.246 OA
BRANCH  40  42
ATOM     42  C   UNL A   1      35.677  31.090  28.283  1.00  0.00     0.060 A 
ATOM     43  C   UNL A   1      36.645  32.105  28.352  1.00  0.00     0.016 A 
ATOM     44  C   UNL A   1      35.991  29.833  28.819  1.00  0.00     0.016 A 
ATOM     45  C   UNL A   1      37.872  31.896  29.022  1.00  0.00     0.010 A 
ATOM     46  C   UNL A   1      37.209  29.629  29.502  1.00  0.00     0.010 A 
ATOM     47  C   UNL A   1      38.163  30.663  29.628  1.00  0.00    -0.014 A 
BRANCH  47  48
ATOM     48  C   UNL A   1      39.561  30.356  30.089  1.00  0.00     0.031 A 
ATOM     49  C   UNL A   1      39.943  30.975  31.407  1.00  0.00     0.074 A 
ATOM     50  C   UNL A   1      40.468  29.570  29.459  1.00  0.00     0.049 A 
ATOM     51  N   UNL A   1      41.025  30.814  32.121  1.00  0.00    -0.248 NA
ATOM     52  C   UNL A   1      38.939  31.864  32.017  1.00  0.00     0.031 C 
ATOM     53  C   UNL A   1      40.248  28.801  28.240  1.00  0.00     0.029 A 
ATOM     54  N   UNL A   1      41.790  29.292  29.759  1.00  0.00    -0.354 N 
ATOM     55  C   UNL A   1      40.798  31.523  33.292  1.00  0.00     0.074 A 
ATOM     56  C   UNL A   1      39.522  32.188  33.154  1.00  0.00     0.031 C 
ATOM     57  C   UNL A   1      41.404  28.243  27.830  1.00  0.00     0.029 A 
ATOM     58  C   UNL A   1      42.446  28.527  28.809  1.00  0.00     0.049 A 
ATOM     59  H   UNL A   1      42.228  29.610  30.582  1.00  0.00     0.167 HD
ATOM     60  C   UNL A   1      41.558  31.587  34.410  1.00  0.00     0.034 A 
ATOM     61  C   UNL A   1      43.721  28.073  28.749  1.00  0.00     0.034 A 
ATOM     62  C   UNL A   1      42.860  30.999  34.529  1.00  0.00     0.049 A 
ATOM     63  C   UNL A   1      44.622  28.294  29.946  1.00  0.00     0.074 A 
ATOM     64  C   UNL A   1      43.739  31.062  35.594  1.00  0.00     0.029 A 
ATOM     65  N   UNL A   1      43.491  30.270  33.529  1.00  0.00    -0.354 N 
ATOM     66  N   UNL A   1      44.348  28.891  31.084  1.00  0.00    -0.248 NA
ATOM     67  C   UNL A   1      45.982  27.733  29.880  1.00  0.00     0.031 C 
ATOM     68  C   UNL A   1      44.927  30.431  35.214  1.00  0.00     0.029 A 
ATOM     69  C   UNL A   1      44.763  29.912  33.938  1.00  0.00     0.049 A 
ATOM     70  H   UNL A   1      43.092  30.043  32.658  1.00  0.00     0.167 HD
ATOM     71  C   UNL A   1      45.475  28.721  31.884  1.00  0.00     0.074 A 
ATOM     72  C   UNL A   1      46.431  27.963  31.105  1.00  0.00     0.031 C 
ATOM     73  C   UNL A   1      45.697  29.142  33.154  1.00  0.00     0.034 A 
BRANCH  60  74
ATOM     74  C   UNL A   1      40.982  32.390  35.541  1.00  0.00     0.023 A 
ATOM     75  C   UNL A   1      39.973  31.856  36.366  1.00  0.00     0.031 A 
ATOM     76  C   UNL A   1      41.326  33.742  35.695  1.00  0.00     0.131 A 
ATOM     77  C   UNL A   1      39.271  32.701  37.235  1.00  0.00     0.055 A 
ATOM     78  C   UNL A   1      40.681  34.555  36.625  1.00  0.00     0.041 A 
ATOM     79  F   UNL A   1      42.252  34.304  34.903  1.00  0.00    -0.206 F 
ATOM     80  C   UNL A   1      39.634  34.041  37.388  1.00  0.00     0.022 A 
BRANCH  77  81
ATOM     81  S   UNL A   1      37.762  32.073  38.022  1.00  0.00     0.124 S 
ATOM     82  O   UNL A   1      38.164  32.024  39.426  1.00  0.00    -0.237 OA
ATOM     83  O   UNL A   1      36.774  33.088  37.675  1.00  0.00    -0.237 OA
ATOM     84  O   UNL A   1      37.565  30.770  37.391  1.00  0.00    -0.744 OA
ENDBRANCH  77  81
ENDBRANCH  60  74
BRANCH  61  85
ATOM     85  C   UNL A   1      44.259  27.352  27.543  1.00  0.00     0.023 A 
ATOM     86  C   UNL A   1      44.417  25.952  27.520  1.00  0.00     0.031 A 
ATOM     87  C   UNL A   1      44.765  28.076  26.447  1.00  0.00     0.131 A 
ATOM     88  C   UNL A   1      45.125  25.334  26.470  1.00  0.00     0.055 A 
ATOM     89  C   UNL A   1      45.423  27.452  25.381  1.00  0.00     0.041 A 
ATOM     90  F   UNL A   1      44.657  29.414  26.410  1.00  0.00    -0.206 F 
ATOM     91  C   UNL A   1      45.624  26.075  25.398  1.00  0.00     0.022 A 
BRANCH  88  92
ATOM     92  S   UNL A   1      45.510  23.561  26.591  1.00  0.00     0.124 S 
ATOM     93  O   UNL A   1      46.745  23.469  25.822  1.00  0.00    -0.237 OA
ATOM     94  O   UNL A   1      45.634  23.378  28.033  1.00  0.00    -0.237 OA
ATOM     95  O   UNL A   1      44.348  22.916  25.982  1.00  0.00    -0.744 OA
ENDBRANCH  88  92
ENDBRANCH  61  85
BRANCH  73  96
ATOM     96  C   UNL A   1      47.000  28.750  33.804  1.00  0.00     0.023 A 
ATOM     97  C   UNL A   1      47.132  27.560  34.539  1.00  0.00     0.031 A 
ATOM     98  C   UNL A   1      48.135  29.568  33.653  1.00  0.00     0.131 A 
ATOM     99  C   UNL A   1      48.363  27.240  35.131  1.00  0.00     0.055 A 
ATOM    100  C   UNL A   1      49.370  29.216  34.197  1.00  0.00     0.041 A 
ATOM    101  F   UNL A   1      48.063  30.715  32.959  1.00  0.00    -0.206 F 
ATOM    102  C   UNL A   1      49.486  28.051  34.949  1.00  0.00     0.022 A 
BRANCH  99 103
ATOM    103  S   UNL A   1      48.461  25.775  36.194  1.00  0.00     0.124 S 
ATOM    104  O   UNL A   1      49.898  25.661  36.424  1.00  0.00    -0.237 OA
ATOM    105  O   UNL A   1      47.661  26.172  37.348  1.00  0.00    -0.237 OA
ATOM    106  O   UNL A   1      47.877  24.716  35.373  1.00  0.00    -0.744 OA
ENDBRANCH  99 103
ENDBRANCH  73  96
ENDBRANCH  47  48
ENDBRANCH  40  42
ENDBRANCH  39  40
ENDBRANCH  38  39
ENDBRANCH  37  38
ENDBRANCH  36  37
ENDBRANCH  35  36
ENDBRANCH   1  35
TORSDOF 25
ENDMDL
