MODEL 1
REMARK VINA RESULT:     -12.5      0.000      0.000
REMARK SMILES O=C(OCCOCCOC(=O)c1ccc(-c2c3nc(c(-c4cc(S(=O)(=O)[O-])ccc4F)c4ccc([nH]4)c(-c4cc(S(=O)(=O)[O-])ccc4F)c4nc(c(-c5cc(S(=O)(=O)[O-])ccc5F)c5ccc2[nH]5)C=C4)C=C3)cc1)C1=Cc2cc(Cl)cc(-c3ccc(Cl)cc3)c2O[C@@H]1C(F)(F)F
REMARK SMILES IDX 7 1 6 2 5 3 4 4 3 5 2 6 1 7 75 8 76 9 92 10 77 11 91 12
REMARK SMILES IDX 78 13 90 14 79 15 82 16 80 17 81 18 93 19 94 20 95 21 96 22
REMARK SMILES IDX 83 23 84 24 89 25 85 26 88 27 86 28 87 29 8 30 9 31 10 32
REMARK SMILES IDX 11 33 12 34 13 35 74 36 14 37 73 38 15 39 16 40 17 41 67 42
REMARK SMILES IDX 18 43 72 44 66 45 68 46 19 47 71 48 65 49 64 50 20 52 52 53
REMARK SMILES IDX 32 54 51 55 33 56 36 57 50 58 69 59 34 60 35 61 49 63 70 64
REMARK SMILES IDX 37 65 21 66 22 67 30 68 23 69 29 70 31 71 28 72 24 73 25 74
REMARK SMILES IDX 26 75 27 76 53 77 54 78 62 79 55 80 61 81 63 82 60 83 56 84
REMARK SMILES IDX 57 85 58 86 59 87 38 88 39 89 47 90 40 91 46 92 48 93 45 94
REMARK SMILES IDX 41 95 42 96 43 97 44 98
REMARK H PARENT 68 51 36 62
REMARK Flexibility Score: inf
ROOT
ATOM      1  C   UNL A   1      47.431  27.213  40.406  1.00  0.00     0.202 C 
ENDROOT
BRANCH   1   2
ATOM      2  O   UNL A   1      47.301  25.859  39.880  1.00  0.00    -0.374 OA
BRANCH   2   3
ATOM      3  C   UNL A   1      46.006  24.850  39.631  1.00  0.00     0.202 C 
BRANCH   3   4
ATOM      4  C   UNL A   1      45.991  22.808  38.880  1.00  0.00     0.261 C 
BRANCH   4   5
ATOM      5  O   UNL A   1      47.264  21.977  38.488  1.00  0.00    -0.460 OA
BRANCH   5   6
ATOM      6  C   UNL A   1      47.514  21.972  37.173  1.00  0.00     0.338 C 
ATOM      7  O   UNL A   1      47.228  22.769  36.316  1.00  0.00    -0.246 OA
BRANCH   6   8
ATOM      8  C   UNL A   1      47.863  20.575  37.121  1.00  0.00     0.087 C 
ATOM      9  C   UNL A   1      48.615  20.161  38.301  1.00  0.00     0.027 C 
ATOM     10  C   UNL A   1      46.112  19.918  36.634  1.00  0.00     0.316 C 
ATOM     11  C   UNL A   1      47.925  19.133  39.607  1.00  0.00     0.019 A 
ATOM     12  O   UNL A   1      45.337  18.819  38.055  1.00  0.00    -0.475 OA
ATOM     13  C   UNL A   1      48.705  19.032  40.728  1.00  0.00     0.032 A 
ATOM     14  C   UNL A   1      46.291  18.503  39.596  1.00  0.00     0.135 A 
ATOM     15  C   UNL A   1      48.078  18.460  41.829  1.00  0.00     0.042 A 
ATOM     16  C   UNL A   1      45.783  17.846  40.764  1.00  0.00     0.026 A 
ATOM     17  Cl  UNL A   1      49.015  18.331  43.283  1.00  0.00    -0.084 Cl
ATOM     18  C   UNL A   1      46.722  17.954  41.852  1.00  0.00     0.033 A 
BRANCH  10  19
ATOM     19  C   UNL A   1      46.551  19.645  35.088  1.00  0.00     0.430 C 
ATOM     20  F   UNL A   1      47.869  19.442  34.885  1.00  0.00    -0.167 F 
ATOM     21  F   UNL A   1      45.983  18.464  34.689  1.00  0.00    -0.167 F 
ATOM     22  F   UNL A   1      46.103  20.546  34.184  1.00  0.00    -0.167 F 
ENDBRANCH  10  19
BRANCH  16  23
ATOM     23  C   UNL A   1      44.413  17.038  41.071  1.00  0.00    -0.015 A 
ATOM     24  C   UNL A   1      43.988  16.274  39.480  1.00  0.00     0.010 A 
ATOM     25  C   UNL A   1      43.450  16.290  42.700  1.00  0.00     0.010 A 
ATOM     26  C   UNL A   1      42.842  14.936  39.448  1.00  0.00     0.021 A 
ATOM     27  C   UNL A   1      42.318  14.906  42.504  1.00  0.00     0.021 A 
ATOM     28  C   UNL A   1      42.060  14.286  40.898  1.00  0.00     0.041 A 
ATOM     29  Cl  UNL A   1      40.953  12.977  40.710  1.00  0.00    -0.084 Cl
ENDBRANCH  16  23
ENDBRANCH   6   8
ENDBRANCH   5   6
ENDBRANCH   4   5
ENDBRANCH   3   4
ENDBRANCH   2   3
ENDBRANCH   1   2
BRANCH   1  30
ATOM     30  C   UNL A   1      48.050  28.294  39.518  1.00  0.00     0.261 C 
BRANCH  30  31
ATOM     31  O   UNL A   1      47.330  28.371  38.322  1.00  0.00    -0.460 OA
BRANCH  31  32
ATOM     32  C   UNL A   1      48.054  27.868  37.310  1.00  0.00     0.338 C 
ATOM     33  O   UNL A   1      49.158  27.359  37.314  1.00  0.00    -0.246 OA
BRANCH  32  34
ATOM     34  C   UNL A   1      47.195  27.984  36.170  1.00  0.00     0.060 A 
ATOM     35  C   UNL A   1      47.310  29.446  35.166  1.00  0.00     0.016 A 
ATOM     36  C   UNL A   1      45.768  26.880  35.958  1.00  0.00     0.016 A 
ATOM     37  C   UNL A   1      46.049  29.906  33.994  1.00  0.00     0.010 A 
ATOM     38  C   UNL A   1      44.381  27.459  34.609  1.00  0.00     0.010 A 
ATOM     39  C   UNL A   1      44.593  28.979  33.709  1.00  0.00    -0.014 A 
BRANCH  39  40
ATOM     40  C   UNL A   1      43.366  29.465  33.017  1.00  0.00     0.031 A 
ATOM     41  C   UNL A   1      42.230  30.134  33.774  1.00  0.00     0.074 A 
ATOM     42  C   UNL A   1      43.130  28.998  31.780  1.00  0.00     0.049 A 
ATOM     43  N   UNL A   1      41.024  30.458  33.367  1.00  0.00    -0.248 NA
ATOM     44  C   UNL A   1      42.450  30.415  35.198  1.00  0.00     0.031 C 
ATOM     45  C   UNL A   1      44.049  28.155  31.019  1.00  0.00     0.029 A 
ATOM     46  N   UNL A   1      42.029  29.108  30.972  1.00  0.00    -0.354 N 
ATOM     47  C   UNL A   1      40.359  30.977  34.481  1.00  0.00     0.074 A 
ATOM     48  C   UNL A   1      41.254  30.818  35.603  1.00  0.00     0.031 C 
ATOM     49  C   UNL A   1      43.477  27.822  29.853  1.00  0.00     0.029 A 
ATOM     50  C   UNL A   1      42.148  28.420  29.787  1.00  0.00     0.049 A 
ATOM     51  H   UNL A   1      41.230  29.627  31.215  1.00  0.00     0.167 HD
ATOM     52  C   UNL A   1      39.142  31.580  34.558  1.00  0.00     0.034 A 
ATOM     53  C   UNL A   1      41.289  28.297  28.759  1.00  0.00     0.034 A 
ATOM     54  C   UNL A   1      38.258  31.721  33.427  1.00  0.00     0.049 A 
ATOM     55  C   UNL A   1      39.974  29.033  28.823  1.00  0.00     0.074 A 
ATOM     56  C   UNL A   1      37.067  32.422  33.334  1.00  0.00     0.029 A 
ATOM     57  N   UNL A   1      38.466  31.129  32.189  1.00  0.00    -0.354 N 
ATOM     58  N   UNL A   1      39.450  29.707  29.820  1.00  0.00    -0.248 NA
ATOM     59  C   UNL A   1      39.161  29.031  27.602  1.00  0.00     0.031 C 
ATOM     60  C   UNL A   1      36.524  32.196  32.065  1.00  0.00     0.029 A 
ATOM     61  C   UNL A   1      37.417  31.428  31.336  1.00  0.00     0.049 A 
ATOM     62  H   UNL A   1      39.246  30.577  31.952  1.00  0.00     0.167 HD
ATOM     63  C   UNL A   1      38.264  30.249  29.327  1.00  0.00     0.074 A 
ATOM     64  C   UNL A   1      38.176  29.848  27.938  1.00  0.00     0.031 C 
ATOM     65  C   UNL A   1      37.333  31.009  29.958  1.00  0.00     0.034 A 
BRANCH  52  66
ATOM     66  C   UNL A   1      38.720  32.194  35.882  1.00  0.00     0.023 A 
ATOM     67  C   UNL A   1      38.089  31.415  36.869  1.00  0.00     0.031 A 
ATOM     68  C   UNL A   1      38.999  33.536  36.200  1.00  0.00     0.131 A 
ATOM     69  C   UNL A   1      37.702  31.989  38.090  1.00  0.00     0.055 A 
ATOM     70  C   UNL A   1      38.685  34.083  37.450  1.00  0.00     0.041 A 
ATOM     71  F   UNL A   1      39.593  34.343  35.306  1.00  0.00    -0.206 F 
ATOM     72  C   UNL A   1      38.022  33.311  38.400  1.00  0.00     0.022 A 
BRANCH  69  73
ATOM     73  S   UNL A   1      36.675  31.008  39.217  1.00  0.00     0.124 S 
ATOM     74  O   UNL A   1      36.525  29.761  38.468  1.00  0.00    -0.237 OA
ATOM     75  O   UNL A   1      37.502  30.934  40.415  1.00  0.00    -0.237 OA
ATOM     76  O   UNL A   1      35.454  31.799  39.347  1.00  0.00    -0.744 OA
ENDBRANCH  69  73
ENDBRANCH  52  66
BRANCH  53  77
ATOM     77  C   UNL A   1      41.676  27.525  27.546  1.00  0.00     0.023 A 
ATOM     78  C   UNL A   1      41.510  26.133  27.514  1.00  0.00     0.031 A 
ATOM     79  C   UNL A   1      42.248  28.148  26.424  1.00  0.00     0.131 A 
ATOM     80  C   UNL A   1      41.989  25.395  26.424  1.00  0.00     0.055 A 
ATOM     81  C   UNL A   1      42.658  27.416  25.307  1.00  0.00     0.041 A 
ATOM     82  F   UNL A   1      42.405  29.481  26.392  1.00  0.00    -0.206 F 
ATOM     83  C   UNL A   1      42.549  26.027  25.312  1.00  0.00     0.022 A 
BRANCH  80  84
ATOM     84  S   UNL A   1      41.987  23.587  26.545  1.00  0.00     0.124 S 
ATOM     85  O   UNL A   1      42.610  23.378  27.847  1.00  0.00    -0.237 OA
ATOM     86  O   UNL A   1      40.563  23.280  26.459  1.00  0.00    -0.237 OA
ATOM     87  O   UNL A   1      42.786  23.169  25.395  1.00  0.00    -0.744 OA
ENDBRANCH  80  84
ENDBRANCH  53  77
BRANCH  65  88
ATOM     88  C   UNL A   1      36.162  31.482  29.132  1.00  0.00     0.023 A 
ATOM     89  C   UNL A   1      35.174  30.591  28.682  1.00  0.00     0.031 A 
ATOM     90  C   UNL A   1      36.062  32.831  28.742  1.00  0.00     0.131 A 
ATOM     91  C   UNL A   1      34.190  31.033  27.787  1.00  0.00     0.055 A 
ATOM     92  C   UNL A   1      35.024  33.283  27.927  1.00  0.00     0.041 A 
ATOM     93  F   UNL A   1      36.978  33.729  29.137  1.00  0.00    -0.206 F 
ATOM     94  C   UNL A   1      34.094  32.379  27.425  1.00  0.00     0.022 A 
BRANCH  91  95
ATOM     95  S   UNL A   1      33.143  29.793  26.979  1.00  0.00     0.124 S 
ATOM     96  O   UNL A   1      31.805  30.320  27.229  1.00  0.00    -0.237 OA
ATOM     97  O   UNL A   1      33.602  29.852  25.595  1.00  0.00    -0.237 OA
ATOM     98  O   UNL A   1      33.467  28.557  27.689  1.00  0.00    -0.744 OA
ENDBRANCH  91  95
ENDBRANCH  65  88
ENDBRANCH  39  40
ENDBRANCH  32  34
ENDBRANCH  31  32
ENDBRANCH  30  31
ENDBRANCH   1  30
TORSDOF 19
ENDMDL
MODEL 2
REMARK VINA RESULT:     -12.4      5.942     14.306
REMARK SMILES O=C(OCCOCCOC(=O)c1ccc(-c2c3nc(c(-c4cc(S(=O)(=O)[O-])ccc4F)c4ccc([nH]4)c(-c4cc(S(=O)(=O)[O-])ccc4F)c4nc(c(-c5cc(S(=O)(=O)[O-])ccc5F)c5ccc2[nH]5)C=C4)C=C3)cc1)C1=Cc2cc(Cl)cc(-c3ccc(Cl)cc3)c2O[C@@H]1C(F)(F)F
REMARK SMILES IDX 7 1 6 2 5 3 4 4 3 5 2 6 1 7 75 8 76 9 92 10 77 11 91 12
REMARK SMILES IDX 78 13 90 14 79 15 82 16 80 17 81 18 93 19 94 20 95 21 96 22
REMARK SMILES IDX 83 23 84 24 89 25 85 26 88 27 86 28 87 29 8 30 9 31 10 32
REMARK SMILES IDX 11 33 12 34 13 35 74 36 14 37 73 38 15 39 16 40 17 41 67 42
REMARK SMILES IDX 18 43 72 44 66 45 68 46 19 47 71 48 65 49 64 50 20 52 52 53
REMARK SMILES IDX 32 54 51 55 33 56 36 57 50 58 69 59 34 60 35 61 49 63 70 64
REMARK SMILES IDX 37 65 21 66 22 67 30 68 23 69 29 70 31 71 28 72 24 73 25 74
REMARK SMILES IDX 26 75 27 76 53 77 54 78 62 79 55 80 61 81 63 82 60 83 56 84
REMARK SMILES IDX 57 85 58 86 59 87 38 88 39 89 47 90 40 91 46 92 48 93 45 94
REMARK SMILES IDX 41 95 42 96 43 97 44 98
REMARK H PARENT 68 51 36 62
REMARK Flexibility Score: inf
ROOT
ATOM      1  C   UNL A   1      32.644  33.362  27.166  1.00  0.00     0.202 C 
ENDROOT
BRANCH   1   2
ATOM      2  O   UNL A   1      31.626  32.345  26.929  1.00  0.00    -0.374 OA
BRANCH   2   3
ATOM      3  C   UNL A   1      31.635  30.879  26.152  1.00  0.00     0.202 C 
BRANCH   3   4
ATOM      4  C   UNL A   1      30.635  30.306  24.306  1.00  0.00     0.261 C 
BRANCH   4   5
ATOM      5  O   UNL A   1      29.878  28.951  24.068  1.00  0.00    -0.460 OA
BRANCH   5   6
ATOM      6  C   UNL A   1      30.452  28.175  23.140  1.00  0.00     0.338 C 
ATOM      7  O   UNL A   1      30.038  27.782  22.079  1.00  0.00    -0.246 OA
BRANCH   6   8
ATOM      8  C   UNL A   1      31.498  27.699  24.009  1.00  0.00     0.087 C 
ATOM      9  C   UNL A   1      30.959  26.997  25.170  1.00  0.00     0.027 C 
ATOM     10  C   UNL A   1      32.592  26.893  22.635  1.00  0.00     0.316 C 
ATOM     11  C   UNL A   1      31.048  25.213  25.381  1.00  0.00     0.019 A 
ATOM     12  O   UNL A   1      32.678  24.949  22.835  1.00  0.00    -0.475 OA
ATOM     13  C   UNL A   1      30.301  24.721  26.417  1.00  0.00     0.032 A 
ATOM     14  C   UNL A   1      31.806  24.128  24.233  1.00  0.00     0.135 A 
ATOM     15  C   UNL A   1      30.158  23.338  26.433  1.00  0.00     0.042 A 
ATOM     16  C   UNL A   1      31.667  22.713  24.405  1.00  0.00     0.026 A 
ATOM     17  Cl  UNL A   1      29.200  22.665  27.712  1.00  0.00    -0.084 Cl
ATOM     18  C   UNL A   1      30.754  22.423  25.483  1.00  0.00     0.033 A 
BRANCH  10  19
ATOM     19  C   UNL A   1      33.689  28.097  22.683  1.00  0.00     0.430 C 
ATOM     20  F   UNL A   1      34.770  27.930  21.895  1.00  0.00    -0.167 F 
ATOM     21  F   UNL A   1      33.099  29.226  22.177  1.00  0.00    -0.167 F 
ATOM     22  F   UNL A   1      34.100  28.468  23.917  1.00  0.00    -0.167 F 
ENDBRANCH  10  19
BRANCH  16  23
ATOM     23  C   UNL A   1      32.321  21.437  23.650  1.00  0.00    -0.015 A 
ATOM     24  C   UNL A   1      33.439  20.720  24.887  1.00  0.00     0.010 A 
ATOM     25  C   UNL A   1      31.868  20.245  22.064  1.00  0.00     0.010 A 
ATOM     26  C   UNL A   1      34.007  19.065  24.675  1.00  0.00     0.021 A 
ATOM     27  C   UNL A   1      32.516  18.567  22.002  1.00  0.00     0.021 A 
ATOM     28  C   UNL A   1      33.552  18.045  23.301  1.00  0.00     0.041 A 
ATOM     29  Cl  UNL A   1      34.193  16.447  23.224  1.00  0.00    -0.084 Cl
ENDBRANCH  16  23
ENDBRANCH   6   8
ENDBRANCH   5   6
ENDBRANCH   4   5
ENDBRANCH   3   4
ENDBRANCH   2   3
ENDBRANCH   1   2
BRANCH   1  30
ATOM     30  C   UNL A   1      33.496  33.274  28.433  1.00  0.00     0.261 C 
BRANCH  30  31
ATOM     31  O   UNL A   1      33.798  34.567  28.871  1.00  0.00    -0.460 OA
BRANCH  31  32
ATOM     32  C   UNL A   1      34.360  34.526  30.089  1.00  0.00     0.338 C 
ATOM     33  O   UNL A   1      34.105  35.163  31.092  1.00  0.00    -0.246 OA
BRANCH  32  34
ATOM     34  C   UNL A   1      35.323  33.470  29.997  1.00  0.00     0.060 A 
ATOM     35  C   UNL A   1      35.077  32.008  30.978  1.00  0.00     0.016 A 
ATOM     36  C   UNL A   1      36.940  33.743  29.216  1.00  0.00     0.016 A 
ATOM     37  C   UNL A   1      36.374  30.823  31.276  1.00  0.00     0.010 A 
ATOM     38  C   UNL A   1      38.361  32.358  29.590  1.00  0.00     0.010 A 
ATOM     39  C   UNL A   1      37.996  30.968  30.639  1.00  0.00    -0.014 A 
BRANCH  39  40
ATOM     40  C   UNL A   1      39.194  30.220  31.114  1.00  0.00     0.031 A 
ATOM     41  C   UNL A   1      40.071  30.742  32.242  1.00  0.00     0.074 A 
ATOM     42  C   UNL A   1      39.681  29.261  30.310  1.00  0.00     0.049 A 
ATOM     43  N   UNL A   1      41.239  30.317  32.665  1.00  0.00    -0.248 NA
ATOM     44  C   UNL A   1      39.609  31.944  32.946  1.00  0.00     0.031 C 
ATOM     45  C   UNL A   1      39.049  28.812  29.072  1.00  0.00     0.029 A 
ATOM     46  N   UNL A   1      40.843  28.537  30.375  1.00  0.00    -0.354 N 
ATOM     47  C   UNL A   1      41.636  31.197  33.675  1.00  0.00     0.074 A 
ATOM     48  C   UNL A   1      40.641  32.242  33.721  1.00  0.00     0.031 C 
ATOM     49  C   UNL A   1      39.828  27.889  28.490  1.00  0.00     0.029 A 
ATOM     50  C   UNL A   1      41.018  27.686  29.309  1.00  0.00     0.049 A 
ATOM     51  H   UNL A   1      41.490  28.618  31.112  1.00  0.00     0.167 HD
ATOM     52  C   UNL A   1      42.696  31.118  34.523  1.00  0.00     0.034 A 
ATOM     53  C   UNL A   1      42.019  26.830  29.031  1.00  0.00     0.034 A 
ATOM     54  C   UNL A   1      43.686  30.070  34.455  1.00  0.00     0.049 A 
ATOM     55  C   UNL A   1      43.151  26.696  30.016  1.00  0.00     0.074 A 
ATOM     56  C   UNL A   1      44.726  29.796  35.326  1.00  0.00     0.029 A 
ATOM     57  N   UNL A   1      43.764  29.130  33.437  1.00  0.00    -0.354 N 
ATOM     58  N   UNL A   1      43.398  27.402  31.096  1.00  0.00    -0.248 NA
ATOM     59  C   UNL A   1      44.110  25.614  29.770  1.00  0.00     0.031 C 
ATOM     60  C   UNL A   1      45.471  28.736  34.799  1.00  0.00     0.029 A 
ATOM     61  C   UNL A   1      44.847  28.291  33.646  1.00  0.00     0.049 A 
ATOM     62  H   UNL A   1      43.141  29.068  32.677  1.00  0.00     0.167 HD
ATOM     63  C   UNL A   1      44.518  26.815  31.682  1.00  0.00     0.074 A 
ATOM     64  C   UNL A   1      44.870  25.682  30.852  1.00  0.00     0.031 C 
ATOM     65  C   UNL A   1      45.195  27.174  32.803  1.00  0.00     0.034 A 
BRANCH  52  66
ATOM     66  C   UNL A   1      42.810  32.143  35.638  1.00  0.00     0.023 A 
ATOM     67  C   UNL A   1      42.051  32.016  36.816  1.00  0.00     0.031 A 
ATOM     68  C   UNL A   1      43.720  33.215  35.570  1.00  0.00     0.131 A 
ATOM     69  C   UNL A   1      42.162  32.967  37.842  1.00  0.00     0.055 A 
ATOM     70  C   UNL A   1      43.887  34.114  36.630  1.00  0.00     0.041 A 
ATOM     71  F   UNL A   1      44.474  33.406  34.475  1.00  0.00    -0.206 F 
ATOM     72  C   UNL A   1      43.097  34.000  37.770  1.00  0.00     0.022 A 
BRANCH  69  73
ATOM     73  S   UNL A   1      40.985  32.892  39.218  1.00  0.00     0.124 S 
ATOM     74  O   UNL A   1      41.578  31.852  40.057  1.00  0.00    -0.237 OA
ATOM     75  O   UNL A   1      41.036  34.247  39.753  1.00  0.00    -0.237 OA
ATOM     76  O   UNL A   1      39.727  32.521  38.574  1.00  0.00    -0.744 OA
ENDBRANCH  69  73
ENDBRANCH  52  66
BRANCH  53  77
ATOM     77  C   UNL A   1      41.953  25.969  27.818  1.00  0.00     0.023 A 
ATOM     78  C   UNL A   1      41.363  24.698  27.886  1.00  0.00     0.031 A 
ATOM     79  C   UNL A   1      42.503  26.377  26.591  1.00  0.00     0.131 A 
ATOM     80  C   UNL A   1      41.414  23.843  26.778  1.00  0.00     0.055 A 
ATOM     81  C   UNL A   1      42.486  25.548  25.466  1.00  0.00     0.041 A 
ATOM     82  F   UNL A   1      43.055  27.594  26.463  1.00  0.00    -0.206 F 
ATOM     83  C   UNL A   1      41.957  24.263  25.563  1.00  0.00     0.022 A 
BRANCH  80  84
ATOM     84  S   UNL A   1      40.874  22.126  26.996  1.00  0.00     0.124 S 
ATOM     85  O   UNL A   1      41.208  21.887  28.395  1.00  0.00    -0.237 OA
ATOM     86  O   UNL A   1      39.452  22.214  26.683  1.00  0.00    -0.237 OA
ATOM     87  O   UNL A   1      41.683  21.391  26.025  1.00  0.00    -0.744 OA
ENDBRANCH  80  84
ENDBRANCH  53  77
BRANCH  65  88
ATOM     88  C   UNL A   1      46.359  26.303  33.207  1.00  0.00     0.023 A 
ATOM     89  C   UNL A   1      46.241  25.349  34.232  1.00  0.00     0.031 A 
ATOM     90  C   UNL A   1      47.618  26.466  32.599  1.00  0.00     0.131 A 
ATOM     91  C   UNL A   1      47.379  24.671  34.689  1.00  0.00     0.055 A 
ATOM     92  C   UNL A   1      48.727  25.718  32.996  1.00  0.00     0.041 A 
ATOM     93  F   UNL A   1      47.794  27.364  31.617  1.00  0.00    -0.206 F 
ATOM     94  C   UNL A   1      48.617  24.831  34.062  1.00  0.00     0.022 A 
BRANCH  91  95
ATOM     95  S   UNL A   1      47.247  23.704  36.217  1.00  0.00     0.124 S 
ATOM     96  O   UNL A   1      46.528  24.625  37.093  1.00  0.00    -0.237 OA
ATOM     97  O   UNL A   1      46.502  22.529  35.779  1.00  0.00    -0.237 OA
ATOM     98  O   UNL A   1      48.639  23.455  36.585  1.00  0.00    -0.744 OA
ENDBRANCH  91  95
ENDBRANCH  65  88
ENDBRANCH  39  40
ENDBRANCH  32  34
ENDBRANCH  31  32
ENDBRANCH  30  31
ENDBRANCH   1  30
TORSDOF 19
ENDMDL
MODEL 3
REMARK VINA RESULT:     -12.2     11.200     18.021
REMARK SMILES O=C(OCCOCCOC(=O)c1ccc(-c2c3nc(c(-c4cc(S(=O)(=O)[O-])ccc4F)c4ccc([nH]4)c(-c4cc(S(=O)(=O)[O-])ccc4F)c4nc(c(-c5cc(S(=O)(=O)[O-])ccc5F)c5ccc2[nH]5)C=C4)C=C3)cc1)C1=Cc2cc(Cl)cc(-c3ccc(Cl)cc3)c2O[C@@H]1C(F)(F)F
REMARK SMILES IDX 7 1 6 2 5 3 4 4 3 5 2 6 1 7 75 8 76 9 92 10 77 11 91 12
REMARK SMILES IDX 78 13 90 14 79 15 82 16 80 17 81 18 93 19 94 20 95 21 96 22
REMARK SMILES IDX 83 23 84 24 89 25 85 26 88 27 86 28 87 29 8 30 9 31 10 32
REMARK SMILES IDX 11 33 12 34 13 35 74 36 14 37 73 38 15 39 16 40 17 41 67 42
REMARK SMILES IDX 18 43 72 44 66 45 68 46 19 47 71 48 65 49 64 50 20 52 52 53
REMARK SMILES IDX 32 54 51 55 33 56 36 57 50 58 69 59 34 60 35 61 49 63 70 64
REMARK SMILES IDX 37 65 21 66 22 67 30 68 23 69 29 70 31 71 28 72 24 73 25 74
REMARK SMILES IDX 26 75 27 76 53 77 54 78 62 79 55 80 61 81 63 82 60 83 56 84
REMARK SMILES IDX 57 85 58 86 59 87 38 88 39 89 47 90 40 91 46 92 48 93 45 94
REMARK SMILES IDX 41 95 42 96 43 97 44 98
REMARK H PARENT 68 51 36 62
REMARK Flexibility Score: inf
ROOT
ATOM      1  C   UNL A   1      48.076  40.399  30.883  1.00  0.00     0.202 C 
ENDROOT
BRANCH   1   2
ATOM      2  O   UNL A   1      47.460  41.162  29.804  1.00  0.00    -0.374 OA
BRANCH   2   3
ATOM      3  C   UNL A   1      47.931  41.538  28.257  1.00  0.00     0.202 C 
BRANCH   3   4
ATOM      4  C   UNL A   1      47.488  40.489  26.402  1.00  0.00     0.261 C 
BRANCH   4   5
ATOM      5  O   UNL A   1      46.195  40.687  25.535  1.00  0.00    -0.460 OA
BRANCH   5   6
ATOM      6  C   UNL A   1      46.420  41.319  24.377  1.00  0.00     0.338 C 
ATOM      7  O   UNL A   1      47.088  41.001  23.427  1.00  0.00    -0.246 OA
BRANCH   6   8
ATOM      8  C   UNL A   1      45.932  42.594  24.837  1.00  0.00     0.087 C 
ATOM      9  C   UNL A   1      47.012  43.564  24.990  1.00  0.00     0.027 C 
ATOM     10  C   UNL A   1      44.472  42.750  23.580  1.00  0.00     0.316 C 
ATOM     11  C   UNL A   1      47.270  44.949  23.871  1.00  0.00     0.019 A 
ATOM     12  O   UNL A   1      44.750  44.237  22.338  1.00  0.00    -0.475 OA
ATOM     13  C   UNL A   1      48.452  45.615  24.048  1.00  0.00     0.032 A 
ATOM     14  C   UNL A   1      46.245  45.297  22.493  1.00  0.00     0.135 A 
ATOM     15  C   UNL A   1      48.777  46.513  23.037  1.00  0.00     0.042 A 
ATOM     16  C   UNL A   1      46.639  46.315  21.565  1.00  0.00     0.026 A 
ATOM     17  Cl  UNL A   1      50.277  47.367  23.201  1.00  0.00    -0.084 Cl
ATOM     18  C   UNL A   1      47.959  46.801  21.878  1.00  0.00     0.033 A 
BRANCH  10  19
ATOM     19  C   UNL A   1      43.351  42.396  24.708  1.00  0.00     0.430 C 
ATOM     20  F   UNL A   1      43.500  43.023  25.893  1.00  0.00    -0.167 F 
ATOM     21  F   UNL A   1      42.140  42.854  24.258  1.00  0.00    -0.167 F 
ATOM     22  F   UNL A   1      43.140  41.079  24.933  1.00  0.00    -0.167 F 
ENDBRANCH  10  19
BRANCH  16  23
ATOM     23  C   UNL A   1      45.904  46.991  20.289  1.00  0.00    -0.015 A 
ATOM     24  C   UNL A   1      45.303  45.575  19.326  1.00  0.00     0.010 A 
ATOM     25  C   UNL A   1      45.095  48.797  19.813  1.00  0.00     0.010 A 
ATOM     26  C   UNL A   1      44.053  45.830  18.111  1.00  0.00     0.021 A 
ATOM     27  C   UNL A   1      43.812  48.890  18.555  1.00  0.00     0.021 A 
ATOM     28  C   UNL A   1      43.343  47.414  17.759  1.00  0.00     0.041 A 
ATOM     29  Cl  UNL A   1      42.133  47.511  16.535  1.00  0.00    -0.084 Cl
ENDBRANCH  16  23
ENDBRANCH   6   8
ENDBRANCH   5   6
ENDBRANCH   4   5
ENDBRANCH   3   4
ENDBRANCH   2   3
ENDBRANCH   1   2
BRANCH   1  30
ATOM     30  C   UNL A   1      47.466  39.055  31.280  1.00  0.00     0.261 C 
BRANCH  30  31
ATOM     31  O   UNL A   1      47.131  38.345  30.122  1.00  0.00    -0.460 OA
BRANCH  31  32
ATOM     32  C   UNL A   1      45.830  38.014  30.139  1.00  0.00     0.338 C 
ATOM     33  O   UNL A   1      44.853  38.692  30.391  1.00  0.00    -0.246 OA
BRANCH  32  34
ATOM     34  C   UNL A   1      45.808  36.651  29.704  1.00  0.00     0.060 A 
ATOM     35  C   UNL A   1      45.247  36.295  28.055  1.00  0.00     0.016 A 
ATOM     36  C   UNL A   1      45.969  35.286  30.892  1.00  0.00     0.016 A 
ATOM     37  C   UNL A   1      44.779  34.657  27.532  1.00  0.00     0.010 A 
ATOM     38  C   UNL A   1      45.428  33.455  30.231  1.00  0.00     0.010 A 
ATOM     39  C   UNL A   1      44.829  33.249  28.569  1.00  0.00    -0.014 A 
BRANCH  39  40
ATOM     40  C   UNL A   1      44.146  31.949  28.313  1.00  0.00     0.031 A 
ATOM     41  C   UNL A   1      42.863  31.562  29.032  1.00  0.00     0.074 A 
ATOM     42  C   UNL A   1      44.858  30.988  27.703  1.00  0.00     0.049 A 
ATOM     43  N   UNL A   1      42.231  30.411  29.065  1.00  0.00    -0.248 NA
ATOM     44  C   UNL A   1      42.240  32.583  29.884  1.00  0.00     0.031 C 
ATOM     45  C   UNL A   1      46.201  31.167  27.158  1.00  0.00     0.029 A 
ATOM     46  N   UNL A   1      44.585  29.662  27.494  1.00  0.00    -0.354 N 
ATOM     47  C   UNL A   1      41.150  30.580  29.934  1.00  0.00     0.074 A 
ATOM     48  C   UNL A   1      41.276  31.906  30.492  1.00  0.00     0.031 C 
ATOM     49  C   UNL A   1      46.640  29.995  26.676  1.00  0.00     0.029 A 
ATOM     50  C   UNL A   1      45.612  28.981  26.884  1.00  0.00     0.049 A 
ATOM     51  H   UNL A   1      43.737  29.237  27.755  1.00  0.00     0.167 HD
ATOM     52  C   UNL A   1      40.116  29.738  30.201  1.00  0.00     0.034 A 
ATOM     53  C   UNL A   1      45.708  27.688  26.522  1.00  0.00     0.034 A 
ATOM     54  C   UNL A   1      40.012  28.413  29.640  1.00  0.00     0.049 A 
ATOM     55  C   UNL A   1      44.527  26.781  26.755  1.00  0.00     0.074 A 
ATOM     56  C   UNL A   1      38.962  27.513  29.719  1.00  0.00     0.029 A 
ATOM     57  N   UNL A   1      41.011  27.791  28.906  1.00  0.00    -0.354 N 
ATOM     58  N   UNL A   1      43.408  27.026  27.398  1.00  0.00    -0.248 NA
ATOM     59  C   UNL A   1      44.603  25.440  26.167  1.00  0.00     0.031 C 
ATOM     60  C   UNL A   1      39.355  26.326  29.093  1.00  0.00     0.029 A 
ATOM     61  C   UNL A   1      40.614  26.514  28.547  1.00  0.00     0.049 A 
ATOM     62  H   UNL A   1      41.877  28.198  28.674  1.00  0.00     0.167 HD
ATOM     63  C   UNL A   1      42.629  25.881  27.249  1.00  0.00     0.074 A 
ATOM     64  C   UNL A   1      43.396  24.966  26.428  1.00  0.00     0.031 C 
ATOM     65  C   UNL A   1      41.394  25.606  27.741  1.00  0.00     0.034 A 
BRANCH  52  66
ATOM     66  C   UNL A   1      38.983  30.238  31.080  1.00  0.00     0.023 A 
ATOM     67  C   UNL A   1      37.948  31.028  30.545  1.00  0.00     0.031 A 
ATOM     68  C   UNL A   1      38.884  29.881  32.437  1.00  0.00     0.131 A 
ATOM     69  C   UNL A   1      36.904  31.486  31.363  1.00  0.00     0.055 A 
ATOM     70  C   UNL A   1      37.798  30.271  33.230  1.00  0.00     0.041 A 
ATOM     71  F   UNL A   1      39.836  29.135  33.021  1.00  0.00    -0.206 F 
ATOM     72  C   UNL A   1      36.806  31.089  32.696  1.00  0.00     0.022 A 
BRANCH  69  73
ATOM     73  S   UNL A   1      35.743  32.699  30.680  1.00  0.00     0.124 S 
ATOM     74  O   UNL A   1      36.328  33.957  31.138  1.00  0.00    -0.237 OA
ATOM     75  O   UNL A   1      35.825  32.443  29.247  1.00  0.00    -0.237 OA
ATOM     76  O   UNL A   1      34.470  32.347  31.306  1.00  0.00    -0.744 OA
ENDBRANCH  69  73
ENDBRANCH  52  66
BRANCH  53  77
ATOM     77  C   UNL A   1      46.926  27.195  25.821  1.00  0.00     0.023 A 
ATOM     78  C   UNL A   1      47.915  26.498  26.531  1.00  0.00     0.031 A 
ATOM     79  C   UNL A   1      47.142  27.438  24.454  1.00  0.00     0.131 A 
ATOM     80  C   UNL A   1      49.114  26.146  25.898  1.00  0.00     0.055 A 
ATOM     81  C   UNL A   1      48.308  27.020  23.809  1.00  0.00     0.041 A 
ATOM     82  F   UNL A   1      46.216  28.077  23.722  1.00  0.00    -0.206 F 
ATOM     83  C   UNL A   1      49.313  26.388  24.538  1.00  0.00     0.022 A 
BRANCH  80  84
ATOM     84  S   UNL A   1      50.459  25.484  26.917  1.00  0.00     0.124 S 
ATOM     85  O   UNL A   1      51.427  25.082  25.904  1.00  0.00    -0.237 OA
ATOM     86  O   UNL A   1      50.823  26.643  27.726  1.00  0.00    -0.237 OA
ATOM     87  O   UNL A   1      49.824  24.389  27.647  1.00  0.00    -0.744 OA
ENDBRANCH  80  84
ENDBRANCH  53  77
BRANCH  65  88
ATOM     88  C   UNL A   1      40.789  24.275  27.367  1.00  0.00     0.023 A 
ATOM     89  C   UNL A   1      39.641  24.191  26.560  1.00  0.00     0.031 A 
ATOM     90  C   UNL A   1      41.334  23.078  27.867  1.00  0.00     0.131 A 
ATOM     91  C   UNL A   1      39.016  22.952  26.364  1.00  0.00     0.055 A 
ATOM     92  C   UNL A   1      40.759  21.838  27.588  1.00  0.00     0.041 A 
ATOM     93  F   UNL A   1      42.427  23.094  28.646  1.00  0.00    -0.206 F 
ATOM     94  C   UNL A   1      39.580  21.771  26.853  1.00  0.00     0.022 A 
BRANCH  91  95
ATOM     95  S   UNL A   1      37.370  22.932  25.602  1.00  0.00     0.124 S 
ATOM     96  O   UNL A   1      37.683  23.221  24.206  1.00  0.00    -0.237 OA
ATOM     97  O   UNL A   1      36.913  21.575  25.885  1.00  0.00    -0.237 OA
ATOM     98  O   UNL A   1      36.653  23.990  26.311  1.00  0.00    -0.744 OA
ENDBRANCH  91  95
ENDBRANCH  65  88
ENDBRANCH  39  40
ENDBRANCH  32  34
ENDBRANCH  31  32
ENDBRANCH  30  31
ENDBRANCH   1  30
TORSDOF 19
ENDMDL
