MODEL 1
REMARK VINA RESULT:     -11.0      0.000      0.000
REMARK SMILES O=C(OCCOCCOC(=O)c1ccc2c(=O)n(CCc3c[nH]c4ccccc34)c(=O)[nH]c2c1)c1ccc(-c2c3nc(c(-c4cc(S(=O)(=O)[O-])ccc4F)c4ccc([nH]4)c(-c4cc(S(=O)(=O)[O-])ccc4F)c4nc(c(-c5cc(S(=O)(=O)[O-])ccc5F)c5ccc2[nH]5)C=C4)C=C3)cc1
REMARK SMILES IDX 6 1 5 2 4 3 3 4 2 5 1 6 35 7 36 8 97 9 37 10 96 11 38 12
REMARK SMILES IDX 39 13 40 14 90 15 41 16 95 17 89 18 91 19 42 20 94 21 88 22
REMARK SMILES IDX 87 23 43 25 75 26 55 27 74 28 56 29 59 30 73 31 92 32 57 33
REMARK SMILES IDX 58 34 72 36 93 37 60 38 44 39 45 40 53 41 46 42 52 43 54 44
REMARK SMILES IDX 51 45 47 46 48 47 49 48 50 49 76 50 77 51 85 52 78 53 84 54
REMARK SMILES IDX 86 55 83 56 79 57 80 58 81 59 82 60 61 61 62 62 70 63 63 64
REMARK SMILES IDX 69 65 71 66 68 67 64 68 65 69 66 70 67 71 7 72 8 73 9 74
REMARK SMILES IDX 10 75 11 76 12 77 13 78 34 79 14 80 33 81 15 82 32 83 16 84
REMARK SMILES IDX 30 85 17 87 18 88 31 89 19 90 20 91 21 92 22 93 29 94 23 95
REMARK SMILES IDX 24 96 28 97 25 99 27 100 26 101
REMARK H PARENT 91 24 59 35 32 86 23 98
REMARK Flexibility Score: inf
ROOT
ATOM      1  O   UNL A   1      34.718  34.186  27.910  1.00  0.00    -0.374 OA
ENDROOT
BRANCH   1   2
ATOM      2  C   UNL A   1      33.348  34.348  28.260  1.00  0.00     0.202 C 
BRANCH   2   3
ATOM      3  C   UNL A   1      33.032  35.632  29.025  1.00  0.00     0.261 C 
BRANCH   3   4
ATOM      4  O   UNL A   1      32.415  35.340  30.283  1.00  0.00    -0.460 OA
BRANCH   4   5
ATOM      5  C   UNL A   1      32.991  35.268  31.506  1.00  0.00     0.338 C 
ATOM      6  O   UNL A   1      32.445  35.893  32.417  1.00  0.00    -0.246 OA
BRANCH   5   7
ATOM      7  C   UNL A   1      34.271  34.544  31.828  1.00  0.00     0.060 A 
ATOM      8  C   UNL A   1      34.153  33.436  32.689  1.00  0.00     0.016 A 
ATOM      9  C   UNL A   1      35.562  34.906  31.433  1.00  0.00     0.016 A 
ATOM     10  C   UNL A   1      35.277  32.757  33.172  1.00  0.00     0.010 A 
ATOM     11  C   UNL A   1      36.689  34.241  31.910  1.00  0.00     0.010 A 
ATOM     12  C   UNL A   1      36.554  33.176  32.796  1.00  0.00    -0.014 A 
BRANCH  12  13
ATOM     13  C   UNL A   1      37.774  32.479  33.238  1.00  0.00     0.031 A 
ATOM     14  C   UNL A   1      38.435  32.851  34.529  1.00  0.00     0.074 A 
ATOM     15  C   UNL A   1      38.338  31.614  32.376  1.00  0.00     0.049 A 
ATOM     16  N   UNL A   1      39.534  32.377  35.048  1.00  0.00    -0.248 NA
ATOM     17  C   UNL A   1      37.788  33.899  35.338  1.00  0.00     0.031 C 
ATOM     18  C   UNL A   1      37.789  31.280  31.060  1.00  0.00     0.029 A 
ATOM     19  N   UNL A   1      39.507  30.905  32.445  1.00  0.00    -0.354 N 
ATOM     20  C   UNL A   1      39.706  33.050  36.253  1.00  0.00     0.074 A 
ATOM     21  C   UNL A   1      38.621  33.999  36.368  1.00  0.00     0.031 C 
ATOM     22  C   UNL A   1      38.641  30.460  30.428  1.00  0.00     0.029 A 
ATOM     23  C   UNL A   1      39.797  30.221  31.288  1.00  0.00     0.049 A 
ATOM     24  H   UNL A   1      40.082  30.887  33.243  1.00  0.00     0.167 HD
ATOM     25  C   UNL A   1      40.682  32.866  37.172  1.00  0.00     0.034 A 
ATOM     26  C   UNL A   1      40.882  29.494  30.954  1.00  0.00     0.034 A 
ATOM     27  C   UNL A   1      41.753  31.918  36.999  1.00  0.00     0.049 A 
ATOM     28  C   UNL A   1      41.941  29.284  32.003  1.00  0.00     0.074 A 
ATOM     29  C   UNL A   1      42.748  31.581  37.898  1.00  0.00     0.029 A 
ATOM     30  N   UNL A   1      41.978  31.168  35.852  1.00  0.00    -0.354 N 
ATOM     31  N   UNL A   1      42.012  29.803  33.207  1.00  0.00    -0.248 NA
ATOM     32  C   UNL A   1      43.043  28.369  31.682  1.00  0.00     0.031 C 
ATOM     33  C   UNL A   1      43.612  30.685  37.271  1.00  0.00     0.029 A 
ATOM     34  C   UNL A   1      43.112  30.394  36.010  1.00  0.00     0.049 A 
ATOM     35  H   UNL A   1      41.413  31.186  35.046  1.00  0.00     0.167 HD
ATOM     36  C   UNL A   1      43.144  29.255  33.798  1.00  0.00     0.074 A 
ATOM     37  C   UNL A   1      43.721  28.353  32.824  1.00  0.00     0.031 C 
ATOM     38  C   UNL A   1      43.655  29.478  35.034  1.00  0.00     0.034 A 
BRANCH  25  39
ATOM     39  C   UNL A   1      40.646  33.639  38.468  1.00  0.00     0.023 A 
ATOM     40  C   UNL A   1      39.683  33.332  39.450  1.00  0.00     0.031 A 
ATOM     41  C   UNL A   1      41.417  34.803  38.636  1.00  0.00     0.131 A 
ATOM     42  C   UNL A   1      39.476  34.211  40.522  1.00  0.00     0.055 A 
ATOM     43  C   UNL A   1      41.236  35.652  39.729  1.00  0.00     0.041 A 
ATOM     44  F   UNL A   1      42.343  35.145  37.726  1.00  0.00    -0.206 F 
ATOM     45  C   UNL A   1      40.249  35.367  40.668  1.00  0.00     0.022 A 
BRANCH  42  46
ATOM     46  S   UNL A   1      38.144  33.933  41.723  1.00  0.00     0.124 S 
ATOM     47  O   UNL A   1      38.877  33.407  42.872  1.00  0.00    -0.237 OA
ATOM     48  O   UNL A   1      37.602  35.278  41.892  1.00  0.00    -0.237 OA
ATOM     49  O   UNL A   1      37.267  32.976  41.058  1.00  0.00    -0.744 OA
ENDBRANCH  42  46
ENDBRANCH  25  39
BRANCH  26  50
ATOM     50  C   UNL A   1      40.938  28.876  29.599  1.00  0.00     0.023 A 
ATOM     51  C   UNL A   1      40.382  27.602  29.367  1.00  0.00     0.031 A 
ATOM     52  C   UNL A   1      41.682  29.469  28.566  1.00  0.00     0.131 A 
ATOM     53  C   UNL A   1      40.638  26.937  28.160  1.00  0.00     0.055 A 
ATOM     54  C   UNL A   1      41.876  28.831  27.339  1.00  0.00     0.041 A 
ATOM     55  F   UNL A   1      42.254  30.670  28.748  1.00  0.00    -0.206 F 
ATOM     56  C   UNL A   1      41.370  27.551  27.139  1.00  0.00     0.022 A 
BRANCH  53  57
ATOM     57  S   UNL A   1      40.172  25.196  27.941  1.00  0.00     0.124 S 
ATOM     58  O   UNL A   1      41.365  24.501  28.414  1.00  0.00    -0.237 OA
ATOM     59  O   UNL A   1      38.996  25.087  28.803  1.00  0.00    -0.237 OA
ATOM     60  O   UNL A   1      39.900  25.088  26.513  1.00  0.00    -0.744 OA
ENDBRANCH  53  57
ENDBRANCH  26  50
BRANCH  38  61
ATOM     61  C   UNL A   1      44.900  28.736  35.449  1.00  0.00     0.023 A 
ATOM     62  C   UNL A   1      44.781  27.506  36.123  1.00  0.00     0.031 A 
ATOM     63  C   UNL A   1      46.165  29.342  35.378  1.00  0.00     0.131 A 
ATOM     64  C   UNL A   1      45.897  26.951  36.757  1.00  0.00     0.055 A 
ATOM     65  C   UNL A   1      47.286  28.758  35.968  1.00  0.00     0.041 A 
ATOM     66  F   UNL A   1      46.322  30.521  34.756  1.00  0.00    -0.206 F 
ATOM     67  C   UNL A   1      47.150  27.568  36.679  1.00  0.00     0.022 A 
BRANCH  64  68
ATOM     68  S   UNL A   1      45.740  25.473  37.797  1.00  0.00     0.124 S 
ATOM     69  O   UNL A   1      44.365  25.585  38.276  1.00  0.00    -0.237 OA
ATOM     70  O   UNL A   1      45.982  24.398  36.839  1.00  0.00    -0.237 OA
ATOM     71  O   UNL A   1      46.767  25.649  38.819  1.00  0.00    -0.744 OA
ENDBRANCH  64  68
ENDBRANCH  38  61
ENDBRANCH  12  13
ENDBRANCH   5   7
ENDBRANCH   4   5
ENDBRANCH   3   4
ENDBRANCH   2   3
ENDBRANCH   1   2
BRANCH   1  72
ATOM     72  C   UNL A   1      35.250  32.863  28.026  1.00  0.00     0.202 C 
BRANCH  72  73
ATOM     73  C   UNL A   1      34.097  31.854  28.100  1.00  0.00     0.261 C 
BRANCH  73  74
ATOM     74  O   UNL A   1      34.177  30.951  26.983  1.00  0.00    -0.460 OA
BRANCH  74  75
ATOM     75  C   UNL A   1      34.610  29.698  27.278  1.00  0.00     0.338 C 
ATOM     76  O   UNL A   1      35.544  29.364  27.985  1.00  0.00    -0.246 OA
BRANCH  75  77
ATOM     77  C   UNL A   1      33.586  28.768  26.779  1.00  0.00     0.062 A 
ATOM     78  C   UNL A   1      32.460  28.470  27.556  1.00  0.00     0.016 A 
ATOM     79  C   UNL A   1      33.855  28.077  25.590  1.00  0.00     0.042 A 
ATOM     80  C   UNL A   1      31.615  27.437  27.164  1.00  0.00     0.017 A 
ATOM     81  C   UNL A   1      33.057  26.988  25.260  1.00  0.00     0.056 A 
ATOM     82  C   UNL A   1      31.943  26.678  26.037  1.00  0.00     0.064 A 
ATOM     83  N   UNL A   1      33.440  26.127  24.231  1.00  0.00    -0.307 N 
ATOM     84  C   UNL A   1      31.204  25.443  25.741  1.00  0.00     0.264 A 
ATOM     85  C   UNL A   1      32.907  24.876  24.072  1.00  0.00     0.328 A 
ATOM     86  H   UNL A   1      34.125  26.432  23.593  1.00  0.00     0.171 HD
ATOM     87  O   UNL A   1      30.098  25.260  26.241  1.00  0.00    -0.268 OA
ATOM     88  N   UNL A   1      31.864  24.537  24.921  1.00  0.00    -0.260 N 
ATOM     89  O   UNL A   1      33.395  24.109  23.244  1.00  0.00    -0.248 OA
BRANCH  88  90
ATOM     90  C   UNL A   1      31.436  23.149  24.973  1.00  0.00     0.136 C 
BRANCH  90  91
ATOM     91  C   UNL A   1      32.063  22.403  26.162  1.00  0.00     0.060 C 
BRANCH  91  92
ATOM     92  C   UNL A   1      33.330  21.629  25.898  1.00  0.00    -0.021 A 
ATOM     93  C   UNL A   1      33.383  20.291  25.550  1.00  0.00     0.087 A 
ATOM     94  C   UNL A   1      34.688  22.107  25.856  1.00  0.00     0.003 A 
ATOM     95  N   UNL A   1      34.660  19.991  25.164  1.00  0.00    -0.361 N 
ATOM     96  C   UNL A   1      35.484  21.071  25.358  1.00  0.00     0.046 A 
ATOM     97  C   UNL A   1      35.328  23.326  26.161  1.00  0.00     0.010 A 
ATOM     98  H   UNL A   1      34.948  19.123  24.801  1.00  0.00     0.166 HD
ATOM     99  C   UNL A   1      36.858  21.199  25.115  1.00  0.00     0.026 A 
ATOM    100  C   UNL A   1      36.718  23.431  26.014  1.00  0.00     0.001 A 
ATOM    101  C   UNL A   1      37.469  22.397  25.473  1.00  0.00     0.002 A 
ENDBRANCH  91  92
ENDBRANCH  90  91
ENDBRANCH  88  90
ENDBRANCH  75  77
ENDBRANCH  74  75
ENDBRANCH  73  74
ENDBRANCH  72  73
ENDBRANCH   1  72
TORSDOF 20
ENDMDL
MODEL 2
REMARK VINA RESULT:     -10.6      5.211     10.077
REMARK SMILES O=C(OCCOCCOC(=O)c1ccc2c(=O)n(CCc3c[nH]c4ccccc34)c(=O)[nH]c2c1)c1ccc(-c2c3nc(c(-c4cc(S(=O)(=O)[O-])ccc4F)c4ccc([nH]4)c(-c4cc(S(=O)(=O)[O-])ccc4F)c4nc(c(-c5cc(S(=O)(=O)[O-])ccc5F)c5ccc2[nH]5)C=C4)C=C3)cc1
REMARK SMILES IDX 6 1 5 2 4 3 3 4 2 5 1 6 35 7 36 8 97 9 37 10 96 11 38 12
REMARK SMILES IDX 39 13 40 14 90 15 41 16 95 17 89 18 91 19 42 20 94 21 88 22
REMARK SMILES IDX 87 23 43 25 75 26 55 27 74 28 56 29 59 30 73 31 92 32 57 33
REMARK SMILES IDX 58 34 72 36 93 37 60 38 44 39 45 40 53 41 46 42 52 43 54 44
REMARK SMILES IDX 51 45 47 46 48 47 49 48 50 49 76 50 77 51 85 52 78 53 84 54
REMARK SMILES IDX 86 55 83 56 79 57 80 58 81 59 82 60 61 61 62 62 70 63 63 64
REMARK SMILES IDX 69 65 71 66 68 67 64 68 65 69 66 70 67 71 7 72 8 73 9 74
REMARK SMILES IDX 10 75 11 76 12 77 13 78 34 79 14 80 33 81 15 82 32 83 16 84
REMARK SMILES IDX 30 85 17 87 18 88 31 89 19 90 20 91 21 92 22 93 29 94 23 95
REMARK SMILES IDX 24 96 28 97 25 99 27 100 26 101
REMARK H PARENT 91 24 59 35 32 86 23 98
REMARK Flexibility Score: inf
ROOT
ATOM      1  O   UNL A   1      38.608  34.170  40.047  1.00  0.00    -0.374 OA
ENDROOT
BRANCH   1   2
ATOM      2  C   UNL A   1      38.895  35.543  39.807  1.00  0.00     0.202 C 
BRANCH   2   3
ATOM      3  C   UNL A   1      40.299  35.984  40.214  1.00  0.00     0.261 C 
BRANCH   3   4
ATOM      4  O   UNL A   1      40.826  36.939  39.287  1.00  0.00    -0.460 OA
BRANCH   4   5
ATOM      5  C   UNL A   1      41.863  36.795  38.430  1.00  0.00     0.338 C 
ATOM      6  O   UNL A   1      42.789  37.601  38.534  1.00  0.00    -0.246 OA
BRANCH   5   7
ATOM      7  C   UNL A   1      41.948  35.777  37.323  1.00  0.00     0.060 A 
ATOM      8  C   UNL A   1      43.247  35.414  36.917  1.00  0.00     0.016 A 
ATOM      9  C   UNL A   1      40.881  35.226  36.607  1.00  0.00     0.016 A 
ATOM     10  C   UNL A   1      43.466  34.581  35.815  1.00  0.00     0.010 A 
ATOM     11  C   UNL A   1      41.087  34.398  35.505  1.00  0.00     0.010 A 
ATOM     12  C   UNL A   1      42.380  34.087  35.092  1.00  0.00    -0.014 A 
BRANCH  12  13
ATOM     13  C   UNL A   1      42.544  33.173  33.949  1.00  0.00     0.031 A 
ATOM     14  C   UNL A   1      42.721  31.703  34.173  1.00  0.00     0.074 A 
ATOM     15  C   UNL A   1      42.674  33.725  32.729  1.00  0.00     0.049 A 
ATOM     16  N   UNL A   1      42.923  30.762  33.292  1.00  0.00    -0.248 NA
ATOM     17  C   UNL A   1      42.678  31.225  35.566  1.00  0.00     0.031 C 
ATOM     18  C   UNL A   1      42.604  35.162  32.460  1.00  0.00     0.029 A 
ATOM     19  N   UNL A   1      42.940  33.164  31.509  1.00  0.00    -0.354 N 
ATOM     20  C   UNL A   1      43.014  29.578  34.014  1.00  0.00     0.074 A 
ATOM     21  C   UNL A   1      42.888  29.922  35.412  1.00  0.00     0.031 C 
ATOM     22  C   UNL A   1      42.861  35.375  31.161  1.00  0.00     0.029 A 
ATOM     23  C   UNL A   1      43.124  34.093  30.513  1.00  0.00     0.049 A 
ATOM     24  H   UNL A   1      42.995  32.193  31.361  1.00  0.00     0.167 HD
ATOM     25  C   UNL A   1      43.172  28.324  33.532  1.00  0.00     0.034 A 
ATOM     26  C   UNL A   1      43.480  33.928  29.222  1.00  0.00     0.034 A 
ATOM     27  C   UNL A   1      43.312  28.037  32.126  1.00  0.00     0.049 A 
ATOM     28  C   UNL A   1      43.625  32.523  28.705  1.00  0.00     0.074 A 
ATOM     29  C   UNL A   1      43.391  26.800  31.511  1.00  0.00     0.029 A 
ATOM     30  N   UNL A   1      43.406  28.991  31.122  1.00  0.00    -0.354 N 
ATOM     31  N   UNL A   1      43.549  31.394  29.372  1.00  0.00    -0.248 NA
ATOM     32  C   UNL A   1      43.864  32.350  27.266  1.00  0.00     0.031 C 
ATOM     33  C   UNL A   1      43.604  27.007  30.150  1.00  0.00     0.029 A 
ATOM     34  C   UNL A   1      43.574  28.371  29.897  1.00  0.00     0.049 A 
ATOM     35  H   UNL A   1      43.362  29.964  31.262  1.00  0.00     0.167 HD
ATOM     36  C   UNL A   1      43.697  30.380  28.434  1.00  0.00     0.074 A 
ATOM     37  C   UNL A   1      43.854  31.027  27.148  1.00  0.00     0.031 C 
ATOM     38  C   UNL A   1      43.700  29.037  28.622  1.00  0.00     0.034 A 
BRANCH  25  39
ATOM     39  C   UNL A   1      43.158  27.149  34.479  1.00  0.00     0.023 A 
ATOM     40  C   UNL A   1      44.370  26.572  34.911  1.00  0.00     0.031 A 
ATOM     41  C   UNL A   1      41.960  26.477  34.779  1.00  0.00     0.131 A 
ATOM     42  C   UNL A   1      44.358  25.332  35.565  1.00  0.00     0.055 A 
ATOM     43  C   UNL A   1      41.952  25.263  35.468  1.00  0.00     0.041 A 
ATOM     44  F   UNL A   1      40.779  26.980  34.384  1.00  0.00    -0.206 F 
ATOM     45  C   UNL A   1      43.155  24.677  35.848  1.00  0.00     0.022 A 
BRANCH  42  46
ATOM     46  S   UNL A   1      45.901  24.483  36.000  1.00  0.00     0.124 S 
ATOM     47  O   UNL A   1      46.803  25.604  36.251  1.00  0.00    -0.237 OA
ATOM     48  O   UNL A   1      45.507  23.723  37.182  1.00  0.00    -0.237 OA
ATOM     49  O   UNL A   1      46.213  23.693  34.813  1.00  0.00    -0.744 OA
ENDBRANCH  42  46
ENDBRANCH  25  39
BRANCH  26  50
ATOM     50  C   UNL A   1      43.631  35.137  28.363  1.00  0.00     0.023 A 
ATOM     51  C   UNL A   1      44.899  35.713  28.150  1.00  0.00     0.031 A 
ATOM     52  C   UNL A   1      42.506  35.822  27.879  1.00  0.00     0.131 A 
ATOM     53  C   UNL A   1      45.002  36.968  27.535  1.00  0.00     0.055 A 
ATOM     54  C   UNL A   1      42.618  37.040  27.205  1.00  0.00     0.041 A 
ATOM     55  F   UNL A   1      41.274  35.327  28.080  1.00  0.00    -0.206 F 
ATOM     56  C   UNL A   1      43.870  37.628  27.048  1.00  0.00     0.022 A 
BRANCH  53  57
ATOM     57  S   UNL A   1      46.585  37.857  27.495  1.00  0.00     0.124 S 
ATOM     58  O   UNL A   1      47.511  36.850  28.001  1.00  0.00    -0.237 OA
ATOM     59  O   UNL A   1      46.717  38.177  26.075  1.00  0.00    -0.237 OA
ATOM     60  O   UNL A   1      46.358  39.005  28.366  1.00  0.00    -0.744 OA
ENDBRANCH  53  57
ENDBRANCH  26  50
BRANCH  38  61
ATOM     61  C   UNL A   1      43.861  28.136  27.423  1.00  0.00     0.023 A 
ATOM     62  C   UNL A   1      45.152  27.862  26.932  1.00  0.00     0.031 A 
ATOM     63  C   UNL A   1      42.753  27.742  26.656  1.00  0.00     0.131 A 
ATOM     64  C   UNL A   1      45.304  27.272  25.673  1.00  0.00     0.055 A 
ATOM     65  C   UNL A   1      42.910  27.106  25.424  1.00  0.00     0.041 A 
ATOM     66  F   UNL A   1      41.505  27.994  27.081  1.00  0.00    -0.206 F 
ATOM     67  C   UNL A   1      44.190  26.887  24.919  1.00  0.00     0.022 A 
BRANCH  64  68
ATOM     68  S   UNL A   1      46.944  27.083  24.923  1.00  0.00     0.124 S 
ATOM     69  O   UNL A   1      47.004  28.240  24.032  1.00  0.00    -0.237 OA
ATOM     70  O   UNL A   1      47.823  27.147  26.088  1.00  0.00    -0.237 OA
ATOM     71  O   UNL A   1      46.880  25.789  24.253  1.00  0.00    -0.744 OA
ENDBRANCH  64  68
ENDBRANCH  38  61
ENDBRANCH  12  13
ENDBRANCH   5   7
ENDBRANCH   4   5
ENDBRANCH   3   4
ENDBRANCH   2   3
ENDBRANCH   1   2
BRANCH   1  72
ATOM     72  C   UNL A   1      38.829  33.275  38.953  1.00  0.00     0.202 C 
BRANCH  72  73
ATOM     73  C   UNL A   1      37.771  33.521  37.871  1.00  0.00     0.261 C 
BRANCH  73  74
ATOM     74  O   UNL A   1      38.057  32.701  36.724  1.00  0.00    -0.460 OA
BRANCH  74  75
ATOM     75  C   UNL A   1      37.302  32.956  35.624  1.00  0.00     0.338 C 
ATOM     76  O   UNL A   1      36.191  33.452  35.563  1.00  0.00    -0.246 OA
BRANCH  75  77
ATOM     77  C   UNL A   1      38.172  32.748  34.456  1.00  0.00     0.062 A 
ATOM     78  C   UNL A   1      38.264  33.725  33.457  1.00  0.00     0.016 A 
ATOM     79  C   UNL A   1      38.768  31.490  34.302  1.00  0.00     0.042 A 
ATOM     80  C   UNL A   1      38.921  33.426  32.269  1.00  0.00     0.017 A 
ATOM     81  C   UNL A   1      39.339  31.172  33.076  1.00  0.00     0.056 A 
ATOM     82  C   UNL A   1      39.421  32.135  32.073  1.00  0.00     0.064 A 
ATOM     83  N   UNL A   1      39.713  29.856  32.798  1.00  0.00    -0.307 N 
ATOM     84  C   UNL A   1      39.904  31.727  30.747  1.00  0.00     0.264 A 
ATOM     85  C   UNL A   1      39.958  29.404  31.530  1.00  0.00     0.328 A 
ATOM     86  H   UNL A   1      39.802  29.224  33.549  1.00  0.00     0.171 HD
ATOM     87  O   UNL A   1      40.210  32.581  29.920  1.00  0.00    -0.268 OA
ATOM     88  N   UNL A   1      39.936  30.357  30.521  1.00  0.00    -0.260 N 
ATOM     89  O   UNL A   1      40.131  28.203  31.335  1.00  0.00    -0.248 OA
BRANCH  88  90
ATOM     90  C   UNL A   1      39.933  29.902  29.140  1.00  0.00     0.136 C 
BRANCH  90  91
ATOM     91  C   UNL A   1      38.508  29.829  28.568  1.00  0.00     0.060 C 
BRANCH  91  92
ATOM     92  C   UNL A   1      37.378  30.230  29.482  1.00  0.00    -0.021 A 
ATOM     93  C   UNL A   1      36.779  29.400  30.413  1.00  0.00     0.087 A 
ATOM     94  C   UNL A   1      36.768  31.524  29.650  1.00  0.00     0.003 A 
ATOM     95  N   UNL A   1      35.967  30.156  31.213  1.00  0.00    -0.361 N 
ATOM     96  C   UNL A   1      35.923  31.451  30.761  1.00  0.00     0.046 A 
ATOM     97  C   UNL A   1      36.865  32.768  28.992  1.00  0.00     0.010 A 
ATOM     98  H   UNL A   1      35.481  29.818  31.999  1.00  0.00     0.166 HD
ATOM     99  C   UNL A   1      35.211  32.547  31.266  1.00  0.00     0.026 A 
ATOM    100  C   UNL A   1      36.081  33.844  29.431  1.00  0.00     0.001 A 
ATOM    101  C   UNL A   1      35.289  33.746  30.565  1.00  0.00     0.002 A 
ENDBRANCH  91  92
ENDBRANCH  90  91
ENDBRANCH  88  90
ENDBRANCH  75  77
ENDBRANCH  74  75
ENDBRANCH  73  74
ENDBRANCH  72  73
ENDBRANCH   1  72
TORSDOF 20
ENDMDL
MODEL 3
REMARK VINA RESULT:     -10.5      1.667      2.649
REMARK SMILES O=C(OCCOCCOC(=O)c1ccc2c(=O)n(CCc3c[nH]c4ccccc34)c(=O)[nH]c2c1)c1ccc(-c2c3nc(c(-c4cc(S(=O)(=O)[O-])ccc4F)c4ccc([nH]4)c(-c4cc(S(=O)(=O)[O-])ccc4F)c4nc(c(-c5cc(S(=O)(=O)[O-])ccc5F)c5ccc2[nH]5)C=C4)C=C3)cc1
REMARK SMILES IDX 6 1 5 2 4 3 3 4 2 5 1 6 35 7 36 8 97 9 37 10 96 11 38 12
REMARK SMILES IDX 39 13 40 14 90 15 41 16 95 17 89 18 91 19 42 20 94 21 88 22
REMARK SMILES IDX 87 23 43 25 75 26 55 27 74 28 56 29 59 30 73 31 92 32 57 33
REMARK SMILES IDX 58 34 72 36 93 37 60 38 44 39 45 40 53 41 46 42 52 43 54 44
REMARK SMILES IDX 51 45 47 46 48 47 49 48 50 49 76 50 77 51 85 52 78 53 84 54
REMARK SMILES IDX 86 55 83 56 79 57 80 58 81 59 82 60 61 61 62 62 70 63 63 64
REMARK SMILES IDX 69 65 71 66 68 67 64 68 65 69 66 70 67 71 7 72 8 73 9 74
REMARK SMILES IDX 10 75 11 76 12 77 13 78 34 79 14 80 33 81 15 82 32 83 16 84
REMARK SMILES IDX 30 85 17 87 18 88 31 89 19 90 20 91 21 92 22 93 29 94 23 95
REMARK SMILES IDX 24 96 28 97 25 99 27 100 26 101
REMARK H PARENT 91 24 59 35 32 86 23 98
REMARK Flexibility Score: inf
ROOT
ATOM      1  O   UNL A   1      34.882  32.576  27.621  1.00  0.00    -0.374 OA
ENDROOT
BRANCH   1   2
ATOM      2  C   UNL A   1      33.555  32.923  28.001  1.00  0.00     0.202 C 
BRANCH   2   3
ATOM      3  C   UNL A   1      33.285  34.424  28.080  1.00  0.00     0.261 C 
BRANCH   3   4
ATOM      4  O   UNL A   1      32.817  34.793  29.382  1.00  0.00    -0.460 OA
BRANCH   4   5
ATOM      5  C   UNL A   1      33.513  34.848  30.541  1.00  0.00     0.338 C 
ATOM      6  O   UNL A   1      33.132  35.664  31.382  1.00  0.00    -0.246 OA
BRANCH   5   7
ATOM      7  C   UNL A   1      34.746  34.044  30.860  1.00  0.00     0.060 A 
ATOM      8  C   UNL A   1      34.556  32.933  31.704  1.00  0.00     0.016 A 
ATOM      9  C   UNL A   1      36.058  34.334  30.476  1.00  0.00     0.016 A 
ATOM     10  C   UNL A   1      35.635  32.182  32.183  1.00  0.00     0.010 A 
ATOM     11  C   UNL A   1      37.141  33.595  30.950  1.00  0.00     0.010 A 
ATOM     12  C   UNL A   1      36.936  32.529  31.820  1.00  0.00    -0.014 A 
BRANCH  12  13
ATOM     13  C   UNL A   1      38.110  31.753  32.258  1.00  0.00     0.031 A 
ATOM     14  C   UNL A   1      38.839  32.124  33.513  1.00  0.00     0.074 A 
ATOM     15  C   UNL A   1      38.576  30.810  31.420  1.00  0.00     0.049 A 
ATOM     16  N   UNL A   1      39.912  31.584  34.022  1.00  0.00    -0.248 NA
ATOM     17  C   UNL A   1      38.304  33.254  34.292  1.00  0.00     0.031 C 
ATOM     18  C   UNL A   1      37.961  30.467  30.136  1.00  0.00     0.029 A 
ATOM     19  N   UNL A   1      39.686  30.011  31.487  1.00  0.00    -0.354 N 
ATOM     20  C   UNL A   1      40.175  32.291  35.190  1.00  0.00     0.074 A 
ATOM     21  C   UNL A   1      39.174  33.328  35.293  1.00  0.00     0.031 C 
ATOM     22  C   UNL A   1      38.724  29.555  29.518  1.00  0.00     0.029 A 
ATOM     23  C   UNL A   1      39.884  29.258  30.354  1.00  0.00     0.049 A 
ATOM     24  H   UNL A   1      40.282  29.980  32.269  1.00  0.00     0.167 HD
ATOM     25  C   UNL A   1      41.161  32.066  36.089  1.00  0.00     0.034 A 
ATOM     26  C   UNL A   1      40.897  28.432  30.023  1.00  0.00     0.034 A 
ATOM     27  C   UNL A   1      42.147  31.027  35.928  1.00  0.00     0.049 A 
ATOM     28  C   UNL A   1      41.967  28.180  31.050  1.00  0.00     0.074 A 
ATOM     29  C   UNL A   1      43.140  30.648  36.813  1.00  0.00     0.029 A 
ATOM     30  N   UNL A   1      42.275  30.214  34.810  1.00  0.00    -0.354 N 
ATOM     31  N   UNL A   1      42.117  28.742  32.228  1.00  0.00    -0.248 NA
ATOM     32  C   UNL A   1      42.982  27.166  30.739  1.00  0.00     0.031 C 
ATOM     33  C   UNL A   1      43.909  29.660  36.203  1.00  0.00     0.029 A 
ATOM     34  C   UNL A   1      43.348  29.358  34.970  1.00  0.00     0.049 A 
ATOM     35  H   UNL A   1      41.689  30.245  34.020  1.00  0.00     0.167 HD
ATOM     36  C   UNL A   1      43.219  28.129  32.811  1.00  0.00     0.074 A 
ATOM     37  C   UNL A   1      43.692  27.143  31.862  1.00  0.00     0.031 C 
ATOM     38  C   UNL A   1      43.785  28.361  34.021  1.00  0.00     0.034 A 
BRANCH  25  39
ATOM     39  C   UNL A   1      41.228  32.893  37.350  1.00  0.00     0.023 A 
ATOM     40  C   UNL A   1      40.390  32.589  38.443  1.00  0.00     0.031 A 
ATOM     41  C   UNL A   1      41.957  34.095  37.388  1.00  0.00     0.131 A 
ATOM     42  C   UNL A   1      40.259  33.504  39.495  1.00  0.00     0.055 A 
ATOM     43  C   UNL A   1      41.854  34.982  38.460  1.00  0.00     0.041 A 
ATOM     44  F   UNL A   1      42.764  34.435  36.370  1.00  0.00    -0.206 F 
ATOM     45  C   UNL A   1      40.988  34.697  39.511  1.00  0.00     0.022 A 
BRANCH  42  46
ATOM     46  S   UNL A   1      39.077  33.224  40.844  1.00  0.00     0.124 S 
ATOM     47  O   UNL A   1      39.939  33.293  42.021  1.00  0.00    -0.237 OA
ATOM     48  O   UNL A   1      38.156  34.344  40.679  1.00  0.00    -0.237 OA
ATOM     49  O   UNL A   1      38.526  31.903  40.557  1.00  0.00    -0.744 OA
ENDBRANCH  42  46
ENDBRANCH  25  39
BRANCH  26  50
ATOM     50  C   UNL A   1      40.860  27.755  28.696  1.00  0.00     0.023 A 
ATOM     51  C   UNL A   1      40.539  26.387  28.595  1.00  0.00     0.031 A 
ATOM     52  C   UNL A   1      41.299  28.415  27.537  1.00  0.00     0.131 A 
ATOM     53  C   UNL A   1      40.728  25.712  27.382  1.00  0.00     0.055 A 
ATOM     54  C   UNL A   1      41.421  27.754  26.313  1.00  0.00     0.041 A 
ATOM     55  F   UNL A   1      41.643  29.712  27.587  1.00  0.00    -0.206 F 
ATOM     56  C   UNL A   1      41.154  26.391  26.236  1.00  0.00     0.022 A 
BRANCH  53  57
ATOM     57  S   UNL A   1      40.588  23.903  27.293  1.00  0.00     0.124 S 
ATOM     58  O   UNL A   1      41.348  23.599  26.085  1.00  0.00    -0.237 OA
ATOM     59  O   UNL A   1      41.211  23.490  28.550  1.00  0.00    -0.237 OA
ATOM     60  O   UNL A   1      39.150  23.672  27.215  1.00  0.00    -0.744 OA
ENDBRANCH  53  57
ENDBRANCH  26  50
BRANCH  38  61
ATOM     61  C   UNL A   1      44.979  27.538  34.434  1.00  0.00     0.023 A 
ATOM     62  C   UNL A   1      44.781  26.336  35.140  1.00  0.00     0.031 A 
ATOM     63  C   UNL A   1      46.284  28.046  34.327  1.00  0.00     0.131 A 
ATOM     64  C   UNL A   1      45.864  25.714  35.769  1.00  0.00     0.055 A 
ATOM     65  C   UNL A   1      47.369  27.394  34.913  1.00  0.00     0.041 A 
ATOM     66  F   UNL A   1      46.517  29.195  33.674  1.00  0.00    -0.206 F 
ATOM     67  C   UNL A   1      47.158  26.234  35.655  1.00  0.00     0.022 A 
BRANCH  64  68
ATOM     68  S   UNL A   1      45.617  24.277  36.848  1.00  0.00     0.124 S 
ATOM     69  O   UNL A   1      45.265  24.908  38.117  1.00  0.00    -0.237 OA
ATOM     70  O   UNL A   1      44.526  23.575  36.177  1.00  0.00    -0.237 OA
ATOM     71  O   UNL A   1      46.908  23.597  36.832  1.00  0.00    -0.744 OA
ENDBRANCH  64  68
ENDBRANCH  38  61
ENDBRANCH  12  13
ENDBRANCH   5   7
ENDBRANCH   4   5
ENDBRANCH   3   4
ENDBRANCH   2   3
ENDBRANCH   1   2
BRANCH   1  72
ATOM     72  C   UNL A   1      35.202  31.181  27.636  1.00  0.00     0.202 C 
BRANCH  72  73
ATOM     73  C   UNL A   1      33.910  30.361  27.540  1.00  0.00     0.261 C 
BRANCH  73  74
ATOM     74  O   UNL A   1      33.512  30.252  26.162  1.00  0.00    -0.460 OA
BRANCH  74  75
ATOM     75  C   UNL A   1      32.393  29.515  25.937  1.00  0.00     0.338 C 
ATOM     76  O   UNL A   1      31.325  29.878  25.477  1.00  0.00    -0.246 OA
BRANCH  75  77
ATOM     77  C   UNL A   1      32.769  28.105  26.122  1.00  0.00     0.062 A 
ATOM     78  C   UNL A   1      33.930  27.597  25.527  1.00  0.00     0.016 A 
ATOM     79  C   UNL A   1      31.854  27.264  26.769  1.00  0.00     0.042 A 
ATOM     80  C   UNL A   1      34.157  26.225  25.538  1.00  0.00     0.017 A 
ATOM     81  C   UNL A   1      32.045  25.891  26.692  1.00  0.00     0.056 A 
ATOM     82  C   UNL A   1      33.191  25.378  26.088  1.00  0.00     0.064 A 
ATOM     83  N   UNL A   1      31.033  25.020  27.099  1.00  0.00    -0.307 N 
ATOM     84  C   UNL A   1      33.294  23.924  25.901  1.00  0.00     0.264 A 
ATOM     85  C   UNL A   1      31.005  23.697  26.748  1.00  0.00     0.328 A 
ATOM     86  H   UNL A   1      30.307  25.373  27.663  1.00  0.00     0.171 HD
ATOM     87  O   UNL A   1      34.373  23.424  25.596  1.00  0.00    -0.268 OA
ATOM     88  N   UNL A   1      32.108  23.219  26.055  1.00  0.00    -0.260 N 
ATOM     89  O   UNL A   1      30.011  23.021  27.007  1.00  0.00    -0.248 OA
BRANCH  88  90
ATOM     90  C   UNL A   1      32.021  21.906  25.438  1.00  0.00     0.136 C 
BRANCH  90  91
ATOM     91  C   UNL A   1      31.464  21.985  24.007  1.00  0.00     0.060 C 
BRANCH  91  92
ATOM     92  C   UNL A   1      31.996  23.083  23.121  1.00  0.00    -0.021 A 
ATOM     93  C   UNL A   1      33.015  22.932  22.198  1.00  0.00     0.087 A 
ATOM     94  C   UNL A   1      31.523  24.436  22.977  1.00  0.00     0.003 A 
ATOM     95  N   UNL A   1      33.071  24.057  21.422  1.00  0.00    -0.361 N 
ATOM     96  C   UNL A   1      32.188  24.999  21.884  1.00  0.00     0.046 A 
ATOM     97  C   UNL A   1      30.573  25.238  23.641  1.00  0.00     0.010 A 
ATOM     98  H   UNL A   1      33.663  24.174  20.644  1.00  0.00     0.166 HD
ATOM     99  C   UNL A   1      31.930  26.290  21.403  1.00  0.00     0.026 A 
ATOM    100  C   UNL A   1      30.380  26.564  23.228  1.00  0.00     0.001 A 
ATOM    101  C   UNL A   1      31.024  27.074  22.111  1.00  0.00     0.002 A 
ENDBRANCH  91  92
ENDBRANCH  90  91
ENDBRANCH  88  90
ENDBRANCH  75  77
ENDBRANCH  74  75
ENDBRANCH  73  74
ENDBRANCH  72  73
ENDBRANCH   1  72
TORSDOF 20
ENDMDL
