MODEL 1
REMARK VINA RESULT:     -11.4      0.000      0.000
REMARK SMILES C[C@H](Cc1cccc2c1OC(C)(C)C2)C(=O)OCCOCCOC(=O)c1ccc(-c2c3nc(c(-c4cc(S(=O)(=O)[O-])ccc4F)c4ccc([nH]4)c(-c4cc(S(=O)(=O)[O-])ccc4F)c4nc(c(-c5cc(S(=O)(=O)[O-])ccc5F)c5ccc2[nH]5)C=C4)C=C3)cc1
REMARK SMILES IDX 21 1 20 2 19 3 18 4 17 5 15 6 16 7 2 8 1 9 3 10 4 11 5 12
REMARK SMILES IDX 9 13 6 14 8 15 10 16 7 17 14 18 11 19 12 20 13 21 22 22
REMARK SMILES IDX 23 23 24 24 25 25 26 26 27 27 88 28 28 29 87 30 29 31 30 32
REMARK SMILES IDX 31 33 81 34 32 35 86 36 80 37 82 38 33 39 85 40 79 41 78 42
REMARK SMILES IDX 34 44 66 45 46 46 65 47 47 48 50 49 64 50 83 51 48 52 49 53
REMARK SMILES IDX 63 55 84 56 51 57 35 58 36 59 44 60 37 61 43 62 45 63 42 64
REMARK SMILES IDX 38 65 39 66 40 67 41 68 67 69 68 70 76 71 69 72 75 73 77 74
REMARK SMILES IDX 74 75 70 76 71 77 72 78 73 79 52 80 53 81 61 82 54 83 60 84
REMARK SMILES IDX 62 85 59 86 55 87 56 88 57 89 58 90
REMARK H PARENT 82 43 50 54
REMARK Flexibility Score: inf
ROOT
ATOM      1  C   UNL A   1      35.719  21.394  25.665  1.00  0.00     0.202 C 
ENDROOT
BRANCH   1   2
ATOM      2  O   UNL A   1      34.420  20.808  25.759  1.00  0.00    -0.374 OA
BRANCH   2   3
ATOM      3  C   UNL A   1      33.470  21.449  26.613  1.00  0.00     0.202 C 
BRANCH   3   4
ATOM      4  C   UNL A   1      33.685  22.948  26.830  1.00  0.00     0.261 C 
BRANCH   4   5
ATOM      5  O   UNL A   1      32.938  23.712  25.873  1.00  0.00    -0.463 OA
BRANCH   5   6
ATOM      6  C   UNL A   1      31.647  23.982  26.200  1.00  0.00     0.309 C 
ATOM      7  O   UNL A   1      31.230  24.086  27.349  1.00  0.00    -0.252 OA
BRANCH   6   8
ATOM      8  C   UNL A   1      30.780  24.286  24.982  1.00  0.00     0.100 C 
ATOM      9  C   UNL A   1      31.629  24.380  23.712  1.00  0.00     0.020 C 
BRANCH   8  10
ATOM     10  C   UNL A   1      29.751  25.427  25.112  1.00  0.00     0.054 C 
BRANCH  10  11
ATOM     11  C   UNL A   1      29.990  26.793  24.520  1.00  0.00    -0.005 A 
ATOM     12  C   UNL A   1      29.120  27.238  23.504  1.00  0.00     0.007 A 
ATOM     13  C   UNL A   1      30.958  27.692  24.935  1.00  0.00     0.126 A 
ATOM     14  C   UNL A   1      29.242  28.517  22.938  1.00  0.00     0.001 A 
ATOM     15  C   UNL A   1      31.081  28.958  24.383  1.00  0.00    -0.002 A 
ATOM     16  O   UNL A   1      31.872  27.447  25.920  1.00  0.00    -0.487 OA
ATOM     17  C   UNL A   1      30.231  29.392  23.383  1.00  0.00     0.008 A 
ATOM     18  C   UNL A   1      32.174  29.706  25.049  1.00  0.00     0.087 C 
ATOM     19  C   UNL A   1      32.731  28.614  25.986  1.00  0.00     0.108 C 
ATOM     20  C   UNL A   1      34.130  28.157  25.565  1.00  0.00     0.057 C 
ATOM     21  C   UNL A   1      32.743  29.079  27.443  1.00  0.00     0.057 C 
ENDBRANCH  10  11
ENDBRANCH   8  10
ENDBRANCH   6   8
ENDBRANCH   5   6
ENDBRANCH   4   5
ENDBRANCH   3   4
ENDBRANCH   2   3
ENDBRANCH   1   2
BRANCH   1  22
ATOM     22  C   UNL A   1      36.840  20.505  25.107  1.00  0.00     0.261 C 
BRANCH  22  23
ATOM     23  O   UNL A   1      38.076  21.207  24.866  1.00  0.00    -0.460 OA
BRANCH  23  24
ATOM     24  C   UNL A   1      39.050  20.953  25.776  1.00  0.00     0.338 C 
ATOM     25  O   UNL A   1      39.606  19.877  25.963  1.00  0.00    -0.246 OA
BRANCH  24  26
ATOM     26  C   UNL A   1      39.488  22.172  26.479  1.00  0.00     0.060 A 
ATOM     27  C   UNL A   1      38.894  23.383  26.100  1.00  0.00     0.016 A 
ATOM     28  C   UNL A   1      40.590  22.167  27.338  1.00  0.00     0.016 A 
ATOM     29  C   UNL A   1      39.444  24.595  26.520  1.00  0.00     0.010 A 
ATOM     30  C   UNL A   1      41.144  23.388  27.754  1.00  0.00     0.010 A 
ATOM     31  C   UNL A   1      40.602  24.607  27.309  1.00  0.00    -0.014 A 
BRANCH  31  32
ATOM     32  C   UNL A   1      41.321  25.893  27.522  1.00  0.00     0.031 A 
ATOM     33  C   UNL A   1      40.657  26.985  28.323  1.00  0.00     0.074 A 
ATOM     34  C   UNL A   1      42.573  26.069  27.063  1.00  0.00     0.049 A 
ATOM     35  N   UNL A   1      41.105  28.173  28.642  1.00  0.00    -0.248 NA
ATOM     36  C   UNL A   1      39.307  26.696  28.829  1.00  0.00     0.031 C 
ATOM     37  C   UNL A   1      43.343  25.076  26.315  1.00  0.00     0.029 A 
ATOM     38  N   UNL A   1      43.417  27.147  27.161  1.00  0.00    -0.354 N 
ATOM     39  C   UNL A   1      40.097  28.774  29.390  1.00  0.00     0.074 A 
ATOM     40  C   UNL A   1      38.998  27.830  29.439  1.00  0.00     0.031 C 
ATOM     41  C   UNL A   1      44.547  25.595  26.019  1.00  0.00     0.029 A 
ATOM     42  C   UNL A   1      44.623  26.963  26.528  1.00  0.00     0.049 A 
ATOM     43  H   UNL A   1      43.181  27.974  27.640  1.00  0.00     0.167 HD
ATOM     44  C   UNL A   1      40.087  29.992  29.988  1.00  0.00     0.034 A 
ATOM     45  C   UNL A   1      45.663  27.806  26.365  1.00  0.00     0.034 A 
ATOM     46  C   UNL A   1      41.181  30.933  29.926  1.00  0.00     0.049 A 
ATOM     47  C   UNL A   1      45.600  29.189  26.969  1.00  0.00     0.074 A 
ATOM     48  C   UNL A   1      41.277  32.185  30.510  1.00  0.00     0.029 A 
ATOM     49  N   UNL A   1      42.364  30.732  29.228  1.00  0.00    -0.354 N 
ATOM     50  N   UNL A   1      44.642  29.738  27.679  1.00  0.00    -0.248 NA
ATOM     51  C   UNL A   1      46.764  30.058  26.755  1.00  0.00     0.031 C 
ATOM     52  C   UNL A   1      42.488  32.766  30.112  1.00  0.00     0.029 A 
ATOM     53  C   UNL A   1      43.180  31.850  29.339  1.00  0.00     0.049 A 
ATOM     54  H   UNL A   1      42.592  29.916  28.728  1.00  0.00     0.167 HD
ATOM     55  C   UNL A   1      45.104  31.008  28.020  1.00  0.00     0.074 A 
ATOM     56  C   UNL A   1      46.426  31.137  27.446  1.00  0.00     0.031 C 
ATOM     57  C   UNL A   1      44.492  31.977  28.749  1.00  0.00     0.034 A 
BRANCH  44  58
ATOM     58  C   UNL A   1      38.829  30.392  30.721  1.00  0.00     0.023 A 
ATOM     59  C   UNL A   1      37.751  31.006  30.060  1.00  0.00     0.031 A 
ATOM     60  C   UNL A   1      38.718  30.181  32.106  1.00  0.00     0.131 A 
ATOM     61  C   UNL A   1      36.640  31.450  30.795  1.00  0.00     0.055 A 
ATOM     62  C   UNL A   1      37.579  30.559  32.821  1.00  0.00     0.041 A 
ATOM     63  F   UNL A   1      39.724  29.617  32.794  1.00  0.00    -0.206 F 
ATOM     64  C   UNL A   1      36.537  31.210  32.167  1.00  0.00     0.022 A 
BRANCH  61  65
ATOM     65  S   UNL A   1      35.391  32.464  29.956  1.00  0.00     0.124 S 
ATOM     66  O   UNL A   1      36.179  33.626  29.550  1.00  0.00    -0.237 OA
ATOM     67  O   UNL A   1      34.943  31.588  28.881  1.00  0.00    -0.237 OA
ATOM     68  O   UNL A   1      34.404  32.726  31.002  1.00  0.00    -0.744 OA
ENDBRANCH  61  65
ENDBRANCH  44  58
BRANCH  45  69
ATOM     69  C   UNL A   1      46.846  27.392  25.560  1.00  0.00     0.023 A 
ATOM     70  C   UNL A   1      47.023  27.839  24.242  1.00  0.00     0.031 A 
ATOM     71  C   UNL A   1      47.791  26.494  26.087  1.00  0.00     0.131 A 
ATOM     72  C   UNL A   1      48.097  27.354  23.479  1.00  0.00     0.055 A 
ATOM     73  C   UNL A   1      48.882  26.049  25.340  1.00  0.00     0.041 A 
ATOM     74  F   UNL A   1      47.668  26.039  27.345  1.00  0.00    -0.206 F 
ATOM     75  C   UNL A   1      49.033  26.470  24.023  1.00  0.00     0.022 A 
BRANCH  72  76
ATOM     76  S   UNL A   1      48.213  27.837  21.734  1.00  0.00     0.124 S 
ATOM     77  O   UNL A   1      46.869  28.338  21.474  1.00  0.00    -0.237 OA
ATOM     78  O   UNL A   1      49.277  28.835  21.769  1.00  0.00    -0.237 OA
ATOM     79  O   UNL A   1      48.556  26.588  21.058  1.00  0.00    -0.744 OA
ENDBRANCH  72  76
ENDBRANCH  45  69
BRANCH  57  80
ATOM     80  C   UNL A   1      45.273  33.244  28.998  1.00  0.00     0.023 A 
ATOM     81  C   UNL A   1      45.236  34.327  28.101  1.00  0.00     0.031 A 
ATOM     82  C   UNL A   1      46.084  33.361  30.142  1.00  0.00     0.131 A 
ATOM     83  C   UNL A   1      46.037  35.456  28.335  1.00  0.00     0.055 A 
ATOM     84  C   UNL A   1      46.836  34.509  30.397  1.00  0.00     0.041 A 
ATOM     85  F   UNL A   1      46.158  32.357  31.032  1.00  0.00    -0.206 F 
ATOM     86  C   UNL A   1      46.826  35.559  29.484  1.00  0.00     0.022 A 
BRANCH  83  87
ATOM     87  S   UNL A   1      46.103  36.756  27.071  1.00  0.00     0.124 S 
ATOM     88  O   UNL A   1      47.149  37.631  27.587  1.00  0.00    -0.237 OA
ATOM     89  O   UNL A   1      46.439  36.002  25.867  1.00  0.00    -0.237 OA
ATOM     90  O   UNL A   1      44.756  37.322  27.088  1.00  0.00    -0.744 OA
ENDBRANCH  83  87
ENDBRANCH  57  80
ENDBRANCH  31  32
ENDBRANCH  24  26
ENDBRANCH  23  24
ENDBRANCH  22  23
ENDBRANCH   1  22
TORSDOF 19
ENDMDL
MODEL 2
REMARK VINA RESULT:     -11.4      5.292      8.118
REMARK SMILES C[C@H](Cc1cccc2c1OC(C)(C)C2)C(=O)OCCOCCOC(=O)c1ccc(-c2c3nc(c(-c4cc(S(=O)(=O)[O-])ccc4F)c4ccc([nH]4)c(-c4cc(S(=O)(=O)[O-])ccc4F)c4nc(c(-c5cc(S(=O)(=O)[O-])ccc5F)c5ccc2[nH]5)C=C4)C=C3)cc1
REMARK SMILES IDX 21 1 20 2 19 3 18 4 17 5 15 6 16 7 2 8 1 9 3 10 4 11 5 12
REMARK SMILES IDX 9 13 6 14 8 15 10 16 7 17 14 18 11 19 12 20 13 21 22 22
REMARK SMILES IDX 23 23 24 24 25 25 26 26 27 27 88 28 28 29 87 30 29 31 30 32
REMARK SMILES IDX 31 33 81 34 32 35 86 36 80 37 82 38 33 39 85 40 79 41 78 42
REMARK SMILES IDX 34 44 66 45 46 46 65 47 47 48 50 49 64 50 83 51 48 52 49 53
REMARK SMILES IDX 63 55 84 56 51 57 35 58 36 59 44 60 37 61 43 62 45 63 42 64
REMARK SMILES IDX 38 65 39 66 40 67 41 68 67 69 68 70 76 71 69 72 75 73 77 74
REMARK SMILES IDX 74 75 70 76 71 77 72 78 73 79 52 80 53 81 61 82 54 83 60 84
REMARK SMILES IDX 62 85 59 86 55 87 56 88 57 89 58 90
REMARK H PARENT 82 43 50 54
REMARK Flexibility Score: inf
ROOT
ATOM      1  C   UNL A   1      31.006  31.835  25.909  1.00  0.00     0.202 C 
ENDROOT
BRANCH   1   2
ATOM      2  O   UNL A   1      31.381  30.538  25.443  1.00  0.00    -0.374 OA
BRANCH   2   3
ATOM      3  C   UNL A   1      32.642  30.023  25.877  1.00  0.00     0.202 C 
BRANCH   3   4
ATOM      4  C   UNL A   1      32.834  28.516  25.697  1.00  0.00     0.261 C 
BRANCH   4   5
ATOM      5  O   UNL A   1      33.971  28.243  24.867  1.00  0.00    -0.463 OA
BRANCH   5   6
ATOM      6  C   UNL A   1      33.760  28.298  23.526  1.00  0.00     0.309 C 
ATOM      7  O   UNL A   1      34.592  28.672  22.707  1.00  0.00    -0.252 OA
BRANCH   6   8
ATOM      8  C   UNL A   1      32.413  27.710  23.117  1.00  0.00     0.100 C 
ATOM      9  C   UNL A   1      32.589  26.344  22.447  1.00  0.00     0.020 C 
BRANCH   8  10
ATOM     10  C   UNL A   1      31.436  28.635  22.363  1.00  0.00     0.054 C 
BRANCH  10  11
ATOM     11  C   UNL A   1      29.969  28.702  22.705  1.00  0.00    -0.005 A 
ATOM     12  C   UNL A   1      29.353  27.542  23.218  1.00  0.00     0.007 A 
ATOM     13  C   UNL A   1      29.174  29.833  22.624  1.00  0.00     0.126 A 
ATOM     14  C   UNL A   1      28.005  27.536  23.611  1.00  0.00     0.001 A 
ATOM     15  C   UNL A   1      27.844  29.834  23.014  1.00  0.00    -0.002 A 
ATOM     16  O   UNL A   1      29.602  31.050  22.175  1.00  0.00    -0.487 OA
ATOM     17  C   UNL A   1      27.239  28.695  23.512  1.00  0.00     0.008 A 
ATOM     18  C   UNL A   1      27.261  31.188  22.852  1.00  0.00     0.087 C 
ATOM     19  C   UNL A   1      28.445  31.926  22.191  1.00  0.00     0.108 C 
ATOM     20  C   UNL A   1      28.150  32.293  20.735  1.00  0.00     0.057 C 
ATOM     21  C   UNL A   1      28.839  33.173  22.982  1.00  0.00     0.057 C 
ENDBRANCH  10  11
ENDBRANCH   8  10
ENDBRANCH   6   8
ENDBRANCH   5   6
ENDBRANCH   4   5
ENDBRANCH   3   4
ENDBRANCH   2   3
ENDBRANCH   1   2
BRANCH   1  22
ATOM     22  C   UNL A   1      31.664  32.321  27.209  1.00  0.00     0.261 C 
BRANCH  22  23
ATOM     23  O   UNL A   1      32.679  33.325  27.010  1.00  0.00    -0.460 OA
BRANCH  23  24
ATOM     24  C   UNL A   1      33.358  33.664  28.134  1.00  0.00     0.338 C 
ATOM     25  O   UNL A   1      32.966  34.414  29.021  1.00  0.00    -0.246 OA
BRANCH  24  26
ATOM     26  C   UNL A   1      34.627  32.925  28.264  1.00  0.00     0.060 A 
ATOM     27  C   UNL A   1      34.553  31.583  28.656  1.00  0.00     0.016 A 
ATOM     28  C   UNL A   1      35.863  33.574  28.205  1.00  0.00     0.016 A 
ATOM     29  C   UNL A   1      35.704  30.905  29.060  1.00  0.00     0.010 A 
ATOM     30  C   UNL A   1      37.018  32.893  28.618  1.00  0.00     0.010 A 
ATOM     31  C   UNL A   1      36.937  31.571  29.092  1.00  0.00    -0.014 A 
BRANCH  31  32
ATOM     32  C   UNL A   1      38.093  30.924  29.771  1.00  0.00     0.031 A 
ATOM     33  C   UNL A   1      38.385  31.260  31.212  1.00  0.00     0.074 A 
ATOM     34  C   UNL A   1      38.840  30.003  29.135  1.00  0.00     0.049 A 
ATOM     35  N   UNL A   1      39.328  30.806  31.999  1.00  0.00    -0.248 NA
ATOM     36  C   UNL A   1      37.494  32.242  31.847  1.00  0.00     0.031 C 
ATOM     37  C   UNL A   1      38.634  29.556  27.759  1.00  0.00     0.029 A 
ATOM     38  N   UNL A   1      39.922  29.278  29.568  1.00  0.00    -0.354 N 
ATOM     39  C   UNL A   1      39.143  31.439  33.224  1.00  0.00     0.074 A 
ATOM     40  C   UNL A   1      38.021  32.342  33.059  1.00  0.00     0.031 C 
ATOM     41  C   UNL A   1      39.565  28.633  27.459  1.00  0.00     0.029 A 
ATOM     42  C   UNL A   1      40.448  28.445  28.609  1.00  0.00     0.049 A 
ATOM     43  H   UNL A   1      40.286  29.346  30.480  1.00  0.00     0.167 HD
ATOM     44  C   UNL A   1      39.834  31.280  34.380  1.00  0.00     0.034 A 
ATOM     45  C   UNL A   1      41.527  27.638  28.648  1.00  0.00     0.034 A 
ATOM     46  C   UNL A   1      40.958  30.388  34.535  1.00  0.00     0.049 A 
ATOM     47  C   UNL A   1      42.333  27.536  29.921  1.00  0.00     0.074 A 
ATOM     48  C   UNL A   1      41.716  30.143  35.668  1.00  0.00     0.029 A 
ATOM     49  N   UNL A   1      41.497  29.603  33.524  1.00  0.00    -0.354 N 
ATOM     50  N   UNL A   1      42.140  28.137  31.072  1.00  0.00    -0.248 NA
ATOM     51  C   UNL A   1      43.496  26.640  29.898  1.00  0.00     0.031 C 
ATOM     52  C   UNL A   1      42.750  29.262  35.326  1.00  0.00     0.029 A 
ATOM     53  C   UNL A   1      42.596  28.901  33.998  1.00  0.00     0.049 A 
ATOM     54  H   UNL A   1      41.149  29.552  32.605  1.00  0.00     0.167 HD
ATOM     55  C   UNL A   1      43.143  27.667  31.918  1.00  0.00     0.074 A 
ATOM     56  C   UNL A   1      43.929  26.727  31.147  1.00  0.00     0.031 C 
ATOM     57  C   UNL A   1      43.386  27.978  33.217  1.00  0.00     0.034 A 
BRANCH  44  58
ATOM     58  C   UNL A   1      39.418  32.132  35.556  1.00  0.00     0.023 A 
ATOM     59  C   UNL A   1      38.681  31.602  36.630  1.00  0.00     0.031 A 
ATOM     60  C   UNL A   1      39.741  33.499  35.590  1.00  0.00     0.131 A 
ATOM     61  C   UNL A   1      38.232  32.448  37.656  1.00  0.00     0.055 A 
ATOM     62  C   UNL A   1      39.354  34.322  36.650  1.00  0.00     0.041 A 
ATOM     63  F   UNL A   1      40.426  34.065  34.584  1.00  0.00    -0.206 F 
ATOM     64  C   UNL A   1      38.583  33.800  37.685  1.00  0.00     0.022 A 
BRANCH  61  65
ATOM     65  S   UNL A   1      37.070  31.788  38.883  1.00  0.00     0.124 S 
ATOM     66  O   UNL A   1      36.926  30.404  38.438  1.00  0.00    -0.237 OA
ATOM     67  O   UNL A   1      37.790  31.985  40.136  1.00  0.00    -0.237 OA
ATOM     68  O   UNL A   1      35.880  32.617  38.709  1.00  0.00    -0.744 OA
ENDBRANCH  61  65
ENDBRANCH  44  58
BRANCH  45  69
ATOM     69  C   UNL A   1      41.944  26.883  27.433  1.00  0.00     0.023 A 
ATOM     70  C   UNL A   1      41.763  25.495  27.341  1.00  0.00     0.031 A 
ATOM     71  C   UNL A   1      42.584  27.540  26.367  1.00  0.00     0.131 A 
ATOM     72  C   UNL A   1      42.254  24.800  26.224  1.00  0.00     0.055 A 
ATOM     73  C   UNL A   1      43.031  26.852  25.239  1.00  0.00     0.041 A 
ATOM     74  F   UNL A   1      42.779  28.868  26.407  1.00  0.00    -0.206 F 
ATOM     75  C   UNL A   1      42.878  25.471  25.169  1.00  0.00     0.022 A 
BRANCH  72  76
ATOM     76  S   UNL A   1      42.134  22.990  26.203  1.00  0.00     0.124 S 
ATOM     77  O   UNL A   1      40.694  22.786  26.315  1.00  0.00    -0.237 OA
ATOM     78  O   UNL A   1      42.732  22.663  24.913  1.00  0.00    -0.237 OA
ATOM     79  O   UNL A   1      42.915  22.585  27.370  1.00  0.00    -0.744 OA
ENDBRANCH  72  76
ENDBRANCH  45  69
BRANCH  57  80
ATOM     80  C   UNL A   1      44.528  27.257  33.893  1.00  0.00     0.023 A 
ATOM     81  C   UNL A   1      44.322  26.093  34.655  1.00  0.00     0.031 A 
ATOM     82  C   UNL A   1      45.839  27.757  33.789  1.00  0.00     0.131 A 
ATOM     83  C   UNL A   1      45.401  25.499  35.327  1.00  0.00     0.055 A 
ATOM     84  C   UNL A   1      46.916  27.130  34.416  1.00  0.00     0.041 A 
ATOM     85  F   UNL A   1      46.092  28.866  33.075  1.00  0.00    -0.206 F 
ATOM     86  C   UNL A   1      46.699  26.002  35.202  1.00  0.00     0.022 A 
BRANCH  83  87
ATOM     87  S   UNL A   1      45.073  24.107  36.444  1.00  0.00     0.124 S 
ATOM     88  O   UNL A   1      44.298  24.742  37.504  1.00  0.00    -0.237 OA
ATOM     89  O   UNL A   1      44.340  23.183  35.584  1.00  0.00    -0.237 OA
ATOM     90  O   UNL A   1      46.408  23.658  36.836  1.00  0.00    -0.744 OA
ENDBRANCH  83  87
ENDBRANCH  57  80
ENDBRANCH  31  32
ENDBRANCH  24  26
ENDBRANCH  23  24
ENDBRANCH  22  23
ENDBRANCH   1  22
TORSDOF 19
ENDMDL
MODEL 3
REMARK VINA RESULT:     -11.2      4.998      7.903
REMARK SMILES C[C@H](Cc1cccc2c1OC(C)(C)C2)C(=O)OCCOCCOC(=O)c1ccc(-c2c3nc(c(-c4cc(S(=O)(=O)[O-])ccc4F)c4ccc([nH]4)c(-c4cc(S(=O)(=O)[O-])ccc4F)c4nc(c(-c5cc(S(=O)(=O)[O-])ccc5F)c5ccc2[nH]5)C=C4)C=C3)cc1
REMARK SMILES IDX 21 1 20 2 19 3 18 4 17 5 15 6 16 7 2 8 1 9 3 10 4 11 5 12
REMARK SMILES IDX 9 13 6 14 8 15 10 16 7 17 14 18 11 19 12 20 13 21 22 22
REMARK SMILES IDX 23 23 24 24 25 25 26 26 27 27 88 28 28 29 87 30 29 31 30 32
REMARK SMILES IDX 31 33 81 34 32 35 86 36 80 37 82 38 33 39 85 40 79 41 78 42
REMARK SMILES IDX 34 44 66 45 46 46 65 47 47 48 50 49 64 50 83 51 48 52 49 53
REMARK SMILES IDX 63 55 84 56 51 57 35 58 36 59 44 60 37 61 43 62 45 63 42 64
REMARK SMILES IDX 38 65 39 66 40 67 41 68 67 69 68 70 76 71 69 72 75 73 77 74
REMARK SMILES IDX 74 75 70 76 71 77 72 78 73 79 52 80 53 81 61 82 54 83 60 84
REMARK SMILES IDX 62 85 59 86 55 87 56 88 57 89 58 90
REMARK H PARENT 82 43 50 54
REMARK Flexibility Score: inf
ROOT
ATOM      1  C   UNL A   1      31.290  31.646  26.524  1.00  0.00     0.202 C 
ENDROOT
BRANCH   1   2
ATOM      2  O   UNL A   1      31.989  30.468  26.928  1.00  0.00    -0.374 OA
BRANCH   2   3
ATOM      3  C   UNL A   1      33.171  30.123  26.203  1.00  0.00     0.202 C 
BRANCH   3   4
ATOM      4  C   UNL A   1      33.343  28.634  25.895  1.00  0.00     0.261 C 
BRANCH   4   5
ATOM      5  O   UNL A   1      33.602  28.430  24.499  1.00  0.00    -0.463 OA
BRANCH   5   6
ATOM      6  C   UNL A   1      33.496  27.151  24.052  1.00  0.00     0.309 C 
ATOM      7  O   UNL A   1      34.105  26.198  24.526  1.00  0.00    -0.252 OA
BRANCH   6   8
ATOM      8  C   UNL A   1      32.426  26.989  22.978  1.00  0.00     0.100 C 
ATOM      9  C   UNL A   1      32.994  26.298  21.735  1.00  0.00     0.020 C 
BRANCH   8  10
ATOM     10  C   UNL A   1      31.562  28.222  22.646  1.00  0.00     0.054 C 
BRANCH  10  11
ATOM     11  C   UNL A   1      30.075  28.252  22.897  1.00  0.00    -0.005 A 
ATOM     12  C   UNL A   1      29.464  27.085  23.399  1.00  0.00     0.007 A 
ATOM     13  C   UNL A   1      29.254  29.356  22.740  1.00  0.00     0.126 A 
ATOM     14  C   UNL A   1      28.095  27.046  23.709  1.00  0.00     0.001 A 
ATOM     15  C   UNL A   1      27.903  29.325  23.048  1.00  0.00    -0.002 A 
ATOM     16  O   UNL A   1      29.673  30.574  22.288  1.00  0.00    -0.487 OA
ATOM     17  C   UNL A   1      27.302  28.179  23.536  1.00  0.00     0.008 A 
ATOM     18  C   UNL A   1      27.292  30.655  22.818  1.00  0.00     0.087 C 
ATOM     19  C   UNL A   1      28.492  31.414  22.213  1.00  0.00     0.108 C 
ATOM     20  C   UNL A   1      28.276  31.740  20.732  1.00  0.00     0.057 C 
ATOM     21  C   UNL A   1      28.799  32.691  22.995  1.00  0.00     0.057 C 
ENDBRANCH  10  11
ENDBRANCH   8  10
ENDBRANCH   6   8
ENDBRANCH   5   6
ENDBRANCH   4   5
ENDBRANCH   3   4
ENDBRANCH   2   3
ENDBRANCH   1   2
BRANCH   1  22
ATOM     22  C   UNL A   1      32.057  32.973  26.621  1.00  0.00     0.261 C 
BRANCH  22  23
ATOM     23  O   UNL A   1      32.174  33.483  27.964  1.00  0.00    -0.460 OA
BRANCH  23  24
ATOM     24  C   UNL A   1      33.311  34.185  28.199  1.00  0.00     0.338 C 
ATOM     25  O   UNL A   1      33.395  35.396  28.370  1.00  0.00    -0.246 OA
BRANCH  24  26
ATOM     26  C   UNL A   1      34.486  33.308  28.354  1.00  0.00     0.060 A 
ATOM     27  C   UNL A   1      34.302  32.102  29.042  1.00  0.00     0.016 A 
ATOM     28  C   UNL A   1      35.772  33.739  28.019  1.00  0.00     0.016 A 
ATOM     29  C   UNL A   1      35.407  31.359  29.462  1.00  0.00     0.010 A 
ATOM     30  C   UNL A   1      36.881  32.993  28.447  1.00  0.00     0.010 A 
ATOM     31  C   UNL A   1      36.705  31.825  29.211  1.00  0.00    -0.014 A 
BRANCH  31  32
ATOM     32  C   UNL A   1      37.855  31.168  29.890  1.00  0.00     0.031 A 
ATOM     33  C   UNL A   1      38.163  31.517  31.324  1.00  0.00     0.074 A 
ATOM     34  C   UNL A   1      38.582  30.227  29.260  1.00  0.00     0.049 A 
ATOM     35  N   UNL A   1      39.104  31.057  32.109  1.00  0.00    -0.248 NA
ATOM     36  C   UNL A   1      37.293  32.520  31.954  1.00  0.00     0.031 C 
ATOM     37  C   UNL A   1      38.359  29.767  27.890  1.00  0.00     0.029 A 
ATOM     38  N   UNL A   1      39.655  29.489  29.694  1.00  0.00    -0.354 N 
ATOM     39  C   UNL A   1      38.939  31.708  33.328  1.00  0.00     0.074 A 
ATOM     40  C   UNL A   1      37.831  32.627  33.160  1.00  0.00     0.031 C 
ATOM     41  C   UNL A   1      39.272  28.825  27.596  1.00  0.00     0.029 A 
ATOM     42  C   UNL A   1      40.160  28.637  28.741  1.00  0.00     0.049 A 
ATOM     43  H   UNL A   1      40.028  29.563  30.602  1.00  0.00     0.167 HD
ATOM     44  C   UNL A   1      39.636  31.552  34.481  1.00  0.00     0.034 A 
ATOM     45  C   UNL A   1      41.226  27.813  28.782  1.00  0.00     0.034 A 
ATOM     46  C   UNL A   1      40.747  30.643  34.639  1.00  0.00     0.049 A 
ATOM     47  C   UNL A   1      42.040  27.714  30.050  1.00  0.00     0.074 A 
ATOM     48  C   UNL A   1      41.510  30.400  35.769  1.00  0.00     0.029 A 
ATOM     49  N   UNL A   1      41.265  29.838  33.634  1.00  0.00    -0.354 N 
ATOM     50  N   UNL A   1      41.866  28.332  31.195  1.00  0.00    -0.248 NA
ATOM     51  C   UNL A   1      43.189  26.798  30.030  1.00  0.00     0.031 C 
ATOM     52  C   UNL A   1      42.526  29.498  35.430  1.00  0.00     0.029 A 
ATOM     53  C   UNL A   1      42.356  29.124  34.108  1.00  0.00     0.049 A 
ATOM     54  H   UNL A   1      40.910  29.781  32.718  1.00  0.00     0.167 HD
ATOM     55  C   UNL A   1      42.868  27.855  32.040  1.00  0.00     0.074 A 
ATOM     56  C   UNL A   1      43.633  26.894  31.275  1.00  0.00     0.031 C 
ATOM     57  C   UNL A   1      43.125  28.178  33.333  1.00  0.00     0.034 A 
BRANCH  44  58
ATOM     58  C   UNL A   1      39.243  32.425  35.650  1.00  0.00     0.023 A 
ATOM     59  C   UNL A   1      39.657  33.765  35.744  1.00  0.00     0.031 A 
ATOM     60  C   UNL A   1      38.467  31.900  36.697  1.00  0.00     0.131 A 
ATOM     61  C   UNL A   1      39.351  34.512  36.892  1.00  0.00     0.055 A 
ATOM     62  C   UNL A   1      38.104  32.670  37.804  1.00  0.00     0.041 A 
ATOM     63  F   UNL A   1      38.060  30.621  36.670  1.00  0.00    -0.206 F 
ATOM     64  C   UNL A   1      38.558  33.981  37.913  1.00  0.00     0.022 A 
BRANCH  61  65
ATOM     65  S   UNL A   1      40.116  36.145  37.098  1.00  0.00     0.124 S 
ATOM     66  O   UNL A   1      41.511  35.788  37.347  1.00  0.00    -0.237 OA
ATOM     67  O   UNL A   1      39.839  36.786  35.818  1.00  0.00    -0.237 OA
ATOM     68  O   UNL A   1      39.412  36.712  38.246  1.00  0.00    -0.744 OA
ENDBRANCH  61  65
ENDBRANCH  44  58
BRANCH  45  69
ATOM     69  C   UNL A   1      41.622  27.036  27.574  1.00  0.00     0.023 A 
ATOM     70  C   UNL A   1      41.430  25.648  27.505  1.00  0.00     0.031 A 
ATOM     71  C   UNL A   1      42.253  27.672  26.490  1.00  0.00     0.131 A 
ATOM     72  C   UNL A   1      41.902  24.932  26.393  1.00  0.00     0.055 A 
ATOM     73  C   UNL A   1      42.680  26.963  25.366  1.00  0.00     0.041 A 
ATOM     74  F   UNL A   1      42.458  28.999  26.506  1.00  0.00    -0.206 F 
ATOM     75  C   UNL A   1      42.515  25.583  25.319  1.00  0.00     0.022 A 
BRANCH  72  76
ATOM     76  S   UNL A   1      41.768  23.123  26.402  1.00  0.00     0.124 S 
ATOM     77  O   UNL A   1      40.322  22.932  26.410  1.00  0.00    -0.237 OA
ATOM     78  O   UNL A   1      42.457  22.765  25.166  1.00  0.00    -0.237 OA
ATOM     79  O   UNL A   1      42.457  22.738  27.631  1.00  0.00    -0.744 OA
ENDBRANCH  72  76
ENDBRANCH  45  69
BRANCH  57  80
ATOM     80  C   UNL A   1      44.260  27.448  34.009  1.00  0.00     0.023 A 
ATOM     81  C   UNL A   1      45.568  27.965  34.030  1.00  0.00     0.031 A 
ATOM     82  C   UNL A   1      44.033  26.204  34.625  1.00  0.00     0.131 A 
ATOM     83  C   UNL A   1      46.607  27.218  34.605  1.00  0.00     0.055 A 
ATOM     84  C   UNL A   1      45.060  25.489  35.243  1.00  0.00     0.041 A 
ATOM     85  F   UNL A   1      42.804  25.661  34.634  1.00  0.00    -0.206 F 
ATOM     86  C   UNL A   1      46.359  25.989  35.223  1.00  0.00     0.022 A 
BRANCH  83  87
ATOM     87  S   UNL A   1      48.308  27.830  34.456  1.00  0.00     0.124 S 
ATOM     88  O   UNL A   1      48.453  28.628  35.668  1.00  0.00    -0.237 OA
ATOM     89  O   UNL A   1      49.082  26.593  34.411  1.00  0.00    -0.237 OA
ATOM     90  O   UNL A   1      48.292  28.594  33.210  1.00  0.00    -0.744 OA
ENDBRANCH  83  87
ENDBRANCH  57  80
ENDBRANCH  31  32
ENDBRANCH  24  26
ENDBRANCH  23  24
ENDBRANCH  22  23
ENDBRANCH   1  22
TORSDOF 19
ENDMDL
