MODEL 1
REMARK VINA RESULT:     -10.5      0.000      0.000
REMARK SMILES CC[NH2+][C@]1(C(=O)OCCOCCOC(=O)c2ccc(-c3c4nc(c(-c5cc(S(=O)(=O)[O-])ccc5F)c5ccc([nH]5)c(-c5cc(S(=O)(=O)[O-])ccc5F)c5nc(c(-c6cc(S(=O)(=O)[O-])ccc6F)c6ccc3[nH]6)C=C5)C=C4)cc2)CCC[C@H]1CC[N@H+]1CCC[C@@H](CC)C1
REMARK SMILES IDX 9 1 8 2 7 3 5 4 6 5 4 6 79 7 82 8 80 9 81 10 3 11 2 14 1 15
REMARK SMILES IDX 83 16 84 17 85 18 86 19 92 20 87 22 89 23 88 24 90 25 91 26
REMARK SMILES IDX 10 27 11 28 12 29 13 30 14 31 15 32 16 33 17 34 78 35 18 36
REMARK SMILES IDX 77 37 19 38 20 39 21 40 71 41 22 42 76 43 70 44 72 45 23 46
REMARK SMILES IDX 75 47 69 48 68 49 24 51 56 52 36 53 55 54 37 55 40 56 54 57
REMARK SMILES IDX 73 58 38 59 39 60 53 62 74 63 41 64 25 65 26 66 34 67 27 68
REMARK SMILES IDX 33 69 35 70 32 71 28 72 29 73 30 74 31 75 57 76 58 77 66 78
REMARK SMILES IDX 59 79 65 80 67 81 64 82 60 83 61 84 62 85 63 86 42 87 43 88
REMARK SMILES IDX 51 89 44 90 50 91 52 92 49 93 45 94 46 95 47 96 48 97
REMARK H PARENT 3 12 3 13 85 21 72 50 40 61
REMARK Flexibility Score: inf
ROOT
ATOM      1  C   UNL A   1      36.813  21.752  25.408  1.00  0.00     0.202 C 
ENDROOT
BRANCH   1   2
ATOM      2  C   UNL A   1      36.490  23.141  24.842  1.00  0.00     0.261 C 
BRANCH   2   3
ATOM      3  O   UNL A   1      35.193  23.236  24.237  1.00  0.00    -0.459 OA
BRANCH   3   4
ATOM      4  C   UNL A   1      34.259  23.769  25.084  1.00  0.00     0.368 C 
ATOM      5  O   UNL A   1      34.566  24.343  26.118  1.00  0.00    -0.245 OA
BRANCH   4   6
ATOM      6  C   UNL A   1      32.802  23.492  24.628  1.00  0.00     0.197 C 
ATOM      7  C   UNL A   1      31.891  24.391  25.474  1.00  0.00     0.081 C 
ATOM      8  C   UNL A   1      32.530  23.965  23.155  1.00  0.00     0.068 C 
ATOM      9  C   UNL A   1      30.647  24.650  24.641  1.00  0.00     0.008 C 
ATOM     10  C   UNL A   1      31.035  24.396  23.187  1.00  0.00     0.011 C 
BRANCH   6  11
ATOM     11  N   UNL A   1      32.504  22.025  24.804  1.00  0.00    -0.332 N 
ATOM     12  H   UNL A   1      32.934  21.739  25.683  1.00  0.00     0.347 HD
ATOM     13  H   UNL A   1      31.486  21.983  24.745  1.00  0.00     0.347 HD
BRANCH  11  14
ATOM     14  C   UNL A   1      32.937  21.066  23.792  1.00  0.00     0.257 C 
ATOM     15  C   UNL A   1      32.525  19.651  24.186  1.00  0.00     0.071 C 
ENDBRANCH  11  14
ENDBRANCH   6  11
BRANCH   8  16
ATOM     16  C   UNL A   1      33.311  25.167  22.519  1.00  0.00     0.072 C 
BRANCH  16  17
ATOM     17  C   UNL A   1      32.648  26.499  22.055  1.00  0.00     0.262 C 
BRANCH  17  18
ATOM     18  N   UNL A   1      32.436  27.628  22.966  1.00  0.00    -0.335 N 
ATOM     19  C   UNL A   1      31.026  28.000  23.057  1.00  0.00     0.262 C 
ATOM     20  C   UNL A   1      33.105  27.486  24.250  1.00  0.00     0.265 C 
ATOM     21  H   UNL A   1      32.907  28.429  22.543  1.00  0.00     0.348 HD
ATOM     22  C   UNL A   1      30.851  29.288  23.860  1.00  0.00     0.062 C 
ATOM     23  C   UNL A   1      32.880  28.670  25.211  1.00  0.00     0.044 C 
ATOM     24  C   UNL A   1      31.408  29.105  25.264  1.00  0.00     0.015 C 
BRANCH  23  25
ATOM     25  C   UNL A   1      33.451  28.324  26.603  1.00  0.00     0.006 C 
ATOM     26  C   UNL A   1      34.806  28.951  26.918  1.00  0.00     0.004 C 
ENDBRANCH  23  25
ENDBRANCH  17  18
ENDBRANCH  16  17
ENDBRANCH   8  16
ENDBRANCH   4   6
ENDBRANCH   3   4
ENDBRANCH   2   3
ENDBRANCH   1   2
BRANCH   1  27
ATOM     27  O   UNL A   1      37.575  20.824  24.646  1.00  0.00    -0.374 OA
BRANCH  27  28
ATOM     28  C   UNL A   1      37.890  19.553  25.210  1.00  0.00     0.202 C 
BRANCH  28  29
ATOM     29  C   UNL A   1      39.325  19.204  25.618  1.00  0.00     0.261 C 
BRANCH  29  30
ATOM     30  O   UNL A   1      40.167  20.358  25.739  1.00  0.00    -0.460 OA
BRANCH  30  31
ATOM     31  C   UNL A   1      40.859  20.422  26.903  1.00  0.00     0.338 C 
ATOM     32  O   UNL A   1      41.524  19.538  27.417  1.00  0.00    -0.246 OA
BRANCH  31  33
ATOM     33  C   UNL A   1      40.914  21.827  27.338  1.00  0.00     0.060 A 
ATOM     34  C   UNL A   1      40.130  22.759  26.641  1.00  0.00     0.016 A 
ATOM     35  C   UNL A   1      41.742  22.222  28.387  1.00  0.00     0.016 A 
ATOM     36  C   UNL A   1      40.206  24.109  26.960  1.00  0.00     0.010 A 
ATOM     37  C   UNL A   1      41.841  23.579  28.687  1.00  0.00     0.010 A 
ATOM     38  C   UNL A   1      41.108  24.523  27.944  1.00  0.00    -0.014 A 
BRANCH  38  39
ATOM     39  C   UNL A   1      41.503  25.944  28.013  1.00  0.00     0.031 A 
ATOM     40  C   UNL A   1      42.834  26.317  27.426  1.00  0.00     0.074 A 
ATOM     41  C   UNL A   1      40.711  26.861  28.591  1.00  0.00     0.049 A 
ATOM     42  N   UNL A   1      43.499  27.437  27.513  1.00  0.00    -0.248 NA
ATOM     43  C   UNL A   1      43.515  25.268  26.650  1.00  0.00     0.031 C 
ATOM     44  C   UNL A   1      39.370  26.609  29.116  1.00  0.00     0.029 A 
ATOM     45  N   UNL A   1      40.936  28.187  28.852  1.00  0.00    -0.354 N 
ATOM     46  C   UNL A   1      44.689  27.219  26.827  1.00  0.00     0.074 A 
ATOM     47  C   UNL A   1      44.664  25.853  26.355  1.00  0.00     0.031 C 
ATOM     48  C   UNL A   1      38.903  27.742  29.666  1.00  0.00     0.029 A 
ATOM     49  C   UNL A   1      39.932  28.777  29.580  1.00  0.00     0.049 A 
ATOM     50  H   UNL A   1      41.739  28.669  28.546  1.00  0.00     0.167 HD
ATOM     51  C   UNL A   1      45.707  28.088  26.615  1.00  0.00     0.034 A 
ATOM     52  C   UNL A   1      39.881  29.998  30.151  1.00  0.00     0.034 A 
ATOM     53  C   UNL A   1      45.700  29.439  27.112  1.00  0.00     0.049 A 
ATOM     54  C   UNL A   1      41.065  30.923  29.984  1.00  0.00     0.074 A 
ATOM     55  C   UNL A   1      46.665  30.418  26.967  1.00  0.00     0.029 A 
ATOM     56  N   UNL A   1      44.674  30.000  27.865  1.00  0.00    -0.354 N 
ATOM     57  N   UNL A   1      42.200  30.707  29.357  1.00  0.00    -0.248 NA
ATOM     58  C   UNL A   1      40.960  32.253  30.596  1.00  0.00     0.031 C 
ATOM     59  C   UNL A   1      46.260  31.540  27.697  1.00  0.00     0.029 A 
ATOM     60  C   UNL A   1      44.997  31.299  28.216  1.00  0.00     0.049 A 
ATOM     61  H   UNL A   1      43.839  29.540  28.112  1.00  0.00     0.167 HD
ATOM     62  C   UNL A   1      42.924  31.893  29.462  1.00  0.00     0.074 A 
ATOM     63  C   UNL A   1      42.100  32.814  30.218  1.00  0.00     0.031 C 
ATOM     64  C   UNL A   1      44.151  32.199  28.966  1.00  0.00     0.034 A 
BRANCH  51  65
ATOM     65  C   UNL A   1      46.921  27.568  25.883  1.00  0.00     0.023 A 
ATOM     66  C   UNL A   1      47.208  27.941  24.558  1.00  0.00     0.031 A 
ATOM     67  C   UNL A   1      47.775  26.640  26.503  1.00  0.00     0.131 A 
ATOM     68  C   UNL A   1      48.268  27.327  23.872  1.00  0.00     0.055 A 
ATOM     69  C   UNL A   1      48.881  26.101  25.845  1.00  0.00     0.041 A 
ATOM     70  F   UNL A   1      47.536  26.221  27.756  1.00  0.00    -0.206 F 
ATOM     71  C   UNL A   1      49.124  26.431  24.515  1.00  0.00     0.022 A 
BRANCH  68  72
ATOM     72  S   UNL A   1      48.410  27.591  22.082  1.00  0.00     0.124 S 
ATOM     73  O   UNL A   1      48.595  26.225  21.598  1.00  0.00    -0.237 OA
ATOM     74  O   UNL A   1      47.137  28.219  21.754  1.00  0.00    -0.237 OA
ATOM     75  O   UNL A   1      49.583  28.453  21.956  1.00  0.00    -0.744 OA
ENDBRANCH  68  72
ENDBRANCH  51  65
BRANCH  52  76
ATOM     76  C   UNL A   1      38.700  30.396  30.965  1.00  0.00     0.023 A 
ATOM     77  C   UNL A   1      37.626  31.092  30.391  1.00  0.00     0.031 A 
ATOM     78  C   UNL A   1      38.639  30.111  32.342  1.00  0.00     0.131 A 
ATOM     79  C   UNL A   1      36.555  31.515  31.195  1.00  0.00     0.055 A 
ATOM     80  C   UNL A   1      37.547  30.486  33.127  1.00  0.00     0.041 A 
ATOM     81  F   UNL A   1      39.640  29.447  32.943  1.00  0.00    -0.206 F 
ATOM     82  C   UNL A   1      36.501  31.204  32.556  1.00  0.00     0.022 A 
BRANCH  79  83
ATOM     83  S   UNL A   1      35.268  32.551  30.449  1.00  0.00     0.124 S 
ATOM     84  O   UNL A   1      34.298  32.644  31.534  1.00  0.00    -0.237 OA
ATOM     85  O   UNL A   1      36.004  33.771  30.139  1.00  0.00    -0.237 OA
ATOM     86  O   UNL A   1      34.836  31.773  29.290  1.00  0.00    -0.744 OA
ENDBRANCH  79  83
ENDBRANCH  52  76
BRANCH  64  87
ATOM     87  C   UNL A   1      44.641  33.614  29.152  1.00  0.00     0.023 A 
ATOM     88  C   UNL A   1      44.250  34.662  28.303  1.00  0.00     0.031 A 
ATOM     89  C   UNL A   1      45.494  33.916  30.231  1.00  0.00     0.131 A 
ATOM     90  C   UNL A   1      44.741  35.957  28.526  1.00  0.00     0.055 A 
ATOM     91  C   UNL A   1      45.930  35.216  30.482  1.00  0.00     0.041 A 
ATOM     92  F   UNL A   1      45.900  32.951  31.072  1.00  0.00    -0.206 F 
ATOM     93  C   UNL A   1      45.560  36.245  29.622  1.00  0.00     0.022 A 
BRANCH  90  94
ATOM     94  S   UNL A   1      44.350  37.258  27.323  1.00  0.00     0.124 S 
ATOM     95  O   UNL A   1      43.232  36.669  26.593  1.00  0.00    -0.237 OA
ATOM     96  O   UNL A   1      44.025  38.391  28.182  1.00  0.00    -0.237 OA
ATOM     97  O   UNL A   1      45.586  37.398  26.556  1.00  0.00    -0.744 OA
ENDBRANCH  90  94
ENDBRANCH  64  87
ENDBRANCH  38  39
ENDBRANCH  31  33
ENDBRANCH  30  31
ENDBRANCH  29  30
ENDBRANCH  28  29
ENDBRANCH  27  28
ENDBRANCH   1  27
TORSDOF 23
ENDMDL
MODEL 2
REMARK VINA RESULT:     -10.2      4.705      7.835
REMARK SMILES CC[NH2+][C@]1(C(=O)OCCOCCOC(=O)c2ccc(-c3c4nc(c(-c5cc(S(=O)(=O)[O-])ccc5F)c5ccc([nH]5)c(-c5cc(S(=O)(=O)[O-])ccc5F)c5nc(c(-c6cc(S(=O)(=O)[O-])ccc6F)c6ccc3[nH]6)C=C5)C=C4)cc2)CCC[C@H]1CC[N@H+]1CCC[C@@H](CC)C1
REMARK SMILES IDX 9 1 8 2 7 3 5 4 6 5 4 6 79 7 82 8 80 9 81 10 3 11 2 14 1 15
REMARK SMILES IDX 83 16 84 17 85 18 86 19 92 20 87 22 89 23 88 24 90 25 91 26
REMARK SMILES IDX 10 27 11 28 12 29 13 30 14 31 15 32 16 33 17 34 78 35 18 36
REMARK SMILES IDX 77 37 19 38 20 39 21 40 71 41 22 42 76 43 70 44 72 45 23 46
REMARK SMILES IDX 75 47 69 48 68 49 24 51 56 52 36 53 55 54 37 55 40 56 54 57
REMARK SMILES IDX 73 58 38 59 39 60 53 62 74 63 41 64 25 65 26 66 34 67 27 68
REMARK SMILES IDX 33 69 35 70 32 71 28 72 29 73 30 74 31 75 57 76 58 77 66 78
REMARK SMILES IDX 59 79 65 80 67 81 64 82 60 83 61 84 62 85 63 86 42 87 43 88
REMARK SMILES IDX 51 89 44 90 50 91 52 92 49 93 45 94 46 95 47 96 48 97
REMARK H PARENT 3 12 3 13 85 21 72 50 40 61
REMARK Flexibility Score: inf
ROOT
ATOM      1  C   UNL A   1      32.611  27.609  26.999  1.00  0.00     0.202 C 
ENDROOT
BRANCH   1   2
ATOM      2  C   UNL A   1      31.934  26.368  26.401  1.00  0.00     0.261 C 
BRANCH   2   3
ATOM      3  O   UNL A   1      32.852  25.343  25.995  1.00  0.00    -0.459 OA
BRANCH   3   4
ATOM      4  C   UNL A   1      32.462  24.098  26.410  1.00  0.00     0.368 C 
ATOM      5  O   UNL A   1      31.617  23.932  27.277  1.00  0.00    -0.245 OA
BRANCH   4   6
ATOM      6  C   UNL A   1      33.261  22.956  25.729  1.00  0.00     0.197 C 
ATOM      7  C   UNL A   1      32.606  21.635  26.156  1.00  0.00     0.081 C 
ATOM      8  C   UNL A   1      33.107  22.961  24.166  1.00  0.00     0.068 C 
ATOM      9  C   UNL A   1      32.885  20.638  25.045  1.00  0.00     0.008 C 
ATOM     10  C   UNL A   1      33.190  21.452  23.792  1.00  0.00     0.011 C 
BRANCH   6  11
ATOM     11  N   UNL A   1      34.708  23.053  26.144  1.00  0.00    -0.332 N 
ATOM     12  H   UNL A   1      34.780  23.849  26.776  1.00  0.00     0.347 HD
ATOM     13  H   UNL A   1      34.904  22.129  26.529  1.00  0.00     0.347 HD
BRANCH  11  14
ATOM     14  C   UNL A   1      35.746  23.223  25.133  1.00  0.00     0.257 C 
ATOM     15  C   UNL A   1      37.006  23.818  25.756  1.00  0.00     0.071 C 
ENDBRANCH  11  14
ENDBRANCH   6  11
BRANCH   8  16
ATOM     16  C   UNL A   1      31.812  23.506  23.468  1.00  0.00     0.072 C 
BRANCH  16  17
ATOM     17  C   UNL A   1      31.777  24.746  22.525  1.00  0.00     0.262 C 
BRANCH  17  18
ATOM     18  N   UNL A   1      32.071  26.102  23.001  1.00  0.00    -0.335 N 
ATOM     19  C   UNL A   1      33.268  26.655  22.371  1.00  0.00     0.262 C 
ATOM     20  C   UNL A   1      30.921  26.993  22.995  1.00  0.00     0.265 C 
ATOM     21  H   UNL A   1      32.295  26.014  23.993  1.00  0.00     0.348 HD
ATOM     22  C   UNL A   1      33.659  27.985  23.014  1.00  0.00     0.062 C 
ATOM     23  C   UNL A   1      31.228  28.420  23.491  1.00  0.00     0.044 C 
ATOM     24  C   UNL A   1      32.519  28.983  22.879  1.00  0.00     0.015 C 
BRANCH  23  25
ATOM     25  C   UNL A   1      30.005  29.329  23.247  1.00  0.00     0.006 C 
ATOM     26  C   UNL A   1      29.869  29.857  21.821  1.00  0.00     0.004 C 
ENDBRANCH  23  25
ENDBRANCH  17  18
ENDBRANCH  16  17
ENDBRANCH   8  16
ENDBRANCH   4   6
ENDBRANCH   3   4
ENDBRANCH   2   3
ENDBRANCH   1   2
BRANCH   1  27
ATOM     27  O   UNL A   1      31.829  28.697  27.472  1.00  0.00    -0.374 OA
BRANCH  27  28
ATOM     28  C   UNL A   1      31.582  29.804  26.608  1.00  0.00     0.202 C 
BRANCH  28  29
ATOM     29  C   UNL A   1      32.149  31.193  26.921  1.00  0.00     0.261 C 
BRANCH  29  30
ATOM     30  O   UNL A   1      33.581  31.229  26.893  1.00  0.00    -0.460 OA
BRANCH  30  31
ATOM     31  C   UNL A   1      34.132  32.109  27.765  1.00  0.00     0.338 C 
ATOM     32  O   UNL A   1      33.568  33.012  28.360  1.00  0.00    -0.246 OA
BRANCH  31  33
ATOM     33  C   UNL A   1      35.487  31.645  28.104  1.00  0.00     0.060 A 
ATOM     34  C   UNL A   1      35.680  30.268  28.295  1.00  0.00     0.016 A 
ATOM     35  C   UNL A   1      36.537  32.548  28.263  1.00  0.00     0.016 A 
ATOM     36  C   UNL A   1      36.919  29.787  28.695  1.00  0.00     0.010 A 
ATOM     37  C   UNL A   1      37.773  32.069  28.693  1.00  0.00     0.010 A 
ATOM     38  C   UNL A   1      37.949  30.697  28.952  1.00  0.00    -0.014 A 
BRANCH  38  39
ATOM     39  C   UNL A   1      39.114  30.268  29.752  1.00  0.00     0.031 A 
ATOM     40  C   UNL A   1      39.989  29.196  29.171  1.00  0.00     0.074 A 
ATOM     41  C   UNL A   1      39.369  30.805  30.955  1.00  0.00     0.049 A 
ATOM     42  N   UNL A   1      40.952  28.514  29.728  1.00  0.00    -0.248 NA
ATOM     43  C   UNL A   1      39.723  28.833  27.769  1.00  0.00     0.031 C 
ATOM     44  C   UNL A   1      38.623  31.904  31.566  1.00  0.00     0.029 A 
ATOM     45  N   UNL A   1      40.316  30.475  31.888  1.00  0.00    -0.354 N 
ATOM     46  C   UNL A   1      41.389  27.621  28.755  1.00  0.00     0.074 A 
ATOM     47  C   UNL A   1      40.567  27.831  27.584  1.00  0.00     0.031 C 
ATOM     48  C   UNL A   1      39.125  32.138  32.791  1.00  0.00     0.029 A 
ATOM     49  C   UNL A   1      40.186  31.170  33.066  1.00  0.00     0.049 A 
ATOM     50  H   UNL A   1      41.022  29.807  31.729  1.00  0.00     0.167 HD
ATOM     51  C   UNL A   1      42.388  26.709  28.839  1.00  0.00     0.034 A 
ATOM     52  C   UNL A   1      40.821  31.002  34.244  1.00  0.00     0.034 A 
ATOM     53  C   UNL A   1      43.177  26.521  30.029  1.00  0.00     0.049 A 
ATOM     54  C   UNL A   1      41.868  29.918  34.351  1.00  0.00     0.074 A 
ATOM     55  C   UNL A   1      44.216  25.634  30.245  1.00  0.00     0.029 A 
ATOM     56  N   UNL A   1      43.005  27.229  31.213  1.00  0.00    -0.354 N 
ATOM     57  N   UNL A   1      42.263  29.057  33.439  1.00  0.00    -0.248 NA
ATOM     58  C   UNL A   1      42.558  29.784  35.640  1.00  0.00     0.031 C 
ATOM     59  C   UNL A   1      44.617  25.750  31.579  1.00  0.00     0.029 A 
ATOM     60  C   UNL A   1      43.897  26.778  32.171  1.00  0.00     0.049 A 
ATOM     61  H   UNL A   1      42.346  27.947  31.351  1.00  0.00     0.167 HD
ATOM     62  C   UNL A   1      43.279  28.311  34.032  1.00  0.00     0.074 A 
ATOM     63  C   UNL A   1      43.429  28.819  35.381  1.00  0.00     0.031 C 
ATOM     64  C   UNL A   1      44.030  27.308  33.508  1.00  0.00     0.034 A 
BRANCH  51  65
ATOM     65  C   UNL A   1      42.614  25.816  27.644  1.00  0.00     0.023 A 
ATOM     66  C   UNL A   1      42.006  24.552  27.532  1.00  0.00     0.031 A 
ATOM     67  C   UNL A   1      43.497  26.211  26.624  1.00  0.00     0.131 A 
ATOM     68  C   UNL A   1      42.353  23.700  26.473  1.00  0.00     0.055 A 
ATOM     69  C   UNL A   1      43.768  25.395  25.525  1.00  0.00     0.041 A 
ATOM     70  F   UNL A   1      44.132  27.393  26.689  1.00  0.00    -0.206 F 
ATOM     71  C   UNL A   1      43.208  24.123  25.453  1.00  0.00     0.022 A 
BRANCH  68  72
ATOM     72  S   UNL A   1      41.801  21.973  26.535  1.00  0.00     0.124 S 
ATOM     73  O   UNL A   1      42.454  21.413  25.353  1.00  0.00    -0.237 OA
ATOM     74  O   UNL A   1      42.315  21.523  27.822  1.00  0.00    -0.237 OA
ATOM     75  O   UNL A   1      40.346  22.074  26.442  1.00  0.00    -0.744 OA
ENDBRANCH  68  72
ENDBRANCH  51  65
BRANCH  52  76
ATOM     76  C   UNL A   1      40.456  31.841  35.420  1.00  0.00     0.023 A 
ATOM     77  C   UNL A   1      39.378  31.496  36.248  1.00  0.00     0.031 A 
ATOM     78  C   UNL A   1      41.166  33.019  35.718  1.00  0.00     0.131 A 
ATOM     79  C   UNL A   1      39.014  32.340  37.310  1.00  0.00     0.055 A 
ATOM     80  C   UNL A   1      40.834  33.825  36.807  1.00  0.00     0.041 A 
ATOM     81  F   UNL A   1      42.208  33.395  34.957  1.00  0.00    -0.206 F 
ATOM     82  C   UNL A   1      39.744  33.495  37.604  1.00  0.00     0.022 A 
BRANCH  79  83
ATOM     83  S   UNL A   1      37.518  31.947  38.255  1.00  0.00     0.124 S 
ATOM     84  O   UNL A   1      36.612  33.006  37.829  1.00  0.00    -0.237 OA
ATOM     85  O   UNL A   1      37.205  30.604  37.781  1.00  0.00    -0.237 OA
ATOM     86  O   UNL A   1      37.964  32.028  39.645  1.00  0.00    -0.744 OA
ENDBRANCH  79  83
ENDBRANCH  52  76
BRANCH  64  87
ATOM     87  C   UNL A   1      45.140  26.751  34.366  1.00  0.00     0.023 A 
ATOM     88  C   UNL A   1      44.936  25.688  35.260  1.00  0.00     0.031 A 
ATOM     89  C   UNL A   1      46.439  27.283  34.250  1.00  0.00     0.131 A 
ATOM     90  C   UNL A   1      46.008  25.214  36.032  1.00  0.00     0.055 A 
ATOM     91  C   UNL A   1      47.511  26.768  34.976  1.00  0.00     0.041 A 
ATOM     92  F   UNL A   1      46.687  28.302  33.411  1.00  0.00    -0.206 F 
ATOM     93  C   UNL A   1      47.297  25.733  35.881  1.00  0.00     0.022 A 
BRANCH  90  94
ATOM     94  S   UNL A   1      45.684  23.952  37.294  1.00  0.00     0.124 S 
ATOM     95  O   UNL A   1      44.633  24.581  38.088  1.00  0.00    -0.237 OA
ATOM     96  O   UNL A   1      45.275  22.804  36.491  1.00  0.00    -0.237 OA
ATOM     97  O   UNL A   1      46.970  23.806  37.972  1.00  0.00    -0.744 OA
ENDBRANCH  90  94
ENDBRANCH  64  87
ENDBRANCH  38  39
ENDBRANCH  31  33
ENDBRANCH  30  31
ENDBRANCH  29  30
ENDBRANCH  28  29
ENDBRANCH  27  28
ENDBRANCH   1  27
TORSDOF 23
ENDMDL
MODEL 3
REMARK VINA RESULT:     -10.2      1.785      8.361
REMARK SMILES CC[NH2+][C@]1(C(=O)OCCOCCOC(=O)c2ccc(-c3c4nc(c(-c5cc(S(=O)(=O)[O-])ccc5F)c5ccc([nH]5)c(-c5cc(S(=O)(=O)[O-])ccc5F)c5nc(c(-c6cc(S(=O)(=O)[O-])ccc6F)c6ccc3[nH]6)C=C5)C=C4)cc2)CCC[C@H]1CC[N@H+]1CCC[C@@H](CC)C1
REMARK SMILES IDX 9 1 8 2 7 3 5 4 6 5 4 6 79 7 82 8 80 9 81 10 3 11 2 14 1 15
REMARK SMILES IDX 83 16 84 17 85 18 86 19 92 20 87 22 89 23 88 24 90 25 91 26
REMARK SMILES IDX 10 27 11 28 12 29 13 30 14 31 15 32 16 33 17 34 78 35 18 36
REMARK SMILES IDX 77 37 19 38 20 39 21 40 71 41 22 42 76 43 70 44 72 45 23 46
REMARK SMILES IDX 75 47 69 48 68 49 24 51 56 52 36 53 55 54 37 55 40 56 54 57
REMARK SMILES IDX 73 58 38 59 39 60 53 62 74 63 41 64 25 65 26 66 34 67 27 68
REMARK SMILES IDX 33 69 35 70 32 71 28 72 29 73 30 74 31 75 57 76 58 77 66 78
REMARK SMILES IDX 59 79 65 80 67 81 64 82 60 83 61 84 62 85 63 86 42 87 43 88
REMARK SMILES IDX 51 89 44 90 50 91 52 92 49 93 45 94 46 95 47 96 48 97
REMARK H PARENT 3 12 3 13 85 21 72 50 40 61
REMARK Flexibility Score: inf
ROOT
ATOM      1  C   UNL A   1      35.077  23.430  25.656  1.00  0.00     0.202 C 
ENDROOT
BRANCH   1   2
ATOM      2  C   UNL A   1      34.120  24.140  26.623  1.00  0.00     0.261 C 
BRANCH   2   3
ATOM      3  O   UNL A   1      33.451  25.273  26.053  1.00  0.00    -0.459 OA
BRANCH   3   4
ATOM      4  C   UNL A   1      32.088  25.149  26.090  1.00  0.00     0.368 C 
ATOM      5  O   UNL A   1      31.457  25.175  27.137  1.00  0.00    -0.245 OA
BRANCH   4   6
ATOM      6  C   UNL A   1      31.466  24.894  24.692  1.00  0.00     0.197 C 
ATOM      7  C   UNL A   1      32.626  24.846  23.688  1.00  0.00     0.081 C 
ATOM      8  C   UNL A   1      30.812  23.471  24.574  1.00  0.00     0.068 C 
ATOM      9  C   UNL A   1      32.164  23.968  22.538  1.00  0.00     0.008 C 
ATOM     10  C   UNL A   1      31.036  23.095  23.080  1.00  0.00     0.011 C 
BRANCH   6  11
ATOM     11  N   UNL A   1      30.473  25.987  24.390  1.00  0.00    -0.332 N 
ATOM     12  H   UNL A   1      29.838  25.621  23.682  1.00  0.00     0.347 HD
ATOM     13  H   UNL A   1      30.079  26.207  25.305  1.00  0.00     0.347 HD
BRANCH  11  14
ATOM     14  C   UNL A   1      30.940  27.283  23.907  1.00  0.00     0.257 C 
ATOM     15  C   UNL A   1      29.786  28.073  23.297  1.00  0.00     0.071 C 
ENDBRANCH  11  14
ENDBRANCH   6  11
BRANCH   8  16
ATOM     16  C   UNL A   1      31.338  22.251  25.408  1.00  0.00     0.072 C 
BRANCH  16  17
ATOM     17  C   UNL A   1      32.507  21.321  24.963  1.00  0.00     0.262 C 
BRANCH  17  18
ATOM     18  N   UNL A   1      32.278  19.973  24.434  1.00  0.00    -0.335 N 
ATOM     19  C   UNL A   1      32.626  19.874  23.018  1.00  0.00     0.262 C 
ATOM     20  C   UNL A   1      32.827  18.910  25.263  1.00  0.00     0.265 C 
ATOM     21  H   UNL A   1      31.272  19.813  24.483  1.00  0.00     0.348 HD
ATOM     22  C   UNL A   1      32.208  18.522  22.445  1.00  0.00     0.062 C 
ATOM     23  C   UNL A   1      32.592  17.492  24.707  1.00  0.00     0.044 C 
ATOM     24  C   UNL A   1      32.898  17.398  23.205  1.00  0.00     0.015 C 
BRANCH  23  25
ATOM     25  C   UNL A   1      33.388  16.468  25.543  1.00  0.00     0.006 C 
ATOM     26  C   UNL A   1      34.766  16.115  24.989  1.00  0.00     0.004 C 
ENDBRANCH  23  25
ENDBRANCH  17  18
ENDBRANCH  16  17
ENDBRANCH   8  16
ENDBRANCH   4   6
ENDBRANCH   3   4
ENDBRANCH   2   3
ENDBRANCH   1   2
BRANCH   1  27
ATOM     27  O   UNL A   1      36.048  22.515  26.146  1.00  0.00    -0.374 OA
BRANCH  27  28
ATOM     28  C   UNL A   1      36.080  21.189  25.625  1.00  0.00     0.202 C 
BRANCH  28  29
ATOM     29  C   UNL A   1      37.333  20.642  24.933  1.00  0.00     0.261 C 
BRANCH  29  30
ATOM     30  O   UNL A   1      38.461  21.518  25.048  1.00  0.00    -0.460 OA
BRANCH  30  31
ATOM     31  C   UNL A   1      39.345  21.163  26.013  1.00  0.00     0.338 C 
ATOM     32  O   UNL A   1      39.879  20.077  26.163  1.00  0.00    -0.246 OA
BRANCH  31  33
ATOM     33  C   UNL A   1      39.783  22.379  26.717  1.00  0.00     0.060 A 
ATOM     34  C   UNL A   1      39.255  23.609  26.292  1.00  0.00     0.016 A 
ATOM     35  C   UNL A   1      40.716  22.314  27.751  1.00  0.00     0.016 A 
ATOM     36  C   UNL A   1      39.696  24.792  26.869  1.00  0.00     0.010 A 
ATOM     37  C   UNL A   1      41.180  23.503  28.309  1.00  0.00     0.010 A 
ATOM     38  C   UNL A   1      40.704  24.740  27.837  1.00  0.00    -0.014 A 
BRANCH  38  39
ATOM     39  C   UNL A   1      41.464  25.965  28.159  1.00  0.00     0.031 A 
ATOM     40  C   UNL A   1      40.737  27.050  28.901  1.00  0.00     0.074 A 
ATOM     41  C   UNL A   1      42.746  26.107  27.790  1.00  0.00     0.049 A 
ATOM     42  N   UNL A   1      41.100  28.279  29.144  1.00  0.00    -0.248 NA
ATOM     43  C   UNL A   1      39.406  26.697  29.421  1.00  0.00     0.031 C 
ATOM     44  C   UNL A   1      43.557  25.080  27.138  1.00  0.00     0.029 A 
ATOM     45  N   UNL A   1      43.582  27.188  27.892  1.00  0.00    -0.354 N 
ATOM     46  C   UNL A   1      40.031  28.856  29.822  1.00  0.00     0.074 A 
ATOM     47  C   UNL A   1      38.999  27.850  29.925  1.00  0.00     0.031 C 
ATOM     48  C   UNL A   1      44.770  25.594  26.870  1.00  0.00     0.029 A 
ATOM     49  C   UNL A   1      44.797  26.996  27.281  1.00  0.00     0.049 A 
ATOM     50  H   UNL A   1      43.335  28.019  28.358  1.00  0.00     0.167 HD
ATOM     51  C   UNL A   1      39.929  30.116  30.311  1.00  0.00     0.034 A 
ATOM     52  C   UNL A   1      45.791  27.875  27.040  1.00  0.00     0.034 A 
ATOM     53  C   UNL A   1      40.976  31.095  30.177  1.00  0.00     0.049 A 
ATOM     54  C   UNL A   1      45.623  29.302  27.510  1.00  0.00     0.074 A 
ATOM     55  C   UNL A   1      40.999  32.403  30.627  1.00  0.00     0.029 A 
ATOM     56  N   UNL A   1      42.189  30.874  29.534  1.00  0.00    -0.354 N 
ATOM     57  N   UNL A   1      44.602  29.854  28.127  1.00  0.00    -0.248 NA
ATOM     58  C   UNL A   1      46.739  30.221  27.255  1.00  0.00     0.031 C 
ATOM     59  C   UNL A   1      42.187  32.994  30.187  1.00  0.00     0.029 A 
ATOM     60  C   UNL A   1      42.952  32.029  29.548  1.00  0.00     0.049 A 
ATOM     61  H   UNL A   1      42.465  30.021  29.128  1.00  0.00     0.167 HD
ATOM     62  C   UNL A   1      44.975  31.173  28.375  1.00  0.00     0.074 A 
ATOM     63  C   UNL A   1      46.308  31.334  27.833  1.00  0.00     0.031 C 
ATOM     64  C   UNL A   1      44.285  32.159  29.005  1.00  0.00     0.034 A 
BRANCH  51  65
ATOM     65  C   UNL A   1      38.621  30.505  30.956  1.00  0.00     0.023 A 
ATOM     66  C   UNL A   1      37.566  31.073  30.219  1.00  0.00     0.031 A 
ATOM     67  C   UNL A   1      38.445  30.356  32.343  1.00  0.00     0.131 A 
ATOM     68  C   UNL A   1      36.424  31.547  30.882  1.00  0.00     0.055 A 
ATOM     69  C   UNL A   1      37.269  30.746  32.984  1.00  0.00     0.041 A 
ATOM     70  F   UNL A   1      39.427  29.849  33.106  1.00  0.00    -0.206 F 
ATOM     71  C   UNL A   1      36.255  31.361  32.256  1.00  0.00     0.022 A 
BRANCH  68  72
ATOM     72  S   UNL A   1      35.237  32.554  29.951  1.00  0.00     0.124 S 
ATOM     73  O   UNL A   1      34.253  32.877  30.982  1.00  0.00    -0.237 OA
ATOM     74  O   UNL A   1      36.060  33.662  29.484  1.00  0.00    -0.237 OA
ATOM     75  O   UNL A   1      34.760  31.647  28.909  1.00  0.00    -0.744 OA
ENDBRANCH  68  72
ENDBRANCH  51  65
BRANCH  52  76
ATOM     76  C   UNL A   1      47.003  27.449  26.286  1.00  0.00     0.023 A 
ATOM     77  C   UNL A   1      48.153  27.004  26.955  1.00  0.00     0.031 A 
ATOM     78  C   UNL A   1      47.040  27.507  24.880  1.00  0.00     0.131 A 
ATOM     79  C   UNL A   1      49.305  26.673  26.223  1.00  0.00     0.055 A 
ATOM     80  C   UNL A   1      48.168  27.125  24.154  1.00  0.00     0.041 A 
ATOM     81  F   UNL A   1      45.966  27.925  24.190  1.00  0.00    -0.206 F 
ATOM     82  C   UNL A   1      49.315  26.716  24.826  1.00  0.00     0.022 A 
BRANCH  79  83
ATOM     83  S   UNL A   1      50.819  26.260  27.130  1.00  0.00     0.124 S 
ATOM     84  O   UNL A   1      51.801  27.110  26.468  1.00  0.00    -0.237 OA
ATOM     85  O   UNL A   1      50.464  26.629  28.495  1.00  0.00    -0.237 OA
ATOM     86  O   UNL A   1      50.975  24.825  26.894  1.00  0.00    -0.744 OA
ENDBRANCH  79  83
ENDBRANCH  52  76
BRANCH  64  87
ATOM     87  C   UNL A   1      44.993  33.474  29.219  1.00  0.00     0.023 A 
ATOM     88  C   UNL A   1      44.886  34.541  28.311  1.00  0.00     0.031 A 
ATOM     89  C   UNL A   1      45.763  33.666  30.381  1.00  0.00     0.131 A 
ATOM     90  C   UNL A   1      45.569  35.740  28.564  1.00  0.00     0.055 A 
ATOM     91  C   UNL A   1      46.391  34.880  30.656  1.00  0.00     0.041 A 
ATOM     92  F   UNL A   1      45.900  32.678  31.280  1.00  0.00    -0.206 F 
ATOM     93  C   UNL A   1      46.303  35.924  29.740  1.00  0.00     0.022 A 
BRANCH  90  94
ATOM     94  S   UNL A   1      45.545  37.041  27.301  1.00  0.00     0.124 S 
ATOM     95  O   UNL A   1      46.576  36.582  26.374  1.00  0.00    -0.237 OA
ATOM     96  O   UNL A   1      44.173  36.977  26.811  1.00  0.00    -0.237 OA
ATOM     97  O   UNL A   1      45.880  38.252  28.049  1.00  0.00    -0.744 OA
ENDBRANCH  90  94
ENDBRANCH  64  87
ENDBRANCH  38  39
ENDBRANCH  31  33
ENDBRANCH  30  31
ENDBRANCH  29  30
ENDBRANCH  28  29
ENDBRANCH  27  28
ENDBRANCH   1  27
TORSDOF 23
ENDMDL
