MODEL 1
REMARK VINA RESULT:      -8.0      0.000      0.000
REMARK SMILES CS(=O)(=O)c1ccc(/C=C(/C(=O)OCCOCCOC(=O)c2ccc(-c3c4nc(c(-c5cc(S(=O)(=O)[O-])ccc5F)c5ccc([nH]5)c(-c5cc(S(=O)(=O)[O-])ccc5F)c5nc(c(-c6cc(S(=O)(=O)[O-])ccc6F)c6ccc3[nH]6)C=C5)C=C4)cc2)c2cccc(-c3ccc(S(C)(=O)=O)cc3)c2)cc1
REMARK SMILES IDX 16 1 15 2 14 3 13 4 11 5 12 6 10 7 9 8 8 9 5 10 6 11 102 12
REMARK SMILES IDX 7 13 101 14 2 15 1 16 3 17 4 18 85 19 86 20 100 21 87 22
REMARK SMILES IDX 89 23 88 24 90 25 91 26 99 27 92 28 98 29 93 30 94 31 95 32
REMARK SMILES IDX 96 33 97 34 17 35 18 36 19 37 20 38 21 39 22 40 23 41 84 42
REMARK SMILES IDX 24 43 83 44 25 45 26 46 27 47 77 48 28 49 82 50 76 51 78 52
REMARK SMILES IDX 29 53 81 54 75 55 74 56 30 58 62 59 42 60 61 61 43 62 46 63
REMARK SMILES IDX 60 64 79 65 44 66 45 67 59 69 80 70 47 71 31 72 32 73 40 74
REMARK SMILES IDX 33 75 39 76 41 77 38 78 34 79 35 80 36 81 37 82 63 83 64 84
REMARK SMILES IDX 72 85 65 86 71 87 73 88 70 89 66 90 67 91 68 92 69 93 48 94
REMARK SMILES IDX 49 95 57 96 50 97 56 98 58 99 55 100 51 101 52 102 53 103
REMARK SMILES IDX 54 104
REMARK H PARENT 78 57 46 68
REMARK Flexibility Score: inf
ROOT
ATOM      1  O   UNL A   1      43.474  28.648  29.009  1.00  0.00    -0.374 OA
ENDROOT
BRANCH   1   2
ATOM      2  C   UNL A   1      42.478  29.666  29.075  1.00  0.00     0.202 C 
BRANCH   2   3
ATOM      3  C   UNL A   1      41.019  29.244  29.270  1.00  0.00     0.261 C 
BRANCH   3   4
ATOM      4  O   UNL A   1      40.193  30.342  29.694  1.00  0.00    -0.460 OA
BRANCH   4   5
ATOM      5  C   UNL A   1      38.891  30.013  29.881  1.00  0.00     0.338 C 
ATOM      6  O   UNL A   1      38.458  28.880  30.046  1.00  0.00    -0.246 OA
BRANCH   5   7
ATOM      7  C   UNL A   1      38.011  31.219  30.004  1.00  0.00     0.067 C 
ATOM      8  C   UNL A   1      36.704  31.157  29.652  1.00  0.00     0.024 C 
BRANCH   8   9
ATOM      9  C   UNL A   1      35.623  32.104  30.039  1.00  0.00    -0.025 A 
ATOM     10  C   UNL A   1      34.074  34.211  31.079  1.00  0.00     0.067 A 
ATOM     11  C   UNL A   1      34.358  34.161  29.714  1.00  0.00     0.021 A 
ATOM     12  C   UNL A   1      34.438  33.151  31.907  1.00  0.00     0.021 A 
ATOM     13  C   UNL A   1      35.092  33.089  29.195  1.00  0.00     0.009 A 
ATOM     14  C   UNL A   1      35.209  32.103  31.383  1.00  0.00     0.009 A 
BRANCH  10  15
ATOM     15  S   UNL A   1      33.329  35.687  31.727  1.00  0.00     0.175 S 
ATOM     16  C   UNL A   1      34.433  36.325  32.953  1.00  0.00     0.163 C 
ATOM     17  O   UNL A   1      32.117  35.284  32.419  1.00  0.00    -0.224 OA
ATOM     18  O   UNL A   1      33.280  36.636  30.633  1.00  0.00    -0.224 OA
ENDBRANCH  10  15
ENDBRANCH   8   9
BRANCH   7  19
ATOM     19  C   UNL A   1      38.627  32.371  30.687  1.00  0.00    -0.010 A 
ATOM     20  C   UNL A   1      39.095  33.478  29.969  1.00  0.00     0.009 A 
ATOM     21  C   UNL A   1      38.711  32.377  32.078  1.00  0.00     0.017 A 
ATOM     22  C   UNL A   1      39.632  34.577  30.636  1.00  0.00     0.001 A 
ATOM     23  C   UNL A   1      39.200  33.492  32.770  1.00  0.00    -0.018 A 
ATOM     24  C   UNL A   1      39.676  34.585  32.030  1.00  0.00     0.009 A 
BRANCH  23  25
ATOM     25  C   UNL A   1      39.120  33.510  34.234  1.00  0.00    -0.018 A 
ATOM     26  C   UNL A   1      38.829  32.335  34.946  1.00  0.00     0.010 A 
ATOM     27  C   UNL A   1      39.438  34.674  34.956  1.00  0.00     0.010 A 
ATOM     28  C   UNL A   1      38.858  32.320  36.339  1.00  0.00     0.021 A 
ATOM     29  C   UNL A   1      39.471  34.670  36.348  1.00  0.00     0.021 A 
ATOM     30  C   UNL A   1      39.170  33.492  37.029  1.00  0.00     0.067 A 
BRANCH  30  31
ATOM     31  S   UNL A   1      39.148  33.479  38.800  1.00  0.00     0.175 S 
ATOM     32  C   UNL A   1      37.561  32.773  39.157  1.00  0.00     0.163 C 
ATOM     33  O   UNL A   1      40.167  32.551  39.249  1.00  0.00    -0.224 OA
ATOM     34  O   UNL A   1      39.125  34.853  39.263  1.00  0.00    -0.224 OA
ENDBRANCH  30  31
ENDBRANCH  23  25
ENDBRANCH   7  19
ENDBRANCH   5   7
ENDBRANCH   4   5
ENDBRANCH   3   4
ENDBRANCH   2   3
ENDBRANCH   1   2
BRANCH   1  35
ATOM     35  C   UNL A   1      44.069  28.206  30.224  1.00  0.00     0.202 C 
BRANCH  35  36
ATOM     36  C   UNL A   1      43.532  26.949  30.919  1.00  0.00     0.261 C 
BRANCH  36  37
ATOM     37  O   UNL A   1      42.461  27.212  31.831  1.00  0.00    -0.460 OA
BRANCH  37  38
ATOM     38  C   UNL A   1      42.847  27.307  33.127  1.00  0.00     0.338 C 
ATOM     39  O   UNL A   1      43.277  26.405  33.835  1.00  0.00    -0.246 OA
BRANCH  38  40
ATOM     40  C   UNL A   1      42.868  28.722  33.526  1.00  0.00     0.060 A 
ATOM     41  C   UNL A   1      41.710  29.485  33.319  1.00  0.00     0.016 A 
ATOM     42  C   UNL A   1      44.025  29.304  34.046  1.00  0.00     0.016 A 
ATOM     43  C   UNL A   1      41.715  30.849  33.595  1.00  0.00     0.010 A 
ATOM     44  C   UNL A   1      44.033  30.674  34.306  1.00  0.00     0.010 A 
ATOM     45  C   UNL A   1      42.891  31.455  34.049  1.00  0.00    -0.014 A 
BRANCH  45  46
ATOM     46  C   UNL A   1      43.008  32.931  34.074  1.00  0.00     0.031 A 
ATOM     47  C   UNL A   1      43.154  33.650  32.763  1.00  0.00     0.074 A 
ATOM     48  C   UNL A   1      43.008  33.609  35.234  1.00  0.00     0.049 A 
ATOM     49  N   UNL A   1      43.447  34.901  32.528  1.00  0.00    -0.248 NA
ATOM     50  C   UNL A   1      42.956  32.837  31.552  1.00  0.00     0.031 C 
ATOM     51  C   UNL A   1      42.803  33.021  36.557  1.00  0.00     0.029 A 
ATOM     52  N   UNL A   1      43.211  34.943  35.485  1.00  0.00    -0.354 N 
ATOM     53  C   UNL A   1      43.493  35.022  31.143  1.00  0.00     0.074 A 
ATOM     54  C   UNL A   1      43.226  33.710  30.595  1.00  0.00     0.031 C 
ATOM     55  C   UNL A   1      42.915  33.988  37.483  1.00  0.00     0.029 A 
ATOM     56  C   UNL A   1      43.254  35.249  36.825  1.00  0.00     0.049 A 
ATOM     57  H   UNL A   1      43.313  35.616  34.773  1.00  0.00     0.167 HD
ATOM     58  C   UNL A   1      43.734  36.130  30.402  1.00  0.00     0.034 A 
ATOM     59  C   UNL A   1      43.577  36.403  37.443  1.00  0.00     0.034 A 
ATOM     60  C   UNL A   1      44.006  37.425  30.976  1.00  0.00     0.049 A 
ATOM     61  C   UNL A   1      43.939  37.605  36.600  1.00  0.00     0.074 A 
ATOM     62  C   UNL A   1      44.262  38.619  30.326  1.00  0.00     0.029 A 
ATOM     63  N   UNL A   1      44.067  37.692  32.338  1.00  0.00    -0.354 N 
ATOM     64  N   UNL A   1      44.002  37.709  35.291  1.00  0.00    -0.248 NA
ATOM     65  C   UNL A   1      44.270  38.845  37.316  1.00  0.00     0.031 C 
ATOM     66  C   UNL A   1      44.555  39.587  31.291  1.00  0.00     0.029 A 
ATOM     67  C   UNL A   1      44.387  39.024  32.547  1.00  0.00     0.049 A 
ATOM     68  H   UNL A   1      43.906  37.033  33.050  1.00  0.00     0.167 HD
ATOM     69  C   UNL A   1      44.331  39.038  35.031  1.00  0.00     0.074 A 
ATOM     70  C   UNL A   1      44.458  39.694  36.315  1.00  0.00     0.031 C 
ATOM     71  C   UNL A   1      44.500  39.664  33.837  1.00  0.00     0.034 A 
BRANCH  58  72
ATOM     72  C   UNL A   1      43.778  35.968  28.902  1.00  0.00     0.023 A 
ATOM     73  C   UNL A   1      44.953  35.591  28.229  1.00  0.00     0.031 A 
ATOM     74  C   UNL A   1      42.633  36.231  28.129  1.00  0.00     0.131 A 
ATOM     75  C   UNL A   1      44.977  35.560  26.827  1.00  0.00     0.055 A 
ATOM     76  C   UNL A   1      42.640  36.113  26.738  1.00  0.00     0.041 A 
ATOM     77  F   UNL A   1      41.490  36.623  28.712  1.00  0.00    -0.206 F 
ATOM     78  C   UNL A   1      43.821  35.791  26.077  1.00  0.00     0.022 A 
BRANCH  75  79
ATOM     79  S   UNL A   1      46.575  35.366  25.991  1.00  0.00     0.124 S 
ATOM     80  O   UNL A   1      46.202  34.567  24.825  1.00  0.00    -0.237 OA
ATOM     81  O   UNL A   1      46.960  36.747  25.722  1.00  0.00    -0.237 OA
ATOM     82  O   UNL A   1      47.396  34.669  26.978  1.00  0.00    -0.744 OA
ENDBRANCH  75  79
ENDBRANCH  58  72
BRANCH  59  83
ATOM     83  C   UNL A   1      43.621  36.477  38.931  1.00  0.00     0.023 A 
ATOM     84  C   UNL A   1      42.500  36.886  39.669  1.00  0.00     0.031 A 
ATOM     85  C   UNL A   1      44.804  36.189  39.637  1.00  0.00     0.131 A 
ATOM     86  C   UNL A   1      42.598  37.049  41.060  1.00  0.00     0.055 A 
ATOM     87  C   UNL A   1      44.879  36.294  41.026  1.00  0.00     0.041 A 
ATOM     88  F   UNL A   1      45.909  35.795  38.982  1.00  0.00    -0.206 F 
ATOM     89  C   UNL A   1      43.775  36.740  41.746  1.00  0.00     0.022 A 
BRANCH  86  90
ATOM     90  S   UNL A   1      41.190  37.766  41.950  1.00  0.00     0.124 S 
ATOM     91  O   UNL A   1      41.223  37.020  43.202  1.00  0.00    -0.237 OA
ATOM     92  O   UNL A   1      41.569  39.173  42.029  1.00  0.00    -0.237 OA
ATOM     93  O   UNL A   1      40.054  37.475  41.077  1.00  0.00    -0.744 OA
ENDBRANCH  86  90
ENDBRANCH  59  83
BRANCH  71  94
ATOM     94  C   UNL A   1      44.754  41.153  33.860  1.00  0.00     0.023 A 
ATOM     95  C   UNL A   1      43.714  42.093  33.784  1.00  0.00     0.031 A 
ATOM     96  C   UNL A   1      46.072  41.631  33.990  1.00  0.00     0.131 A 
ATOM     97  C   UNL A   1      44.012  43.465  33.798  1.00  0.00     0.055 A 
ATOM     98  C   UNL A   1      46.356  42.993  34.065  1.00  0.00     0.041 A 
ATOM     99  F   UNL A   1      47.104  40.775  34.063  1.00  0.00    -0.206 F 
ATOM    100  C   UNL A   1      45.325  43.921  33.958  1.00  0.00     0.022 A 
BRANCH  97 101
ATOM    101  S   UNL A   1      42.671  44.655  33.529  1.00  0.00     0.124 S 
ATOM    102  O   UNL A   1      43.352  45.930  33.727  1.00  0.00    -0.237 OA
ATOM    103  O   UNL A   1      42.259  44.358  32.161  1.00  0.00    -0.237 OA
ATOM    104  O   UNL A   1      41.692  44.309  34.558  1.00  0.00    -0.744 OA
ENDBRANCH  97 101
ENDBRANCH  71  94
ENDBRANCH  45  46
ENDBRANCH  38  40
ENDBRANCH  37  38
ENDBRANCH  36  37
ENDBRANCH  35  36
ENDBRANCH   1  35
TORSDOF 22
ENDMDL
MODEL 2
REMARK VINA RESULT:      -7.5      5.616     11.083
REMARK SMILES CS(=O)(=O)c1ccc(/C=C(/C(=O)OCCOCCOC(=O)c2ccc(-c3c4nc(c(-c5cc(S(=O)(=O)[O-])ccc5F)c5ccc([nH]5)c(-c5cc(S(=O)(=O)[O-])ccc5F)c5nc(c(-c6cc(S(=O)(=O)[O-])ccc6F)c6ccc3[nH]6)C=C5)C=C4)cc2)c2cccc(-c3ccc(S(C)(=O)=O)cc3)c2)cc1
REMARK SMILES IDX 16 1 15 2 14 3 13 4 11 5 12 6 10 7 9 8 8 9 5 10 6 11 102 12
REMARK SMILES IDX 7 13 101 14 2 15 1 16 3 17 4 18 85 19 86 20 100 21 87 22
REMARK SMILES IDX 89 23 88 24 90 25 91 26 99 27 92 28 98 29 93 30 94 31 95 32
REMARK SMILES IDX 96 33 97 34 17 35 18 36 19 37 20 38 21 39 22 40 23 41 84 42
REMARK SMILES IDX 24 43 83 44 25 45 26 46 27 47 77 48 28 49 82 50 76 51 78 52
REMARK SMILES IDX 29 53 81 54 75 55 74 56 30 58 62 59 42 60 61 61 43 62 46 63
REMARK SMILES IDX 60 64 79 65 44 66 45 67 59 69 80 70 47 71 31 72 32 73 40 74
REMARK SMILES IDX 33 75 39 76 41 77 38 78 34 79 35 80 36 81 37 82 63 83 64 84
REMARK SMILES IDX 72 85 65 86 71 87 73 88 70 89 66 90 67 91 68 92 69 93 48 94
REMARK SMILES IDX 49 95 57 96 50 97 56 98 58 99 55 100 51 101 52 102 53 103
REMARK SMILES IDX 54 104
REMARK H PARENT 78 57 46 68
REMARK Flexibility Score: inf
ROOT
ATOM      1  O   UNL A   1      42.056  20.968  27.489  1.00  0.00    -0.374 OA
ENDROOT
BRANCH   1   2
ATOM      2  C   UNL A   1      41.523  22.275  27.695  1.00  0.00     0.202 C 
BRANCH   2   3
ATOM      3  C   UNL A   1      42.500  23.448  27.814  1.00  0.00     0.261 C 
BRANCH   3   4
ATOM      4  O   UNL A   1      42.644  23.894  29.173  1.00  0.00    -0.460 OA
BRANCH   4   5
ATOM      5  C   UNL A   1      43.713  23.364  29.817  1.00  0.00     0.338 C 
ATOM      6  O   UNL A   1      44.453  22.495  29.376  1.00  0.00    -0.246 OA
BRANCH   5   7
ATOM      7  C   UNL A   1      43.997  24.059  31.114  1.00  0.00     0.067 C 
ATOM      8  C   UNL A   1      43.925  23.384  32.287  1.00  0.00     0.024 C 
BRANCH   8   9
ATOM      9  C   UNL A   1      44.513  23.787  33.594  1.00  0.00    -0.025 A 
ATOM     10  C   UNL A   1      45.643  23.896  36.168  1.00  0.00     0.067 A 
ATOM     11  C   UNL A   1      46.423  24.192  35.050  1.00  0.00     0.021 A 
ATOM     12  C   UNL A   1      44.274  23.680  36.027  1.00  0.00     0.021 A 
ATOM     13  C   UNL A   1      45.846  24.178  33.776  1.00  0.00     0.009 A 
ATOM     14  C   UNL A   1      43.716  23.628  34.741  1.00  0.00     0.009 A 
BRANCH  10  15
ATOM     15  S   UNL A   1      46.458  23.715  37.736  1.00  0.00     0.175 S 
ATOM     16  C   UNL A   1      46.114  22.078  38.310  1.00  0.00     0.163 C 
ATOM     17  O   UNL A   1      45.813  24.631  38.659  1.00  0.00    -0.224 OA
ATOM     18  O   UNL A   1      47.880  23.805  37.471  1.00  0.00    -0.224 OA
ENDBRANCH  10  15
ENDBRANCH   8   9
BRANCH   7  19
ATOM     19  C   UNL A   1      44.519  25.432  30.983  1.00  0.00    -0.010 A 
ATOM     20  C   UNL A   1      43.724  26.544  31.283  1.00  0.00     0.009 A 
ATOM     21  C   UNL A   1      45.842  25.626  30.590  1.00  0.00     0.017 A 
ATOM     22  C   UNL A   1      44.250  27.831  31.198  1.00  0.00     0.001 A 
ATOM     23  C   UNL A   1      46.405  26.908  30.548  1.00  0.00    -0.018 A 
ATOM     24  C   UNL A   1      45.586  28.010  30.839  1.00  0.00     0.009 A 
BRANCH  23  25
ATOM     25  C   UNL A   1      47.840  27.044  30.283  1.00  0.00    -0.018 A 
ATOM     26  C   UNL A   1      48.520  28.225  30.627  1.00  0.00     0.010 A 
ATOM     27  C   UNL A   1      48.583  25.962  29.779  1.00  0.00     0.010 A 
ATOM     28  C   UNL A   1      49.901  28.321  30.478  1.00  0.00     0.021 A 
ATOM     29  C   UNL A   1      49.964  26.047  29.627  1.00  0.00     0.021 A 
ATOM     30  C   UNL A   1      50.612  27.233  29.969  1.00  0.00     0.067 A 
BRANCH  30  31
ATOM     31  S   UNL A   1      52.360  27.384  29.728  1.00  0.00     0.175 S 
ATOM     32  C   UNL A   1      52.489  27.556  27.968  1.00  0.00     0.163 C 
ATOM     33  O   UNL A   1      52.785  28.629  30.336  1.00  0.00    -0.224 OA
ATOM     34  O   UNL A   1      52.977  26.121  30.087  1.00  0.00    -0.224 OA
ENDBRANCH  30  31
ENDBRANCH  23  25
ENDBRANCH   7  19
ENDBRANCH   5   7
ENDBRANCH   4   5
ENDBRANCH   3   4
ENDBRANCH   2   3
ENDBRANCH   1   2
BRANCH   1  35
ATOM     35  C   UNL A   1      42.310  20.548  26.153  1.00  0.00     0.202 C 
BRANCH  35  36
ATOM     36  C   UNL A   1      43.756  20.445  25.652  1.00  0.00     0.261 C 
BRANCH  36  37
ATOM     37  O   UNL A   1      44.253  21.662  25.084  1.00  0.00    -0.460 OA
BRANCH  37  38
ATOM     38  C   UNL A   1      45.530  21.954  25.433  1.00  0.00     0.338 C 
ATOM     39  O   UNL A   1      46.503  21.215  25.350  1.00  0.00    -0.246 OA
BRANCH  38  40
ATOM     40  C   UNL A   1      45.632  23.386  25.750  1.00  0.00     0.060 A 
ATOM     41  C   UNL A   1      46.096  23.750  27.022  1.00  0.00     0.016 A 
ATOM     42  C   UNL A   1      45.228  24.355  24.831  1.00  0.00     0.016 A 
ATOM     43  C   UNL A   1      46.121  25.089  27.398  1.00  0.00     0.010 A 
ATOM     44  C   UNL A   1      45.238  25.696  25.216  1.00  0.00     0.010 A 
ATOM     45  C   UNL A   1      45.651  26.063  26.510  1.00  0.00    -0.014 A 
BRANCH  45  46
ATOM     46  C   UNL A   1      45.397  27.444  26.982  1.00  0.00     0.031 A 
ATOM     47  C   UNL A   1      46.558  28.395  27.040  1.00  0.00     0.074 A 
ATOM     48  C   UNL A   1      44.171  27.830  27.371  1.00  0.00     0.049 A 
ATOM     49  N   UNL A   1      46.634  29.584  27.575  1.00  0.00    -0.248 NA
ATOM     50  C   UNL A   1      47.810  27.929  26.421  1.00  0.00     0.031 C 
ATOM     51  C   UNL A   1      42.961  27.013  27.291  1.00  0.00     0.029 A 
ATOM     52  N   UNL A   1      43.746  29.007  27.934  1.00  0.00    -0.354 N 
ATOM     53  C   UNL A   1      47.946  30.001  27.379  1.00  0.00     0.074 A 
ATOM     54  C   UNL A   1      48.635  28.924  26.703  1.00  0.00     0.031 C 
ATOM     55  C   UNL A   1      41.934  27.706  27.811  1.00  0.00     0.029 A 
ATOM     56  C   UNL A   1      42.423  28.990  28.309  1.00  0.00     0.049 A 
ATOM     57  H   UNL A   1      44.332  29.790  28.056  1.00  0.00     0.167 HD
ATOM     58  C   UNL A   1      48.518  31.178  27.732  1.00  0.00     0.034 A 
ATOM     59  C   UNL A   1      41.708  29.891  29.014  1.00  0.00     0.034 A 
ATOM     60  C   UNL A   1      47.808  32.232  28.413  1.00  0.00     0.049 A 
ATOM     61  C   UNL A   1      42.389  31.156  29.485  1.00  0.00     0.074 A 
ATOM     62  C   UNL A   1      48.280  33.467  28.819  1.00  0.00     0.029 A 
ATOM     63  N   UNL A   1      46.474  32.170  28.801  1.00  0.00    -0.354 N 
ATOM     64  N   UNL A   1      43.636  31.536  29.316  1.00  0.00    -0.248 NA
ATOM     65  C   UNL A   1      41.567  32.113  30.237  1.00  0.00     0.031 C 
ATOM     66  C   UNL A   1      47.259  34.118  29.519  1.00  0.00     0.029 A 
ATOM     67  C   UNL A   1      46.118  33.332  29.466  1.00  0.00     0.049 A 
ATOM     68  H   UNL A   1      45.871  31.412  28.627  1.00  0.00     0.167 HD
ATOM     69  C   UNL A   1      43.730  32.799  29.899  1.00  0.00     0.074 A 
ATOM     70  C   UNL A   1      42.419  33.112  30.427  1.00  0.00     0.031 C 
ATOM     71  C   UNL A   1      44.801  33.631  29.978  1.00  0.00     0.034 A 
BRANCH  58  72
ATOM     72  C   UNL A   1      49.988  31.351  27.443  1.00  0.00     0.023 A 
ATOM     73  C   UNL A   1      50.465  31.624  26.149  1.00  0.00     0.031 A 
ATOM     74  C   UNL A   1      50.933  31.205  28.474  1.00  0.00     0.131 A 
ATOM     75  C   UNL A   1      51.846  31.668  25.906  1.00  0.00     0.055 A 
ATOM     76  C   UNL A   1      52.304  31.337  28.242  1.00  0.00     0.041 A 
ATOM     77  F   UNL A   1      50.542  30.915  29.724  1.00  0.00    -0.206 F 
ATOM     78  C   UNL A   1      52.769  31.553  26.949  1.00  0.00     0.022 A 
BRANCH  75  79
ATOM     79  S   UNL A   1      52.423  31.720  24.187  1.00  0.00     0.124 S 
ATOM     80  O   UNL A   1      53.873  31.681  24.363  1.00  0.00    -0.237 OA
ATOM     81  O   UNL A   1      51.817  30.524  23.614  1.00  0.00    -0.237 OA
ATOM     82  O   UNL A   1      51.897  32.988  23.687  1.00  0.00    -0.744 OA
ENDBRANCH  75  79
ENDBRANCH  58  72
BRANCH  59  83
ATOM     83  C   UNL A   1      40.284  29.618  29.363  1.00  0.00     0.023 A 
ATOM     84  C   UNL A   1      39.889  29.435  30.697  1.00  0.00     0.031 A 
ATOM     85  C   UNL A   1      39.305  29.483  28.362  1.00  0.00     0.131 A 
ATOM     86  C   UNL A   1      38.565  29.075  30.992  1.00  0.00     0.055 A 
ATOM     87  C   UNL A   1      37.975  29.184  28.666  1.00  0.00     0.041 A 
ATOM     88  F   UNL A   1      39.626  29.645  27.068  1.00  0.00    -0.206 F 
ATOM     89  C   UNL A   1      37.601  28.964  29.987  1.00  0.00     0.022 A 
BRANCH  86  90
ATOM     90  S   UNL A   1      38.142  28.657  32.706  1.00  0.00     0.124 S 
ATOM     91  O   UNL A   1      39.179  29.366  33.446  1.00  0.00    -0.237 OA
ATOM     92  O   UNL A   1      36.790  29.192  32.822  1.00  0.00    -0.237 OA
ATOM     93  O   UNL A   1      38.240  27.199  32.732  1.00  0.00    -0.744 OA
ENDBRANCH  86  90
ENDBRANCH  59  83
BRANCH  71  94
ATOM     94  C   UNL A   1      44.579  34.997  30.583  1.00  0.00     0.023 A 
ATOM     95  C   UNL A   1      44.340  36.136  29.797  1.00  0.00     0.031 A 
ATOM     96  C   UNL A   1      44.581  35.146  31.983  1.00  0.00     0.131 A 
ATOM     97  C   UNL A   1      44.153  37.382  30.416  1.00  0.00     0.055 A 
ATOM     98  C   UNL A   1      44.334  36.374  32.593  1.00  0.00     0.041 A 
ATOM     99  F   UNL A   1      44.808  34.090  32.781  1.00  0.00    -0.206 F 
ATOM    100  C   UNL A   1      44.128  37.505  31.809  1.00  0.00     0.022 A 
BRANCH  97 101
ATOM    101  S   UNL A   1      44.014  38.862  29.377  1.00  0.00     0.124 S 
ATOM    102  O   UNL A   1      44.551  39.899  30.253  1.00  0.00    -0.237 OA
ATOM    103  O   UNL A   1      44.838  38.514  28.225  1.00  0.00    -0.237 OA
ATOM    104  O   UNL A   1      42.581  38.960  29.106  1.00  0.00    -0.744 OA
ENDBRANCH  97 101
ENDBRANCH  71  94
ENDBRANCH  45  46
ENDBRANCH  38  40
ENDBRANCH  37  38
ENDBRANCH  36  37
ENDBRANCH  35  36
ENDBRANCH   1  35
TORSDOF 22
ENDMDL
MODEL 3
REMARK VINA RESULT:      -7.4      5.176     11.120
REMARK SMILES CS(=O)(=O)c1ccc(/C=C(/C(=O)OCCOCCOC(=O)c2ccc(-c3c4nc(c(-c5cc(S(=O)(=O)[O-])ccc5F)c5ccc([nH]5)c(-c5cc(S(=O)(=O)[O-])ccc5F)c5nc(c(-c6cc(S(=O)(=O)[O-])ccc6F)c6ccc3[nH]6)C=C5)C=C4)cc2)c2cccc(-c3ccc(S(C)(=O)=O)cc3)c2)cc1
REMARK SMILES IDX 16 1 15 2 14 3 13 4 11 5 12 6 10 7 9 8 8 9 5 10 6 11 102 12
REMARK SMILES IDX 7 13 101 14 2 15 1 16 3 17 4 18 85 19 86 20 100 21 87 22
REMARK SMILES IDX 89 23 88 24 90 25 91 26 99 27 92 28 98 29 93 30 94 31 95 32
REMARK SMILES IDX 96 33 97 34 17 35 18 36 19 37 20 38 21 39 22 40 23 41 84 42
REMARK SMILES IDX 24 43 83 44 25 45 26 46 27 47 77 48 28 49 82 50 76 51 78 52
REMARK SMILES IDX 29 53 81 54 75 55 74 56 30 58 62 59 42 60 61 61 43 62 46 63
REMARK SMILES IDX 60 64 79 65 44 66 45 67 59 69 80 70 47 71 31 72 32 73 40 74
REMARK SMILES IDX 33 75 39 76 41 77 38 78 34 79 35 80 36 81 37 82 63 83 64 84
REMARK SMILES IDX 72 85 65 86 71 87 73 88 70 89 66 90 67 91 68 92 69 93 48 94
REMARK SMILES IDX 49 95 57 96 50 97 56 98 58 99 55 100 51 101 52 102 53 103
REMARK SMILES IDX 54 104
REMARK H PARENT 78 57 46 68
REMARK Flexibility Score: inf
ROOT
ATOM      1  O   UNL A   1      33.252  36.249  29.894  1.00  0.00    -0.374 OA
ENDROOT
BRANCH   1   2
ATOM      2  C   UNL A   1      33.363  35.292  28.843  1.00  0.00     0.202 C 
BRANCH   2   3
ATOM      3  C   UNL A   1      34.708  35.155  28.122  1.00  0.00     0.261 C 
BRANCH   3   4
ATOM      4  O   UNL A   1      34.895  33.839  27.576  1.00  0.00    -0.460 OA
BRANCH   4   5
ATOM      5  C   UNL A   1      35.730  33.054  28.302  1.00  0.00     0.338 C 
ATOM      6  O   UNL A   1      36.697  33.443  28.944  1.00  0.00    -0.246 OA
BRANCH   5   7
ATOM      7  C   UNL A   1      35.266  31.631  28.358  1.00  0.00     0.067 C 
ATOM      8  C   UNL A   1      34.170  31.236  27.667  1.00  0.00     0.024 C 
BRANCH   8   9
ATOM      9  C   UNL A   1      33.785  29.842  27.311  1.00  0.00    -0.025 A 
ATOM     10  C   UNL A   1      32.713  27.509  26.160  1.00  0.00     0.067 A 
ATOM     11  C   UNL A   1      34.064  27.813  25.993  1.00  0.00     0.021 A 
ATOM     12  C   UNL A   1      31.924  28.284  27.008  1.00  0.00     0.021 A 
ATOM     13  C   UNL A   1      34.602  28.951  26.602  1.00  0.00     0.009 A 
ATOM     14  C   UNL A   1      32.464  29.445  27.579  1.00  0.00     0.009 A 
BRANCH  10  15
ATOM     15  S   UNL A   1      32.027  26.182  25.200  1.00  0.00     0.175 S 
ATOM     16  C   UNL A   1      32.845  26.203  23.633  1.00  0.00     0.163 C 
ATOM     17  O   UNL A   1      30.634  26.512  24.954  1.00  0.00    -0.224 OA
ATOM     18  O   UNL A   1      32.391  24.954  25.879  1.00  0.00    -0.224 OA
ENDBRANCH  10  15
ENDBRANCH   8   9
BRANCH   7  19
ATOM     19  C   UNL A   1      36.179  30.706  29.055  1.00  0.00    -0.010 A 
ATOM     20  C   UNL A   1      35.936  30.298  30.372  1.00  0.00     0.009 A 
ATOM     21  C   UNL A   1      37.285  30.198  28.378  1.00  0.00     0.017 A 
ATOM     22  C   UNL A   1      36.785  29.388  30.998  1.00  0.00     0.001 A 
ATOM     23  C   UNL A   1      38.122  29.243  28.971  1.00  0.00    -0.018 A 
ATOM     24  C   UNL A   1      37.867  28.859  30.296  1.00  0.00     0.009 A 
BRANCH  23  25
ATOM     25  C   UNL A   1      39.176  28.624  28.162  1.00  0.00    -0.018 A 
ATOM     26  C   UNL A   1      39.667  29.270  27.015  1.00  0.00     0.010 A 
ATOM     27  C   UNL A   1      39.789  27.427  28.576  1.00  0.00     0.010 A 
ATOM     28  C   UNL A   1      40.741  28.740  26.304  1.00  0.00     0.021 A 
ATOM     29  C   UNL A   1      40.864  26.890  27.873  1.00  0.00     0.021 A 
ATOM     30  C   UNL A   1      41.325  27.547  26.733  1.00  0.00     0.067 A 
BRANCH  30  31
ATOM     31  S   UNL A   1      42.652  26.852  25.790  1.00  0.00     0.175 S 
ATOM     32  C   UNL A   1      43.534  25.912  27.008  1.00  0.00     0.163 C 
ATOM     33  O   UNL A   1      42.079  25.927  24.833  1.00  0.00    -0.224 OA
ATOM     34  O   UNL A   1      43.521  27.933  25.365  1.00  0.00    -0.224 OA
ENDBRANCH  30  31
ENDBRANCH  23  25
ENDBRANCH   7  19
ENDBRANCH   5   7
ENDBRANCH   4   5
ENDBRANCH   3   4
ENDBRANCH   2   3
ENDBRANCH   1   2
BRANCH   1  35
ATOM     35  C   UNL A   1      33.112  35.771  31.228  1.00  0.00     0.202 C 
BRANCH  35  36
ATOM     36  C   UNL A   1      34.341  35.704  32.142  1.00  0.00     0.261 C 
BRANCH  36  37
ATOM     37  O   UNL A   1      35.262  34.667  31.789  1.00  0.00    -0.460 OA
BRANCH  37  38
ATOM     38  C   UNL A   1      35.189  33.569  32.580  1.00  0.00     0.338 C 
ATOM     39  O   UNL A   1      34.394  32.643  32.483  1.00  0.00    -0.246 OA
BRANCH  38  40
ATOM     40  C   UNL A   1      36.353  33.539  33.480  1.00  0.00     0.060 A 
ATOM     41  C   UNL A   1      37.630  33.465  32.906  1.00  0.00     0.016 A 
ATOM     42  C   UNL A   1      36.188  33.529  34.865  1.00  0.00     0.016 A 
ATOM     43  C   UNL A   1      38.753  33.342  33.719  1.00  0.00     0.010 A 
ATOM     44  C   UNL A   1      37.313  33.388  35.677  1.00  0.00     0.010 A 
ATOM     45  C   UNL A   1      38.593  33.259  35.106  1.00  0.00    -0.014 A 
BRANCH  45  46
ATOM     46  C   UNL A   1      39.726  32.841  35.964  1.00  0.00     0.031 A 
ATOM     47  C   UNL A   1      40.270  33.836  36.949  1.00  0.00     0.074 A 
ATOM     48  C   UNL A   1      40.268  31.617  35.851  1.00  0.00     0.049 A 
ATOM     49  N   UNL A   1      41.353  33.778  37.678  1.00  0.00    -0.248 NA
ATOM     50  C   UNL A   1      39.490  35.072  37.120  1.00  0.00     0.031 C 
ATOM     51  C   UNL A   1      39.776  30.551  34.979  1.00  0.00     0.029 A 
ATOM     52  N   UNL A   1      41.371  31.074  36.460  1.00  0.00    -0.354 N 
ATOM     53  C   UNL A   1      41.398  34.979  38.378  1.00  0.00     0.074 A 
ATOM     54  C   UNL A   1      40.250  35.755  37.962  1.00  0.00     0.031 C 
ATOM     55  C   UNL A   1      40.590  29.488  35.092  1.00  0.00     0.029 A 
ATOM     56  C   UNL A   1      41.689  29.818  35.998  1.00  0.00     0.049 A 
ATOM     57  H   UNL A   1      41.884  31.538  37.161  1.00  0.00     0.167 HD
ATOM     58  C   UNL A   1      42.316  35.391  39.286  1.00  0.00     0.034 A 
ATOM     59  C   UNL A   1      42.768  29.048  36.247  1.00  0.00     0.034 A 
ATOM     60  C   UNL A   1      43.456  34.600  39.675  1.00  0.00     0.049 A 
ATOM     61  C   UNL A   1      43.832  29.565  37.188  1.00  0.00     0.074 A 
ATOM     62  C   UNL A   1      44.451  34.910  40.586  1.00  0.00     0.029 A 
ATOM     63  N   UNL A   1      43.761  33.342  39.168  1.00  0.00    -0.354 N 
ATOM     64  N   UNL A   1      43.882  30.711  37.831  1.00  0.00    -0.248 NA
ATOM     65  C   UNL A   1      44.983  28.687  37.440  1.00  0.00     0.031 C 
ATOM     66  C   UNL A   1      45.395  33.879  40.570  1.00  0.00     0.029 A 
ATOM     67  C   UNL A   1      44.942  32.879  39.725  1.00  0.00     0.049 A 
ATOM     68  H   UNL A   1      43.217  32.852  38.512  1.00  0.00     0.167 HD
ATOM     69  C   UNL A   1      45.044  30.666  38.600  1.00  0.00     0.074 A 
ATOM     70  C   UNL A   1      45.666  29.385  38.337  1.00  0.00     0.031 C 
ATOM     71  C   UNL A   1      45.544  31.593  39.457  1.00  0.00     0.034 A 
BRANCH  58  72
ATOM     72  C   UNL A   1      42.153  36.777  39.861  1.00  0.00     0.023 A 
ATOM     73  C   UNL A   1      41.511  37.000  41.091  1.00  0.00     0.031 A 
ATOM     74  C   UNL A   1      42.616  37.897  39.148  1.00  0.00     0.131 A 
ATOM     75  C   UNL A   1      41.284  38.311  41.534  1.00  0.00     0.055 A 
ATOM     76  C   UNL A   1      42.464  39.196  39.637  1.00  0.00     0.041 A 
ATOM     77  F   UNL A   1      43.211  37.750  37.954  1.00  0.00    -0.206 F 
ATOM     78  C   UNL A   1      41.781  39.410  40.829  1.00  0.00     0.022 A 
BRANCH  75  79
ATOM     79  S   UNL A   1      40.196  38.568  42.963  1.00  0.00     0.124 S 
ATOM     80  O   UNL A   1      41.166  38.726  44.045  1.00  0.00    -0.237 OA
ATOM     81  O   UNL A   1      39.458  39.768  42.586  1.00  0.00    -0.237 OA
ATOM     82  O   UNL A   1      39.407  37.340  43.018  1.00  0.00    -0.744 OA
ENDBRANCH  75  79
ENDBRANCH  58  72
BRANCH  59  83
ATOM     83  C   UNL A   1      42.930  27.730  35.567  1.00  0.00     0.023 A 
ATOM     84  C   UNL A   1      43.678  27.614  34.386  1.00  0.00     0.031 A 
ATOM     85  C   UNL A   1      42.292  26.577  36.059  1.00  0.00     0.131 A 
ATOM     86  C   UNL A   1      43.729  26.386  33.707  1.00  0.00     0.055 A 
ATOM     87  C   UNL A   1      42.395  25.344  35.413  1.00  0.00     0.041 A 
ATOM     88  F   UNL A   1      41.561  26.630  37.184  1.00  0.00    -0.206 F 
ATOM     89  C   UNL A   1      43.105  25.247  34.220  1.00  0.00     0.022 A 
BRANCH  86  90
ATOM     90  S   UNL A   1      44.540  26.325  32.086  1.00  0.00     0.124 S 
ATOM     91  O   UNL A   1      43.473  26.784  31.206  1.00  0.00    -0.237 OA
ATOM     92  O   UNL A   1      45.658  27.244  32.275  1.00  0.00    -0.237 OA
ATOM     93  O   UNL A   1      44.907  24.918  31.944  1.00  0.00    -0.744 OA
ENDBRANCH  86  90
ENDBRANCH  59  83
BRANCH  71  94
ATOM     94  C   UNL A   1      46.781  31.223  40.240  1.00  0.00     0.023 A 
ATOM     95  C   UNL A   1      48.075  31.536  39.793  1.00  0.00     0.031 A 
ATOM     96  C   UNL A   1      46.649  30.567  41.479  1.00  0.00     0.131 A 
ATOM     97  C   UNL A   1      49.188  31.155  40.559  1.00  0.00     0.055 A 
ATOM     98  C   UNL A   1      47.755  30.246  42.264  1.00  0.00     0.041 A 
ATOM     99  F   UNL A   1      45.435  30.242  41.952  1.00  0.00    -0.206 F 
ATOM    100  C   UNL A   1      49.036  30.531  41.801  1.00  0.00     0.022 A 
BRANCH  97 101
ATOM    101  S   UNL A   1      50.849  31.419  39.880  1.00  0.00     0.124 S 
ATOM    102  O   UNL A   1      51.700  30.933  40.962  1.00  0.00    -0.237 OA
ATOM    103  O   UNL A   1      50.827  30.601  38.672  1.00  0.00    -0.237 OA
ATOM    104  O   UNL A   1      50.902  32.862  39.650  1.00  0.00    -0.744 OA
ENDBRANCH  97 101
ENDBRANCH  71  94
ENDBRANCH  45  46
ENDBRANCH  38  40
ENDBRANCH  37  38
ENDBRANCH  36  37
ENDBRANCH  35  36
ENDBRANCH   1  35
TORSDOF 22
ENDMDL
