MODEL 1
REMARK VINA RESULT:      -9.6      0.000      0.000
REMARK SMILES C[NH2+][C@H]1CC[C@@H](Nc2ccc(C(=O)OCCOCCOC(=O)c3ccc(-c4c5nc(c(-c6cc(S(=O)(=O)[O-])ccc6F)c6ccc([nH]6)c(-c6cc(S(=O)(=O)[O-])ccc6F)c6nc(c(-c7cc(S(=O)(=O)[O-])ccc7F)c7ccc4[nH]7)C=C6)C=C5)cc3)c(F)c2F)CC1
REMARK SMILES IDX 17 1 16 2 15 3 14 4 12 5 13 6 11 7 8 8 9 9 88 10 10 11 86 12
REMARK SMILES IDX 89 13 87 14 7 15 6 17 3 18 91 19 4 20 90 21 5 22 2 23 1 24
REMARK SMILES IDX 18 27 19 28 20 29 21 30 22 31 23 32 24 33 85 34 25 35 84 36
REMARK SMILES IDX 26 37 27 38 28 39 78 40 29 41 83 42 77 43 79 44 30 45 82 46
REMARK SMILES IDX 76 47 75 48 31 50 63 51 43 52 62 53 44 54 47 55 61 56 80 57
REMARK SMILES IDX 45 58 46 59 60 61 81 62 48 63 32 64 33 65 41 66 34 67 40 68
REMARK SMILES IDX 42 69 39 70 35 71 36 72 37 73 38 74 64 75 65 76 73 77 66 78
REMARK SMILES IDX 72 79 74 80 71 81 67 82 68 83 69 84 70 85 49 86 50 87 58 88
REMARK SMILES IDX 51 89 57 90 59 91 56 92 52 93 53 94 54 95 55 96
REMARK H PARENT 7 16 2 25 2 26 79 49 47 60
REMARK Flexibility Score: inf
ROOT
ATOM      1  O   UNL A   1      32.589  35.108  30.198  1.00  0.00    -0.374 OA
ENDROOT
BRANCH   1   2
ATOM      2  C   UNL A   1      33.237  35.802  31.266  1.00  0.00     0.202 C 
BRANCH   2   3
ATOM      3  C   UNL A   1      33.548  34.963  32.510  1.00  0.00     0.261 C 
BRANCH   3   4
ATOM      4  O   UNL A   1      34.804  35.350  33.091  1.00  0.00    -0.460 OA
BRANCH   4   5
ATOM      5  C   UNL A   1      35.523  34.355  33.651  1.00  0.00     0.341 C 
ATOM      6  O   UNL A   1      35.109  33.442  34.353  1.00  0.00    -0.246 OA
BRANCH   5   7
ATOM      7  C   UNL A   1      36.904  34.378  33.146  1.00  0.00     0.099 A 
ATOM      8  C   UNL A   1      39.583  34.558  32.290  1.00  0.00     0.074 A 
ATOM      9  C   UNL A   1      39.275  34.603  33.650  1.00  0.00     0.030 A 
ATOM     10  C   UNL A   1      38.522  34.369  31.380  1.00  0.00     0.182 A 
ATOM     11  C   UNL A   1      37.943  34.539  34.076  1.00  0.00     0.021 A 
ATOM     12  C   UNL A   1      37.199  34.266  31.796  1.00  0.00     0.175 A 
ATOM     13  F   UNL A   1      38.806  34.288  30.068  1.00  0.00    -0.201 F 
ATOM     14  F   UNL A   1      36.235  34.095  30.882  1.00  0.00    -0.203 F 
BRANCH   8  15
ATOM     15  N   UNL A   1      40.870  34.684  31.795  1.00  0.00    -0.380 N 
ATOM     16  H   UNL A   1      41.111  35.545  31.381  1.00  0.00     0.160 HD
BRANCH  15  17
ATOM     17  C   UNL A   1      41.900  33.652  31.834  1.00  0.00     0.079 C 
ATOM     18  C   UNL A   1      43.647  34.436  29.513  1.00  0.00     0.182 C 
ATOM     19  C   UNL A   1      43.720  35.150  30.876  1.00  0.00     0.067 C 
ATOM     20  C   UNL A   1      42.285  33.744  29.308  1.00  0.00     0.067 C 
ATOM     21  C   UNL A   1      43.292  34.251  32.037  1.00  0.00     0.031 C 
ATOM     22  C   UNL A   1      41.862  32.884  30.503  1.00  0.00     0.031 C 
BRANCH  18  23
ATOM     23  N   UNL A   1      43.938  35.253  28.322  1.00  0.00    -0.346 N 
ATOM     24  C   UNL A   1      45.282  35.160  27.777  1.00  0.00     0.331 C 
ATOM     25  H   UNL A   1      43.287  34.972  27.589  1.00  0.00     0.346 HD
ATOM     26  H   UNL A   1      43.842  36.220  28.631  1.00  0.00     0.346 HD
ENDBRANCH  18  23
ENDBRANCH  15  17
ENDBRANCH   8  15
ENDBRANCH   5   7
ENDBRANCH   4   5
ENDBRANCH   3   4
ENDBRANCH   2   3
ENDBRANCH   1   2
BRANCH   1  27
ATOM     27  C   UNL A   1      33.229  35.140  28.922  1.00  0.00     0.202 C 
BRANCH  27  28
ATOM     28  C   UNL A   1      33.153  33.861  28.080  1.00  0.00     0.261 C 
BRANCH  28  29
ATOM     29  O   UNL A   1      34.421  33.191  27.987  1.00  0.00    -0.460 OA
BRANCH  29  30
ATOM     30  C   UNL A   1      34.333  31.844  27.861  1.00  0.00     0.338 C 
ATOM     31  O   UNL A   1      33.363  31.211  27.471  1.00  0.00    -0.246 OA
BRANCH  30  32
ATOM     32  C   UNL A   1      35.648  31.214  28.095  1.00  0.00     0.060 A 
ATOM     33  C   UNL A   1      35.652  29.850  28.412  1.00  0.00     0.016 A 
ATOM     34  C   UNL A   1      36.840  31.942  28.084  1.00  0.00     0.016 A 
ATOM     35  C   UNL A   1      36.837  29.225  28.787  1.00  0.00     0.010 A 
ATOM     36  C   UNL A   1      38.033  31.311  28.465  1.00  0.00     0.010 A 
ATOM     37  C   UNL A   1      38.028  29.960  28.859  1.00  0.00    -0.014 A 
BRANCH  37  38
ATOM     38  C   UNL A   1      39.215  29.344  29.507  1.00  0.00     0.031 A 
ATOM     39  C   UNL A   1      39.612  29.807  30.884  1.00  0.00     0.074 A 
ATOM     40  C   UNL A   1      39.880  28.336  28.913  1.00  0.00     0.049 A 
ATOM     41  N   UNL A   1      40.589  29.394  31.651  1.00  0.00    -0.248 NA
ATOM     42  C   UNL A   1      38.796  30.879  31.474  1.00  0.00     0.031 C 
ATOM     43  C   UNL A   1      39.556  27.769  27.604  1.00  0.00     0.029 A 
ATOM     44  N   UNL A   1      40.961  27.604  29.338  1.00  0.00    -0.354 N 
ATOM     45  C   UNL A   1      40.501  30.149  32.817  1.00  0.00     0.074 A 
ATOM     46  C   UNL A   1      39.405  31.077  32.634  1.00  0.00     0.031 C 
ATOM     47  C   UNL A   1      40.421  26.775  27.335  1.00  0.00     0.029 A 
ATOM     48  C   UNL A   1      41.377  26.655  28.433  1.00  0.00     0.049 A 
ATOM     49  H   UNL A   1      41.397  27.746  30.210  1.00  0.00     0.167 HD
ATOM     50  C   UNL A   1      41.253  30.065  33.942  1.00  0.00     0.034 A 
ATOM     51  C   UNL A   1      42.420  25.801  28.482  1.00  0.00     0.034 A 
ATOM     52  C   UNL A   1      42.352  29.144  34.107  1.00  0.00     0.049 A 
ATOM     53  C   UNL A   1      43.304  25.796  29.707  1.00  0.00     0.074 A 
ATOM     54  C   UNL A   1      43.179  28.976  35.204  1.00  0.00     0.029 A 
ATOM     55  N   UNL A   1      42.785  28.243  33.143  1.00  0.00    -0.354 N 
ATOM     56  N   UNL A   1      43.205  26.510  30.805  1.00  0.00    -0.248 NA
ATOM     57  C   UNL A   1      44.437  24.860  29.701  1.00  0.00     0.031 C 
ATOM     58  C   UNL A   1      44.152  28.024  34.879  1.00  0.00     0.029 A 
ATOM     59  C   UNL A   1      43.887  27.541  33.607  1.00  0.00     0.049 A 
ATOM     60  H   UNL A   1      42.371  28.121  32.258  1.00  0.00     0.167 HD
ATOM     61  C   UNL A   1      44.242  26.083  31.631  1.00  0.00     0.074 A 
ATOM     62  C   UNL A   1      44.944  25.040  30.912  1.00  0.00     0.031 C 
ATOM     63  C   UNL A   1      44.583  26.509  32.875  1.00  0.00     0.034 A 
BRANCH  50  64
ATOM     64  C   UNL A   1      40.937  31.030  35.059  1.00  0.00     0.023 A 
ATOM     65  C   UNL A   1      39.784  30.891  35.852  1.00  0.00     0.031 A 
ATOM     66  C   UNL A   1      41.789  32.117  35.321  1.00  0.00     0.131 A 
ATOM     67  C   UNL A   1      39.481  31.859  36.822  1.00  0.00     0.055 A 
ATOM     68  C   UNL A   1      41.521  33.034  36.338  1.00  0.00     0.041 A 
ATOM     69  F   UNL A   1      42.893  32.314  34.582  1.00  0.00    -0.206 F 
ATOM     70  C   UNL A   1      40.353  32.916  37.087  1.00  0.00     0.022 A 
BRANCH  67  71
ATOM     71  S   UNL A   1      37.863  31.791  37.640  1.00  0.00     0.124 S 
ATOM     72  O   UNL A   1      37.106  32.783  36.880  1.00  0.00    -0.237 OA
ATOM     73  O   UNL A   1      37.469  30.401  37.449  1.00  0.00    -0.237 OA
ATOM     74  O   UNL A   1      38.162  32.170  39.020  1.00  0.00    -0.744 OA
ENDBRANCH  67  71
ENDBRANCH  50  64
BRANCH  51  75
ATOM     75  C   UNL A   1      42.720  24.902  27.330  1.00  0.00     0.023 A 
ATOM     76  C   UNL A   1      42.174  23.611  27.253  1.00  0.00     0.031 A 
ATOM     77  C   UNL A   1      43.623  25.296  26.326  1.00  0.00     0.131 A 
ATOM     78  C   UNL A   1      42.574  22.742  26.226  1.00  0.00     0.055 A 
ATOM     79  C   UNL A   1      43.975  24.447  25.274  1.00  0.00     0.041 A 
ATOM     80  F   UNL A   1      44.180  26.517  26.353  1.00  0.00    -0.206 F 
ATOM     81  C   UNL A   1      43.461  23.156  25.229  1.00  0.00     0.022 A 
BRANCH  78  82
ATOM     82  S   UNL A   1      41.998  21.022  26.268  1.00  0.00     0.124 S 
ATOM     83  O   UNL A   1      42.257  20.656  27.655  1.00  0.00    -0.237 OA
ATOM     84  O   UNL A   1      40.596  21.164  25.893  1.00  0.00    -0.237 OA
ATOM     85  O   UNL A   1      42.842  20.355  25.278  1.00  0.00    -0.744 OA
ENDBRANCH  78  82
ENDBRANCH  51  75
BRANCH  63  86
ATOM     86  C   UNL A   1      45.740  25.810  33.548  1.00  0.00     0.023 A 
ATOM     87  C   UNL A   1      45.541  24.783  34.486  1.00  0.00     0.031 A 
ATOM     88  C   UNL A   1      47.062  26.189  33.253  1.00  0.00     0.131 A 
ATOM     89  C   UNL A   1      46.643  24.210  35.141  1.00  0.00     0.055 A 
ATOM     90  C   UNL A   1      48.157  25.574  33.862  1.00  0.00     0.041 A 
ATOM     91  F   UNL A   1      47.312  27.165  32.365  1.00  0.00    -0.206 F 
ATOM     92  C   UNL A   1      47.950  24.587  34.821  1.00  0.00     0.022 A 
BRANCH  89  93
ATOM     93  S   UNL A   1      46.342  23.026  36.482  1.00  0.00     0.124 S 
ATOM     94  O   UNL A   1      47.608  23.059  37.206  1.00  0.00    -0.237 OA
ATOM     95  O   UNL A   1      45.199  23.618  37.169  1.00  0.00    -0.237 OA
ATOM     96  O   UNL A   1      46.061  21.776  35.779  1.00  0.00    -0.744 OA
ENDBRANCH  89  93
ENDBRANCH  63  86
ENDBRANCH  37  38
ENDBRANCH  30  32
ENDBRANCH  29  30
ENDBRANCH  28  29
ENDBRANCH  27  28
ENDBRANCH   1  27
TORSDOF 20
ENDMDL
MODEL 2
REMARK VINA RESULT:      -9.4      4.147     10.332
REMARK SMILES C[NH2+][C@H]1CC[C@@H](Nc2ccc(C(=O)OCCOCCOC(=O)c3ccc(-c4c5nc(c(-c6cc(S(=O)(=O)[O-])ccc6F)c6ccc([nH]6)c(-c6cc(S(=O)(=O)[O-])ccc6F)c6nc(c(-c7cc(S(=O)(=O)[O-])ccc7F)c7ccc4[nH]7)C=C6)C=C5)cc3)c(F)c2F)CC1
REMARK SMILES IDX 17 1 16 2 15 3 14 4 12 5 13 6 11 7 8 8 9 9 88 10 10 11 86 12
REMARK SMILES IDX 89 13 87 14 7 15 6 17 3 18 91 19 4 20 90 21 5 22 2 23 1 24
REMARK SMILES IDX 18 27 19 28 20 29 21 30 22 31 23 32 24 33 85 34 25 35 84 36
REMARK SMILES IDX 26 37 27 38 28 39 78 40 29 41 83 42 77 43 79 44 30 45 82 46
REMARK SMILES IDX 76 47 75 48 31 50 63 51 43 52 62 53 44 54 47 55 61 56 80 57
REMARK SMILES IDX 45 58 46 59 60 61 81 62 48 63 32 64 33 65 41 66 34 67 40 68
REMARK SMILES IDX 42 69 39 70 35 71 36 72 37 73 38 74 64 75 65 76 73 77 66 78
REMARK SMILES IDX 72 79 74 80 71 81 67 82 68 83 69 84 70 85 49 86 50 87 58 88
REMARK SMILES IDX 51 89 57 90 59 91 56 92 52 93 53 94 54 95 55 96
REMARK H PARENT 7 16 2 25 2 26 79 49 47 60
REMARK Flexibility Score: inf
ROOT
ATOM      1  O   UNL A   1      30.784  29.236  24.669  1.00  0.00    -0.374 OA
ENDROOT
BRANCH   1   2
ATOM      2  C   UNL A   1      30.516  29.652  23.328  1.00  0.00     0.202 C 
BRANCH   2   3
ATOM      3  C   UNL A   1      29.936  28.577  22.403  1.00  0.00     0.261 C 
BRANCH   3   4
ATOM      4  O   UNL A   1      30.609  27.321  22.589  1.00  0.00    -0.460 OA
BRANCH   4   5
ATOM      5  C   UNL A   1      30.081  26.505  23.525  1.00  0.00     0.341 C 
ATOM      6  O   UNL A   1      28.913  26.445  23.886  1.00  0.00    -0.246 OA
BRANCH   5   7
ATOM      7  C   UNL A   1      31.077  25.512  23.956  1.00  0.00     0.099 A 
ATOM      8  C   UNL A   1      33.113  23.725  24.733  1.00  0.00     0.074 A 
ATOM      9  C   UNL A   1      33.175  25.068  25.107  1.00  0.00     0.030 A 
ATOM     10  C   UNL A   1      31.982  23.295  24.008  1.00  0.00     0.182 A 
ATOM     11  C   UNL A   1      32.177  25.962  24.701  1.00  0.00     0.021 A 
ATOM     12  C   UNL A   1      30.967  24.168  23.632  1.00  0.00     0.175 A 
ATOM     13  F   UNL A   1      31.890  21.997  23.670  1.00  0.00    -0.201 F 
ATOM     14  F   UNL A   1      29.923  23.699  22.935  1.00  0.00    -0.203 F 
BRANCH   8  15
ATOM     15  N   UNL A   1      34.096  22.801  25.042  1.00  0.00    -0.380 N 
ATOM     16  H   UNL A   1      34.199  22.553  25.989  1.00  0.00     0.160 HD
BRANCH  15  17
ATOM     17  C   UNL A   1      34.993  22.163  24.085  1.00  0.00     0.079 C 
ATOM     18  C   UNL A   1      37.641  22.348  25.502  1.00  0.00     0.182 C 
ATOM     19  C   UNL A   1      36.587  21.283  25.862  1.00  0.00     0.067 C 
ATOM     20  C   UNL A   1      37.000  23.569  24.814  1.00  0.00     0.067 C 
ATOM     21  C   UNL A   1      35.675  20.933  24.685  1.00  0.00     0.031 C 
ATOM     22  C   UNL A   1      36.058  23.187  23.666  1.00  0.00     0.031 C 
BRANCH  18  23
ATOM     23  N   UNL A   1      38.497  22.829  26.599  1.00  0.00    -0.346 N 
ATOM     24  C   UNL A   1      38.626  24.269  26.747  1.00  0.00     0.331 C 
ATOM     25  H   UNL A   1      38.117  22.462  27.471  1.00  0.00     0.346 HD
ATOM     26  H   UNL A   1      39.436  22.500  26.370  1.00  0.00     0.346 HD
ENDBRANCH  18  23
ENDBRANCH  15  17
ENDBRANCH   8  15
ENDBRANCH   5   7
ENDBRANCH   4   5
ENDBRANCH   3   4
ENDBRANCH   2   3
ENDBRANCH   1   2
BRANCH   1  27
ATOM     27  C   UNL A   1      31.963  29.754  25.285  1.00  0.00     0.202 C 
BRANCH  27  28
ATOM     28  C   UNL A   1      31.783  30.961  26.213  1.00  0.00     0.261 C 
BRANCH  28  29
ATOM     29  O   UNL A   1      32.650  30.904  27.358  1.00  0.00    -0.460 OA
BRANCH  29  30
ATOM     30  C   UNL A   1      33.486  31.965  27.478  1.00  0.00     0.338 C 
ATOM     31  O   UNL A   1      33.180  33.146  27.393  1.00  0.00    -0.246 OA
BRANCH  30  32
ATOM     32  C   UNL A   1      34.826  31.522  27.911  1.00  0.00     0.060 A 
ATOM     33  C   UNL A   1      34.970  30.171  28.250  1.00  0.00     0.016 A 
ATOM     34  C   UNL A   1      35.897  32.407  28.059  1.00  0.00     0.016 A 
ATOM     35  C   UNL A   1      36.163  29.714  28.804  1.00  0.00     0.010 A 
ATOM     36  C   UNL A   1      37.095  31.946  28.620  1.00  0.00     0.010 A 
ATOM     37  C   UNL A   1      37.218  30.606  29.033  1.00  0.00    -0.014 A 
BRANCH  37  38
ATOM     38  C   UNL A   1      38.371  30.158  29.857  1.00  0.00     0.031 A 
ATOM     39  C   UNL A   1      39.336  29.160  29.275  1.00  0.00     0.074 A 
ATOM     40  C   UNL A   1      38.598  30.690  31.073  1.00  0.00     0.049 A 
ATOM     41  N   UNL A   1      40.423  28.651  29.796  1.00  0.00    -0.248 NA
ATOM     42  C   UNL A   1      39.033  28.673  27.920  1.00  0.00     0.031 C 
ATOM     43  C   UNL A   1      37.761  31.700  31.720  1.00  0.00     0.029 A 
ATOM     44  N   UNL A   1      39.605  30.458  31.976  1.00  0.00    -0.354 N 
ATOM     45  C   UNL A   1      40.939  27.790  28.832  1.00  0.00     0.074 A 
ATOM     46  C   UNL A   1      40.018  27.810  27.715  1.00  0.00     0.031 C 
ATOM     47  C   UNL A   1      38.293  32.003  32.917  1.00  0.00     0.029 A 
ATOM     48  C   UNL A   1      39.487  31.188  33.136  1.00  0.00     0.049 A 
ATOM     49  H   UNL A   1      40.343  29.829  31.809  1.00  0.00     0.167 HD
ATOM     50  C   UNL A   1      42.083  27.062  28.868  1.00  0.00     0.034 A 
ATOM     51  C   UNL A   1      40.245  31.185  34.251  1.00  0.00     0.034 A 
ATOM     52  C   UNL A   1      42.985  27.039  29.994  1.00  0.00     0.049 A 
ATOM     53  C   UNL A   1      41.461  30.290  34.305  1.00  0.00     0.074 A 
ATOM     54  C   UNL A   1      44.170  26.339  30.135  1.00  0.00     0.029 A 
ATOM     55  N   UNL A   1      42.798  27.742  31.177  1.00  0.00    -0.354 N 
ATOM     56  N   UNL A   1      41.942  29.486  33.384  1.00  0.00    -0.248 NA
ATOM     57  C   UNL A   1      42.243  30.310  35.549  1.00  0.00     0.031 C 
ATOM     58  C   UNL A   1      44.662  26.562  31.425  1.00  0.00     0.029 A 
ATOM     59  C   UNL A   1      43.827  27.464  32.064  1.00  0.00     0.049 A 
ATOM     60  H   UNL A   1      42.044  28.348  31.360  1.00  0.00     0.167 HD
ATOM     61  C   UNL A   1      43.099  28.933  33.927  1.00  0.00     0.074 A 
ATOM     62  C   UNL A   1      43.253  29.507  35.248  1.00  0.00     0.031 C 
ATOM     63  C   UNL A   1      43.962  28.037  33.384  1.00  0.00     0.034 A 
BRANCH  50  64
ATOM     64  C   UNL A   1      42.389  26.196  27.670  1.00  0.00     0.023 A 
ATOM     65  C   UNL A   1      42.134  24.813  27.671  1.00  0.00     0.031 A 
ATOM     66  C   UNL A   1      42.966  26.758  26.517  1.00  0.00     0.131 A 
ATOM     67  C   UNL A   1      42.515  24.030  26.571  1.00  0.00     0.055 A 
ATOM     68  C   UNL A   1      43.272  25.986  25.396  1.00  0.00     0.041 A 
ATOM     69  F   UNL A   1      43.253  28.069  26.466  1.00  0.00    -0.206 F 
ATOM     70  C   UNL A   1      43.059  24.610  25.423  1.00  0.00     0.022 A 
BRANCH  67  71
ATOM     71  S   UNL A   1      42.412  22.225  26.713  1.00  0.00     0.124 S 
ATOM     72  O   UNL A   1      42.112  22.057  28.133  1.00  0.00    -0.237 OA
ATOM     73  O   UNL A   1      41.334  21.895  25.788  1.00  0.00    -0.237 OA
ATOM     74  O   UNL A   1      43.742  21.773  26.307  1.00  0.00    -0.744 OA
ENDBRANCH  67  71
ENDBRANCH  50  64
BRANCH  51  75
ATOM     75  C   UNL A   1      39.872  32.023  35.428  1.00  0.00     0.023 A 
ATOM     76  C   UNL A   1      39.014  31.536  36.426  1.00  0.00     0.031 A 
ATOM     77  C   UNL A   1      40.312  33.356  35.530  1.00  0.00     0.131 A 
ATOM     78  C   UNL A   1      38.580  32.390  37.452  1.00  0.00     0.055 A 
ATOM     79  C   UNL A   1      39.922  34.184  36.584  1.00  0.00     0.041 A 
ATOM     80  F   UNL A   1      41.130  33.875  34.601  1.00  0.00    -0.206 F 
ATOM     81  C   UNL A   1      39.038  33.705  37.545  1.00  0.00     0.022 A 
BRANCH  78  82
ATOM     82  S   UNL A   1      37.321  31.784  38.611  1.00  0.00     0.124 S 
ATOM     83  O   UNL A   1      38.016  31.894  39.889  1.00  0.00    -0.237 OA
ATOM     84  O   UNL A   1      36.230  32.726  38.391  1.00  0.00    -0.237 OA
ATOM     85  O   UNL A   1      37.067  30.419  38.155  1.00  0.00    -0.744 OA
ENDBRANCH  78  82
ENDBRANCH  51  75
BRANCH  63  86
ATOM     86  C   UNL A   1      45.171  27.661  34.206  1.00  0.00     0.023 A 
ATOM     87  C   UNL A   1      45.162  26.559  35.078  1.00  0.00     0.031 A 
ATOM     88  C   UNL A   1      46.348  28.427  34.123  1.00  0.00     0.131 A 
ATOM     89  C   UNL A   1      46.284  26.288  35.877  1.00  0.00     0.055 A 
ATOM     90  C   UNL A   1      47.482  28.117  34.874  1.00  0.00     0.041 A 
ATOM     91  F   UNL A   1      46.415  29.491  33.306  1.00  0.00    -0.206 F 
ATOM     92  C   UNL A   1      47.450  27.051  35.767  1.00  0.00     0.022 A 
BRANCH  89  93
ATOM     93  S   UNL A   1      46.170  24.980  37.128  1.00  0.00     0.124 S 
ATOM     94  O   UNL A   1      47.103  23.984  36.612  1.00  0.00    -0.237 OA
ATOM     95  O   UNL A   1      46.585  25.674  38.343  1.00  0.00    -0.237 OA
ATOM     96  O   UNL A   1      44.762  24.590  37.089  1.00  0.00    -0.744 OA
ENDBRANCH  89  93
ENDBRANCH  63  86
ENDBRANCH  37  38
ENDBRANCH  30  32
ENDBRANCH  29  30
ENDBRANCH  28  29
ENDBRANCH  27  28
ENDBRANCH   1  27
TORSDOF 20
ENDMDL
MODEL 3
REMARK VINA RESULT:      -8.9      4.521     10.713
REMARK SMILES C[NH2+][C@H]1CC[C@@H](Nc2ccc(C(=O)OCCOCCOC(=O)c3ccc(-c4c5nc(c(-c6cc(S(=O)(=O)[O-])ccc6F)c6ccc([nH]6)c(-c6cc(S(=O)(=O)[O-])ccc6F)c6nc(c(-c7cc(S(=O)(=O)[O-])ccc7F)c7ccc4[nH]7)C=C6)C=C5)cc3)c(F)c2F)CC1
REMARK SMILES IDX 17 1 16 2 15 3 14 4 12 5 13 6 11 7 8 8 9 9 88 10 10 11 86 12
REMARK SMILES IDX 89 13 87 14 7 15 6 17 3 18 91 19 4 20 90 21 5 22 2 23 1 24
REMARK SMILES IDX 18 27 19 28 20 29 21 30 22 31 23 32 24 33 85 34 25 35 84 36
REMARK SMILES IDX 26 37 27 38 28 39 78 40 29 41 83 42 77 43 79 44 30 45 82 46
REMARK SMILES IDX 76 47 75 48 31 50 63 51 43 52 62 53 44 54 47 55 61 56 80 57
REMARK SMILES IDX 45 58 46 59 60 61 81 62 48 63 32 64 33 65 41 66 34 67 40 68
REMARK SMILES IDX 42 69 39 70 35 71 36 72 37 73 38 74 64 75 65 76 73 77 66 78
REMARK SMILES IDX 72 79 74 80 71 81 67 82 68 83 69 84 70 85 49 86 50 87 58 88
REMARK SMILES IDX 51 89 57 90 59 91 56 92 52 93 53 94 54 95 55 96
REMARK H PARENT 7 16 2 25 2 26 79 49 47 60
REMARK Flexibility Score: inf
ROOT
ATOM      1  O   UNL A   1      31.240  29.005  24.589  1.00  0.00    -0.374 OA
ENDROOT
BRANCH   1   2
ATOM      2  C   UNL A   1      30.306  29.743  23.798  1.00  0.00     0.202 C 
BRANCH   2   3
ATOM      3  C   UNL A   1      29.244  28.909  23.074  1.00  0.00     0.261 C 
BRANCH   3   4
ATOM      4  O   UNL A   1      29.726  27.581  22.808  1.00  0.00    -0.460 OA
BRANCH   4   5
ATOM      5  C   UNL A   1      29.352  26.632  23.692  1.00  0.00     0.341 C 
ATOM      6  O   UNL A   1      28.221  26.394  24.094  1.00  0.00    -0.246 OA
BRANCH   5   7
ATOM      7  C   UNL A   1      30.485  25.744  23.995  1.00  0.00     0.099 A 
ATOM      8  C   UNL A   1      32.570  23.912  24.484  1.00  0.00     0.074 A 
ATOM      9  C   UNL A   1      32.019  24.026  23.207  1.00  0.00     0.030 A 
ATOM     10  C   UNL A   1      32.085  24.774  25.490  1.00  0.00     0.182 A 
ATOM     11  C   UNL A   1      30.966  24.917  22.968  1.00  0.00     0.021 A 
ATOM     12  C   UNL A   1      31.065  25.689  25.253  1.00  0.00     0.175 A 
ATOM     13  F   UNL A   1      32.629  24.701  26.717  1.00  0.00    -0.201 F 
ATOM     14  F   UNL A   1      30.642  26.474  26.253  1.00  0.00    -0.203 F 
BRANCH   8  15
ATOM     15  N   UNL A   1      33.565  23.005  24.808  1.00  0.00    -0.380 N 
ATOM     16  H   UNL A   1      34.299  22.893  24.161  1.00  0.00     0.160 HD
BRANCH  15  17
ATOM     17  C   UNL A   1      33.620  22.203  26.025  1.00  0.00     0.079 C 
ATOM     18  C   UNL A   1      33.824  19.414  24.916  1.00  0.00     0.182 C 
ATOM     19  C   UNL A   1      35.036  20.362  24.986  1.00  0.00     0.067 C 
ATOM     20  C   UNL A   1      32.494  20.193  24.917  1.00  0.00     0.067 C 
ATOM     21  C   UNL A   1      34.914  21.393  26.108  1.00  0.00     0.031 C 
ATOM     22  C   UNL A   1      32.417  21.248  26.027  1.00  0.00     0.031 C 
BRANCH  18  23
ATOM     23  N   UNL A   1      33.799  18.453  23.799  1.00  0.00    -0.346 N 
ATOM     24  C   UNL A   1      32.687  17.518  23.764  1.00  0.00     0.331 C 
ATOM     25  H   UNL A   1      33.779  18.989  22.932  1.00  0.00     0.346 HD
ATOM     26  H   UNL A   1      34.629  17.874  23.926  1.00  0.00     0.346 HD
ENDBRANCH  18  23
ENDBRANCH  15  17
ENDBRANCH   8  15
ENDBRANCH   5   7
ENDBRANCH   4   5
ENDBRANCH   3   4
ENDBRANCH   2   3
ENDBRANCH   1   2
BRANCH   1  27
ATOM     27  C   UNL A   1      32.315  29.740  25.175  1.00  0.00     0.202 C 
BRANCH  27  28
ATOM     28  C   UNL A   1      31.959  30.670  26.341  1.00  0.00     0.261 C 
BRANCH  28  29
ATOM     29  O   UNL A   1      32.879  30.546  27.438  1.00  0.00    -0.460 OA
BRANCH  29  30
ATOM     30  C   UNL A   1      33.680  31.626  27.619  1.00  0.00     0.338 C 
ATOM     31  O   UNL A   1      33.332  32.798  27.624  1.00  0.00    -0.246 OA
BRANCH  30  32
ATOM     32  C   UNL A   1      35.044  31.202  27.995  1.00  0.00     0.060 A 
ATOM     33  C   UNL A   1      35.236  29.840  28.258  1.00  0.00     0.016 A 
ATOM     34  C   UNL A   1      36.091  32.111  28.165  1.00  0.00     0.016 A 
ATOM     35  C   UNL A   1      36.455  29.391  28.758  1.00  0.00     0.010 A 
ATOM     36  C   UNL A   1      37.317  31.657  28.671  1.00  0.00     0.010 A 
ATOM     37  C   UNL A   1      37.490  30.302  29.009  1.00  0.00    -0.014 A 
BRANCH  37  38
ATOM     38  C   UNL A   1      38.676  29.847  29.780  1.00  0.00     0.031 A 
ATOM     39  C   UNL A   1      39.584  28.812  29.171  1.00  0.00     0.074 A 
ATOM     40  C   UNL A   1      38.981  30.402  30.968  1.00  0.00     0.049 A 
ATOM     41  N   UNL A   1      40.687  28.290  29.645  1.00  0.00    -0.248 NA
ATOM     42  C   UNL A   1      39.197  28.300  27.848  1.00  0.00     0.031 C 
ATOM     43  C   UNL A   1      38.205  31.448  31.633  1.00  0.00     0.029 A 
ATOM     44  N   UNL A   1      40.031  30.169  31.820  1.00  0.00    -0.354 N 
ATOM     45  C   UNL A   1      41.129  27.394  28.677  1.00  0.00     0.074 A 
ATOM     46  C   UNL A   1      40.149  27.410  27.612  1.00  0.00     0.031 C 
ATOM     47  C   UNL A   1      38.809  31.767  32.791  1.00  0.00     0.029 A 
ATOM     48  C   UNL A   1      39.994  30.930  32.966  1.00  0.00     0.049 A 
ATOM     49  H   UNL A   1      40.745  29.518  31.628  1.00  0.00     0.167 HD
ATOM     50  C   UNL A   1      42.257  26.640  28.669  1.00  0.00     0.034 A 
ATOM     51  C   UNL A   1      40.813  30.935  34.037  1.00  0.00     0.034 A 
ATOM     52  C   UNL A   1      43.220  26.624  29.743  1.00  0.00     0.049 A 
ATOM     53  C   UNL A   1      42.009  30.013  34.048  1.00  0.00     0.074 A 
ATOM     54  C   UNL A   1      44.395  25.899  29.838  1.00  0.00     0.029 A 
ATOM     55  N   UNL A   1      43.114  27.359  30.917  1.00  0.00    -0.354 N 
ATOM     56  N   UNL A   1      42.420  29.176  33.122  1.00  0.00    -0.248 NA
ATOM     57  C   UNL A   1      42.859  30.045  35.246  1.00  0.00     0.031 C 
ATOM     58  C   UNL A   1      44.962  26.142  31.093  1.00  0.00     0.029 A 
ATOM     59  C   UNL A   1      44.183  27.079  31.754  1.00  0.00     0.049 A 
ATOM     60  H   UNL A   1      42.385  27.987  31.125  1.00  0.00     0.167 HD
ATOM     61  C   UNL A   1      43.593  28.609  33.615  1.00  0.00     0.074 A 
ATOM     62  C   UNL A   1      43.832  29.211  34.911  1.00  0.00     0.031 C 
ATOM     63  C   UNL A   1      44.404  27.679  33.048  1.00  0.00     0.034 A 
BRANCH  50  64
ATOM     64  C   UNL A   1      42.478  25.739  27.478  1.00  0.00     0.023 A 
ATOM     65  C   UNL A   1      41.943  24.440  27.424  1.00  0.00     0.031 A 
ATOM     66  C   UNL A   1      43.253  26.177  26.390  1.00  0.00     0.131 A 
ATOM     67  C   UNL A   1      42.245  23.603  26.339  1.00  0.00     0.055 A 
ATOM     68  C   UNL A   1      43.486  25.366  25.278  1.00  0.00     0.041 A 
ATOM     69  F   UNL A   1      43.809  27.400  26.395  1.00  0.00    -0.206 F 
ATOM     70  C   UNL A   1      42.992  24.065  25.254  1.00  0.00     0.022 A 
BRANCH  67  71
ATOM     71  S   UNL A   1      41.758  21.857  26.427  1.00  0.00     0.124 S 
ATOM     72  O   UNL A   1      40.350  21.923  26.042  1.00  0.00    -0.237 OA
ATOM     73  O   UNL A   1      42.656  21.230  25.465  1.00  0.00    -0.237 OA
ATOM     74  O   UNL A   1      41.998  21.505  27.825  1.00  0.00    -0.744 OA
ENDBRANCH  67  71
ENDBRANCH  50  64
BRANCH  51  75
ATOM     75  C   UNL A   1      40.524  31.810  35.211  1.00  0.00     0.023 A 
ATOM     76  C   UNL A   1      39.445  31.545  36.068  1.00  0.00     0.031 A 
ATOM     77  C   UNL A   1      41.283  32.971  35.446  1.00  0.00     0.131 A 
ATOM     78  C   UNL A   1      39.121  32.456  37.087  1.00  0.00     0.055 A 
ATOM     79  C   UNL A   1      40.991  33.844  36.496  1.00  0.00     0.041 A 
ATOM     80  F   UNL A   1      42.323  33.275  34.654  1.00  0.00    -0.206 F 
ATOM     81  C   UNL A   1      39.895  33.596  37.314  1.00  0.00     0.022 A 
BRANCH  78  82
ATOM     82  S   UNL A   1      37.607  32.181  38.049  1.00  0.00     0.124 S 
ATOM     83  O   UNL A   1      37.410  30.745  37.889  1.00  0.00    -0.237 OA
ATOM     84  O   UNL A   1      38.008  32.630  39.377  1.00  0.00    -0.237 OA
ATOM     85  O   UNL A   1      36.620  33.025  37.379  1.00  0.00    -0.744 OA
ENDBRANCH  78  82
ENDBRANCH  51  75
BRANCH  63  86
ATOM     86  C   UNL A   1      45.649  27.295  33.813  1.00  0.00     0.023 A 
ATOM     87  C   UNL A   1      45.659  26.224  34.722  1.00  0.00     0.031 A 
ATOM     88  C   UNL A   1      46.839  28.023  33.636  1.00  0.00     0.131 A 
ATOM     89  C   UNL A   1      46.818  25.946  35.464  1.00  0.00     0.055 A 
ATOM     90  C   UNL A   1      48.006  27.704  34.331  1.00  0.00     0.041 A 
ATOM     91  F   UNL A   1      46.888  29.057  32.780  1.00  0.00    -0.206 F 
ATOM     92  C   UNL A   1      47.996  26.669  35.261  1.00  0.00     0.022 A 
BRANCH  89  93
ATOM     93  S   UNL A   1      46.740  24.684  36.764  1.00  0.00     0.124 S 
ATOM     94  O   UNL A   1      45.806  25.282  37.712  1.00  0.00    -0.237 OA
ATOM     95  O   UNL A   1      46.251  23.517  36.037  1.00  0.00    -0.237 OA
ATOM     96  O   UNL A   1      48.121  24.587  37.231  1.00  0.00    -0.744 OA
ENDBRANCH  89  93
ENDBRANCH  63  86
ENDBRANCH  37  38
ENDBRANCH  30  32
ENDBRANCH  29  30
ENDBRANCH  28  29
ENDBRANCH  27  28
ENDBRANCH   1  27
TORSDOF 20
ENDMDL
