MODEL 1
REMARK VINA RESULT:     -12.1      0.000      0.000
REMARK SMILES Cc1c(CCC(=O)N2CCC[C@H]2C(=O)OCCOCCOC(=O)c2ccc(-c3c4nc(c(-c5cc(S(=O)(=O)[O-])ccc5F)c5ccc([nH]5)c(-c5cc(S(=O)(=O)[O-])ccc5F)c5nc(c(-c6cc(S(=O)(=O)[O-])ccc6F)c6ccc3[nH]6)C=C5)C=C4)cc2)c(=O)oc2cc3oc4c(c3cc12)CCCC4
REMARK SMILES IDX 17 1 16 2 15 3 13 4 14 5 12 6 8 7 9 8 10 9 11 10 6 11 7 12
REMARK SMILES IDX 5 13 4 14 3 15 1 16 2 17 98 18 87 19 90 20 97 21 88 22 89 23
REMARK SMILES IDX 91 24 96 25 92 26 95 27 93 28 94 29 99 30 102 31 100 32
REMARK SMILES IDX 101 33 18 34 19 35 20 36 21 37 22 38 23 39 24 40 25 41 86 42
REMARK SMILES IDX 26 43 85 44 27 45 28 46 29 47 79 48 30 49 84 50 78 51 80 52
REMARK SMILES IDX 31 53 83 54 77 55 76 56 32 58 64 59 44 60 63 61 45 62 48 63
REMARK SMILES IDX 62 64 81 65 46 66 47 67 61 69 82 70 49 71 33 72 34 73 42 74
REMARK SMILES IDX 35 75 41 76 43 77 40 78 36 79 37 80 38 81 39 82 65 83 66 84
REMARK SMILES IDX 74 85 67 86 73 87 75 88 72 89 68 90 69 91 70 92 71 93 50 94
REMARK SMILES IDX 51 95 59 96 52 97 58 98 60 99 57 100 53 101 54 102 55 103
REMARK SMILES IDX 56 104
REMARK H PARENT 80 57 48 68
REMARK Flexibility Score: inf
ROOT
ATOM      1  C   UNL A   1      34.978  21.361  25.855  1.00  0.00     0.202 C 
ENDROOT
BRANCH   1   2
ATOM      2  C   UNL A   1      34.897  22.830  26.319  1.00  0.00     0.261 C 
BRANCH   2   3
ATOM      3  O   UNL A   1      34.166  23.066  27.541  1.00  0.00    -0.462 OA
BRANCH   3   4
ATOM      4  C   UNL A   1      32.823  23.130  27.367  1.00  0.00     0.328 C 
ATOM      5  O   UNL A   1      32.017  22.532  28.082  1.00  0.00    -0.250 OA
BRANCH   4   6
ATOM      6  C   UNL A   1      32.314  24.064  26.239  1.00  0.00     0.195 C 
ATOM      7  N   UNL A   1      31.409  23.797  25.089  1.00  0.00    -0.329 N 
ATOM      8  C   UNL A   1      30.409  24.851  24.968  1.00  0.00     0.120 C 
ATOM      9  C   UNL A   1      30.749  25.909  25.992  1.00  0.00     0.024 C 
ATOM     10  C   UNL A   1      31.601  25.192  27.009  1.00  0.00     0.039 C 
BRANCH   7  11
ATOM     11  C   UNL A   1      31.752  22.945  24.048  1.00  0.00     0.223 C 
ATOM     12  O   UNL A   1      31.921  21.740  24.240  1.00  0.00    -0.275 OA
BRANCH  11  13
ATOM     13  C   UNL A   1      31.991  23.516  22.628  1.00  0.00     0.105 C 
BRANCH  13  14
ATOM     14  C   UNL A   1      33.306  24.274  22.359  1.00  0.00     0.053 C 
BRANCH  14  15
ATOM     15  C   UNL A   1      33.188  25.727  22.716  1.00  0.00     0.042 A 
ATOM     16  C   UNL A   1      31.697  26.231  20.742  1.00  0.00     0.046 C 
ATOM     17  C   UNL A   1      32.328  26.522  22.066  1.00  0.00    -0.030 A 
ATOM     18  C   UNL A   1      31.785  27.607  22.860  1.00  0.00     0.022 A 
ATOM     19  C   UNL A   1      33.940  26.241  23.899  1.00  0.00     0.339 A 
ATOM     20  C   UNL A   1      32.529  28.178  23.888  1.00  0.00     0.142 A 
ATOM     21  C   UNL A   1      30.439  27.926  22.726  1.00  0.00     0.024 A 
ATOM     22  O   UNL A   1      34.726  25.528  24.515  1.00  0.00    -0.246 OA
ATOM     23  O   UNL A   1      33.750  27.580  24.248  1.00  0.00    -0.422 OA
ATOM     24  C   UNL A   1      32.071  29.269  24.638  1.00  0.00     0.095 A 
ATOM     25  C   UNL A   1      29.913  28.939  23.518  1.00  0.00     0.025 A 
ATOM     26  C   UNL A   1      30.774  29.669  24.327  1.00  0.00     0.138 A 
ATOM     27  C   UNL A   1      28.683  29.634  23.448  1.00  0.00     0.001 A 
ATOM     28  O   UNL A   1      30.202  30.882  24.591  1.00  0.00    -0.461 OA
ATOM     29  C   UNL A   1      29.092  30.911  23.791  1.00  0.00     0.108 A 
ATOM     30  C   UNL A   1      27.654  29.446  22.382  1.00  0.00     0.040 C 
ATOM     31  C   UNL A   1      28.983  31.987  22.747  1.00  0.00     0.076 C 
ATOM     32  C   UNL A   1      28.231  30.069  21.097  1.00  0.00     0.005 C 
ATOM     33  C   UNL A   1      29.194  31.266  21.372  1.00  0.00     0.008 C 
ENDBRANCH  14  15
ENDBRANCH  13  14
ENDBRANCH  11  13
ENDBRANCH   7  11
ENDBRANCH   4   6
ENDBRANCH   3   4
ENDBRANCH   2   3
ENDBRANCH   1   2
BRANCH   1  34
ATOM     34  O   UNL A   1      35.692  21.068  24.659  1.00  0.00    -0.374 OA
BRANCH  34  35
ATOM     35  C   UNL A   1      36.947  21.727  24.463  1.00  0.00     0.202 C 
BRANCH  35  36
ATOM     36  C   UNL A   1      38.131  21.259  25.316  1.00  0.00     0.261 C 
BRANCH  36  37
ATOM     37  O   UNL A   1      38.694  22.353  26.064  1.00  0.00    -0.460 OA
BRANCH  37  38
ATOM     38  C   UNL A   1      39.979  22.204  26.444  1.00  0.00     0.338 C 
ATOM     39  O   UNL A   1      40.667  21.190  26.389  1.00  0.00    -0.246 OA
BRANCH  38  40
ATOM     40  C   UNL A   1      40.479  23.511  26.882  1.00  0.00     0.060 A 
ATOM     41  C   UNL A   1      41.722  23.957  26.437  1.00  0.00     0.016 A 
ATOM     42  C   UNL A   1      39.690  24.308  27.716  1.00  0.00     0.016 A 
ATOM     43  C   UNL A   1      42.178  25.216  26.836  1.00  0.00     0.010 A 
ATOM     44  C   UNL A   1      40.161  25.550  28.136  1.00  0.00     0.010 A 
ATOM     45  C   UNL A   1      41.394  26.025  27.675  1.00  0.00    -0.014 A 
BRANCH  45  46
ATOM     46  C   UNL A   1      41.801  27.435  27.845  1.00  0.00     0.031 A 
ATOM     47  C   UNL A   1      40.635  28.384  27.880  1.00  0.00     0.074 A 
ATOM     48  C   UNL A   1      42.935  27.791  28.484  1.00  0.00     0.049 A 
ATOM     49  N   UNL A   1      39.934  28.631  28.949  1.00  0.00    -0.248 NA
ATOM     50  C   UNL A   1      40.004  28.846  26.644  1.00  0.00     0.031 C 
ATOM     51  C   UNL A   1      43.391  27.177  29.736  1.00  0.00     0.029 A 
ATOM     52  N   UNL A   1      43.727  28.911  28.341  1.00  0.00    -0.354 N 
ATOM     53  C   UNL A   1      38.755  29.240  28.538  1.00  0.00     0.074 A 
ATOM     54  C   UNL A   1      38.847  29.351  27.100  1.00  0.00     0.031 C 
ATOM     55  C   UNL A   1      44.267  28.014  30.330  1.00  0.00     0.029 A 
ATOM     56  C   UNL A   1      44.533  29.155  29.453  1.00  0.00     0.049 A 
ATOM     57  H   UNL A   1      43.725  29.478  27.536  1.00  0.00     0.167 HD
ATOM     58  C   UNL A   1      37.767  29.617  29.394  1.00  0.00     0.034 A 
ATOM     59  C   UNL A   1      44.896  30.399  29.876  1.00  0.00     0.034 A 
ATOM     60  C   UNL A   1      38.049  29.394  30.781  1.00  0.00     0.049 A 
ATOM     61  C   UNL A   1      43.633  30.843  30.578  1.00  0.00     0.074 A 
ATOM     62  C   UNL A   1      37.688  28.511  31.770  1.00  0.00     0.029 A 
ATOM     63  N   UNL A   1      38.896  30.280  31.407  1.00  0.00    -0.354 N 
ATOM     64  N   UNL A   1      43.237  30.471  31.772  1.00  0.00    -0.248 NA
ATOM     65  C   UNL A   1      42.582  31.418  29.741  1.00  0.00     0.031 C 
ATOM     66  C   UNL A   1      38.668  28.668  32.799  1.00  0.00     0.029 A 
ATOM     67  C   UNL A   1      39.617  29.588  32.346  1.00  0.00     0.049 A 
ATOM     68  H   UNL A   1      38.971  31.242  31.213  1.00  0.00     0.167 HD
ATOM     69  C   UNL A   1      41.836  30.499  31.730  1.00  0.00     0.074 A 
ATOM     70  C   UNL A   1      41.510  31.089  30.446  1.00  0.00     0.031 C 
ATOM     71  C   UNL A   1      41.012  29.895  32.644  1.00  0.00     0.034 A 
BRANCH  58  72
ATOM     72  C   UNL A   1      36.550  30.386  29.025  1.00  0.00     0.023 A 
ATOM     73  C   UNL A   1      36.319  31.719  29.397  1.00  0.00     0.031 A 
ATOM     74  C   UNL A   1      35.673  29.787  28.097  1.00  0.00     0.131 A 
ATOM     75  C   UNL A   1      35.243  32.414  28.812  1.00  0.00     0.055 A 
ATOM     76  C   UNL A   1      34.627  30.487  27.505  1.00  0.00     0.041 A 
ATOM     77  F   UNL A   1      35.851  28.507  27.727  1.00  0.00    -0.206 F 
ATOM     78  C   UNL A   1      34.412  31.812  27.858  1.00  0.00     0.022 A 
BRANCH  75  79
ATOM     79  S   UNL A   1      34.877  34.143  29.231  1.00  0.00     0.124 S 
ATOM     80  O   UNL A   1      33.690  34.015  30.072  1.00  0.00    -0.237 OA
ATOM     81  O   UNL A   1      36.095  34.546  29.931  1.00  0.00    -0.237 OA
ATOM     82  O   UNL A   1      34.663  34.778  27.935  1.00  0.00    -0.744 OA
ENDBRANCH  75  79
ENDBRANCH  58  72
BRANCH  59  83
ATOM     83  C   UNL A   1      45.662  31.204  28.867  1.00  0.00     0.023 A 
ATOM     84  C   UNL A   1      45.143  32.192  28.015  1.00  0.00     0.031 A 
ATOM     85  C   UNL A   1      47.031  30.888  28.700  1.00  0.00     0.131 A 
ATOM     86  C   UNL A   1      45.918  32.691  26.951  1.00  0.00     0.055 A 
ATOM     87  C   UNL A   1      47.818  31.434  27.681  1.00  0.00     0.041 A 
ATOM     88  F   UNL A   1      47.629  30.017  29.531  1.00  0.00    -0.206 F 
ATOM     89  C   UNL A   1      47.251  32.319  26.776  1.00  0.00     0.022 A 
BRANCH  86  90
ATOM     90  S   UNL A   1      45.175  33.786  25.705  1.00  0.00     0.124 S 
ATOM     91  O   UNL A   1      44.324  34.654  26.512  1.00  0.00    -0.237 OA
ATOM     92  O   UNL A   1      46.364  34.416  25.137  1.00  0.00    -0.237 OA
ATOM     93  O   UNL A   1      44.472  32.861  24.823  1.00  0.00    -0.744 OA
ENDBRANCH  86  90
ENDBRANCH  59  83
BRANCH  71  94
ATOM     94  C   UNL A   1      41.624  29.387  33.926  1.00  0.00     0.023 A 
ATOM     95  C   UNL A   1      41.887  28.016  34.111  1.00  0.00     0.031 A 
ATOM     96  C   UNL A   1      41.791  30.224  35.041  1.00  0.00     0.131 A 
ATOM     97  C   UNL A   1      42.198  27.507  35.380  1.00  0.00     0.055 A 
ATOM     98  C   UNL A   1      42.222  29.731  36.277  1.00  0.00     0.041 A 
ATOM     99  F   UNL A   1      41.470  31.528  34.980  1.00  0.00    -0.206 F 
ATOM    100  C   UNL A   1      42.410  28.364  36.457  1.00  0.00     0.022 A 
BRANCH  97 101
ATOM    101  S   UNL A   1      42.184  25.718  35.700  1.00  0.00     0.124 S 
ATOM    102  O   UNL A   1      40.758  25.413  35.755  1.00  0.00    -0.237 OA
ATOM    103  O   UNL A   1      42.885  25.197  34.531  1.00  0.00    -0.237 OA
ATOM    104  O   UNL A   1      42.898  25.575  36.963  1.00  0.00    -0.744 OA
ENDBRANCH  97 101
ENDBRANCH  71  94
ENDBRANCH  45  46
ENDBRANCH  38  40
ENDBRANCH  37  38
ENDBRANCH  36  37
ENDBRANCH  35  36
ENDBRANCH  34  35
ENDBRANCH   1  34
TORSDOF 21
ENDMDL
MODEL 2
REMARK VINA RESULT:     -11.1      2.334      2.881
REMARK SMILES Cc1c(CCC(=O)N2CCC[C@H]2C(=O)OCCOCCOC(=O)c2ccc(-c3c4nc(c(-c5cc(S(=O)(=O)[O-])ccc5F)c5ccc([nH]5)c(-c5cc(S(=O)(=O)[O-])ccc5F)c5nc(c(-c6cc(S(=O)(=O)[O-])ccc6F)c6ccc3[nH]6)C=C5)C=C4)cc2)c(=O)oc2cc3oc4c(c3cc12)CCCC4
REMARK SMILES IDX 17 1 16 2 15 3 13 4 14 5 12 6 8 7 9 8 10 9 11 10 6 11 7 12
REMARK SMILES IDX 5 13 4 14 3 15 1 16 2 17 98 18 87 19 90 20 97 21 88 22 89 23
REMARK SMILES IDX 91 24 96 25 92 26 95 27 93 28 94 29 99 30 102 31 100 32
REMARK SMILES IDX 101 33 18 34 19 35 20 36 21 37 22 38 23 39 24 40 25 41 86 42
REMARK SMILES IDX 26 43 85 44 27 45 28 46 29 47 79 48 30 49 84 50 78 51 80 52
REMARK SMILES IDX 31 53 83 54 77 55 76 56 32 58 64 59 44 60 63 61 45 62 48 63
REMARK SMILES IDX 62 64 81 65 46 66 47 67 61 69 82 70 49 71 33 72 34 73 42 74
REMARK SMILES IDX 35 75 41 76 43 77 40 78 36 79 37 80 38 81 39 82 65 83 66 84
REMARK SMILES IDX 74 85 67 86 73 87 75 88 72 89 68 90 69 91 70 92 71 93 50 94
REMARK SMILES IDX 51 95 59 96 52 97 58 98 60 99 57 100 53 101 54 102 55 103
REMARK SMILES IDX 56 104
REMARK H PARENT 80 57 48 68
REMARK Flexibility Score: inf
ROOT
ATOM      1  C   UNL A   1      33.797  21.377  26.819  1.00  0.00     0.202 C 
ENDROOT
BRANCH   1   2
ATOM      2  C   UNL A   1      33.213  22.801  26.931  1.00  0.00     0.261 C 
BRANCH   2   3
ATOM      3  O   UNL A   1      32.090  22.953  27.825  1.00  0.00    -0.462 OA
BRANCH   3   4
ATOM      4  C   UNL A   1      30.915  23.180  27.187  1.00  0.00     0.328 C 
ATOM      5  O   UNL A   1      29.849  22.662  27.526  1.00  0.00    -0.250 OA
BRANCH   4   6
ATOM      6  C   UNL A   1      30.945  24.196  26.017  1.00  0.00     0.195 C 
ATOM      7  N   UNL A   1      30.667  24.019  24.567  1.00  0.00    -0.329 N 
ATOM      8  C   UNL A   1      29.801  25.085  24.077  1.00  0.00     0.120 C 
ATOM      9  C   UNL A   1      29.610  26.063  25.213  1.00  0.00     0.024 C 
ATOM     10  C   UNL A   1      29.930  25.269  26.455  1.00  0.00     0.039 C 
BRANCH   7  11
ATOM     11  C   UNL A   1      31.468  23.243  23.740  1.00  0.00     0.223 C 
ATOM     12  O   UNL A   1      31.711  22.066  24.010  1.00  0.00    -0.275 OA
BRANCH  11  13
ATOM     13  C   UNL A   1      32.124  23.873  22.486  1.00  0.00     0.105 C 
BRANCH  13  14
ATOM     14  C   UNL A   1      33.471  24.603  22.657  1.00  0.00     0.053 C 
BRANCH  14  15
ATOM     15  C   UNL A   1      33.274  26.048  23.015  1.00  0.00     0.042 A 
ATOM     16  C   UNL A   1      31.955  26.528  20.917  1.00  0.00     0.046 C 
ATOM     17  C   UNL A   1      32.452  26.823  22.296  1.00  0.00    -0.030 A 
ATOM     18  C   UNL A   1      31.804  27.881  23.047  1.00  0.00     0.022 A 
ATOM     19  C   UNL A   1      33.897  26.571  24.267  1.00  0.00     0.339 A 
ATOM     20  C   UNL A   1      32.432  28.462  24.144  1.00  0.00     0.142 A 
ATOM     21  C   UNL A   1      30.467  28.159  22.793  1.00  0.00     0.024 A 
ATOM     22  O   UNL A   1      34.647  25.875  24.946  1.00  0.00    -0.246 OA
ATOM     23  O   UNL A   1      33.633  27.899  24.609  1.00  0.00    -0.422 OA
ATOM     24  C   UNL A   1      31.872  29.530  24.858  1.00  0.00     0.095 A 
ATOM     25  C   UNL A   1      29.838  29.146  23.542  1.00  0.00     0.025 A 
ATOM     26  C   UNL A   1      30.597  29.892  24.433  1.00  0.00     0.138 A 
ATOM     27  C   UNL A   1      28.597  29.803  23.365  1.00  0.00     0.001 A 
ATOM     28  O   UNL A   1      29.965  31.084  24.654  1.00  0.00    -0.461 OA
ATOM     29  C   UNL A   1      28.933  31.088  23.756  1.00  0.00     0.108 A 
ATOM     30  C   UNL A   1      27.677  29.595  22.208  1.00  0.00     0.040 C 
ATOM     31  C   UNL A   1      28.885  32.172  22.716  1.00  0.00     0.076 C 
ATOM     32  C   UNL A   1      28.349  30.251  20.987  1.00  0.00     0.005 C 
ATOM     33  C   UNL A   1      29.244  31.475  21.360  1.00  0.00     0.008 C 
ENDBRANCH  14  15
ENDBRANCH  13  14
ENDBRANCH  11  13
ENDBRANCH   7  11
ENDBRANCH   4   6
ENDBRANCH   3   4
ENDBRANCH   2   3
ENDBRANCH   1   2
BRANCH   1  34
ATOM     34  O   UNL A   1      34.490  21.022  25.627  1.00  0.00    -0.374 OA
BRANCH  34  35
ATOM     35  C   UNL A   1      35.192  22.062  24.939  1.00  0.00     0.202 C 
BRANCH  35  36
ATOM     36  C   UNL A   1      36.648  21.792  24.546  1.00  0.00     0.261 C 
BRANCH  36  37
ATOM     37  O   UNL A   1      37.548  22.639  25.283  1.00  0.00    -0.460 OA
BRANCH  37  38
ATOM     38  C   UNL A   1      38.571  22.012  25.900  1.00  0.00     0.338 C 
ATOM     39  O   UNL A   1      38.759  20.804  26.004  1.00  0.00    -0.246 OA
BRANCH  38  40
ATOM     40  C   UNL A   1      39.505  23.032  26.385  1.00  0.00     0.060 A 
ATOM     41  C   UNL A   1      40.877  22.813  26.282  1.00  0.00     0.016 A 
ATOM     42  C   UNL A   1      39.010  24.225  26.918  1.00  0.00     0.016 A 
ATOM     43  C   UNL A   1      41.761  23.802  26.720  1.00  0.00     0.010 A 
ATOM     44  C   UNL A   1      39.893  25.197  27.381  1.00  0.00     0.010 A 
ATOM     45  C   UNL A   1      41.274  25.005  27.258  1.00  0.00    -0.014 A 
BRANCH  45  46
ATOM     46  C   UNL A   1      42.237  26.109  27.454  1.00  0.00     0.031 A 
ATOM     47  C   UNL A   1      41.570  27.438  27.679  1.00  0.00     0.074 A 
ATOM     48  C   UNL A   1      43.468  25.914  27.972  1.00  0.00     0.049 A 
ATOM     49  N   UNL A   1      41.128  27.840  28.835  1.00  0.00    -0.248 NA
ATOM     50  C   UNL A   1      41.080  28.234  26.553  1.00  0.00     0.031 C 
ATOM     51  C   UNL A   1      43.739  25.049  29.126  1.00  0.00     0.029 A 
ATOM     52  N   UNL A   1      44.634  26.629  27.796  1.00  0.00    -0.354 N 
ATOM     53  C   UNL A   1      40.272  28.908  28.601  1.00  0.00     0.074 A 
ATOM     54  C   UNL A   1      40.276  29.113  27.170  1.00  0.00     0.031 C 
ATOM     55  C   UNL A   1      44.929  25.401  29.655  1.00  0.00     0.029 A 
ATOM     56  C   UNL A   1      45.562  26.419  28.816  1.00  0.00     0.049 A 
ATOM     57  H   UNL A   1      44.795  27.226  27.029  1.00  0.00     0.167 HD
ATOM     58  C   UNL A   1      39.604  29.565  29.588  1.00  0.00     0.034 A 
ATOM     59  C   UNL A   1      46.439  27.364  29.259  1.00  0.00     0.034 A 
ATOM     60  C   UNL A   1      39.889  29.113  30.917  1.00  0.00     0.049 A 
ATOM     61  C   UNL A   1      45.535  28.207  30.130  1.00  0.00     0.074 A 
ATOM     62  C   UNL A   1      39.284  28.358  31.893  1.00  0.00     0.029 A 
ATOM     63  N   UNL A   1      41.075  29.518  31.485  1.00  0.00    -0.354 N 
ATOM     64  N   UNL A   1      45.126  27.911  31.340  1.00  0.00    -0.248 NA
ATOM     65  C   UNL A   1      44.744  29.235  29.455  1.00  0.00     0.031 C 
ATOM     66  C   UNL A   1      40.328  28.007  32.805  1.00  0.00     0.029 A 
ATOM     67  C   UNL A   1      41.527  28.507  32.292  1.00  0.00     0.049 A 
ATOM     68  H   UNL A   1      41.522  30.383  31.336  1.00  0.00     0.167 HD
ATOM     69  C   UNL A   1      43.863  28.504  31.467  1.00  0.00     0.074 A 
ATOM     70  C   UNL A   1      43.697  29.297  30.265  1.00  0.00     0.031 C 
ATOM     71  C   UNL A   1      42.945  28.196  32.439  1.00  0.00     0.034 A 
BRANCH  58  72
ATOM     72  C   UNL A   1      38.782  30.790  29.408  1.00  0.00     0.023 A 
ATOM     73  C   UNL A   1      37.436  30.783  29.010  1.00  0.00     0.031 A 
ATOM     74  C   UNL A   1      39.346  32.007  29.842  1.00  0.00     0.131 A 
ATOM     75  C   UNL A   1      36.696  31.979  29.085  1.00  0.00     0.055 A 
ATOM     76  C   UNL A   1      38.603  33.179  29.936  1.00  0.00     0.041 A 
ATOM     77  F   UNL A   1      40.636  32.059  30.216  1.00  0.00    -0.206 F 
ATOM     78  C   UNL A   1      37.267  33.166  29.563  1.00  0.00     0.022 A 
BRANCH  75  79
ATOM     79  S   UNL A   1      34.949  32.057  28.597  1.00  0.00     0.124 S 
ATOM     80  O   UNL A   1      34.286  32.371  29.860  1.00  0.00    -0.237 OA
ATOM     81  O   UNL A   1      34.960  33.138  27.614  1.00  0.00    -0.237 OA
ATOM     82  O   UNL A   1      34.678  30.728  28.059  1.00  0.00    -0.744 OA
ENDBRANCH  75  79
ENDBRANCH  58  72
BRANCH  59  83
ATOM     83  C   UNL A   1      47.377  27.888  28.211  1.00  0.00     0.023 A 
ATOM     84  C   UNL A   1      47.441  27.484  26.868  1.00  0.00     0.031 A 
ATOM     85  C   UNL A   1      48.346  28.830  28.630  1.00  0.00     0.131 A 
ATOM     86  C   UNL A   1      48.525  27.876  26.059  1.00  0.00     0.055 A 
ATOM     87  C   UNL A   1      49.386  29.268  27.804  1.00  0.00     0.041 A 
ATOM     88  F   UNL A   1      48.303  29.334  29.875  1.00  0.00    -0.206 F 
ATOM     89  C   UNL A   1      49.499  28.763  26.517  1.00  0.00     0.022 A 
BRANCH  86  90
ATOM     90  S   UNL A   1      48.741  27.165  24.400  1.00  0.00     0.124 S 
ATOM     91  O   UNL A   1      49.300  25.849  24.690  1.00  0.00    -0.237 OA
ATOM     92  O   UNL A   1      47.366  27.174  23.907  1.00  0.00    -0.237 OA
ATOM     93  O   UNL A   1      49.649  28.103  23.750  1.00  0.00    -0.744 OA
ENDBRANCH  86  90
ENDBRANCH  59  83
BRANCH  71  94
ATOM     94  C   UNL A   1      43.404  27.362  33.610  1.00  0.00     0.023 A 
ATOM     95  C   UNL A   1      43.893  26.055  33.422  1.00  0.00     0.031 A 
ATOM     96  C   UNL A   1      43.201  27.783  34.934  1.00  0.00     0.131 A 
ATOM     97  C   UNL A   1      44.064  25.187  34.509  1.00  0.00     0.055 A 
ATOM     98  C   UNL A   1      43.490  26.955  36.024  1.00  0.00     0.041 A 
ATOM     99  F   UNL A   1      42.647  28.978  35.201  1.00  0.00    -0.206 F 
ATOM    100  C   UNL A   1      43.907  25.644  35.815  1.00  0.00     0.022 A 
BRANCH  97 101
ATOM    101  S   UNL A   1      44.343  23.409  34.254  1.00  0.00     0.124 S 
ATOM    102  O   UNL A   1      45.773  23.347  33.966  1.00  0.00    -0.237 OA
ATOM    103  O   UNL A   1      43.945  22.853  35.542  1.00  0.00    -0.237 OA
ATOM    104  O   UNL A   1      43.471  23.068  33.136  1.00  0.00    -0.744 OA
ENDBRANCH  97 101
ENDBRANCH  71  94
ENDBRANCH  45  46
ENDBRANCH  38  40
ENDBRANCH  37  38
ENDBRANCH  36  37
ENDBRANCH  35  36
ENDBRANCH  34  35
ENDBRANCH   1  34
TORSDOF 21
ENDMDL
MODEL 3
REMARK VINA RESULT:     -10.6      1.875      4.371
REMARK SMILES Cc1c(CCC(=O)N2CCC[C@H]2C(=O)OCCOCCOC(=O)c2ccc(-c3c4nc(c(-c5cc(S(=O)(=O)[O-])ccc5F)c5ccc([nH]5)c(-c5cc(S(=O)(=O)[O-])ccc5F)c5nc(c(-c6cc(S(=O)(=O)[O-])ccc6F)c6ccc3[nH]6)C=C5)C=C4)cc2)c(=O)oc2cc3oc4c(c3cc12)CCCC4
REMARK SMILES IDX 17 1 16 2 15 3 13 4 14 5 12 6 8 7 9 8 10 9 11 10 6 11 7 12
REMARK SMILES IDX 5 13 4 14 3 15 1 16 2 17 98 18 87 19 90 20 97 21 88 22 89 23
REMARK SMILES IDX 91 24 96 25 92 26 95 27 93 28 94 29 99 30 102 31 100 32
REMARK SMILES IDX 101 33 18 34 19 35 20 36 21 37 22 38 23 39 24 40 25 41 86 42
REMARK SMILES IDX 26 43 85 44 27 45 28 46 29 47 79 48 30 49 84 50 78 51 80 52
REMARK SMILES IDX 31 53 83 54 77 55 76 56 32 58 64 59 44 60 63 61 45 62 48 63
REMARK SMILES IDX 62 64 81 65 46 66 47 67 61 69 82 70 49 71 33 72 34 73 42 74
REMARK SMILES IDX 35 75 41 76 43 77 40 78 36 79 37 80 38 81 39 82 65 83 66 84
REMARK SMILES IDX 74 85 67 86 73 87 75 88 72 89 68 90 69 91 70 92 71 93 50 94
REMARK SMILES IDX 51 95 59 96 52 97 58 98 60 99 57 100 53 101 54 102 55 103
REMARK SMILES IDX 56 104
REMARK H PARENT 80 57 48 68
REMARK Flexibility Score: inf
ROOT
ATOM      1  C   UNL A   1      34.825  21.806  27.391  1.00  0.00     0.202 C 
ENDROOT
BRANCH   1   2
ATOM      2  C   UNL A   1      33.975  23.048  27.052  1.00  0.00     0.261 C 
BRANCH   2   3
ATOM      3  O   UNL A   1      32.643  23.070  27.607  1.00  0.00    -0.462 OA
BRANCH   3   4
ATOM      4  C   UNL A   1      31.674  23.294  26.685  1.00  0.00     0.328 C 
ATOM      5  O   UNL A   1      31.103  22.393  26.069  1.00  0.00    -0.250 OA
BRANCH   4   6
ATOM      6  C   UNL A   1      31.250  24.769  26.470  1.00  0.00     0.195 C 
ATOM      7  N   UNL A   1      31.829  25.833  25.607  1.00  0.00    -0.329 N 
ATOM      8  C   UNL A   1      30.777  26.529  24.875  1.00  0.00     0.120 C 
ATOM      9  C   UNL A   1      29.455  25.990  25.372  1.00  0.00     0.024 C 
ATOM     10  C   UNL A   1      29.795  24.650  25.976  1.00  0.00     0.039 C 
BRANCH   7  11
ATOM     11  C   UNL A   1      33.092  26.366  25.821  1.00  0.00     0.223 C 
ATOM     12  O   UNL A   1      33.257  27.339  26.558  1.00  0.00    -0.275 OA
BRANCH  11  13
ATOM     13  C   UNL A   1      34.317  25.776  25.077  1.00  0.00     0.105 C 
BRANCH  13  14
ATOM     14  C   UNL A   1      34.357  25.882  23.540  1.00  0.00     0.053 C 
BRANCH  14  15
ATOM     15  C   UNL A   1      33.895  24.611  22.887  1.00  0.00     0.042 A 
ATOM     16  C   UNL A   1      35.837  23.278  23.797  1.00  0.00     0.046 C 
ATOM     17  C   UNL A   1      34.491  23.444  23.168  1.00  0.00    -0.030 A 
ATOM     18  C   UNL A   1      33.624  22.285  23.089  1.00  0.00     0.022 A 
ATOM     19  C   UNL A   1      32.673  24.644  22.031  1.00  0.00     0.339 A 
ATOM     20  C   UNL A   1      32.552  22.257  22.202  1.00  0.00     0.142 A 
ATOM     21  C   UNL A   1      33.743  21.294  24.055  1.00  0.00     0.024 A 
ATOM     22  O   UNL A   1      32.106  25.701  21.769  1.00  0.00    -0.246 OA
ATOM     23  O   UNL A   1      32.229  23.432  21.499  1.00  0.00    -0.422 OA
ATOM     24  C   UNL A   1      31.728  21.135  22.046  1.00  0.00     0.095 A 
ATOM     25  C   UNL A   1      32.882  20.204  24.000  1.00  0.00     0.025 A 
ATOM     26  C   UNL A   1      32.017  20.092  22.921  1.00  0.00     0.138 A 
ATOM     27  C   UNL A   1      32.909  18.960  24.672  1.00  0.00     0.001 A 
ATOM     28  O   UNL A   1      31.669  18.777  22.775  1.00  0.00    -0.461 OA
ATOM     29  C   UNL A   1      32.472  18.118  23.665  1.00  0.00     0.108 A 
ATOM     30  C   UNL A   1      33.993  18.511  25.597  1.00  0.00     0.040 C 
ATOM     31  C   UNL A   1      33.435  17.088  23.143  1.00  0.00     0.076 C 
ATOM     32  C   UNL A   1      35.225  18.215  24.721  1.00  0.00     0.005 C 
ATOM     33  C   UNL A   1      34.857  17.730  23.284  1.00  0.00     0.008 C 
ENDBRANCH  14  15
ENDBRANCH  13  14
ENDBRANCH  11  13
ENDBRANCH   7  11
ENDBRANCH   4   6
ENDBRANCH   3   4
ENDBRANCH   2   3
ENDBRANCH   1   2
BRANCH   1  34
ATOM     34  O   UNL A   1      35.816  21.389  26.457  1.00  0.00    -0.374 OA
BRANCH  34  35
ATOM     35  C   UNL A   1      36.962  22.229  26.295  1.00  0.00     0.202 C 
BRANCH  35  36
ATOM     36  C   UNL A   1      38.267  21.566  25.842  1.00  0.00     0.261 C 
BRANCH  36  37
ATOM     37  O   UNL A   1      39.375  22.479  25.944  1.00  0.00    -0.460 OA
BRANCH  37  38
ATOM     38  C   UNL A   1      40.057  22.446  27.106  1.00  0.00     0.338 C 
ATOM     39  O   UNL A   1      40.379  21.460  27.761  1.00  0.00    -0.246 OA
BRANCH  38  40
ATOM     40  C   UNL A   1      40.440  23.819  27.449  1.00  0.00     0.060 A 
ATOM     41  C   UNL A   1      41.725  24.270  27.152  1.00  0.00     0.016 A 
ATOM     42  C   UNL A   1      39.504  24.670  28.042  1.00  0.00     0.016 A 
ATOM     43  C   UNL A   1      42.074  25.588  27.456  1.00  0.00     0.010 A 
ATOM     44  C   UNL A   1      39.863  25.975  28.370  1.00  0.00     0.010 A 
ATOM     45  C   UNL A   1      41.140  26.452  28.053  1.00  0.00    -0.014 A 
BRANCH  45  46
ATOM     46  C   UNL A   1      41.472  27.891  28.105  1.00  0.00     0.031 A 
ATOM     47  C   UNL A   1      40.257  28.776  28.080  1.00  0.00     0.074 A 
ATOM     48  C   UNL A   1      42.592  28.356  28.699  1.00  0.00     0.049 A 
ATOM     49  N   UNL A   1      39.554  29.071  29.135  1.00  0.00    -0.248 NA
ATOM     50  C   UNL A   1      39.591  29.105  26.819  1.00  0.00     0.031 C 
ATOM     51  C   UNL A   1      43.091  27.869  29.990  1.00  0.00     0.029 A 
ATOM     52  N   UNL A   1      43.321  29.501  28.458  1.00  0.00    -0.354 N 
ATOM     53  C   UNL A   1      38.340  29.581  28.692  1.00  0.00     0.074 A 
ATOM     54  C   UNL A   1      38.413  29.582  27.249  1.00  0.00     0.031 C 
ATOM     55  C   UNL A   1      43.925  28.796  30.504  1.00  0.00     0.029 A 
ATOM     56  C   UNL A   1      44.122  29.876  29.537  1.00  0.00     0.049 A 
ATOM     57  H   UNL A   1      43.281  30.002  27.611  1.00  0.00     0.167 HD
ATOM     58  C   UNL A   1      37.341  29.973  29.529  1.00  0.00     0.034 A 
ATOM     59  C   UNL A   1      44.422  31.167  29.855  1.00  0.00     0.034 A 
ATOM     60  C   UNL A   1      37.647  29.877  30.925  1.00  0.00     0.049 A 
ATOM     61  C   UNL A   1      43.143  31.598  30.536  1.00  0.00     0.074 A 
ATOM     62  C   UNL A   1      37.342  29.057  31.985  1.00  0.00     0.029 A 
ATOM     63  N   UNL A   1      38.449  30.853  31.468  1.00  0.00    -0.354 N 
ATOM     64  N   UNL A   1      42.777  31.302  31.760  1.00  0.00    -0.248 NA
ATOM     65  C   UNL A   1      42.055  32.048  29.669  1.00  0.00     0.031 C 
ATOM     66  C   UNL A   1      38.321  29.348  32.986  1.00  0.00     0.029 A 
ATOM     67  C   UNL A   1      39.215  30.277  32.449  1.00  0.00     0.049 A 
ATOM     68  H   UNL A   1      38.472  31.800  31.197  1.00  0.00     0.167 HD
ATOM     69  C   UNL A   1      41.377  31.253  31.735  1.00  0.00     0.074 A 
ATOM     70  C   UNL A   1      41.008  31.720  30.412  1.00  0.00     0.031 C 
ATOM     71  C   UNL A   1      40.594  30.680  32.704  1.00  0.00     0.034 A 
BRANCH  58  72
ATOM     72  C   UNL A   1      36.080  30.644  29.116  1.00  0.00     0.023 A 
ATOM     73  C   UNL A   1      35.699  31.927  29.536  1.00  0.00     0.031 A 
ATOM     74  C   UNL A   1      35.326  30.019  28.102  1.00  0.00     0.131 A 
ATOM     75  C   UNL A   1      34.600  32.551  28.914  1.00  0.00     0.055 A 
ATOM     76  C   UNL A   1      34.257  30.651  27.475  1.00  0.00     0.041 A 
ATOM     77  F   UNL A   1      35.649  28.784  27.683  1.00  0.00    -0.206 F 
ATOM     78  C   UNL A   1      33.894  31.928  27.877  1.00  0.00     0.022 A 
BRANCH  75  79
ATOM     79  S   UNL A   1      34.044  34.212  29.392  1.00  0.00     0.124 S 
ATOM     80  O   UNL A   1      32.699  34.265  28.825  1.00  0.00    -0.237 OA
ATOM     81  O   UNL A   1      34.103  34.141  30.850  1.00  0.00    -0.237 OA
ATOM     82  O   UNL A   1      35.022  35.099  28.771  1.00  0.00    -0.744 OA
ENDBRANCH  75  79
ENDBRANCH  58  72
BRANCH  59  83
ATOM     83  C   UNL A   1      45.135  31.928  28.775  1.00  0.00     0.023 A 
ATOM     84  C   UNL A   1      44.541  32.704  27.767  1.00  0.00     0.031 A 
ATOM     85  C   UNL A   1      46.542  31.794  28.718  1.00  0.00     0.131 A 
ATOM     86  C   UNL A   1      45.308  33.159  26.677  1.00  0.00     0.055 A 
ATOM     87  C   UNL A   1      47.311  32.303  27.667  1.00  0.00     0.041 A 
ATOM     88  F   UNL A   1      47.197  31.141  29.693  1.00  0.00    -0.206 F 
ATOM     89  C   UNL A   1      46.688  32.964  26.619  1.00  0.00     0.022 A 
BRANCH  86  90
ATOM     90  S   UNL A   1      44.506  33.953  25.253  1.00  0.00     0.124 S 
ATOM     91  O   UNL A   1      43.689  34.985  25.884  1.00  0.00    -0.237 OA
ATOM     92  O   UNL A   1      45.666  34.433  24.506  1.00  0.00    -0.237 OA
ATOM     93  O   UNL A   1      43.766  32.860  24.633  1.00  0.00    -0.744 OA
ENDBRANCH  86  90
ENDBRANCH  59  83
BRANCH  71  94
ATOM     94  C   UNL A   1      41.243  30.309  34.015  1.00  0.00     0.023 A 
ATOM     95  C   UNL A   1      41.457  28.961  34.363  1.00  0.00     0.031 A 
ATOM     96  C   UNL A   1      41.499  31.272  35.005  1.00  0.00     0.131 A 
ATOM     97  C   UNL A   1      41.805  28.602  35.672  1.00  0.00     0.055 A 
ATOM     98  C   UNL A   1      41.966  30.918  36.275  1.00  0.00     0.041 A 
ATOM     99  F   UNL A   1      41.231  32.571  34.790  1.00  0.00    -0.206 F 
ATOM    100  C   UNL A   1      42.104  29.577  36.620  1.00  0.00     0.022 A 
BRANCH  97 101
ATOM    101  S   UNL A   1      41.731  26.871  36.219  1.00  0.00     0.124 S 
ATOM    102  O   UNL A   1      40.824  26.934  37.361  1.00  0.00    -0.237 OA
ATOM    103  O   UNL A   1      41.194  26.204  35.037  1.00  0.00    -0.237 OA
ATOM    104  O   UNL A   1      43.113  26.538  36.542  1.00  0.00    -0.744 OA
ENDBRANCH  97 101
ENDBRANCH  71  94
ENDBRANCH  45  46
ENDBRANCH  38  40
ENDBRANCH  37  38
ENDBRANCH  36  37
ENDBRANCH  35  36
ENDBRANCH  34  35
ENDBRANCH   1  34
TORSDOF 21
ENDMDL
