MODEL 1
REMARK VINA RESULT:     -10.9      0.000      0.000
REMARK SMILES COc1ccc(NC(=O)NCc2ccc(C(=O)OCCOCCOC(=O)c3ccc(-c4c5nc(c(-c6cc(S(=O)(=O)[O-])ccc6F)c6ccc([nH]6)c(-c6cc(S(=O)(=O)[O-])ccc6F)c6nc(c(-c7cc(S(=O)(=O)[O-])ccc7F)c7ccc4[nH]7)C=C6)C=C5)cc3)cc2)c(OC)c1
REMARK SMILES IDX 20 1 19 2 18 3 16 4 17 5 15 6 12 7 13 8 91 9 14 10 90 11
REMARK SMILES IDX 11 12 10 13 7 14 8 15 9 17 6 19 3 20 4 21 95 22 5 23 92 24
REMARK SMILES IDX 2 25 1 26 93 27 94 28 21 29 22 30 23 31 24 32 25 33 26 34
REMARK SMILES IDX 27 35 28 36 89 37 29 38 88 39 30 40 31 41 32 42 82 43 33 44
REMARK SMILES IDX 87 45 81 46 83 47 34 48 86 49 80 50 79 51 35 53 67 54 47 55
REMARK SMILES IDX 66 56 48 57 51 58 65 59 84 60 49 61 50 62 64 64 85 65 52 66
REMARK SMILES IDX 36 67 37 68 45 69 38 70 44 71 46 72 43 73 39 74 40 75 41 76
REMARK SMILES IDX 42 77 68 78 69 79 77 80 70 81 76 82 78 83 75 84 71 85 72 86
REMARK SMILES IDX 73 87 74 88 53 89 54 90 62 91 55 92 61 93 63 94 60 95 56 96
REMARK SMILES IDX 57 97 58 98 59 99
REMARK H PARENT 7 16 10 18 83 52 51 63
REMARK Flexibility Score: inf
ROOT
ATOM      1  C   UNL A   1      36.056  19.296  24.883  1.00  0.00     0.202 C 
ENDROOT
BRANCH   1   2
ATOM      2  C   UNL A   1      34.527  19.369  24.830  1.00  0.00     0.261 C 
BRANCH   2   3
ATOM      3  O   UNL A   1      34.037  20.704  25.024  1.00  0.00    -0.460 OA
BRANCH   3   4
ATOM      4  C   UNL A   1      32.772  20.892  24.581  1.00  0.00     0.338 C 
ATOM      5  O   UNL A   1      31.795  20.200  24.829  1.00  0.00    -0.246 OA
BRANCH   4   6
ATOM      6  C   UNL A   1      32.643  22.189  23.887  1.00  0.00     0.060 A 
ATOM      7  C   UNL A   1      32.165  24.550  22.457  1.00  0.00    -0.029 A 
ATOM      8  C   UNL A   1      31.114  23.875  23.101  1.00  0.00     0.006 A 
ATOM      9  C   UNL A   1      33.472  24.064  22.595  1.00  0.00     0.006 A 
ATOM     10  C   UNL A   1      31.347  22.703  23.804  1.00  0.00     0.016 A 
ATOM     11  C   UNL A   1      33.715  22.884  23.317  1.00  0.00     0.016 A 
BRANCH   7  12
ATOM     12  C   UNL A   1      31.830  25.819  21.721  1.00  0.00     0.153 C 
BRANCH  12  13
ATOM     13  N   UNL A   1      32.920  26.743  21.501  1.00  0.00    -0.334 N 
ATOM     14  N   UNL A   1      33.482  27.768  23.595  1.00  0.00    -0.305 N 
ATOM     15  C   UNL A   1      33.650  27.565  22.274  1.00  0.00     0.319 C 
ATOM     16  H   UNL A   1      33.981  28.552  23.920  1.00  0.00     0.172 HD
ATOM     17  O   UNL A   1      34.487  28.267  21.693  1.00  0.00    -0.248 OA
ATOM     18  H   UNL A   1      33.194  26.778  20.556  1.00  0.00     0.165 HD
BRANCH  14  19
ATOM     19  C   UNL A   1      32.768  27.131  24.621  1.00  0.00     0.085 A 
ATOM     20  C   UNL A   1      31.101  25.502  26.153  1.00  0.00     0.122 A 
ATOM     21  C   UNL A   1      32.484  25.343  26.211  1.00  0.00     0.049 A 
ATOM     22  C   UNL A   1      30.573  26.613  25.501  1.00  0.00     0.095 A 
ATOM     23  C   UNL A   1      33.323  26.184  25.473  1.00  0.00     0.034 A 
ATOM     24  C   UNL A   1      31.419  27.468  24.788  1.00  0.00     0.146 A 
BRANCH  20  25
ATOM     25  O   UNL A   1      30.365  24.533  26.776  1.00  0.00    -0.497 OA
ATOM     26  C   UNL A   1      31.068  23.333  27.091  1.00  0.00     0.278 C 
ENDBRANCH  20  25
BRANCH  24  27
ATOM     27  O   UNL A   1      30.951  28.598  24.160  1.00  0.00    -0.494 OA
ATOM     28  C   UNL A   1      29.753  28.354  23.418  1.00  0.00     0.278 C 
ENDBRANCH  24  27
ENDBRANCH  14  19
ENDBRANCH  12  13
ENDBRANCH   7  12
ENDBRANCH   4   6
ENDBRANCH   3   4
ENDBRANCH   2   3
ENDBRANCH   1   2
BRANCH   1  29
ATOM     29  O   UNL A   1      36.768  20.502  25.147  1.00  0.00    -0.374 OA
BRANCH  29  30
ATOM     30  C   UNL A   1      38.168  20.529  24.866  1.00  0.00     0.202 C 
BRANCH  30  31
ATOM     31  C   UNL A   1      39.077  19.537  25.604  1.00  0.00     0.261 C 
BRANCH  31  32
ATOM     32  O   UNL A   1      40.447  19.970  25.654  1.00  0.00    -0.460 OA
BRANCH  32  33
ATOM     33  C   UNL A   1      40.964  20.072  26.906  1.00  0.00     0.338 C 
ATOM     34  O   UNL A   1      41.457  19.180  27.570  1.00  0.00    -0.246 OA
BRANCH  33  35
ATOM     35  C   UNL A   1      41.039  21.494  27.291  1.00  0.00     0.060 A 
ATOM     36  C   UNL A   1      40.531  22.445  26.396  1.00  0.00     0.016 A 
ATOM     37  C   UNL A   1      41.672  21.889  28.469  1.00  0.00     0.016 A 
ATOM     38  C   UNL A   1      40.691  23.804  26.658  1.00  0.00     0.010 A 
ATOM     39  C   UNL A   1      41.843  23.251  28.723  1.00  0.00     0.010 A 
ATOM     40  C   UNL A   1      41.384  24.213  27.802  1.00  0.00    -0.014 A 
BRANCH  40  41
ATOM     41  C   UNL A   1      41.792  25.631  27.951  1.00  0.00     0.031 A 
ATOM     42  C   UNL A   1      43.140  26.049  27.430  1.00  0.00     0.074 A 
ATOM     43  C   UNL A   1      40.977  26.529  28.531  1.00  0.00     0.049 A 
ATOM     44  N   UNL A   1      43.756  27.196  27.540  1.00  0.00    -0.248 NA
ATOM     45  C   UNL A   1      43.896  25.024  26.694  1.00  0.00     0.031 C 
ATOM     46  C   UNL A   1      39.626  26.253  29.014  1.00  0.00     0.029 A 
ATOM     47  N   UNL A   1      41.175  27.855  28.819  1.00  0.00    -0.354 N 
ATOM     48  C   UNL A   1      44.980  27.029  26.899  1.00  0.00     0.074 A 
ATOM     49  C   UNL A   1      45.029  25.657  26.440  1.00  0.00     0.031 C 
ATOM     50  C   UNL A   1      39.119  27.375  29.553  1.00  0.00     0.029 A 
ATOM     51  C   UNL A   1      40.127  28.432  29.497  1.00  0.00     0.049 A 
ATOM     52  H   UNL A   1      41.989  28.347  28.565  1.00  0.00     0.167 HD
ATOM     53  C   UNL A   1      45.964  27.942  26.705  1.00  0.00     0.034 A 
ATOM     54  C   UNL A   1      40.011  29.663  30.039  1.00  0.00     0.034 A 
ATOM     55  C   UNL A   1      45.898  29.301  27.183  1.00  0.00     0.049 A 
ATOM     56  C   UNL A   1      41.163  30.632  29.904  1.00  0.00     0.074 A 
ATOM     57  C   UNL A   1      46.833  30.312  27.044  1.00  0.00     0.029 A 
ATOM     58  N   UNL A   1      44.839  29.839  27.907  1.00  0.00    -0.354 N 
ATOM     59  N   UNL A   1      42.322  30.464  29.307  1.00  0.00    -0.248 NA
ATOM     60  C   UNL A   1      40.989  31.958  30.512  1.00  0.00     0.031 C 
ATOM     61  C   UNL A   1      46.377  31.431  27.749  1.00  0.00     0.029 A 
ATOM     62  C   UNL A   1      45.115  31.154  28.250  1.00  0.00     0.049 A 
ATOM     63  H   UNL A   1      44.015  29.356  28.143  1.00  0.00     0.167 HD
ATOM     64  C   UNL A   1      42.995  31.678  29.433  1.00  0.00     0.074 A 
ATOM     65  C   UNL A   1      42.111  32.567  30.159  1.00  0.00     0.031 C 
ATOM     66  C   UNL A   1      44.225  32.029  28.979  1.00  0.00     0.034 A 
BRANCH  53  67
ATOM     67  C   UNL A   1      47.214  27.470  25.999  1.00  0.00     0.023 A 
ATOM     68  C   UNL A   1      48.318  26.959  26.706  1.00  0.00     0.031 A 
ATOM     69  C   UNL A   1      47.324  27.578  24.602  1.00  0.00     0.131 A 
ATOM     70  C   UNL A   1      49.507  26.657  26.024  1.00  0.00     0.055 A 
ATOM     71  C   UNL A   1      48.479  27.189  23.920  1.00  0.00     0.041 A 
ATOM     72  F   UNL A   1      46.316  28.083  23.873  1.00  0.00    -0.206 F 
ATOM     73  C   UNL A   1      49.586  26.742  24.633  1.00  0.00     0.022 A 
BRANCH  70  74
ATOM     74  S   UNL A   1      50.998  26.313  26.999  1.00  0.00     0.124 S 
ATOM     75  O   UNL A   1      50.941  24.858  27.121  1.00  0.00    -0.237 OA
ATOM     76  O   UNL A   1      52.059  26.842  26.149  1.00  0.00    -0.237 OA
ATOM     77  O   UNL A   1      50.771  27.044  28.243  1.00  0.00    -0.744 OA
ENDBRANCH  70  74
ENDBRANCH  53  67
BRANCH  54  78
ATOM     78  C   UNL A   1      38.782  30.042  30.791  1.00  0.00     0.023 A 
ATOM     79  C   UNL A   1      37.761  30.787  30.182  1.00  0.00     0.031 A 
ATOM     80  C   UNL A   1      38.631  29.704  32.149  1.00  0.00     0.131 A 
ATOM     81  C   UNL A   1      36.656  31.208  30.938  1.00  0.00     0.055 A 
ATOM     82  C   UNL A   1      37.502  30.077  32.882  1.00  0.00     0.041 A 
ATOM     83  F   UNL A   1      39.578  28.994  32.782  1.00  0.00    -0.206 F 
ATOM     84  C   UNL A   1      36.512  30.845  32.279  1.00  0.00     0.022 A 
BRANCH  81  85
ATOM     85  S   UNL A   1      35.446  32.314  30.162  1.00  0.00     0.124 S 
ATOM     86  O   UNL A   1      36.256  33.495  29.890  1.00  0.00    -0.237 OA
ATOM     87  O   UNL A   1      35.029  31.539  28.999  1.00  0.00    -0.237 OA
ATOM     88  O   UNL A   1      34.426  32.480  31.196  1.00  0.00    -0.744 OA
ENDBRANCH  81  85
ENDBRANCH  54  78
BRANCH  66  89
ATOM     89  C   UNL A   1      44.662  33.459  29.196  1.00  0.00     0.023 A 
ATOM     90  C   UNL A   1      44.381  34.478  28.269  1.00  0.00     0.031 A 
ATOM     91  C   UNL A   1      45.370  33.804  30.363  1.00  0.00     0.131 A 
ATOM     92  C   UNL A   1      44.849  35.781  28.501  1.00  0.00     0.055 A 
ATOM     93  C   UNL A   1      45.776  35.115  30.618  1.00  0.00     0.041 A 
ATOM     94  F   UNL A   1      45.670  32.873  31.282  1.00  0.00    -0.206 F 
ATOM     95  C   UNL A   1      45.527  36.110  29.679  1.00  0.00     0.022 A 
BRANCH  92  96
ATOM     96  S   UNL A   1      44.638  37.028  27.201  1.00  0.00     0.124 S 
ATOM     97  O   UNL A   1      44.730  38.273  27.956  1.00  0.00    -0.237 OA
ATOM     98  O   UNL A   1      45.756  36.741  26.307  1.00  0.00    -0.237 OA
ATOM     99  O   UNL A   1      43.315  36.733  26.653  1.00  0.00    -0.744 OA
ENDBRANCH  92  96
ENDBRANCH  66  89
ENDBRANCH  40  41
ENDBRANCH  33  35
ENDBRANCH  32  33
ENDBRANCH  31  32
ENDBRANCH  30  31
ENDBRANCH  29  30
ENDBRANCH   1  29
TORSDOF 22
ENDMDL
MODEL 2
REMARK VINA RESULT:     -10.7      4.795      8.107
REMARK SMILES COc1ccc(NC(=O)NCc2ccc(C(=O)OCCOCCOC(=O)c3ccc(-c4c5nc(c(-c6cc(S(=O)(=O)[O-])ccc6F)c6ccc([nH]6)c(-c6cc(S(=O)(=O)[O-])ccc6F)c6nc(c(-c7cc(S(=O)(=O)[O-])ccc7F)c7ccc4[nH]7)C=C6)C=C5)cc3)cc2)c(OC)c1
REMARK SMILES IDX 20 1 19 2 18 3 16 4 17 5 15 6 12 7 13 8 91 9 14 10 90 11
REMARK SMILES IDX 11 12 10 13 7 14 8 15 9 17 6 19 3 20 4 21 95 22 5 23 92 24
REMARK SMILES IDX 2 25 1 26 93 27 94 28 21 29 22 30 23 31 24 32 25 33 26 34
REMARK SMILES IDX 27 35 28 36 89 37 29 38 88 39 30 40 31 41 32 42 82 43 33 44
REMARK SMILES IDX 87 45 81 46 83 47 34 48 86 49 80 50 79 51 35 53 67 54 47 55
REMARK SMILES IDX 66 56 48 57 51 58 65 59 84 60 49 61 50 62 64 64 85 65 52 66
REMARK SMILES IDX 36 67 37 68 45 69 38 70 44 71 46 72 43 73 39 74 40 75 41 76
REMARK SMILES IDX 42 77 68 78 69 79 77 80 70 81 76 82 78 83 75 84 71 85 72 86
REMARK SMILES IDX 73 87 74 88 53 89 54 90 62 91 55 92 61 93 63 94 60 95 56 96
REMARK SMILES IDX 57 97 58 98 59 99
REMARK H PARENT 7 16 10 18 83 52 51 63
REMARK Flexibility Score: inf
ROOT
ATOM      1  C   UNL A   1      30.474  29.317  23.266  1.00  0.00     0.202 C 
ENDROOT
BRANCH   1   2
ATOM      2  C   UNL A   1      30.892  27.961  22.690  1.00  0.00     0.261 C 
BRANCH   2   3
ATOM      3  O   UNL A   1      32.315  27.848  22.538  1.00  0.00    -0.460 OA
BRANCH   3   4
ATOM      4  C   UNL A   1      32.721  26.638  22.087  1.00  0.00     0.338 C 
ATOM      5  O   UNL A   1      33.458  26.416  21.138  1.00  0.00    -0.246 OA
BRANCH   4   6
ATOM      6  C   UNL A   1      32.319  25.565  23.019  1.00  0.00     0.060 A 
ATOM      7  C   UNL A   1      31.820  23.523  24.871  1.00  0.00    -0.029 A 
ATOM      8  C   UNL A   1      32.658  24.603  25.200  1.00  0.00     0.006 A 
ATOM      9  C   UNL A   1      31.181  23.513  23.624  1.00  0.00     0.006 A 
ATOM     10  C   UNL A   1      32.910  25.611  24.284  1.00  0.00     0.016 A 
ATOM     11  C   UNL A   1      31.423  24.540  22.697  1.00  0.00     0.016 A 
BRANCH   7  12
ATOM     12  C   UNL A   1      31.592  22.472  25.924  1.00  0.00     0.153 C 
BRANCH  12  13
ATOM     13  N   UNL A   1      31.571  21.100  25.469  1.00  0.00    -0.334 N 
ATOM     14  N   UNL A   1      33.712  20.577  24.524  1.00  0.00    -0.305 N 
ATOM     15  C   UNL A   1      32.454  20.267  24.893  1.00  0.00     0.319 C 
ATOM     16  H   UNL A   1      34.111  19.892  23.942  1.00  0.00     0.172 HD
ATOM     17  O   UNL A   1      32.034  19.144  24.588  1.00  0.00    -0.248 OA
ATOM     18  H   UNL A   1      30.697  20.671  25.620  1.00  0.00     0.165 HD
BRANCH  14  19
ATOM     19  C   UNL A   1      34.592  21.642  24.770  1.00  0.00     0.085 A 
ATOM     20  C   UNL A   1      36.805  23.271  25.253  1.00  0.00     0.122 A 
ATOM     21  C   UNL A   1      36.154  23.317  24.022  1.00  0.00     0.049 A 
ATOM     22  C   UNL A   1      36.215  22.575  26.306  1.00  0.00     0.095 A 
ATOM     23  C   UNL A   1      35.022  22.529  23.791  1.00  0.00     0.034 A 
ATOM     24  C   UNL A   1      35.067  21.811  26.078  1.00  0.00     0.146 A 
BRANCH  20  25
ATOM     25  O   UNL A   1      37.990  23.949  25.325  1.00  0.00    -0.497 OA
ATOM     26  C   UNL A   1      38.326  24.465  26.611  1.00  0.00     0.278 C 
ENDBRANCH  20  25
BRANCH  24  27
ATOM     27  O   UNL A   1      34.427  21.137  27.091  1.00  0.00    -0.494 OA
ATOM     28  C   UNL A   1      33.923  22.019  28.098  1.00  0.00     0.278 C 
ENDBRANCH  24  27
ENDBRANCH  14  19
ENDBRANCH  12  13
ENDBRANCH   7  12
ENDBRANCH   4   6
ENDBRANCH   3   4
ENDBRANCH   2   3
ENDBRANCH   1   2
BRANCH   1  29
ATOM     29  O   UNL A   1      30.558  29.492  24.678  1.00  0.00    -0.374 OA
BRANCH  29  30
ATOM     30  C   UNL A   1      31.825  29.837  25.237  1.00  0.00     0.202 C 
BRANCH  30  31
ATOM     31  C   UNL A   1      31.849  30.595  26.572  1.00  0.00     0.261 C 
BRANCH  31  32
ATOM     32  O   UNL A   1      33.045  30.349  27.330  1.00  0.00    -0.460 OA
BRANCH  32  33
ATOM     33  C   UNL A   1      33.786  31.455  27.596  1.00  0.00     0.338 C 
ATOM     34  O   UNL A   1      33.382  32.598  27.710  1.00  0.00    -0.246 OA
BRANCH  33  35
ATOM     35  C   UNL A   1      35.161  31.052  27.944  1.00  0.00     0.060 A 
ATOM     36  C   UNL A   1      35.392  29.706  28.260  1.00  0.00     0.016 A 
ATOM     37  C   UNL A   1      36.186  31.993  28.038  1.00  0.00     0.016 A 
ATOM     38  C   UNL A   1      36.646  29.302  28.715  1.00  0.00     0.010 A 
ATOM     39  C   UNL A   1      37.438  31.588  28.507  1.00  0.00     0.010 A 
ATOM     40  C   UNL A   1      37.662  30.249  28.880  1.00  0.00    -0.014 A 
BRANCH  40  41
ATOM     41  C   UNL A   1      38.901  29.884  29.610  1.00  0.00     0.031 A 
ATOM     42  C   UNL A   1      39.825  28.872  28.992  1.00  0.00     0.074 A 
ATOM     43  C   UNL A   1      39.199  30.448  30.792  1.00  0.00     0.049 A 
ATOM     44  N   UNL A   1      40.902  28.318  29.483  1.00  0.00    -0.248 NA
ATOM     45  C   UNL A   1      39.477  28.417  27.637  1.00  0.00     0.031 C 
ATOM     46  C   UNL A   1      38.412  31.486  31.455  1.00  0.00     0.029 A 
ATOM     47  N   UNL A   1      40.245  30.217  31.650  1.00  0.00    -0.354 N 
ATOM     48  C   UNL A   1      41.355  27.438  28.505  1.00  0.00     0.074 A 
ATOM     49  C   UNL A   1      40.410  27.507  27.410  1.00  0.00     0.031 C 
ATOM     50  C   UNL A   1      38.995  31.793  32.626  1.00  0.00     0.029 A 
ATOM     51  C   UNL A   1      40.168  30.941  32.817  1.00  0.00     0.049 A 
ATOM     52  H   UNL A   1      40.979  29.593  31.450  1.00  0.00     0.167 HD
ATOM     53  C   UNL A   1      42.461  26.654  28.518  1.00  0.00     0.034 A 
ATOM     54  C   UNL A   1      40.937  30.893  33.924  1.00  0.00     0.034 A 
ATOM     55  C   UNL A   1      43.382  26.593  29.627  1.00  0.00     0.049 A 
ATOM     56  C   UNL A   1      42.105  29.936  33.961  1.00  0.00     0.074 A 
ATOM     57  C   UNL A   1      44.536  25.838  29.751  1.00  0.00     0.029 A 
ATOM     58  N   UNL A   1      43.248  27.306  30.813  1.00  0.00    -0.354 N 
ATOM     59  N   UNL A   1      42.521  29.098  33.038  1.00  0.00    -0.248 NA
ATOM     60  C   UNL A   1      42.912  29.921  35.189  1.00  0.00     0.031 C 
ATOM     61  C   UNL A   1      45.052  26.034  31.036  1.00  0.00     0.029 A 
ATOM     62  C   UNL A   1      44.277  26.982  31.684  1.00  0.00     0.049 A 
ATOM     63  H   UNL A   1      42.527  27.948  31.006  1.00  0.00     0.167 HD
ATOM     64  C   UNL A   1      43.660  28.489  33.559  1.00  0.00     0.074 A 
ATOM     65  C   UNL A   1      43.867  29.058  34.875  1.00  0.00     0.031 C 
ATOM     66  C   UNL A   1      44.469  27.555  32.997  1.00  0.00     0.034 A 
BRANCH  53  67
ATOM     67  C   UNL A   1      42.690  25.761  27.321  1.00  0.00     0.023 A 
ATOM     68  C   UNL A   1      42.153  24.463  27.250  1.00  0.00     0.031 A 
ATOM     69  C   UNL A   1      43.497  26.196  26.255  1.00  0.00     0.131 A 
ATOM     70  C   UNL A   1      42.499  23.619  26.183  1.00  0.00     0.055 A 
ATOM     71  C   UNL A   1      43.763  25.383  25.151  1.00  0.00     0.041 A 
ATOM     72  F   UNL A   1      44.060  27.414  26.276  1.00  0.00    -0.206 F 
ATOM     73  C   UNL A   1      43.277  24.080  25.119  1.00  0.00     0.022 A 
BRANCH  70  74
ATOM     74  S   UNL A   1      42.055  21.864  26.290  1.00  0.00     0.124 S 
ATOM     75  O   UNL A   1      42.450  21.542  27.659  1.00  0.00    -0.237 OA
ATOM     76  O   UNL A   1      40.621  21.884  26.026  1.00  0.00    -0.237 OA
ATOM     77  O   UNL A   1      42.873  21.240  25.251  1.00  0.00    -0.744 OA
ENDBRANCH  70  74
ENDBRANCH  53  67
BRANCH  54  78
ATOM     78  C   UNL A   1      40.613  31.745  35.103  1.00  0.00     0.023 A 
ATOM     79  C   UNL A   1      39.544  31.427  35.954  1.00  0.00     0.031 A 
ATOM     80  C   UNL A   1      41.342  32.918  35.371  1.00  0.00     0.131 A 
ATOM     81  C   UNL A   1      39.204  32.294  37.004  1.00  0.00     0.055 A 
ATOM     82  C   UNL A   1      41.036  33.748  36.452  1.00  0.00     0.041 A 
ATOM     83  F   UNL A   1      42.374  33.271  34.588  1.00  0.00    -0.206 F 
ATOM     84  C   UNL A   1      39.952  33.444  37.268  1.00  0.00     0.022 A 
BRANCH  81  85
ATOM     85  S   UNL A   1      37.711  31.940  37.973  1.00  0.00     0.124 S 
ATOM     86  O   UNL A   1      36.781  32.936  37.455  1.00  0.00    -0.237 OA
ATOM     87  O   UNL A   1      37.437  30.554  37.610  1.00  0.00    -0.237 OA
ATOM     88  O   UNL A   1      38.145  32.147  39.353  1.00  0.00    -0.744 OA
ENDBRANCH  81  85
ENDBRANCH  54  78
BRANCH  66  89
ATOM     89  C   UNL A   1      45.694  27.138  33.778  1.00  0.00     0.023 A 
ATOM     90  C   UNL A   1      45.694  26.019  34.629  1.00  0.00     0.031 A 
ATOM     91  C   UNL A   1      46.885  27.877  33.658  1.00  0.00     0.131 A 
ATOM     92  C   UNL A   1      46.847  25.702  35.365  1.00  0.00     0.055 A 
ATOM     93  C   UNL A   1      48.047  27.519  34.343  1.00  0.00     0.041 A 
ATOM     94  F   UNL A   1      46.943  28.957  32.863  1.00  0.00    -0.206 F 
ATOM     95  C   UNL A   1      48.029  26.433  35.211  1.00  0.00     0.022 A 
BRANCH  92  96
ATOM     96  S   UNL A   1      46.759  24.373  36.596  1.00  0.00     0.124 S 
ATOM     97  O   UNL A   1      45.365  24.442  37.019  1.00  0.00    -0.237 OA
ATOM     98  O   UNL A   1      47.131  23.197  35.814  1.00  0.00    -0.237 OA
ATOM     99  O   UNL A   1      47.734  24.776  37.608  1.00  0.00    -0.744 OA
ENDBRANCH  92  96
ENDBRANCH  66  89
ENDBRANCH  40  41
ENDBRANCH  33  35
ENDBRANCH  32  33
ENDBRANCH  31  32
ENDBRANCH  30  31
ENDBRANCH  29  30
ENDBRANCH   1  29
TORSDOF 22
ENDMDL
MODEL 3
REMARK VINA RESULT:     -10.7      1.983      7.589
REMARK SMILES COc1ccc(NC(=O)NCc2ccc(C(=O)OCCOCCOC(=O)c3ccc(-c4c5nc(c(-c6cc(S(=O)(=O)[O-])ccc6F)c6ccc([nH]6)c(-c6cc(S(=O)(=O)[O-])ccc6F)c6nc(c(-c7cc(S(=O)(=O)[O-])ccc7F)c7ccc4[nH]7)C=C6)C=C5)cc3)cc2)c(OC)c1
REMARK SMILES IDX 20 1 19 2 18 3 16 4 17 5 15 6 12 7 13 8 91 9 14 10 90 11
REMARK SMILES IDX 11 12 10 13 7 14 8 15 9 17 6 19 3 20 4 21 95 22 5 23 92 24
REMARK SMILES IDX 2 25 1 26 93 27 94 28 21 29 22 30 23 31 24 32 25 33 26 34
REMARK SMILES IDX 27 35 28 36 89 37 29 38 88 39 30 40 31 41 32 42 82 43 33 44
REMARK SMILES IDX 87 45 81 46 83 47 34 48 86 49 80 50 79 51 35 53 67 54 47 55
REMARK SMILES IDX 66 56 48 57 51 58 65 59 84 60 49 61 50 62 64 64 85 65 52 66
REMARK SMILES IDX 36 67 37 68 45 69 38 70 44 71 46 72 43 73 39 74 40 75 41 76
REMARK SMILES IDX 42 77 68 78 69 79 77 80 70 81 76 82 78 83 75 84 71 85 72 86
REMARK SMILES IDX 73 87 74 88 53 89 54 90 62 91 55 92 61 93 63 94 60 95 56 96
REMARK SMILES IDX 57 97 58 98 59 99
REMARK H PARENT 7 16 10 18 83 52 51 63
REMARK Flexibility Score: inf
ROOT
ATOM      1  C   UNL A   1      36.299  21.351  24.655  1.00  0.00     0.202 C 
ENDROOT
BRANCH   1   2
ATOM      2  C   UNL A   1      35.182  20.460  25.207  1.00  0.00     0.261 C 
BRANCH   2   3
ATOM      3  O   UNL A   1      33.906  21.118  25.203  1.00  0.00    -0.460 OA
BRANCH   3   4
ATOM      4  C   UNL A   1      33.181  20.896  24.081  1.00  0.00     0.338 C 
ATOM      5  O   UNL A   1      32.838  19.814  23.629  1.00  0.00    -0.246 OA
BRANCH   4   6
ATOM      6  C   UNL A   1      32.657  22.164  23.533  1.00  0.00     0.060 A 
ATOM      7  C   UNL A   1      31.902  24.684  22.571  1.00  0.00    -0.029 A 
ATOM      8  C   UNL A   1      33.205  24.197  22.367  1.00  0.00     0.006 A 
ATOM      9  C   UNL A   1      30.960  23.862  23.205  1.00  0.00     0.006 A 
ATOM     10  C   UNL A   1      33.582  22.953  22.847  1.00  0.00     0.016 A 
ATOM     11  C   UNL A   1      31.334  22.595  23.682  1.00  0.00     0.016 A 
BRANCH   7  12
ATOM     12  C   UNL A   1      31.570  26.041  22.013  1.00  0.00     0.153 C 
BRANCH  12  13
ATOM     13  N   UNL A   1      32.691  26.865  21.618  1.00  0.00    -0.334 N 
ATOM     14  N   UNL A   1      33.778  27.672  23.597  1.00  0.00    -0.305 N 
ATOM     15  C   UNL A   1      33.650  27.551  22.261  1.00  0.00     0.319 C 
ATOM     16  H   UNL A   1      34.418  28.376  23.850  1.00  0.00     0.172 HD
ATOM     17  O   UNL A   1      34.426  28.207  21.555  1.00  0.00    -0.248 OA
ATOM     18  H   UNL A   1      32.770  26.942  20.639  1.00  0.00     0.165 HD
BRANCH  14  19
ATOM     19  C   UNL A   1      33.220  27.036  24.716  1.00  0.00     0.085 A 
ATOM     20  C   UNL A   1      31.723  25.475  26.477  1.00  0.00     0.122 A 
ATOM     21  C   UNL A   1      33.061  25.171  26.234  1.00  0.00     0.049 A 
ATOM     22  C   UNL A   1      31.205  26.680  26.011  1.00  0.00     0.095 A 
ATOM     23  C   UNL A   1      33.824  25.975  25.380  1.00  0.00     0.034 A 
ATOM     24  C   UNL A   1      31.981  27.495  25.181  1.00  0.00     0.146 A 
BRANCH  20  25
ATOM     25  O   UNL A   1      31.022  24.542  27.190  1.00  0.00    -0.497 OA
ATOM     26  C   UNL A   1      31.347  23.182  26.909  1.00  0.00     0.278 C 
ENDBRANCH  20  25
BRANCH  24  27
ATOM     27  O   UNL A   1      31.529  28.711  24.726  1.00  0.00    -0.494 OA
ATOM     28  C   UNL A   1      30.296  28.602  24.010  1.00  0.00     0.278 C 
ENDBRANCH  24  27
ENDBRANCH  14  19
ENDBRANCH  12  13
ENDBRANCH   7  12
ENDBRANCH   4   6
ENDBRANCH   3   4
ENDBRANCH   2   3
ENDBRANCH   1   2
BRANCH   1  29
ATOM     29  O   UNL A   1      37.609  21.182  25.191  1.00  0.00    -0.374 OA
BRANCH  29  30
ATOM     30  C   UNL A   1      38.296  19.962  24.911  1.00  0.00     0.202 C 
BRANCH  30  31
ATOM     31  C   UNL A   1      39.329  19.460  25.929  1.00  0.00     0.261 C 
BRANCH  31  32
ATOM     32  O   UNL A   1      40.648  19.338  25.368  1.00  0.00    -0.460 OA
BRANCH  32  33
ATOM     33  C   UNL A   1      41.660  19.520  26.255  1.00  0.00     0.338 C 
ATOM     34  O   UNL A   1      42.471  18.691  26.623  1.00  0.00    -0.246 OA
BRANCH  33  35
ATOM     35  C   UNL A   1      41.780  20.955  26.572  1.00  0.00     0.060 A 
ATOM     36  C   UNL A   1      42.047  21.842  25.520  1.00  0.00     0.016 A 
ATOM     37  C   UNL A   1      41.717  21.410  27.889  1.00  0.00     0.016 A 
ATOM     38  C   UNL A   1      42.293  23.187  25.786  1.00  0.00     0.010 A 
ATOM     39  C   UNL A   1      41.977  22.756  28.155  1.00  0.00     0.010 A 
ATOM     40  C   UNL A   1      42.300  23.642  27.109  1.00  0.00    -0.014 A 
BRANCH  40  41
ATOM     41  C   UNL A   1      42.820  24.995  27.423  1.00  0.00     0.031 A 
ATOM     42  C   UNL A   1      41.904  25.977  28.100  1.00  0.00     0.074 A 
ATOM     43  C   UNL A   1      44.083  25.339  27.118  1.00  0.00     0.049 A 
ATOM     44  N   UNL A   1      42.094  27.240  28.376  1.00  0.00    -0.248 NA
ATOM     45  C   UNL A   1      40.590  25.459  28.512  1.00  0.00     0.031 C 
ATOM     46  C   UNL A   1      45.079  24.452  26.520  1.00  0.00     0.029 A 
ATOM     47  N   UNL A   1      44.740  26.535  27.263  1.00  0.00    -0.354 N 
ATOM     48  C   UNL A   1      40.920  27.675  28.982  1.00  0.00     0.074 A 
ATOM     49  C   UNL A   1      40.012  26.547  28.995  1.00  0.00     0.031 C 
ATOM     50  C   UNL A   1      46.218  25.139  26.335  1.00  0.00     0.029 A 
ATOM     51  C   UNL A   1      46.018  26.525  26.756  1.00  0.00     0.049 A 
ATOM     52  H   UNL A   1      44.335  27.325  27.689  1.00  0.00     0.167 HD
ATOM     53  C   UNL A   1      40.632  28.900  29.488  1.00  0.00     0.034 A 
ATOM     54  C   UNL A   1      46.909  27.529  26.618  1.00  0.00     0.034 A 
ATOM     55  C   UNL A   1      41.549  30.013  29.452  1.00  0.00     0.049 A 
ATOM     56  C   UNL A   1      46.530  28.912  27.092  1.00  0.00     0.074 A 
ATOM     57  C   UNL A   1      41.366  31.298  29.934  1.00  0.00     0.029 A 
ATOM     58  N   UNL A   1      42.820  29.979  28.889  1.00  0.00    -0.354 N 
ATOM     59  N   UNL A   1      45.413  29.320  27.653  1.00  0.00    -0.248 NA
ATOM     60  C   UNL A   1      47.533  29.971  26.919  1.00  0.00     0.031 C 
ATOM     61  C   UNL A   1      42.490  32.058  29.593  1.00  0.00     0.029 A 
ATOM     62  C   UNL A   1      43.416  31.227  28.981  1.00  0.00     0.049 A 
ATOM     63  H   UNL A   1      43.235  29.185  28.483  1.00  0.00     0.167 HD
ATOM     64  C   UNL A   1      45.599  30.671  27.936  1.00  0.00     0.074 A 
ATOM     65  C   UNL A   1      46.935  31.007  27.486  1.00  0.00     0.031 C 
ATOM     66  C   UNL A   1      44.749  31.551  28.525  1.00  0.00     0.034 A 
BRANCH  53  67
ATOM     67  C   UNL A   1      39.249  29.104  30.061  1.00  0.00     0.023 A 
ATOM     68  C   UNL A   1      38.247  29.793  29.356  1.00  0.00     0.031 A 
ATOM     69  C   UNL A   1      38.942  28.642  31.354  1.00  0.00     0.131 A 
ATOM     70  C   UNL A   1      37.020  30.075  29.977  1.00  0.00     0.055 A 
ATOM     71  C   UNL A   1      37.687  28.847  31.931  1.00  0.00     0.041 A 
ATOM     72  F   UNL A   1      39.864  28.000  32.088  1.00  0.00    -0.206 F 
ATOM     73  C   UNL A   1      36.723  29.583  31.250  1.00  0.00     0.022 A 
BRANCH  70  74
ATOM     74  S   UNL A   1      35.886  31.236  29.166  1.00  0.00     0.124 S 
ATOM     75  O   UNL A   1      35.151  31.775  30.306  1.00  0.00    -0.237 OA
ATOM     76  O   UNL A   1      36.801  32.156  28.500  1.00  0.00    -0.237 OA
ATOM     77  O   UNL A   1      35.101  30.382  28.276  1.00  0.00    -0.744 OA
ENDBRANCH  70  74
ENDBRANCH  53  67
BRANCH  54  78
ATOM     78  C   UNL A   1      48.229  27.281  25.972  1.00  0.00     0.023 A 
ATOM     79  C   UNL A   1      48.408  27.472  24.594  1.00  0.00     0.031 A 
ATOM     80  C   UNL A   1      49.321  26.802  26.718  1.00  0.00     0.131 A 
ATOM     81  C   UNL A   1      49.635  27.145  23.996  1.00  0.00     0.055 A 
ATOM     82  C   UNL A   1      50.558  26.532  26.128  1.00  0.00     0.041 A 
ATOM     83  F   UNL A   1      49.204  26.599  28.041  1.00  0.00    -0.206 F 
ATOM     84  C   UNL A   1      50.716  26.692  24.756  1.00  0.00     0.022 A 
BRANCH  81  85
ATOM     85  S   UNL A   1      49.773  27.241  22.189  1.00  0.00     0.124 S 
ATOM     86  O   UNL A   1      49.456  28.643  21.943  1.00  0.00    -0.237 OA
ATOM     87  O   UNL A   1      51.159  26.847  21.970  1.00  0.00    -0.237 OA
ATOM     88  O   UNL A   1      48.773  26.283  21.722  1.00  0.00    -0.744 OA
ENDBRANCH  81  85
ENDBRANCH  54  78
BRANCH  66  89
ATOM     89  C   UNL A   1      45.264  32.948  28.779  1.00  0.00     0.023 A 
ATOM     90  C   UNL A   1      45.969  33.287  29.947  1.00  0.00     0.031 A 
ATOM     91  C   UNL A   1      45.045  33.958  27.823  1.00  0.00     0.131 A 
ATOM     92  C   UNL A   1      46.386  34.612  30.151  1.00  0.00     0.055 A 
ATOM     93  C   UNL A   1      45.519  35.258  28.003  1.00  0.00     0.041 A 
ATOM     94  F   UNL A   1      44.375  33.695  26.690  1.00  0.00    -0.206 F 
ATOM     95  C   UNL A   1      46.183  35.594  29.177  1.00  0.00     0.022 A 
BRANCH  92  96
ATOM     96  S   UNL A   1      47.121  35.059  31.748  1.00  0.00     0.124 S 
ATOM     97  O   UNL A   1      48.532  35.195  31.404  1.00  0.00    -0.237 OA
ATOM     98  O   UNL A   1      46.423  36.297  32.078  1.00  0.00    -0.237 OA
ATOM     99  O   UNL A   1      46.800  33.919  32.606  1.00  0.00    -0.744 OA
ENDBRANCH  92  96
ENDBRANCH  66  89
ENDBRANCH  40  41
ENDBRANCH  33  35
ENDBRANCH  32  33
ENDBRANCH  31  32
ENDBRANCH  30  31
ENDBRANCH  29  30
ENDBRANCH   1  29
TORSDOF 22
ENDMDL
