MODEL 1
REMARK VINA RESULT:     -12.2      0.000      0.000
REMARK SMILES CCn1c(C)cc(/C=C(/C(=O)OCCOCCOC(=O)c2ccc(-c3c4nc(c(-c5cc(S(=O)(=O)[O-])ccc5F)c5ccc([nH]5)c(-c5cc(S(=O)(=O)[O-])ccc5F)c5nc(c(-c6cc(S(=O)(=O)[O-])ccc6F)c6ccc3[nH]6)C=C5)C=C4)cc2)c2ccccc2)c1C
REMARK SMILES IDX 16 1 15 2 14 3 13 4 12 5 10 6 11 7 9 8 8 9 7 10 3 11 4 12
REMARK SMILES IDX 90 13 5 14 6 15 91 16 2 17 1 18 84 19 85 20 89 21 86 22
REMARK SMILES IDX 88 23 87 24 17 25 18 26 19 27 20 28 21 29 22 30 83 31 23 32
REMARK SMILES IDX 82 33 24 34 25 35 26 36 76 37 27 38 81 39 75 40 77 41 28 42
REMARK SMILES IDX 80 43 74 44 73 45 29 47 61 48 41 49 60 50 42 51 45 52 59 53
REMARK SMILES IDX 78 54 43 55 44 56 58 58 79 59 46 60 30 61 31 62 39 63 32 64
REMARK SMILES IDX 38 65 40 66 37 67 33 68 34 69 35 70 36 71 62 72 63 73 71 74
REMARK SMILES IDX 64 75 70 76 72 77 69 78 65 79 66 80 67 81 68 82 47 83 48 84
REMARK SMILES IDX 56 85 49 86 55 87 57 88 54 89 50 90 51 91 52 92 53 93
REMARK H PARENT 77 46 45 57
REMARK Flexibility Score: inf
ROOT
ATOM      1  C   UNL A   1      33.247  29.282  27.100  1.00  0.00     0.202 C 
ENDROOT
BRANCH   1   2
ATOM      2  O   UNL A   1      32.336  28.513  26.297  1.00  0.00    -0.374 OA
BRANCH   2   3
ATOM      3  C   UNL A   1      31.733  27.386  26.925  1.00  0.00     0.202 C 
BRANCH   3   4
ATOM      4  C   UNL A   1      32.263  26.021  26.450  1.00  0.00     0.261 C 
BRANCH   4   5
ATOM      5  O   UNL A   1      31.817  25.704  25.118  1.00  0.00    -0.460 OA
BRANCH   5   6
ATOM      6  C   UNL A   1      32.810  25.402  24.237  1.00  0.00     0.338 C 
ATOM      7  O   UNL A   1      33.326  26.186  23.461  1.00  0.00    -0.246 OA
BRANCH   6   8
ATOM      8  C   UNL A   1      33.296  23.981  24.389  1.00  0.00     0.067 C 
ATOM      9  C   UNL A   1      32.407  22.966  24.276  1.00  0.00     0.026 C 
BRANCH   9  10
ATOM     10  C   UNL A   1      32.499  21.516  24.195  1.00  0.00    -0.004 A 
ATOM     11  N   UNL A   1      32.442  19.315  23.692  1.00  0.00    -0.349 N 
ATOM     12  C   UNL A   1      32.634  19.391  25.050  1.00  0.00     0.015 A 
ATOM     13  C   UNL A   1      32.273  20.595  23.175  1.00  0.00     0.022 A 
ATOM     14  C   UNL A   1      32.643  18.203  25.946  1.00  0.00     0.064 C 
ATOM     15  C   UNL A   1      32.760  20.730  25.364  1.00  0.00     0.031 A 
ATOM     16  C   UNL A   1      31.859  20.749  21.759  1.00  0.00     0.065 C 
BRANCH  11  17
ATOM     17  C   UNL A   1      32.265  18.080  22.931  1.00  0.00     0.118 C 
ATOM     18  C   UNL A   1      33.560  17.323  22.661  1.00  0.00     0.027 C 
ENDBRANCH  11  17
ENDBRANCH   9  10
BRANCH   8  19
ATOM     19  C   UNL A   1      34.754  23.856  24.520  1.00  0.00    -0.011 A 
ATOM     20  C   UNL A   1      35.404  24.244  25.700  1.00  0.00     0.009 A 
ATOM     21  C   UNL A   1      35.509  23.350  23.453  1.00  0.00     0.009 A 
ATOM     22  C   UNL A   1      36.777  24.024  25.845  1.00  0.00     0.001 A 
ATOM     23  C   UNL A   1      36.875  23.110  23.609  1.00  0.00     0.001 A 
ATOM     24  C   UNL A   1      37.503  23.427  24.813  1.00  0.00     0.000 A 
ENDBRANCH   8  19
ENDBRANCH   6   8
ENDBRANCH   5   6
ENDBRANCH   4   5
ENDBRANCH   3   4
ENDBRANCH   2   3
ENDBRANCH   1   2
BRANCH   1  25
ATOM     25  C   UNL A   1      33.127  30.841  27.065  1.00  0.00     0.261 C 
BRANCH  25  26
ATOM     26  O   UNL A   1      34.341  31.697  27.162  1.00  0.00    -0.460 OA
BRANCH  26  27
ATOM     27  C   UNL A   1      35.023  31.663  28.368  1.00  0.00     0.338 C 
ATOM     28  O   UNL A   1      34.527  32.128  29.388  1.00  0.00    -0.246 OA
BRANCH  27  29
ATOM     29  C   UNL A   1      36.410  30.951  28.440  1.00  0.00     0.060 A 
ATOM     30  C   UNL A   1      36.738  30.041  27.445  1.00  0.00     0.016 A 
ATOM     31  C   UNL A   1      37.295  30.882  29.545  1.00  0.00     0.016 A 
ATOM     32  C   UNL A   1      37.913  29.183  27.530  1.00  0.00     0.010 A 
ATOM     33  C   UNL A   1      38.470  29.931  29.655  1.00  0.00     0.010 A 
ATOM     34  C   UNL A   1      38.842  29.021  28.644  1.00  0.00    -0.014 A 
BRANCH  34  35
ATOM     35  C   UNL A   1      39.880  27.640  28.638  1.00  0.00     0.031 A 
ATOM     36  C   UNL A   1      40.795  27.996  29.760  1.00  0.00     0.074 A 
ATOM     37  C   UNL A   1      40.344  26.459  27.972  1.00  0.00     0.049 A 
ATOM     38  N   UNL A   1      41.443  29.122  29.670  1.00  0.00    -0.248 NA
ATOM     39  C   UNL A   1      40.719  27.451  31.116  1.00  0.00     0.031 C 
ATOM     40  C   UNL A   1      39.979  25.961  26.626  1.00  0.00     0.029 A 
ATOM     41  N   UNL A   1      41.305  25.388  28.314  1.00  0.00    -0.354 N 
ATOM     42  C   UNL A   1      42.118  29.290  30.848  1.00  0.00     0.074 A 
ATOM     43  C   UNL A   1      41.468  28.356  31.762  1.00  0.00     0.031 C 
ATOM     44  C   UNL A   1      40.515  24.728  26.338  1.00  0.00     0.029 A 
ATOM     45  C   UNL A   1      41.369  24.209  27.417  1.00  0.00     0.049 A 
ATOM     46  H   UNL A   1      41.883  25.456  29.108  1.00  0.00     0.167 HD
ATOM     47  C   UNL A   1      43.447  29.561  30.691  1.00  0.00     0.034 A 
ATOM     48  C   UNL A   1      42.097  22.980  27.448  1.00  0.00     0.034 A 
ATOM     49  C   UNL A   1      44.228  28.359  30.818  1.00  0.00     0.049 A 
ATOM     50  C   UNL A   1      43.351  23.265  28.140  1.00  0.00     0.074 A 
ATOM     51  C   UNL A   1      44.196  27.325  31.734  1.00  0.00     0.029 A 
ATOM     52  N   UNL A   1      44.830  27.866  29.681  1.00  0.00    -0.354 N 
ATOM     53  N   UNL A   1      44.333  23.845  27.527  1.00  0.00    -0.248 NA
ATOM     54  C   UNL A   1      43.621  22.853  29.508  1.00  0.00     0.031 C 
ATOM     55  C   UNL A   1      44.330  26.154  30.961  1.00  0.00     0.029 A 
ATOM     56  C   UNL A   1      44.846  26.487  29.713  1.00  0.00     0.049 A 
ATOM     57  H   UNL A   1      45.196  28.417  28.952  1.00  0.00     0.167 HD
ATOM     58  C   UNL A   1      45.017  24.406  28.557  1.00  0.00     0.074 A 
ATOM     59  C   UNL A   1      44.744  23.548  29.698  1.00  0.00     0.031 C 
ATOM     60  C   UNL A   1      45.161  25.755  28.503  1.00  0.00     0.034 A 
BRANCH  47  61
ATOM     61  C   UNL A   1      43.673  30.663  29.681  1.00  0.00     0.023 A 
ATOM     62  C   UNL A   1      44.698  30.507  28.740  1.00  0.00     0.031 A 
ATOM     63  C   UNL A   1      43.077  31.941  29.793  1.00  0.00     0.131 A 
ATOM     64  C   UNL A   1      45.154  31.619  28.011  1.00  0.00     0.055 A 
ATOM     65  C   UNL A   1      43.571  33.053  29.111  1.00  0.00     0.041 A 
ATOM     66  F   UNL A   1      42.037  32.142  30.620  1.00  0.00    -0.206 F 
ATOM     67  C   UNL A   1      44.626  32.896  28.222  1.00  0.00     0.022 A 
BRANCH  64  68
ATOM     68  S   UNL A   1      46.467  31.364  26.789  1.00  0.00     0.124 S 
ATOM     69  O   UNL A   1      47.409  32.427  27.109  1.00  0.00    -0.237 OA
ATOM     70  O   UNL A   1      46.915  30.010  27.094  1.00  0.00    -0.237 OA
ATOM     71  O   UNL A   1      45.776  31.508  25.502  1.00  0.00    -0.744 OA
ENDBRANCH  64  68
ENDBRANCH  47  61
BRANCH  48  72
ATOM     72  C   UNL A   1      42.255  21.481  26.857  1.00  0.00     0.023 A 
ATOM     73  C   UNL A   1      43.297  21.077  25.892  1.00  0.00     0.031 A 
ATOM     74  C   UNL A   1      41.673  20.387  27.511  1.00  0.00     0.131 A 
ATOM     75  C   UNL A   1      43.702  19.711  25.675  1.00  0.00     0.055 A 
ATOM     76  C   UNL A   1      42.078  19.038  27.289  1.00  0.00     0.041 A 
ATOM     77  F   UNL A   1      40.759  20.589  28.470  1.00  0.00    -0.206 F 
ATOM     78  C   UNL A   1      43.093  18.695  26.395  1.00  0.00     0.022 A 
BRANCH  75  79
ATOM     79  S   UNL A   1      45.149  19.202  24.609  1.00  0.00     0.124 S 
ATOM     80  O   UNL A   1      45.560  17.928  25.185  1.00  0.00    -0.237 OA
ATOM     81  O   UNL A   1      44.575  19.160  23.269  1.00  0.00    -0.237 OA
ATOM     82  O   UNL A   1      46.119  20.287  24.803  1.00  0.00    -0.744 OA
ENDBRANCH  75  79
ENDBRANCH  48  72
BRANCH  60  83
ATOM     83  C   UNL A   1      45.465  26.378  27.133  1.00  0.00     0.023 A 
ATOM     84  C   UNL A   1      46.647  26.193  26.362  1.00  0.00     0.031 A 
ATOM     85  C   UNL A   1      44.531  27.286  26.609  1.00  0.00     0.131 A 
ATOM     86  C   UNL A   1      46.874  26.924  25.177  1.00  0.00     0.055 A 
ATOM     87  C   UNL A   1      44.730  27.971  25.408  1.00  0.00     0.041 A 
ATOM     88  F   UNL A   1      43.390  27.541  27.271  1.00  0.00    -0.206 F 
ATOM     89  C   UNL A   1      45.912  27.807  24.695  1.00  0.00     0.022 A 
BRANCH  86  90
ATOM     90  S   UNL A   1      48.472  26.794  24.300  1.00  0.00     0.124 S 
ATOM     91  O   UNL A   1      49.423  26.518  25.369  1.00  0.00    -0.237 OA
ATOM     92  O   UNL A   1      48.233  25.702  23.361  1.00  0.00    -0.237 OA
ATOM     93  O   UNL A   1      48.625  28.112  23.678  1.00  0.00    -0.744 OA
ENDBRANCH  86  90
ENDBRANCH  60  83
ENDBRANCH  34  35
ENDBRANCH  27  29
ENDBRANCH  26  27
ENDBRANCH  25  26
ENDBRANCH   1  25
TORSDOF 20
ENDMDL
MODEL 2
REMARK VINA RESULT:     -11.8      1.634      3.066
REMARK SMILES CCn1c(C)cc(/C=C(/C(=O)OCCOCCOC(=O)c2ccc(-c3c4nc(c(-c5cc(S(=O)(=O)[O-])ccc5F)c5ccc([nH]5)c(-c5cc(S(=O)(=O)[O-])ccc5F)c5nc(c(-c6cc(S(=O)(=O)[O-])ccc6F)c6ccc3[nH]6)C=C5)C=C4)cc2)c2ccccc2)c1C
REMARK SMILES IDX 16 1 15 2 14 3 13 4 12 5 10 6 11 7 9 8 8 9 7 10 3 11 4 12
REMARK SMILES IDX 90 13 5 14 6 15 91 16 2 17 1 18 84 19 85 20 89 21 86 22
REMARK SMILES IDX 88 23 87 24 17 25 18 26 19 27 20 28 21 29 22 30 83 31 23 32
REMARK SMILES IDX 82 33 24 34 25 35 26 36 76 37 27 38 81 39 75 40 77 41 28 42
REMARK SMILES IDX 80 43 74 44 73 45 29 47 61 48 41 49 60 50 42 51 45 52 59 53
REMARK SMILES IDX 78 54 43 55 44 56 58 58 79 59 46 60 30 61 31 62 39 63 32 64
REMARK SMILES IDX 38 65 40 66 37 67 33 68 34 69 35 70 36 71 62 72 63 73 71 74
REMARK SMILES IDX 64 75 70 76 72 77 69 78 65 79 66 80 67 81 68 82 47 83 48 84
REMARK SMILES IDX 56 85 49 86 55 87 57 88 54 89 50 90 51 91 52 92 53 93
REMARK H PARENT 77 46 45 57
REMARK Flexibility Score: inf
ROOT
ATOM      1  C   UNL A   1      34.173  32.333  28.164  1.00  0.00     0.202 C 
ENDROOT
BRANCH   1   2
ATOM      2  O   UNL A   1      33.029  32.367  27.294  1.00  0.00    -0.374 OA
BRANCH   2   3
ATOM      3  C   UNL A   1      32.306  31.149  27.148  1.00  0.00     0.202 C 
BRANCH   3   4
ATOM      4  C   UNL A   1      33.106  29.993  26.519  1.00  0.00     0.261 C 
BRANCH   4   5
ATOM      5  O   UNL A   1      33.217  28.868  27.410  1.00  0.00    -0.460 OA
BRANCH   5   6
ATOM      6  C   UNL A   1      32.197  27.969  27.328  1.00  0.00     0.338 C 
ATOM      7  O   UNL A   1      31.215  27.951  28.048  1.00  0.00    -0.246 OA
BRANCH   6   8
ATOM      8  C   UNL A   1      32.357  27.029  26.159  1.00  0.00     0.067 C 
ATOM      9  C   UNL A   1      33.259  26.022  26.241  1.00  0.00     0.026 C 
BRANCH   9  10
ATOM     10  C   UNL A   1      33.582  24.855  25.434  1.00  0.00    -0.004 A 
ATOM     11  N   UNL A   1      33.781  22.849  24.418  1.00  0.00    -0.349 N 
ATOM     12  C   UNL A   1      34.944  23.528  24.151  1.00  0.00     0.015 A 
ATOM     13  C   UNL A   1      32.984  23.609  25.266  1.00  0.00     0.022 A 
ATOM     14  C   UNL A   1      36.106  22.923  23.445  1.00  0.00     0.064 C 
ATOM     15  C   UNL A   1      34.804  24.792  24.690  1.00  0.00     0.031 A 
ATOM     16  C   UNL A   1      31.763  22.996  25.847  1.00  0.00     0.065 C 
BRANCH  11  17
ATOM     17  C   UNL A   1      33.497  21.471  24.022  1.00  0.00     0.118 C 
ATOM     18  C   UNL A   1      34.041  20.421  24.983  1.00  0.00     0.027 C 
ENDBRANCH  11  17
ENDBRANCH   9  10
BRANCH   8  19
ATOM     19  C   UNL A   1      31.388  27.247  25.076  1.00  0.00    -0.011 A 
ATOM     20  C   UNL A   1      31.647  28.174  24.057  1.00  0.00     0.009 A 
ATOM     21  C   UNL A   1      30.185  26.528  25.062  1.00  0.00     0.009 A 
ATOM     22  C   UNL A   1      30.762  28.296  22.982  1.00  0.00     0.001 A 
ATOM     23  C   UNL A   1      29.314  26.635  23.976  1.00  0.00     0.001 A 
ATOM     24  C   UNL A   1      29.615  27.502  22.927  1.00  0.00     0.000 A 
ENDBRANCH   8  19
ENDBRANCH   6   8
ENDBRANCH   5   6
ENDBRANCH   4   5
ENDBRANCH   3   4
ENDBRANCH   2   3
ENDBRANCH   1   2
BRANCH   1  25
ATOM     25  C   UNL A   1      34.637  33.671  28.827  1.00  0.00     0.261 C 
BRANCH  25  26
ATOM     26  O   UNL A   1      36.083  33.952  29.036  1.00  0.00    -0.460 OA
BRANCH  26  27
ATOM     27  C   UNL A   1      36.726  33.189  29.999  1.00  0.00     0.338 C 
ATOM     28  O   UNL A   1      36.362  33.211  31.168  1.00  0.00    -0.246 OA
BRANCH  27  29
ATOM     29  C   UNL A   1      37.880  32.231  29.566  1.00  0.00     0.060 A 
ATOM     30  C   UNL A   1      37.556  31.089  28.848  1.00  0.00     0.016 A 
ATOM     31  C   UNL A   1      39.213  32.205  30.047  1.00  0.00     0.016 A 
ATOM     32  C   UNL A   1      38.529  30.038  28.576  1.00  0.00     0.010 A 
ATOM     33  C   UNL A   1      40.192  31.071  29.821  1.00  0.00     0.010 A 
ATOM     34  C   UNL A   1      39.897  29.916  29.068  1.00  0.00    -0.014 A 
BRANCH  34  35
ATOM     35  C   UNL A   1      40.670  28.376  28.939  1.00  0.00     0.031 A 
ATOM     36  C   UNL A   1      41.538  28.416  30.149  1.00  0.00     0.074 A 
ATOM     37  C   UNL A   1      40.969  27.218  28.149  1.00  0.00     0.049 A 
ATOM     38  N   UNL A   1      42.382  29.404  30.248  1.00  0.00    -0.248 NA
ATOM     39  C   UNL A   1      41.256  27.735  31.414  1.00  0.00     0.031 C 
ATOM     40  C   UNL A   1      40.633  26.964  26.730  1.00  0.00     0.029 A 
ATOM     41  N   UNL A   1      41.693  25.953  28.400  1.00  0.00    -0.354 N 
ATOM     42  C   UNL A   1      42.977  29.299  31.476  1.00  0.00     0.074 A 
ATOM     43  C   UNL A   1      42.099  28.400  32.218  1.00  0.00     0.031 C 
ATOM     44  C   UNL A   1      40.963  25.696  26.311  1.00  0.00     0.029 A 
ATOM     45  C   UNL A   1      41.620  24.900  27.359  1.00  0.00     0.049 A 
ATOM     46  H   UNL A   1      42.207  25.815  29.229  1.00  0.00     0.167 HD
ATOM     47  C   UNL A   1      44.341  29.333  31.435  1.00  0.00     0.034 A 
ATOM     48  C   UNL A   1      42.111  23.561  27.267  1.00  0.00     0.034 A 
ATOM     49  C   UNL A   1      44.883  28.000  31.445  1.00  0.00     0.049 A 
ATOM     50  C   UNL A   1      43.335  23.522  28.064  1.00  0.00     0.074 A 
ATOM     51  C   UNL A   1      44.593  26.888  32.211  1.00  0.00     0.029 A 
ATOM     52  N   UNL A   1      45.478  27.544  30.290  1.00  0.00    -0.354 N 
ATOM     53  N   UNL A   1      44.452  23.977  27.592  1.00  0.00    -0.248 NA
ATOM     54  C   UNL A   1      43.414  22.904  29.378  1.00  0.00     0.031 C 
ATOM     55  C   UNL A   1      44.579  25.814  31.298  1.00  0.00     0.029 A 
ATOM     56  C   UNL A   1      45.246  26.193  30.138  1.00  0.00     0.049 A 
ATOM     57  H   UNL A   1      45.996  28.101  29.663  1.00  0.00     0.167 HD
ATOM     58  C   UNL A   1      45.138  24.272  28.726  1.00  0.00     0.074 A 
ATOM     59  C   UNL A   1      44.624  23.348  29.724  1.00  0.00     0.031 C 
ATOM     60  C   UNL A   1      45.524  25.567  28.861  1.00  0.00     0.034 A 
BRANCH  47  61
ATOM     61  C   UNL A   1      44.842  30.487  30.596  1.00  0.00     0.023 A 
ATOM     62  C   UNL A   1      44.389  30.600  29.276  1.00  0.00     0.031 A 
ATOM     63  C   UNL A   1      45.928  31.305  30.987  1.00  0.00     0.131 A 
ATOM     64  C   UNL A   1      45.063  31.441  28.374  1.00  0.00     0.055 A 
ATOM     65  C   UNL A   1      46.630  32.094  30.075  1.00  0.00     0.041 A 
ATOM     66  F   UNL A   1      46.364  31.304  32.258  1.00  0.00    -0.206 F 
ATOM     67  C   UNL A   1      46.204  32.155  28.754  1.00  0.00     0.022 A 
BRANCH  64  68
ATOM     68  S   UNL A   1      44.426  31.574  26.684  1.00  0.00     0.124 S 
ATOM     69  O   UNL A   1      43.409  30.532  26.646  1.00  0.00    -0.237 OA
ATOM     70  O   UNL A   1      43.927  32.944  26.647  1.00  0.00    -0.237 OA
ATOM     71  O   UNL A   1      45.605  31.327  25.847  1.00  0.00    -0.744 OA
ENDBRANCH  64  68
ENDBRANCH  47  61
BRANCH  48  72
ATOM     72  C   UNL A   1      42.048  22.142  26.492  1.00  0.00     0.023 A 
ATOM     73  C   UNL A   1      43.215  21.488  25.866  1.00  0.00     0.031 A 
ATOM     74  C   UNL A   1      40.982  21.258  26.701  1.00  0.00     0.131 A 
ATOM     75  C   UNL A   1      43.268  20.084  25.542  1.00  0.00     0.055 A 
ATOM     76  C   UNL A   1      41.042  19.871  26.376  1.00  0.00     0.041 A 
ATOM     77  F   UNL A   1      39.874  21.679  27.326  1.00  0.00    -0.206 F 
ATOM     78  C   UNL A   1      42.175  19.277  25.818  1.00  0.00     0.022 A 
BRANCH  75  79
ATOM     79  S   UNL A   1      44.800  19.205  24.937  1.00  0.00     0.124 S 
ATOM     80  O   UNL A   1      45.867  20.157  25.218  1.00  0.00    -0.237 OA
ATOM     81  O   UNL A   1      44.803  17.970  25.713  1.00  0.00    -0.237 OA
ATOM     82  O   UNL A   1      44.541  19.003  23.507  1.00  0.00    -0.744 OA
ENDBRANCH  75  79
ENDBRANCH  48  72
BRANCH  60  83
ATOM     83  C   UNL A   1      46.045  26.282  27.607  1.00  0.00     0.023 A 
ATOM     84  C   UNL A   1      47.373  26.236  27.096  1.00  0.00     0.031 A 
ATOM     85  C   UNL A   1      45.160  27.135  26.929  1.00  0.00     0.131 A 
ATOM     86  C   UNL A   1      47.771  27.044  26.010  1.00  0.00     0.055 A 
ATOM     87  C   UNL A   1      45.538  27.894  25.819  1.00  0.00     0.041 A 
ATOM     88  F   UNL A   1      43.888  27.259  27.344  1.00  0.00    -0.206 F 
ATOM     89  C   UNL A   1      46.852  27.867  25.366  1.00  0.00     0.022 A 
BRANCH  86  90
ATOM     90  S   UNL A   1      49.520  27.093  25.485  1.00  0.00     0.124 S 
ATOM     91  O   UNL A   1      50.252  27.080  26.745  1.00  0.00    -0.237 OA
ATOM     92  O   UNL A   1      49.642  25.892  24.664  1.00  0.00    -0.237 OA
ATOM     93  O   UNL A   1      49.616  28.353  24.742  1.00  0.00    -0.744 OA
ENDBRANCH  86  90
ENDBRANCH  60  83
ENDBRANCH  34  35
ENDBRANCH  27  29
ENDBRANCH  26  27
ENDBRANCH  25  26
ENDBRANCH   1  25
TORSDOF 20
ENDMDL
MODEL 3
REMARK VINA RESULT:     -11.2      2.790      4.989
REMARK SMILES CCn1c(C)cc(/C=C(/C(=O)OCCOCCOC(=O)c2ccc(-c3c4nc(c(-c5cc(S(=O)(=O)[O-])ccc5F)c5ccc([nH]5)c(-c5cc(S(=O)(=O)[O-])ccc5F)c5nc(c(-c6cc(S(=O)(=O)[O-])ccc6F)c6ccc3[nH]6)C=C5)C=C4)cc2)c2ccccc2)c1C
REMARK SMILES IDX 16 1 15 2 14 3 13 4 12 5 10 6 11 7 9 8 8 9 7 10 3 11 4 12
REMARK SMILES IDX 90 13 5 14 6 15 91 16 2 17 1 18 84 19 85 20 89 21 86 22
REMARK SMILES IDX 88 23 87 24 17 25 18 26 19 27 20 28 21 29 22 30 83 31 23 32
REMARK SMILES IDX 82 33 24 34 25 35 26 36 76 37 27 38 81 39 75 40 77 41 28 42
REMARK SMILES IDX 80 43 74 44 73 45 29 47 61 48 41 49 60 50 42 51 45 52 59 53
REMARK SMILES IDX 78 54 43 55 44 56 58 58 79 59 46 60 30 61 31 62 39 63 32 64
REMARK SMILES IDX 38 65 40 66 37 67 33 68 34 69 35 70 36 71 62 72 63 73 71 74
REMARK SMILES IDX 64 75 70 76 72 77 69 78 65 79 66 80 67 81 68 82 47 83 48 84
REMARK SMILES IDX 56 85 49 86 55 87 57 88 54 89 50 90 51 91 52 92 53 93
REMARK H PARENT 77 46 45 57
REMARK Flexibility Score: inf
ROOT
ATOM      1  C   UNL A   1      32.226  29.224  26.098  1.00  0.00     0.202 C 
ENDROOT
BRANCH   1   2
ATOM      2  O   UNL A   1      32.962  28.327  25.250  1.00  0.00    -0.374 OA
BRANCH   2   3
ATOM      3  C   UNL A   1      32.713  28.427  23.852  1.00  0.00     0.202 C 
BRANCH   3   4
ATOM      4  C   UNL A   1      33.388  27.339  22.995  1.00  0.00     0.261 C 
BRANCH   4   5
ATOM      5  O   UNL A   1      32.623  26.119  22.975  1.00  0.00    -0.460 OA
BRANCH   5   6
ATOM      6  C   UNL A   1      33.118  25.146  22.161  1.00  0.00     0.338 C 
ATOM      7  O   UNL A   1      33.445  25.299  20.998  1.00  0.00    -0.246 OA
BRANCH   6   8
ATOM      8  C   UNL A   1      33.325  23.841  22.891  1.00  0.00     0.067 C 
ATOM      9  C   UNL A   1      32.418  22.848  22.735  1.00  0.00     0.026 C 
BRANCH   9  10
ATOM     10  C   UNL A   1      32.344  21.446  23.116  1.00  0.00    -0.004 A 
ATOM     11  N   UNL A   1      32.433  19.399  24.064  1.00  0.00    -0.349 N 
ATOM     12  C   UNL A   1      32.226  19.189  22.723  1.00  0.00     0.015 A 
ATOM     13  C   UNL A   1      32.593  20.759  24.302  1.00  0.00     0.022 A 
ATOM     14  C   UNL A   1      32.221  17.840  22.093  1.00  0.00     0.064 C 
ATOM     15  C   UNL A   1      32.080  20.432  22.140  1.00  0.00     0.031 A 
ATOM     16  C   UNL A   1      33.021  21.209  25.650  1.00  0.00     0.065 C 
BRANCH  11  17
ATOM     17  C   UNL A   1      32.634  18.351  25.063  1.00  0.00     0.118 C 
ATOM     18  C   UNL A   1      33.999  17.674  24.991  1.00  0.00     0.027 C 
ENDBRANCH  11  17
ENDBRANCH   9  10
BRANCH   8  19
ATOM     19  C   UNL A   1      34.602  23.753  23.613  1.00  0.00    -0.011 A 
ATOM     20  C   UNL A   1      34.762  24.362  24.865  1.00  0.00     0.009 A 
ATOM     21  C   UNL A   1      35.677  23.058  23.043  1.00  0.00     0.009 A 
ATOM     22  C   UNL A   1      35.948  24.183  25.583  1.00  0.00     0.001 A 
ATOM     23  C   UNL A   1      36.852  22.862  23.771  1.00  0.00     0.001 A 
ATOM     24  C   UNL A   1      36.978  23.405  25.049  1.00  0.00     0.000 A 
ENDBRANCH   8  19
ENDBRANCH   6   8
ENDBRANCH   5   6
ENDBRANCH   4   5
ENDBRANCH   3   4
ENDBRANCH   2   3
ENDBRANCH   1   2
BRANCH   1  25
ATOM     25  C   UNL A   1      32.657  30.727  26.135  1.00  0.00     0.261 C 
BRANCH  25  26
ATOM     26  O   UNL A   1      32.715  31.468  27.424  1.00  0.00    -0.460 OA
BRANCH  26  27
ATOM     27  C   UNL A   1      33.884  32.167  27.681  1.00  0.00     0.338 C 
ATOM     28  O   UNL A   1      33.950  33.378  27.498  1.00  0.00    -0.246 OA
BRANCH  27  29
ATOM     29  C   UNL A   1      35.108  31.410  28.286  1.00  0.00     0.060 A 
ATOM     30  C   UNL A   1      36.381  31.899  28.029  1.00  0.00     0.016 A 
ATOM     31  C   UNL A   1      35.134  30.107  28.841  1.00  0.00     0.016 A 
ATOM     32  C   UNL A   1      37.585  31.156  28.377  1.00  0.00     0.010 A 
ATOM     33  C   UNL A   1      36.393  29.313  29.128  1.00  0.00     0.010 A 
ATOM     34  C   UNL A   1      37.697  29.801  28.906  1.00  0.00    -0.014 A 
BRANCH  34  35
ATOM     35  C   UNL A   1      39.238  29.024  28.822  1.00  0.00     0.031 A 
ATOM     36  C   UNL A   1      39.509  28.825  30.275  1.00  0.00     0.074 A 
ATOM     37  C   UNL A   1      40.387  28.662  28.046  1.00  0.00     0.049 A 
ATOM     38  N   UNL A   1      39.512  29.883  31.034  1.00  0.00    -0.248 NA
ATOM     39  C   UNL A   1      39.345  27.564  30.999  1.00  0.00     0.031 C 
ATOM     40  C   UNL A   1      40.700  29.028  26.646  1.00  0.00     0.029 A 
ATOM     41  N   UNL A   1      41.616  27.885  28.317  1.00  0.00    -0.354 N 
ATOM     42  C   UNL A   1      39.664  29.450  32.323  1.00  0.00     0.074 A 
ATOM     43  C   UNL A   1      39.339  28.028  32.257  1.00  0.00     0.031 C 
ATOM     44  C   UNL A   1      41.831  28.412  26.163  1.00  0.00     0.029 A 
ATOM     45  C   UNL A   1      42.497  27.569  27.167  1.00  0.00     0.049 A 
ATOM     46  H   UNL A   1      41.842  27.589  29.229  1.00  0.00     0.167 HD
ATOM     47  C   UNL A   1      40.669  30.075  33.003  1.00  0.00     0.034 A 
ATOM     48  C   UNL A   1      43.697  26.807  27.019  1.00  0.00     0.034 A 
ATOM     49  C   UNL A   1      41.873  29.287  32.965  1.00  0.00     0.049 A 
ATOM     50  C   UNL A   1      44.400  26.902  28.296  1.00  0.00     0.074 A 
ATOM     51  C   UNL A   1      42.107  27.942  33.171  1.00  0.00     0.029 A 
ATOM     52  N   UNL A   1      42.924  29.765  32.214  1.00  0.00    -0.354 N 
ATOM     53  N   UNL A   1      45.092  27.955  28.598  1.00  0.00    -0.248 NA
ATOM     54  C   UNL A   1      44.453  25.818  29.263  1.00  0.00     0.031 C 
ATOM     55  C   UNL A   1      43.008  27.572  32.152  1.00  0.00     0.029 A 
ATOM     56  C   UNL A   1      43.610  28.716  31.639  1.00  0.00     0.049 A 
ATOM     57  H   UNL A   1      43.153  30.716  32.104  1.00  0.00     0.167 HD
ATOM     58  C   UNL A   1      45.097  27.910  29.954  1.00  0.00     0.074 A 
ATOM     59  C   UNL A   1      44.984  26.497  30.281  1.00  0.00     0.031 C 
ATOM     60  C   UNL A   1      44.563  28.989  30.582  1.00  0.00     0.034 A 
BRANCH  47  61
ATOM     61  C   UNL A   1      40.587  31.578  32.856  1.00  0.00     0.023 A 
ATOM     62  C   UNL A   1      39.807  32.296  33.770  1.00  0.00     0.031 A 
ATOM     63  C   UNL A   1      41.048  32.263  31.707  1.00  0.00     0.131 A 
ATOM     64  C   UNL A   1      39.440  33.623  33.484  1.00  0.00     0.055 A 
ATOM     65  C   UNL A   1      40.634  33.558  31.400  1.00  0.00     0.041 A 
ATOM     66  F   UNL A   1      41.864  31.656  30.829  1.00  0.00    -0.206 F 
ATOM     67  C   UNL A   1      39.813  34.242  32.287  1.00  0.00     0.022 A 
BRANCH  64  68
ATOM     68  S   UNL A   1      38.449  34.521  34.706  1.00  0.00     0.124 S 
ATOM     69  O   UNL A   1      38.256  33.525  35.751  1.00  0.00    -0.237 OA
ATOM     70  O   UNL A   1      39.322  35.637  35.052  1.00  0.00    -0.237 OA
ATOM     71  O   UNL A   1      37.238  34.894  33.966  1.00  0.00    -0.744 OA
ENDBRANCH  64  68
ENDBRANCH  47  61
BRANCH  48  72
ATOM     72  C   UNL A   1      44.730  26.086  26.003  1.00  0.00     0.023 A 
ATOM     73  C   UNL A   1      45.866  26.771  25.353  1.00  0.00     0.031 A 
ATOM     74  C   UNL A   1      44.857  24.691  25.979  1.00  0.00     0.131 A 
ATOM     75  C   UNL A   1      47.001  26.083  24.791  1.00  0.00     0.055 A 
ATOM     76  C   UNL A   1      45.982  24.018  25.420  1.00  0.00     0.041 A 
ATOM     77  F   UNL A   1      43.944  23.925  26.591  1.00  0.00    -0.206 F 
ATOM     78  C   UNL A   1      47.056  24.699  24.845  1.00  0.00     0.022 A 
BRANCH  75  79
ATOM     79  S   UNL A   1      48.532  26.937  24.147  1.00  0.00     0.124 S 
ATOM     80  O   UNL A   1      48.568  28.180  24.907  1.00  0.00    -0.237 OA
ATOM     81  O   UNL A   1      49.591  25.972  24.419  1.00  0.00    -0.237 OA
ATOM     82  O   UNL A   1      48.250  27.118  22.718  1.00  0.00    -0.744 OA
ENDBRANCH  75  79
ENDBRANCH  48  72
BRANCH  60  83
ATOM     83  C   UNL A   1      44.881  30.372  29.998  1.00  0.00     0.023 A 
ATOM     84  C   UNL A   1      44.564  30.833  28.689  1.00  0.00     0.031 A 
ATOM     85  C   UNL A   1      45.629  31.257  30.791  1.00  0.00     0.131 A 
ATOM     86  C   UNL A   1      45.026  32.079  28.215  1.00  0.00     0.055 A 
ATOM     87  C   UNL A   1      46.041  32.514  30.343  1.00  0.00     0.041 A 
ATOM     88  F   UNL A   1      45.992  30.908  32.036  1.00  0.00    -0.206 F 
ATOM     89  C   UNL A   1      45.758  32.924  29.045  1.00  0.00     0.022 A 
BRANCH  86  90
ATOM     90  S   UNL A   1      44.750  32.570  26.478  1.00  0.00     0.124 S 
ATOM     91  O   UNL A   1      46.082  32.495  25.890  1.00  0.00    -0.237 OA
ATOM     92  O   UNL A   1      43.791  31.573  26.012  1.00  0.00    -0.237 OA
ATOM     93  O   UNL A   1      44.213  33.928  26.590  1.00  0.00    -0.744 OA
ENDBRANCH  86  90
ENDBRANCH  60  83
ENDBRANCH  34  35
ENDBRANCH  27  29
ENDBRANCH  26  27
ENDBRANCH  25  26
ENDBRANCH   1  25
TORSDOF 20
ENDMDL
