MODEL 1
REMARK VINA RESULT:     -10.4      0.000      0.000
REMARK SMILES O=C(C[NH+]1CC[NH+](Cc2cc(Cl)ccc2[N+](=O)[O-])CC1)OCCOCCOC(=O)c1ccc(-c2c3nc(c(-c4cc(S(=O)(=O)[O-])ccc4F)c4ccc([nH]4)c(-c4cc(S(=O)(=O)[O-])ccc4F)c4nc(c(-c5cc(S(=O)(=O)[O-])ccc5F)c5ccc2[nH]5)C=C4)C=C3)cc1
REMARK SMILES IDX 23 1 22 2 21 3 2 4 1 5 3 6 4 7 5 8 20 9 6 11 19 12 7 13 8 15
REMARK SMILES IDX 9 16 10 17 15 18 11 19 14 20 12 21 13 22 16 23 17 24 18 25
REMARK SMILES IDX 24 26 25 27 26 28 27 29 28 30 29 31 30 32 31 33 92 34 32 35
REMARK SMILES IDX 91 36 33 37 34 38 35 39 85 40 36 41 90 42 84 43 86 44 37 45
REMARK SMILES IDX 89 46 83 47 82 48 38 50 70 51 50 52 69 53 51 54 54 55 68 56
REMARK SMILES IDX 87 57 52 58 53 59 67 61 88 62 55 63 39 64 40 65 48 66 41 67
REMARK SMILES IDX 47 68 49 69 46 70 42 71 43 72 44 73 45 74 71 75 72 76 80 77
REMARK SMILES IDX 73 78 79 79 81 80 78 81 74 82 75 83 76 84 77 85 56 86 57 87
REMARK SMILES IDX 65 88 58 89 64 90 66 91 63 92 59 93 60 94 61 95 62 96
REMARK H PARENT 4 10 7 14 86 49 54 60
REMARK Flexibility Score: inf
ROOT
ATOM      1  C   UNL A   1      32.043  29.443  25.904  1.00  0.00     0.202 C 
ENDROOT
BRANCH   1   2
ATOM      2  C   UNL A   1      33.031  29.473  24.729  1.00  0.00     0.261 C 
BRANCH   2   3
ATOM      3  O   UNL A   1      32.681  28.967  23.408  1.00  0.00    -0.459 OA
BRANCH   3   4
ATOM      4  C   UNL A   1      31.553  28.529  22.819  1.00  0.00     0.361 C 
ATOM      5  O   UNL A   1      30.736  29.347  22.391  1.00  0.00    -0.245 OA
BRANCH   4   6
ATOM      6  C   UNL A   1      31.283  27.049  22.695  1.00  0.00     0.386 C 
BRANCH   6   7
ATOM      7  N   UNL A   1      31.514  26.249  23.898  1.00  0.00    -0.316 N 
ATOM      8  C   UNL A   1      30.554  25.157  24.093  1.00  0.00     0.325 C 
ATOM      9  C   UNL A   1      32.897  25.837  24.136  1.00  0.00     0.325 C 
ATOM     10  H   UNL A   1      31.327  26.923  24.640  1.00  0.00     0.348 HD
ATOM     11  C   UNL A   1      31.010  23.741  23.675  1.00  0.00     0.324 C 
ATOM     12  C   UNL A   1      33.299  24.457  23.567  1.00  0.00     0.324 C 
ATOM     13  N   UNL A   1      32.400  23.381  23.979  1.00  0.00    -0.322 N 
ATOM     14  H   UNL A   1      32.613  22.569  23.399  1.00  0.00     0.348 HD
BRANCH  13  15
ATOM     15  C   UNL A   1      32.673  22.754  25.282  1.00  0.00     0.306 C 
BRANCH  15  16
ATOM     16  C   UNL A   1      33.860  21.806  25.362  1.00  0.00     0.085 A 
ATOM     17  C   UNL A   1      35.086  22.381  25.770  1.00  0.00     0.037 A 
ATOM     18  C   UNL A   1      33.892  20.461  24.906  1.00  0.00     0.278 A 
ATOM     19  C   UNL A   1      36.303  21.724  25.581  1.00  0.00     0.042 A 
ATOM     20  C   UNL A   1      35.132  19.800  24.740  1.00  0.00     0.088 A 
ATOM     21  Cl  UNL A   1      37.775  22.539  25.937  1.00  0.00    -0.084 Cl
ATOM     22  C   UNL A   1      36.332  20.445  25.044  1.00  0.00     0.027 A 
BRANCH  18  23
ATOM     23  N   UNL A   1      32.687  19.699  24.510  1.00  0.00     0.063 N 
ATOM     24  O   UNL A   1      32.344  19.761  23.320  1.00  0.00    -0.258 OA
ATOM     25  O   UNL A   1      32.098  19.031  25.363  1.00  0.00    -0.258 OA
ENDBRANCH  18  23
ENDBRANCH  15  16
ENDBRANCH  13  15
ENDBRANCH   6   7
ENDBRANCH   4   6
ENDBRANCH   3   4
ENDBRANCH   2   3
ENDBRANCH   1   2
BRANCH   1  26
ATOM     26  O   UNL A   1      31.880  30.550  26.786  1.00  0.00    -0.374 OA
BRANCH  26  27
ATOM     27  C   UNL A   1      31.135  31.692  26.396  1.00  0.00     0.202 C 
BRANCH  27  28
ATOM     28  C   UNL A   1      31.710  33.025  26.861  1.00  0.00     0.261 C 
BRANCH  28  29
ATOM     29  O   UNL A   1      33.139  33.049  26.791  1.00  0.00    -0.460 OA
BRANCH  29  30
ATOM     30  C   UNL A   1      33.743  33.735  27.797  1.00  0.00     0.338 C 
ATOM     31  O   UNL A   1      33.357  34.754  28.328  1.00  0.00    -0.246 OA
BRANCH  30  32
ATOM     32  C   UNL A   1      34.900  32.946  28.268  1.00  0.00     0.060 A 
ATOM     33  C   UNL A   1      34.681  31.616  28.651  1.00  0.00     0.016 A 
ATOM     34  C   UNL A   1      36.177  33.508  28.335  1.00  0.00     0.016 A 
ATOM     35  C   UNL A   1      35.739  30.853  29.137  1.00  0.00     0.010 A 
ATOM     36  C   UNL A   1      37.232  32.749  28.835  1.00  0.00     0.010 A 
ATOM     37  C   UNL A   1      37.010  31.429  29.264  1.00  0.00    -0.014 A 
BRANCH  37  38
ATOM     38  C   UNL A   1      38.077  30.714  29.995  1.00  0.00     0.031 A 
ATOM     39  C   UNL A   1      38.326  31.084  31.430  1.00  0.00     0.074 A 
ATOM     40  C   UNL A   1      38.810  29.769  29.380  1.00  0.00     0.049 A 
ATOM     41  N   UNL A   1      39.262  30.674  32.241  1.00  0.00    -0.248 NA
ATOM     42  C   UNL A   1      37.391  32.053  32.028  1.00  0.00     0.031 C 
ATOM     43  C   UNL A   1      38.611  29.312  28.005  1.00  0.00     0.029 A 
ATOM     44  N   UNL A   1      39.879  29.037  29.826  1.00  0.00    -0.354 N 
ATOM     45  C   UNL A   1      39.039  31.340  33.441  1.00  0.00     0.074 A 
ATOM     46  C   UNL A   1      37.892  32.199  33.245  1.00  0.00     0.031 C 
ATOM     47  C   UNL A   1      39.544  28.389  27.714  1.00  0.00     0.029 A 
ATOM     48  C   UNL A   1      40.433  28.229  28.862  1.00  0.00     0.049 A 
ATOM     49  H   UNL A   1      40.217  29.085  30.749  1.00  0.00     0.167 HD
ATOM     50  C   UNL A   1      39.735  31.238  34.598  1.00  0.00     0.034 A 
ATOM     51  C   UNL A   1      41.555  27.483  28.895  1.00  0.00     0.034 A 
ATOM     52  C   UNL A   1      40.882  30.382  34.760  1.00  0.00     0.049 A 
ATOM     53  C   UNL A   1      42.366  27.462  30.173  1.00  0.00     0.074 A 
ATOM     54  C   UNL A   1      41.648  30.174  35.893  1.00  0.00     0.029 A 
ATOM     55  N   UNL A   1      41.441  29.606  33.753  1.00  0.00    -0.354 N 
ATOM     56  N   UNL A   1      42.129  28.072  31.313  1.00  0.00    -0.248 NA
ATOM     57  C   UNL A   1      43.590  26.650  30.169  1.00  0.00     0.031 C 
ATOM     58  C   UNL A   1      42.717  29.341  35.549  1.00  0.00     0.029 A 
ATOM     59  C   UNL A   1      42.570  28.955  34.226  1.00  0.00     0.049 A 
ATOM     60  H   UNL A   1      41.087  29.528  32.837  1.00  0.00     0.167 HD
ATOM     61  C   UNL A   1      43.163  27.693  32.168  1.00  0.00     0.074 A 
ATOM     62  C   UNL A   1      44.005  26.784  31.420  1.00  0.00     0.031 C 
ATOM     63  C   UNL A   1      43.400  28.061  33.454  1.00  0.00     0.034 A 
BRANCH  50  64
ATOM     64  C   UNL A   1      39.312  32.110  35.754  1.00  0.00     0.023 A 
ATOM     65  C   UNL A   1      39.775  33.428  35.901  1.00  0.00     0.031 A 
ATOM     66  C   UNL A   1      38.422  31.611  36.722  1.00  0.00     0.131 A 
ATOM     67  C   UNL A   1      39.378  34.188  37.013  1.00  0.00     0.055 A 
ATOM     68  C   UNL A   1      37.976  32.394  37.786  1.00  0.00     0.041 A 
ATOM     69  F   UNL A   1      37.970  30.348  36.648  1.00  0.00    -0.206 F 
ATOM     70  C   UNL A   1      38.461  33.690  37.941  1.00  0.00     0.022 A 
BRANCH  67  71
ATOM     71  S   UNL A   1      40.158  35.803  37.289  1.00  0.00     0.124 S 
ATOM     72  O   UNL A   1      41.576  35.452  37.273  1.00  0.00    -0.237 OA
ATOM     73  O   UNL A   1      39.681  36.583  36.153  1.00  0.00    -0.237 OA
ATOM     74  O   UNL A   1      39.640  36.216  38.591  1.00  0.00    -0.744 OA
ENDBRANCH  67  71
ENDBRANCH  50  64
BRANCH  51  75
ATOM     75  C   UNL A   1      42.027  26.747  27.685  1.00  0.00     0.023 A 
ATOM     76  C   UNL A   1      41.969  25.346  27.618  1.00  0.00     0.031 A 
ATOM     77  C   UNL A   1      42.625  27.430  26.609  1.00  0.00     0.131 A 
ATOM     78  C   UNL A   1      42.559  24.670  26.538  1.00  0.00     0.055 A 
ATOM     79  C   UNL A   1      43.146  26.757  25.503  1.00  0.00     0.041 A 
ATOM     80  F   UNL A   1      42.716  28.769  26.619  1.00  0.00    -0.206 F 
ATOM     81  C   UNL A   1      43.132  25.366  25.472  1.00  0.00     0.022 A 
BRANCH  78  82
ATOM     82  S   UNL A   1      42.686  22.862  26.615  1.00  0.00     0.124 S 
ATOM     83  O   UNL A   1      42.005  22.571  27.871  1.00  0.00    -0.237 OA
ATOM     84  O   UNL A   1      41.987  22.458  25.400  1.00  0.00    -0.237 OA
ATOM     85  O   UNL A   1      44.127  22.620  26.614  1.00  0.00    -0.744 OA
ENDBRANCH  78  82
ENDBRANCH  51  75
BRANCH  63  86
ATOM     86  C   UNL A   1      44.599  27.446  34.131  1.00  0.00     0.023 A 
ATOM     87  C   UNL A   1      44.523  26.202  34.780  1.00  0.00     0.031 A 
ATOM     88  C   UNL A   1      45.835  28.117  34.130  1.00  0.00     0.131 A 
ATOM     89  C   UNL A   1      45.643  25.696  35.453  1.00  0.00     0.055 A 
ATOM     90  C   UNL A   1      46.966  27.575  34.742  1.00  0.00     0.041 A 
ATOM     91  F   UNL A   1      45.965  29.310  33.526  1.00  0.00    -0.206 F 
ATOM     92  C   UNL A   1      46.870  26.365  35.420  1.00  0.00     0.022 A 
BRANCH  89  93
ATOM     93  S   UNL A   1      45.450  24.198  36.458  1.00  0.00     0.124 S 
ATOM     94  O   UNL A   1      44.869  24.730  37.686  1.00  0.00    -0.237 OA
ATOM     95  O   UNL A   1      44.564  23.382  35.634  1.00  0.00    -0.237 OA
ATOM     96  O   UNL A   1      46.816  23.693  36.586  1.00  0.00    -0.744 OA
ENDBRANCH  89  93
ENDBRANCH  63  86
ENDBRANCH  37  38
ENDBRANCH  30  32
ENDBRANCH  29  30
ENDBRANCH  28  29
ENDBRANCH  27  28
ENDBRANCH  26  27
ENDBRANCH   1  26
TORSDOF 21
ENDMDL
MODEL 2
REMARK VINA RESULT:     -10.3      1.968      7.549
REMARK SMILES O=C(C[NH+]1CC[NH+](Cc2cc(Cl)ccc2[N+](=O)[O-])CC1)OCCOCCOC(=O)c1ccc(-c2c3nc(c(-c4cc(S(=O)(=O)[O-])ccc4F)c4ccc([nH]4)c(-c4cc(S(=O)(=O)[O-])ccc4F)c4nc(c(-c5cc(S(=O)(=O)[O-])ccc5F)c5ccc2[nH]5)C=C4)C=C3)cc1
REMARK SMILES IDX 23 1 22 2 21 3 2 4 1 5 3 6 4 7 5 8 20 9 6 11 19 12 7 13 8 15
REMARK SMILES IDX 9 16 10 17 15 18 11 19 14 20 12 21 13 22 16 23 17 24 18 25
REMARK SMILES IDX 24 26 25 27 26 28 27 29 28 30 29 31 30 32 31 33 92 34 32 35
REMARK SMILES IDX 91 36 33 37 34 38 35 39 85 40 36 41 90 42 84 43 86 44 37 45
REMARK SMILES IDX 89 46 83 47 82 48 38 50 70 51 50 52 69 53 51 54 54 55 68 56
REMARK SMILES IDX 87 57 52 58 53 59 67 61 88 62 55 63 39 64 40 65 48 66 41 67
REMARK SMILES IDX 47 68 49 69 46 70 42 71 43 72 44 73 45 74 71 75 72 76 80 77
REMARK SMILES IDX 73 78 79 79 81 80 78 81 74 82 75 83 76 84 77 85 56 86 57 87
REMARK SMILES IDX 65 88 58 89 64 90 66 91 63 92 59 93 60 94 61 95 62 96
REMARK H PARENT 4 10 7 14 86 49 54 60
REMARK Flexibility Score: inf
ROOT
ATOM      1  C   UNL A   1      31.864  29.394  26.148  1.00  0.00     0.202 C 
ENDROOT
BRANCH   1   2
ATOM      2  C   UNL A   1      31.115  29.846  24.886  1.00  0.00     0.261 C 
BRANCH   2   3
ATOM      3  O   UNL A   1      31.455  29.345  23.561  1.00  0.00    -0.459 OA
BRANCH   3   4
ATOM      4  C   UNL A   1      30.803  28.673  22.594  1.00  0.00     0.361 C 
ATOM      5  O   UNL A   1      30.091  29.291  21.801  1.00  0.00    -0.245 OA
BRANCH   4   6
ATOM      6  C   UNL A   1      30.930  27.172  22.491  1.00  0.00     0.386 C 
BRANCH   6   7
ATOM      7  N   UNL A   1      31.223  26.463  23.738  1.00  0.00    -0.316 N 
ATOM      8  C   UNL A   1      30.281  25.386  24.057  1.00  0.00     0.325 C 
ATOM      9  C   UNL A   1      32.618  26.074  23.939  1.00  0.00     0.325 C 
ATOM     10  H   UNL A   1      31.067  27.190  24.436  1.00  0.00     0.348 HD
ATOM     11  C   UNL A   1      30.726  23.944  23.723  1.00  0.00     0.324 C 
ATOM     12  C   UNL A   1      33.003  24.657  23.455  1.00  0.00     0.324 C 
ATOM     13  N   UNL A   1      32.131  23.611  23.986  1.00  0.00    -0.322 N 
ATOM     14  H   UNL A   1      32.322  22.760  23.458  1.00  0.00     0.348 HD
BRANCH  13  15
ATOM     15  C   UNL A   1      32.469  23.083  25.317  1.00  0.00     0.306 C 
BRANCH  15  16
ATOM     16  C   UNL A   1      33.722  22.227  25.427  1.00  0.00     0.085 A 
ATOM     17  C   UNL A   1      34.887  22.889  25.880  1.00  0.00     0.037 A 
ATOM     18  C   UNL A   1      33.871  20.894  24.959  1.00  0.00     0.278 A 
ATOM     19  C   UNL A   1      36.156  22.329  25.725  1.00  0.00     0.042 A 
ATOM     20  C   UNL A   1      35.163  20.331  24.828  1.00  0.00     0.088 A 
ATOM     21  Cl  UNL A   1      37.549  23.249  26.137  1.00  0.00    -0.084 Cl
ATOM     22  C   UNL A   1      36.300  21.061  25.177  1.00  0.00     0.027 A 
BRANCH  18  23
ATOM     23  N   UNL A   1      32.741  20.047  24.516  1.00  0.00     0.063 N 
ATOM     24  O   UNL A   1      32.420  20.113  23.321  1.00  0.00    -0.258 OA
ATOM     25  O   UNL A   1      32.191  19.311  25.339  1.00  0.00    -0.258 OA
ENDBRANCH  18  23
ENDBRANCH  15  16
ENDBRANCH  13  15
ENDBRANCH   6   7
ENDBRANCH   4   6
ENDBRANCH   3   4
ENDBRANCH   2   3
ENDBRANCH   1   2
BRANCH   1  26
ATOM     26  O   UNL A   1      32.563  30.312  26.985  1.00  0.00    -0.374 OA
BRANCH  26  27
ATOM     27  C   UNL A   1      32.305  31.704  26.919  1.00  0.00     0.202 C 
BRANCH  27  28
ATOM     28  C   UNL A   1      33.275  32.576  27.709  1.00  0.00     0.261 C 
BRANCH  28  29
ATOM     29  O   UNL A   1      32.784  33.908  27.881  1.00  0.00    -0.460 OA
BRANCH  29  30
ATOM     30  C   UNL A   1      33.221  34.531  29.007  1.00  0.00     0.338 C 
ATOM     31  O   UNL A   1      32.666  35.416  29.621  1.00  0.00    -0.246 OA
BRANCH  30  32
ATOM     32  C   UNL A   1      34.441  33.842  29.475  1.00  0.00     0.060 A 
ATOM     33  C   UNL A   1      34.297  32.792  30.391  1.00  0.00     0.016 A 
ATOM     34  C   UNL A   1      35.706  34.227  29.023  1.00  0.00     0.016 A 
ATOM     35  C   UNL A   1      35.427  32.145  30.885  1.00  0.00     0.010 A 
ATOM     36  C   UNL A   1      36.836  33.588  29.527  1.00  0.00     0.010 A 
ATOM     37  C   UNL A   1      36.700  32.566  30.481  1.00  0.00    -0.014 A 
BRANCH  37  38
ATOM     38  C   UNL A   1      37.902  32.053  31.172  1.00  0.00     0.031 A 
ATOM     39  C   UNL A   1      38.679  30.945  30.517  1.00  0.00     0.074 A 
ATOM     40  C   UNL A   1      38.276  32.561  32.359  1.00  0.00     0.049 A 
ATOM     41  N   UNL A   1      39.698  30.269  30.970  1.00  0.00    -0.248 NA
ATOM     42  C   UNL A   1      38.239  30.545  29.169  1.00  0.00     0.031 C 
ATOM     43  C   UNL A   1      37.611  33.667  33.048  1.00  0.00     0.029 A 
ATOM     44  N   UNL A   1      39.294  32.202  33.204  1.00  0.00    -0.354 N 
ATOM     45  C   UNL A   1      40.019  29.356  29.971  1.00  0.00     0.074 A 
ATOM     46  C   UNL A   1      39.069  29.550  28.897  1.00  0.00     0.031 C 
ATOM     47  C   UNL A   1      38.229  33.882  34.222  1.00  0.00     0.029 A 
ATOM     48  C   UNL A   1      39.297  32.899  34.389  1.00  0.00     0.049 A 
ATOM     49  H   UNL A   1      39.960  31.511  32.982  1.00  0.00     0.167 HD
ATOM     50  C   UNL A   1      41.016  28.441  29.960  1.00  0.00     0.034 A 
ATOM     51  C   UNL A   1      40.051  32.729  35.494  1.00  0.00     0.034 A 
ATOM     52  C   UNL A   1      41.940  28.261  31.051  1.00  0.00     0.049 A 
ATOM     53  C   UNL A   1      41.096  31.635  35.488  1.00  0.00     0.074 A 
ATOM     54  C   UNL A   1      43.007  27.387  31.141  1.00  0.00     0.029 A 
ATOM     55  N   UNL A   1      41.892  28.957  32.252  1.00  0.00    -0.354 N 
ATOM     56  N   UNL A   1      41.411  30.796  34.525  1.00  0.00    -0.248 NA
ATOM     57  C   UNL A   1      41.889  31.467  36.713  1.00  0.00     0.031 C 
ATOM     58  C   UNL A   1      43.552  27.494  32.424  1.00  0.00     0.029 A 
ATOM     59  C   UNL A   1      42.882  28.498  33.106  1.00  0.00     0.049 A 
ATOM     60  H   UNL A   1      41.249  29.672  32.467  1.00  0.00     0.167 HD
ATOM     61  C   UNL A   1      42.457  30.022  35.024  1.00  0.00     0.074 A 
ATOM     62  C   UNL A   1      42.734  30.511  36.358  1.00  0.00     0.031 C 
ATOM     63  C   UNL A   1      43.130  28.997  34.438  1.00  0.00     0.034 A 
BRANCH  50  64
ATOM     64  C   UNL A   1      41.124  27.530  28.762  1.00  0.00     0.023 A 
ATOM     65  C   UNL A   1      42.140  27.675  27.803  1.00  0.00     0.031 A 
ATOM     66  C   UNL A   1      40.192  26.491  28.585  1.00  0.00     0.131 A 
ATOM     67  C   UNL A   1      42.175  26.822  26.689  1.00  0.00     0.055 A 
ATOM     68  C   UNL A   1      40.274  25.603  27.513  1.00  0.00     0.041 A 
ATOM     69  F   UNL A   1      39.182  26.324  29.454  1.00  0.00    -0.206 F 
ATOM     70  C   UNL A   1      41.266  25.770  26.551  1.00  0.00     0.022 A 
BRANCH  67  71
ATOM     71  S   UNL A   1      43.365  27.169  25.364  1.00  0.00     0.124 S 
ATOM     72  O   UNL A   1      44.371  27.959  26.070  1.00  0.00    -0.237 OA
ATOM     73  O   UNL A   1      43.777  25.833  24.950  1.00  0.00    -0.237 OA
ATOM     74  O   UNL A   1      42.578  27.910  24.381  1.00  0.00    -0.744 OA
ENDBRANCH  67  71
ENDBRANCH  50  64
BRANCH  51  75
ATOM     75  C   UNL A   1      39.819  33.551  36.718  1.00  0.00     0.023 A 
ATOM     76  C   UNL A   1      39.158  33.018  37.836  1.00  0.00     0.031 A 
ATOM     77  C   UNL A   1      40.177  34.912  36.755  1.00  0.00     0.131 A 
ATOM     78  C   UNL A   1      38.815  33.853  38.911  1.00  0.00     0.055 A 
ATOM     79  C   UNL A   1      39.897  35.720  37.857  1.00  0.00     0.041 A 
ATOM     80  F   UNL A   1      40.805  35.480  35.713  1.00  0.00    -0.206 F 
ATOM     81  C   UNL A   1      39.194  35.197  38.937  1.00  0.00     0.022 A 
BRANCH  78  82
ATOM     82  S   UNL A   1      37.744  33.187  40.215  1.00  0.00     0.124 S 
ATOM     83  O   UNL A   1      38.539  32.067  40.707  1.00  0.00    -0.237 OA
ATOM     84  O   UNL A   1      37.619  34.327  41.116  1.00  0.00    -0.237 OA
ATOM     85  O   UNL A   1      36.523  32.820  39.501  1.00  0.00    -0.744 OA
ENDBRANCH  78  82
ENDBRANCH  51  75
BRANCH  63  86
ATOM     86  C   UNL A   1      44.250  28.371  35.232  1.00  0.00     0.023 A 
ATOM     87  C   UNL A   1      44.062  27.186  35.963  1.00  0.00     0.031 A 
ATOM     88  C   UNL A   1      45.521  28.972  35.261  1.00  0.00     0.131 A 
ATOM     89  C   UNL A   1      45.109  26.672  36.740  1.00  0.00     0.055 A 
ATOM     90  C   UNL A   1      46.579  28.417  35.980  1.00  0.00     0.041 A 
ATOM     91  F   UNL A   1      45.756  30.107  34.582  1.00  0.00    -0.206 F 
ATOM     92  C   UNL A   1      46.373  27.269  36.737  1.00  0.00     0.022 A 
BRANCH  89  93
ATOM     93  S   UNL A   1      44.770  25.267  37.836  1.00  0.00     0.124 S 
ATOM     94  O   UNL A   1      45.341  25.723  39.098  1.00  0.00    -0.237 OA
ATOM     95  O   UNL A   1      43.313  25.179  37.789  1.00  0.00    -0.237 OA
ATOM     96  O   UNL A   1      45.477  24.157  37.199  1.00  0.00    -0.744 OA
ENDBRANCH  89  93
ENDBRANCH  63  86
ENDBRANCH  37  38
ENDBRANCH  30  32
ENDBRANCH  29  30
ENDBRANCH  28  29
ENDBRANCH  27  28
ENDBRANCH  26  27
ENDBRANCH   1  26
TORSDOF 21
ENDMDL
MODEL 3
REMARK VINA RESULT:     -10.3      4.624     10.583
REMARK SMILES O=C(C[NH+]1CC[NH+](Cc2cc(Cl)ccc2[N+](=O)[O-])CC1)OCCOCCOC(=O)c1ccc(-c2c3nc(c(-c4cc(S(=O)(=O)[O-])ccc4F)c4ccc([nH]4)c(-c4cc(S(=O)(=O)[O-])ccc4F)c4nc(c(-c5cc(S(=O)(=O)[O-])ccc5F)c5ccc2[nH]5)C=C4)C=C3)cc1
REMARK SMILES IDX 23 1 22 2 21 3 2 4 1 5 3 6 4 7 5 8 20 9 6 11 19 12 7 13 8 15
REMARK SMILES IDX 9 16 10 17 15 18 11 19 14 20 12 21 13 22 16 23 17 24 18 25
REMARK SMILES IDX 24 26 25 27 26 28 27 29 28 30 29 31 30 32 31 33 92 34 32 35
REMARK SMILES IDX 91 36 33 37 34 38 35 39 85 40 36 41 90 42 84 43 86 44 37 45
REMARK SMILES IDX 89 46 83 47 82 48 38 50 70 51 50 52 69 53 51 54 54 55 68 56
REMARK SMILES IDX 87 57 52 58 53 59 67 61 88 62 55 63 39 64 40 65 48 66 41 67
REMARK SMILES IDX 47 68 49 69 46 70 42 71 43 72 44 73 45 74 71 75 72 76 80 77
REMARK SMILES IDX 73 78 79 79 81 80 78 81 74 82 75 83 76 84 77 85 56 86 57 87
REMARK SMILES IDX 65 88 58 89 64 90 66 91 63 92 59 93 60 94 61 95 62 96
REMARK H PARENT 4 10 7 14 86 49 54 60
REMARK Flexibility Score: inf
ROOT
ATOM      1  C   UNL A   1      36.419  21.735  24.844  1.00  0.00     0.202 C 
ENDROOT
BRANCH   1   2
ATOM      2  C   UNL A   1      35.536  21.474  26.073  1.00  0.00     0.261 C 
BRANCH   2   3
ATOM      3  O   UNL A   1      34.255  20.785  25.975  1.00  0.00    -0.459 OA
BRANCH   3   4
ATOM      4  C   UNL A   1      32.977  21.164  25.793  1.00  0.00     0.361 C 
ATOM      5  O   UNL A   1      32.227  20.458  25.117  1.00  0.00    -0.245 OA
BRANCH   4   6
ATOM      6  C   UNL A   1      32.469  22.449  26.401  1.00  0.00     0.386 C 
BRANCH   6   7
ATOM      7  N   UNL A   1      31.933  23.437  25.465  1.00  0.00    -0.316 N 
ATOM      8  C   UNL A   1      30.519  23.767  25.677  1.00  0.00     0.325 C 
ATOM      9  C   UNL A   1      32.762  24.619  25.238  1.00  0.00     0.325 C 
ATOM     10  H   UNL A   1      31.974  22.933  24.579  1.00  0.00     0.348 HD
ATOM     11  C   UNL A   1      30.212  25.072  26.445  1.00  0.00     0.324 C 
ATOM     12  C   UNL A   1      32.468  25.837  26.143  1.00  0.00     0.324 C 
ATOM     13  N   UNL A   1      31.060  26.230  26.139  1.00  0.00    -0.322 N 
ATOM     14  H   UNL A   1      30.927  26.888  26.908  1.00  0.00     0.348 HD
BRANCH  13  15
ATOM     15  C   UNL A   1      30.628  27.125  25.054  1.00  0.00     0.306 C 
BRANCH  15  16
ATOM     16  C   UNL A   1      31.659  27.479  23.993  1.00  0.00     0.085 A 
ATOM     17  C   UNL A   1      31.626  26.700  22.813  1.00  0.00     0.037 A 
ATOM     18  C   UNL A   1      32.743  28.384  24.146  1.00  0.00     0.278 A 
ATOM     19  C   UNL A   1      32.692  26.691  21.910  1.00  0.00     0.042 A 
ATOM     20  C   UNL A   1      33.806  28.379  23.210  1.00  0.00     0.088 A 
ATOM     21  Cl  UNL A   1      32.674  25.598  20.583  1.00  0.00    -0.084 Cl
ATOM     22  C   UNL A   1      33.793  27.510  22.118  1.00  0.00     0.027 A 
BRANCH  18  23
ATOM     23  N   UNL A   1      32.883  29.313  25.288  1.00  0.00     0.063 N 
ATOM     24  O   UNL A   1      33.864  29.155  26.030  1.00  0.00    -0.258 OA
ATOM     25  O   UNL A   1      32.042  30.203  25.439  1.00  0.00    -0.258 OA
ENDBRANCH  18  23
ENDBRANCH  15  16
ENDBRANCH  13  15
ENDBRANCH   6   7
ENDBRANCH   4   6
ENDBRANCH   3   4
ENDBRANCH   2   3
ENDBRANCH   1   2
BRANCH   1  26
ATOM     26  O   UNL A   1      37.629  21.019  24.614  1.00  0.00    -0.374 OA
BRANCH  26  27
ATOM     27  C   UNL A   1      37.739  19.643  24.938  1.00  0.00     0.202 C 
BRANCH  27  28
ATOM     28  C   UNL A   1      39.034  19.248  25.638  1.00  0.00     0.261 C 
BRANCH  28  29
ATOM     29  O   UNL A   1      39.922  20.358  25.795  1.00  0.00    -0.460 OA
BRANCH  29  30
ATOM     30  C   UNL A   1      40.519  20.437  27.014  1.00  0.00     0.338 C 
ATOM     31  O   UNL A   1      40.919  19.520  27.698  1.00  0.00    -0.246 OA
BRANCH  30  32
ATOM     32  C   UNL A   1      40.758  21.861  27.323  1.00  0.00     0.060 A 
ATOM     33  C   UNL A   1      40.079  22.825  26.567  1.00  0.00     0.016 A 
ATOM     34  C   UNL A   1      41.640  22.241  28.338  1.00  0.00     0.016 A 
ATOM     35  C   UNL A   1      40.307  24.178  26.804  1.00  0.00     0.010 A 
ATOM     36  C   UNL A   1      41.878  23.594  28.565  1.00  0.00     0.010 A 
ATOM     37  C   UNL A   1      41.235  24.565  27.779  1.00  0.00    -0.014 A 
BRANCH  37  38
ATOM     38  C   UNL A   1      41.662  25.977  27.875  1.00  0.00     0.031 A 
ATOM     39  C   UNL A   1      42.976  26.365  27.258  1.00  0.00     0.074 A 
ATOM     40  C   UNL A   1      40.896  26.879  28.513  1.00  0.00     0.049 A 
ATOM     41  N   UNL A   1      43.605  27.508  27.299  1.00  0.00    -0.248 NA
ATOM     42  C   UNL A   1      43.675  25.319  26.493  1.00  0.00     0.031 C 
ATOM     43  C   UNL A   1      39.586  26.604  29.103  1.00  0.00     0.029 A 
ATOM     44  N   UNL A   1      41.116  28.205  28.785  1.00  0.00    -0.354 N 
ATOM     45  C   UNL A   1      44.778  27.318  26.576  1.00  0.00     0.074 A 
ATOM     46  C   UNL A   1      44.784  25.943  26.127  1.00  0.00     0.031 C 
ATOM     47  C   UNL A   1      39.128  27.725  29.687  1.00  0.00     0.029 A 
ATOM     48  C   UNL A   1      40.132  28.778  29.555  1.00  0.00     0.049 A 
ATOM     49  H   UNL A   1      41.903  28.698  28.460  1.00  0.00     0.167 HD
ATOM     50  C   UNL A   1      45.757  28.216  26.317  1.00  0.00     0.034 A 
ATOM     51  C   UNL A   1      40.076  30.000  30.122  1.00  0.00     0.034 A 
ATOM     52  C   UNL A   1      45.730  29.577  26.789  1.00  0.00     0.049 A 
ATOM     53  C   UNL A   1      41.230  30.951  29.893  1.00  0.00     0.074 A 
ATOM     54  C   UNL A   1      46.650  30.585  26.564  1.00  0.00     0.029 A 
ATOM     55  N   UNL A   1      44.738  30.116  27.598  1.00  0.00    -0.354 N 
ATOM     56  N   UNL A   1      42.321  30.772  29.182  1.00  0.00    -0.248 NA
ATOM     57  C   UNL A   1      41.143  32.268  30.537  1.00  0.00     0.031 C 
ATOM     58  C   UNL A   1      46.259  31.705  27.305  1.00  0.00     0.029 A 
ATOM     59  C   UNL A   1      45.049  31.428  27.921  1.00  0.00     0.049 A 
ATOM     60  H   UNL A   1      43.931  29.637  27.899  1.00  0.00     0.167 HD
ATOM     61  C   UNL A   1      43.035  31.966  29.275  1.00  0.00     0.074 A 
ATOM     62  C   UNL A   1      42.238  32.861  30.086  1.00  0.00     0.031 C 
ATOM     63  C   UNL A   1      44.240  32.297  28.742  1.00  0.00     0.034 A 
BRANCH  50  64
ATOM     64  C   UNL A   1      46.960  27.742  25.540  1.00  0.00     0.023 A 
ATOM     65  C   UNL A   1      47.127  28.027  24.175  1.00  0.00     0.031 A 
ATOM     66  C   UNL A   1      47.963  26.997  26.186  1.00  0.00     0.131 A 
ATOM     67  C   UNL A   1      48.248  27.534  23.489  1.00  0.00     0.055 A 
ATOM     68  C   UNL A   1      49.110  26.570  25.516  1.00  0.00     0.041 A 
ATOM     69  F   UNL A   1      47.843  26.670  27.483  1.00  0.00    -0.206 F 
ATOM     70  C   UNL A   1      49.254  26.831  24.157  1.00  0.00     0.022 A 
BRANCH  67  71
ATOM     71  S   UNL A   1      48.326  27.734  21.688  1.00  0.00     0.124 S 
ATOM     72  O   UNL A   1      48.683  26.384  21.257  1.00  0.00    -0.237 OA
ATOM     73  O   UNL A   1      46.975  28.173  21.359  1.00  0.00    -0.237 OA
ATOM     74  O   UNL A   1      49.371  28.738  21.499  1.00  0.00    -0.744 OA
ENDBRANCH  67  71
ENDBRANCH  50  64
BRANCH  51  75
ATOM     75  C   UNL A   1      38.938  30.386  31.008  1.00  0.00     0.023 A 
ATOM     76  C   UNL A   1      37.875  31.167  30.528  1.00  0.00     0.031 A 
ATOM     77  C   UNL A   1      38.940  30.052  32.376  1.00  0.00     0.131 A 
ATOM     78  C   UNL A   1      36.899  31.645  31.416  1.00  0.00     0.055 A 
ATOM     79  C   UNL A   1      37.928  30.471  33.241  1.00  0.00     0.041 A 
ATOM     80  F   UNL A   1      39.934  29.314  32.896  1.00  0.00    -0.206 F 
ATOM     81  C   UNL A   1      36.909  31.290  32.766  1.00  0.00     0.022 A 
BRANCH  78  82
ATOM     82  S   UNL A   1      35.692  32.853  30.805  1.00  0.00     0.124 S 
ATOM     83  O   UNL A   1      36.554  33.821  30.136  1.00  0.00    -0.237 OA
ATOM     84  O   UNL A   1      34.856  32.033  29.935  1.00  0.00    -0.237 OA
ATOM     85  O   UNL A   1      35.041  33.333  32.022  1.00  0.00    -0.744 OA
ENDBRANCH  78  82
ENDBRANCH  51  75
BRANCH  63  86
ATOM     86  C   UNL A   1      44.739  33.697  28.997  1.00  0.00     0.023 A 
ATOM     87  C   UNL A   1      45.563  33.998  30.095  1.00  0.00     0.031 A 
ATOM     88  C   UNL A   1      44.383  34.745  28.130  1.00  0.00     0.131 A 
ATOM     89  C   UNL A   1      45.952  35.323  30.334  1.00  0.00     0.055 A 
ATOM     90  C   UNL A   1      44.832  36.051  28.333  1.00  0.00     0.041 A 
ATOM     91  F   UNL A   1      43.597  34.516  27.065  1.00  0.00    -0.206 F 
ATOM     92  C   UNL A   1      45.609  36.349  29.447  1.00  0.00     0.022 A 
BRANCH  89  93
ATOM     93  S   UNL A   1      46.831  35.708  31.873  1.00  0.00     0.124 S 
ATOM     94  O   UNL A   1      46.563  34.522  32.679  1.00  0.00    -0.237 OA
ATOM     95  O   UNL A   1      48.207  35.869  31.413  1.00  0.00    -0.237 OA
ATOM     96  O   UNL A   1      46.186  36.934  32.339  1.00  0.00    -0.744 OA
ENDBRANCH  89  93
ENDBRANCH  63  86
ENDBRANCH  37  38
ENDBRANCH  30  32
ENDBRANCH  29  30
ENDBRANCH  28  29
ENDBRANCH  27  28
ENDBRANCH  26  27
ENDBRANCH   1  26
TORSDOF 21
ENDMDL
