MODEL 1
REMARK VINA RESULT:     -10.5      0.000      0.000
REMARK SMILES CCCOC(=O)c1c(NC(=O)[C@@H]2CC=CC[C@H]2C(=O)OCCOCCOC(=O)c2ccc(-c3c4nc(c(-c5cc(S(=O)(=O)[O-])ccc5F)c5ccc([nH]5)c(-c5cc(S(=O)(=O)[O-])ccc5F)c5nc(c(-c6cc(S(=O)(=O)[O-])ccc6F)c6ccc3[nH]6)C=C5)C=C4)cc2)sc2c1CCCC2
REMARK SMILES IDX 21 1 20 2 18 3 19 4 17 5 12 6 13 7 14 8 16 9 15 10 10 11
REMARK SMILES IDX 9 12 11 14 8 15 7 16 94 17 92 18 93 19 95 20 98 21 96 22
REMARK SMILES IDX 97 23 5 24 6 25 4 26 3 27 2 28 1 29 22 30 23 31 24 32 25 33
REMARK SMILES IDX 26 34 27 35 28 36 29 37 30 38 91 39 31 40 90 41 32 42 33 43
REMARK SMILES IDX 34 44 84 45 35 46 89 47 83 48 85 49 36 50 88 51 82 52 81 53
REMARK SMILES IDX 37 55 69 56 49 57 68 58 50 59 53 60 67 61 86 62 51 63 52 64
REMARK SMILES IDX 66 66 87 67 54 68 38 69 39 70 47 71 40 72 46 73 48 74 45 75
REMARK SMILES IDX 41 76 42 77 43 78 44 79 70 80 71 81 79 82 72 83 78 84 80 85
REMARK SMILES IDX 77 86 73 87 74 88 75 89 76 90 55 91 56 92 64 93 57 94 63 95
REMARK SMILES IDX 65 96 62 97 58 98 59 99 60 100 61 101
REMARK H PARENT 9 13 85 54 53 65
REMARK Flexibility Score: inf
ROOT
ATOM      1  C   UNL A   1      34.205  29.293  27.402  1.00  0.00     0.261 C 
ENDROOT
BRANCH   1   2
ATOM      2  O   UNL A   1      34.152  28.225  26.368  1.00  0.00    -0.463 OA
BRANCH   2   3
ATOM      3  C   UNL A   1      33.117  27.375  26.065  1.00  0.00     0.310 C 
ATOM      4  O   UNL A   1      32.361  27.079  26.987  1.00  0.00    -0.252 OA
BRANCH   3   5
ATOM      5  C   UNL A   1      32.904  26.666  24.486  1.00  0.00     0.116 C 
ATOM      6  C   UNL A   1      31.848  25.619  24.012  1.00  0.00     0.097 C 
ATOM      7  C   UNL A   1      32.548  24.647  22.983  1.00  0.00     0.041 C 
ATOM      8  C   UNL A   1      33.257  25.307  21.843  1.00  0.00    -0.030 C 
ATOM      9  C   UNL A   1      33.204  27.430  23.075  1.00  0.00     0.043 C 
ATOM     10  C   UNL A   1      33.536  26.605  21.877  1.00  0.00    -0.030 C 
BRANCH   6  11
ATOM     11  C   UNL A   1      31.157  24.699  24.984  1.00  0.00     0.229 C 
ATOM     12  N   UNL A   1      31.920  23.874  25.778  1.00  0.00    -0.317 N 
ATOM     13  H   UNL A   1      31.700  23.792  26.733  1.00  0.00     0.170 HD
ATOM     14  O   UNL A   1      29.937  24.754  25.159  1.00  0.00    -0.274 OA
BRANCH  12  15
ATOM     15  C   UNL A   1      32.999  23.148  25.265  1.00  0.00     0.110 A 
ATOM     16  C   UNL A   1      33.318  21.432  24.813  1.00  0.00     0.098 A 
ATOM     17  C   UNL A   1      35.113  20.934  25.163  1.00  0.00    -0.017 A 
ATOM     18  S   UNL A   1      34.971  24.266  25.936  1.00  0.00    -0.122 S 
ATOM     19  C   UNL A   1      36.168  22.258  25.700  1.00  0.00     0.011 A 
ATOM     20  C   UNL A   1      35.709  19.695  24.566  1.00  0.00     0.038 C 
ATOM     21  C   UNL A   1      37.628  22.083  25.922  1.00  0.00     0.047 C 
ATOM     22  C   UNL A   1      37.224  19.590  24.833  1.00  0.00     0.005 C 
ATOM     23  C   UNL A   1      38.125  20.863  25.061  1.00  0.00     0.006 C 
BRANCH  16  24
ATOM     24  C   UNL A   1      32.455  20.343  24.127  1.00  0.00     0.341 C 
ATOM     25  O   UNL A   1      32.039  20.506  22.989  1.00  0.00    -0.246 OA
BRANCH  24  26
ATOM     26  O   UNL A   1      32.194  19.204  24.912  1.00  0.00    -0.462 OA
BRANCH  26  27
ATOM     27  C   UNL A   1      32.743  18.190  25.963  1.00  0.00     0.233 C 
BRANCH  27  28
ATOM     28  C   UNL A   1      33.196  16.535  25.711  1.00  0.00     0.038 C 
ATOM     29  C   UNL A   1      32.433  15.135  25.544  1.00  0.00     0.007 C 
ENDBRANCH  27  28
ENDBRANCH  26  27
ENDBRANCH  24  26
ENDBRANCH  16  24
ENDBRANCH  12  15
ENDBRANCH   6  11
ENDBRANCH   3   5
ENDBRANCH   2   3
ENDBRANCH   1   2
BRANCH   1  30
ATOM     30  C   UNL A   1      33.513  30.643  27.082  1.00  0.00     0.202 C 
BRANCH  30  31
ATOM     31  O   UNL A   1      32.319  30.634  26.313  1.00  0.00    -0.374 OA
BRANCH  31  32
ATOM     32  C   UNL A   1      31.522  31.798  26.399  1.00  0.00     0.202 C 
BRANCH  32  33
ATOM     33  C   UNL A   1      31.656  32.741  27.625  1.00  0.00     0.261 C 
BRANCH  33  34
ATOM     34  O   UNL A   1      32.550  33.926  27.585  1.00  0.00    -0.460 OA
BRANCH  34  35
ATOM     35  C   UNL A   1      33.234  34.396  28.808  1.00  0.00     0.338 C 
ATOM     36  O   UNL A   1      32.801  35.592  28.792  1.00  0.00    -0.246 OA
BRANCH  35  37
ATOM     37  C   UNL A   1      34.763  33.424  30.058  1.00  0.00     0.060 A 
ATOM     38  C   UNL A   1      36.209  33.598  30.015  1.00  0.00     0.016 A 
ATOM     39  C   UNL A   1      34.783  32.204  31.003  1.00  0.00     0.016 A 
ATOM     40  C   UNL A   1      37.142  32.622  29.848  1.00  0.00     0.010 A 
ATOM     41  C   UNL A   1      35.971  31.502  31.486  1.00  0.00     0.010 A 
ATOM     42  C   UNL A   1      37.196  31.804  30.914  1.00  0.00    -0.014 A 
BRANCH  42  43
ATOM     43  C   UNL A   1      38.613  31.495  31.190  1.00  0.00     0.031 A 
ATOM     44  C   UNL A   1      39.335  30.640  30.198  1.00  0.00     0.074 A 
ATOM     45  C   UNL A   1      39.336  32.408  31.900  1.00  0.00     0.049 A 
ATOM     46  N   UNL A   1      40.586  30.287  30.176  1.00  0.00    -0.248 NA
ATOM     47  C   UNL A   1      38.549  30.180  29.037  1.00  0.00     0.031 C 
ATOM     48  C   UNL A   1      38.791  33.627  32.536  1.00  0.00     0.029 A 
ATOM     49  N   UNL A   1      40.687  32.540  32.114  1.00  0.00    -0.354 N 
ATOM     50  C   UNL A   1      40.719  29.482  29.056  1.00  0.00     0.074 A 
ATOM     51  C   UNL A   1      39.448  29.475  28.371  1.00  0.00     0.031 C 
ATOM     52  C   UNL A   1      39.789  34.359  33.054  1.00  0.00     0.029 A 
ATOM     53  C   UNL A   1      41.025  33.606  32.928  1.00  0.00     0.049 A 
ATOM     54  H   UNL A   1      41.355  31.931  31.724  1.00  0.00     0.167 HD
ATOM     55  C   UNL A   1      41.805  28.759  28.703  1.00  0.00     0.034 A 
ATOM     56  C   UNL A   1      42.174  33.872  33.584  1.00  0.00     0.034 A 
ATOM     57  C   UNL A   1      43.034  28.809  29.449  1.00  0.00     0.049 A 
ATOM     58  C   UNL A   1      43.297  32.886  33.376  1.00  0.00     0.074 A 
ATOM     59  C   UNL A   1      44.155  28.014  29.325  1.00  0.00     0.029 A 
ATOM     60  N   UNL A   1      43.291  29.711  30.476  1.00  0.00    -0.354 N 
ATOM     61  N   UNL A   1      43.366  31.899  32.509  1.00  0.00    -0.248 NA
ATOM     62  C   UNL A   1      44.469  33.010  34.245  1.00  0.00     0.031 C 
ATOM     63  C   UNL A   1      45.043  28.366  30.347  1.00  0.00     0.029 A 
ATOM     64  C   UNL A   1      44.535  29.465  31.025  1.00  0.00     0.049 A 
ATOM     65  H   UNL A   1      42.677  30.422  30.769  1.00  0.00     0.167 HD
ATOM     66  C   UNL A   1      44.604  31.301  32.711  1.00  0.00     0.074 A 
ATOM     67  C   UNL A   1      45.251  32.053  33.770  1.00  0.00     0.031 C 
ATOM     68  C   UNL A   1      45.154  30.232  32.081  1.00  0.00     0.034 A 
BRANCH  55  69
ATOM     69  C   UNL A   1      41.598  27.716  27.642  1.00  0.00     0.023 A 
ATOM     70  C   UNL A   1      41.287  26.381  27.937  1.00  0.00     0.031 A 
ATOM     71  C   UNL A   1      41.858  28.058  26.301  1.00  0.00     0.131 A 
ATOM     72  C   UNL A   1      41.329  25.422  26.914  1.00  0.00     0.055 A 
ATOM     73  C   UNL A   1      41.796  27.117  25.276  1.00  0.00     0.041 A 
ATOM     74  F   UNL A   1      42.222  29.309  25.972  1.00  0.00    -0.206 F 
ATOM     75  C   UNL A   1      41.546  25.785  25.582  1.00  0.00     0.022 A 
BRANCH  72  76
ATOM     76  S   UNL A   1      41.299  23.667  27.375  1.00  0.00     0.124 S 
ATOM     77  O   UNL A   1      41.684  23.029  26.118  1.00  0.00    -0.237 OA
ATOM     78  O   UNL A   1      42.282  23.606  28.449  1.00  0.00    -0.237 OA
ATOM     79  O   UNL A   1      39.913  23.443  27.782  1.00  0.00    -0.744 OA
ENDBRANCH  72  76
ENDBRANCH  55  69
BRANCH  56  80
ATOM     80  C   UNL A   1      42.272  34.950  34.628  1.00  0.00     0.023 A 
ATOM     81  C   UNL A   1      41.624  34.848  35.872  1.00  0.00     0.031 A 
ATOM     82  C   UNL A   1      42.916  36.172  34.340  1.00  0.00     0.131 A 
ATOM     83  C   UNL A   1      41.594  35.953  36.746  1.00  0.00     0.055 A 
ATOM     84  C   UNL A   1      42.945  37.239  35.241  1.00  0.00     0.041 A 
ATOM     85  F   UNL A   1      43.516  36.364  33.154  1.00  0.00    -0.206 F 
ATOM     86  C   UNL A   1      42.268  37.139  36.447  1.00  0.00     0.022 A 
BRANCH  83  87
ATOM     87  S   UNL A   1      40.548  35.873  38.229  1.00  0.00     0.124 S 
ATOM     88  O   UNL A   1      39.661  37.013  38.025  1.00  0.00    -0.237 OA
ATOM     89  O   UNL A   1      39.939  34.553  38.100  1.00  0.00    -0.237 OA
ATOM     90  O   UNL A   1      41.501  36.012  39.329  1.00  0.00    -0.744 OA
ENDBRANCH  83  87
ENDBRANCH  56  80
BRANCH  68  91
ATOM     91  C   UNL A   1      46.560  29.862  32.468  1.00  0.00     0.023 A 
ATOM     92  C   UNL A   1      47.678  30.417  31.826  1.00  0.00     0.031 A 
ATOM     93  C   UNL A   1      46.776  28.935  33.503  1.00  0.00     0.131 A 
ATOM     94  C   UNL A   1      48.962  29.980  32.177  1.00  0.00     0.055 A 
ATOM     95  C   UNL A   1      48.058  28.581  33.913  1.00  0.00     0.041 A 
ATOM     96  F   UNL A   1      45.739  28.368  34.142  1.00  0.00    -0.206 F 
ATOM     97  C   UNL A   1      49.161  29.091  33.237  1.00  0.00     0.022 A 
BRANCH  94  98
ATOM     98  S   UNL A   1      50.355  30.479  31.132  1.00  0.00     0.124 S 
ATOM     99  O   UNL A   1      51.365  29.488  31.486  1.00  0.00    -0.237 OA
ATOM    100  O   UNL A   1      49.795  30.367  29.789  1.00  0.00    -0.237 OA
ATOM    101  O   UNL A   1      50.641  31.842  31.574  1.00  0.00    -0.744 OA
ENDBRANCH  94  98
ENDBRANCH  68  91
ENDBRANCH  42  43
ENDBRANCH  35  37
ENDBRANCH  34  35
ENDBRANCH  33  34
ENDBRANCH  32  33
ENDBRANCH  31  32
ENDBRANCH  30  31
ENDBRANCH   1  30
TORSDOF 23
ENDMDL
MODEL 2
REMARK VINA RESULT:     -10.0      3.037      3.648
REMARK SMILES CCCOC(=O)c1c(NC(=O)[C@@H]2CC=CC[C@H]2C(=O)OCCOCCOC(=O)c2ccc(-c3c4nc(c(-c5cc(S(=O)(=O)[O-])ccc5F)c5ccc([nH]5)c(-c5cc(S(=O)(=O)[O-])ccc5F)c5nc(c(-c6cc(S(=O)(=O)[O-])ccc6F)c6ccc3[nH]6)C=C5)C=C4)cc2)sc2c1CCCC2
REMARK SMILES IDX 21 1 20 2 18 3 19 4 17 5 12 6 13 7 14 8 16 9 15 10 10 11
REMARK SMILES IDX 9 12 11 14 8 15 7 16 94 17 92 18 93 19 95 20 98 21 96 22
REMARK SMILES IDX 97 23 5 24 6 25 4 26 3 27 2 28 1 29 22 30 23 31 24 32 25 33
REMARK SMILES IDX 26 34 27 35 28 36 29 37 30 38 91 39 31 40 90 41 32 42 33 43
REMARK SMILES IDX 34 44 84 45 35 46 89 47 83 48 85 49 36 50 88 51 82 52 81 53
REMARK SMILES IDX 37 55 69 56 49 57 68 58 50 59 53 60 67 61 86 62 51 63 52 64
REMARK SMILES IDX 66 66 87 67 54 68 38 69 39 70 47 71 40 72 46 73 48 74 45 75
REMARK SMILES IDX 41 76 42 77 43 78 44 79 70 80 71 81 79 82 72 83 78 84 80 85
REMARK SMILES IDX 77 86 73 87 74 88 75 89 76 90 55 91 56 92 64 93 57 94 63 95
REMARK SMILES IDX 65 96 62 97 58 98 59 99 60 100 61 101
REMARK H PARENT 9 13 85 54 53 65
REMARK Flexibility Score: inf
ROOT
ATOM      1  C   UNL A   1      34.142  29.428  27.581  1.00  0.00     0.261 C 
ENDROOT
BRANCH   1   2
ATOM      2  O   UNL A   1      34.065  28.394  26.514  1.00  0.00    -0.463 OA
BRANCH   2   3
ATOM      3  C   UNL A   1      33.000  27.601  26.162  1.00  0.00     0.310 C 
ATOM      4  O   UNL A   1      32.207  27.318  27.057  1.00  0.00    -0.252 OA
BRANCH   3   5
ATOM      5  C   UNL A   1      32.796  26.943  24.560  1.00  0.00     0.116 C 
ATOM      6  C   UNL A   1      31.741  25.915  24.046  1.00  0.00     0.097 C 
ATOM      7  C   UNL A   1      32.445  24.974  22.992  1.00  0.00     0.041 C 
ATOM      8  C   UNL A   1      33.165  25.667  21.878  1.00  0.00    -0.030 C 
ATOM      9  C   UNL A   1      33.109  27.750  23.176  1.00  0.00     0.043 C 
ATOM     10  C   UNL A   1      33.447  26.963  21.955  1.00  0.00    -0.030 C 
BRANCH   6  11
ATOM     11  C   UNL A   1      31.040  24.967  24.983  1.00  0.00     0.229 C 
ATOM     12  N   UNL A   1      31.796  24.135  25.776  1.00  0.00    -0.317 N 
ATOM     13  H   UNL A   1      31.557  24.030  26.725  1.00  0.00     0.170 HD
ATOM     14  O   UNL A   1      29.817  25.004  25.134  1.00  0.00    -0.274 OA
BRANCH  12  15
ATOM     15  C   UNL A   1      32.894  23.432  25.271  1.00  0.00     0.110 A 
ATOM     16  C   UNL A   1      33.250  21.724  24.814  1.00  0.00     0.098 A 
ATOM     17  C   UNL A   1      35.050  21.258  25.181  1.00  0.00    -0.017 A 
ATOM     18  S   UNL A   1      34.837  24.582  25.969  1.00  0.00    -0.122 S 
ATOM     19  C   UNL A   1      36.074  22.599  25.736  1.00  0.00     0.011 A 
ATOM     20  C   UNL A   1      35.676  20.033  24.584  1.00  0.00     0.038 C 
ATOM     21  C   UNL A   1      37.535  22.450  25.974  1.00  0.00     0.047 C 
ATOM     22  C   UNL A   1      37.190  19.956  24.867  1.00  0.00     0.005 C 
ATOM     23  C   UNL A   1      38.064  21.244  25.112  1.00  0.00     0.006 C 
BRANCH  16  24
ATOM     24  C   UNL A   1      32.416  20.623  24.113  1.00  0.00     0.341 C 
ATOM     25  O   UNL A   1      32.007  20.785  22.972  1.00  0.00    -0.246 OA
BRANCH  24  26
ATOM     26  O   UNL A   1      32.169  19.474  24.888  1.00  0.00    -0.462 OA
BRANCH  26  27
ATOM     27  C   UNL A   1      32.740  18.445  25.913  1.00  0.00     0.233 C 
BRANCH  27  28
ATOM     28  C   UNL A   1      33.167  16.788  25.632  1.00  0.00     0.038 C 
ATOM     29  C   UNL A   1      34.513  15.971  25.326  1.00  0.00     0.007 C 
ENDBRANCH  27  28
ENDBRANCH  26  27
ENDBRANCH  24  26
ENDBRANCH  16  24
ENDBRANCH  12  15
ENDBRANCH   6  11
ENDBRANCH   3   5
ENDBRANCH   2   3
ENDBRANCH   1   2
BRANCH   1  30
ATOM     30  C   UNL A   1      33.619  30.849  27.247  1.00  0.00     0.202 C 
BRANCH  30  31
ATOM     31  O   UNL A   1      32.359  30.982  26.603  1.00  0.00    -0.374 OA
BRANCH  31  32
ATOM     32  C   UNL A   1      31.792  32.276  26.619  1.00  0.00     0.202 C 
BRANCH  32  33
ATOM     33  C   UNL A   1      32.233  33.302  27.698  1.00  0.00     0.261 C 
BRANCH  33  34
ATOM     34  O   UNL A   1      33.489  34.081  27.547  1.00  0.00    -0.460 OA
BRANCH  34  35
ATOM     35  C   UNL A   1      34.184  34.627  28.730  1.00  0.00     0.338 C 
ATOM     36  O   UNL A   1      34.203  35.845  28.366  1.00  0.00    -0.246 OA
BRANCH  35  37
ATOM     37  C   UNL A   1      35.159  33.604  30.418  1.00  0.00     0.060 A 
ATOM     38  C   UNL A   1      36.536  33.729  30.877  1.00  0.00     0.016 A 
ATOM     39  C   UNL A   1      34.815  32.382  31.298  1.00  0.00     0.016 A 
ATOM     40  C   UNL A   1      37.439  32.721  31.029  1.00  0.00     0.010 A 
ATOM     41  C   UNL A   1      35.741  31.641  32.151  1.00  0.00     0.010 A 
ATOM     42  C   UNL A   1      37.097  31.902  32.038  1.00  0.00    -0.014 A 
BRANCH  42  43
ATOM     43  C   UNL A   1      38.322  31.546  32.781  1.00  0.00     0.031 A 
ATOM     44  C   UNL A   1      39.466  30.992  31.992  1.00  0.00     0.074 A 
ATOM     45  C   UNL A   1      38.603  32.245  33.919  1.00  0.00     0.049 A 
ATOM     46  N   UNL A   1      40.660  30.670  32.395  1.00  0.00    -0.248 NA
ATOM     47  C   UNL A   1      39.250  30.848  30.540  1.00  0.00     0.031 C 
ATOM     48  C   UNL A   1      37.716  33.245  34.551  1.00  0.00     0.029 A 
ATOM     49  N   UNL A   1      39.740  32.329  34.685  1.00  0.00    -0.354 N 
ATOM     50  C   UNL A   1      41.310  30.193  31.267  1.00  0.00     0.074 A 
ATOM     51  C   UNL A   1      40.412  30.355  30.147  1.00  0.00     0.031 C 
ATOM     52  C   UNL A   1      38.344  33.824  35.586  1.00  0.00     0.029 A 
ATOM     53  C   UNL A   1      39.610  33.144  35.794  1.00  0.00     0.049 A 
ATOM     54  H   UNL A   1      40.573  31.852  34.465  1.00  0.00     0.167 HD
ATOM     55  C   UNL A   1      42.523  29.601  31.222  1.00  0.00     0.034 A 
ATOM     56  C   UNL A   1      40.376  33.239  36.902  1.00  0.00     0.034 A 
ATOM     57  C   UNL A   1      43.353  29.464  32.389  1.00  0.00     0.049 A 
ATOM     58  C   UNL A   1      41.598  32.354  36.936  1.00  0.00     0.074 A 
ATOM     59  C   UNL A   1      44.518  28.742  32.543  1.00  0.00     0.029 A 
ATOM     60  N   UNL A   1      43.085  30.063  33.615  1.00  0.00    -0.354 N 
ATOM     61  N   UNL A   1      42.113  31.634  35.963  1.00  0.00    -0.248 NA
ATOM     62  C   UNL A   1      42.320  32.256  38.207  1.00  0.00     0.031 C 
ATOM     63  C   UNL A   1      44.894  28.819  33.887  1.00  0.00     0.029 A 
ATOM     64  C   UNL A   1      44.039  29.693  34.543  1.00  0.00     0.049 A 
ATOM     65  H   UNL A   1      42.327  30.665  33.795  1.00  0.00     0.167 HD
ATOM     66  C   UNL A   1      43.235  31.017  36.499  1.00  0.00     0.074 A 
ATOM     67  C   UNL A   1      43.331  31.467  37.875  1.00  0.00     0.031 C 
ATOM     68  C   UNL A   1      44.107  30.159  35.910  1.00  0.00     0.034 A 
BRANCH  55  69
ATOM     69  C   UNL A   1      42.866  28.875  29.952  1.00  0.00     0.023 A 
ATOM     70  C   UNL A   1      42.293  27.644  29.600  1.00  0.00     0.031 A 
ATOM     71  C   UNL A   1      43.902  29.381  29.145  1.00  0.00     0.131 A 
ATOM     72  C   UNL A   1      42.822  26.922  28.519  1.00  0.00     0.055 A 
ATOM     73  C   UNL A   1      44.352  28.706  28.013  1.00  0.00     0.041 A 
ATOM     74  F   UNL A   1      44.529  30.524  29.472  1.00  0.00    -0.206 F 
ATOM     75  C   UNL A   1      43.822  27.459  27.703  1.00  0.00     0.022 A 
BRANCH  72  76
ATOM     76  S   UNL A   1      42.329  25.188  28.317  1.00  0.00     0.124 S 
ATOM     77  O   UNL A   1      43.254  24.514  29.226  1.00  0.00    -0.237 OA
ATOM     78  O   UNL A   1      40.931  25.207  28.729  1.00  0.00    -0.237 OA
ATOM     79  O   UNL A   1      42.560  24.929  26.898  1.00  0.00    -0.744 OA
ENDBRANCH  72  76
ENDBRANCH  55  69
BRANCH  56  80
ATOM     80  C   UNL A   1      39.936  34.001  38.121  1.00  0.00     0.023 A 
ATOM     81  C   UNL A   1      39.110  33.429  39.104  1.00  0.00     0.031 A 
ATOM     82  C   UNL A   1      40.233  35.374  38.253  1.00  0.00     0.131 A 
ATOM     83  C   UNL A   1      38.576  34.230  40.133  1.00  0.00     0.055 A 
ATOM     84  C   UNL A   1      39.760  36.147  39.317  1.00  0.00     0.041 A 
ATOM     85  F   UNL A   1      40.977  36.005  37.330  1.00  0.00    -0.206 F 
ATOM     86  C   UNL A   1      38.914  35.579  40.257  1.00  0.00     0.022 A 
BRANCH  83  87
ATOM     87  S   UNL A   1      37.323  33.520  41.240  1.00  0.00     0.124 S 
ATOM     88  O   UNL A   1      38.112  32.557  41.999  1.00  0.00    -0.237 OA
ATOM     89  O   UNL A   1      36.865  34.697  41.972  1.00  0.00    -0.237 OA
ATOM     90  O   UNL A   1      36.344  32.941  40.322  1.00  0.00    -0.744 OA
ENDBRANCH  83  87
ENDBRANCH  56  80
BRANCH  68  91
ATOM     91  C   UNL A   1      45.287  29.714  36.731  1.00  0.00     0.023 A 
ATOM     92  C   UNL A   1      45.225  28.595  37.574  1.00  0.00     0.031 A 
ATOM     93  C   UNL A   1      46.494  30.431  36.659  1.00  0.00     0.131 A 
ATOM     94  C   UNL A   1      46.331  28.270  38.371  1.00  0.00     0.055 A 
ATOM     95  C   UNL A   1      47.620  30.044  37.381  1.00  0.00     0.041 A 
ATOM     96  F   UNL A   1      46.601  31.516  35.875  1.00  0.00    -0.206 F 
ATOM     97  C   UNL A   1      47.537  28.968  38.257  1.00  0.00     0.022 A 
BRANCH  94  98
ATOM     98  S   UNL A   1      46.121  27.019  39.665  1.00  0.00     0.124 S 
ATOM     99  O   UNL A   1      47.474  26.489  39.791  1.00  0.00    -0.237 OA
ATOM    100  O   UNL A   1      45.638  27.811  40.791  1.00  0.00    -0.237 OA
ATOM    101  O   UNL A   1      45.145  26.097  39.090  1.00  0.00    -0.744 OA
ENDBRANCH  94  98
ENDBRANCH  68  91
ENDBRANCH  42  43
ENDBRANCH  35  37
ENDBRANCH  34  35
ENDBRANCH  33  34
ENDBRANCH  32  33
ENDBRANCH  31  32
ENDBRANCH  30  31
ENDBRANCH   1  30
TORSDOF 23
ENDMDL
MODEL 3
REMARK VINA RESULT:      -9.8      6.051     13.244
REMARK SMILES CCCOC(=O)c1c(NC(=O)[C@@H]2CC=CC[C@H]2C(=O)OCCOCCOC(=O)c2ccc(-c3c4nc(c(-c5cc(S(=O)(=O)[O-])ccc5F)c5ccc([nH]5)c(-c5cc(S(=O)(=O)[O-])ccc5F)c5nc(c(-c6cc(S(=O)(=O)[O-])ccc6F)c6ccc3[nH]6)C=C5)C=C4)cc2)sc2c1CCCC2
REMARK SMILES IDX 21 1 20 2 18 3 19 4 17 5 12 6 13 7 14 8 16 9 15 10 10 11
REMARK SMILES IDX 9 12 11 14 8 15 7 16 94 17 92 18 93 19 95 20 98 21 96 22
REMARK SMILES IDX 97 23 5 24 6 25 4 26 3 27 2 28 1 29 22 30 23 31 24 32 25 33
REMARK SMILES IDX 26 34 27 35 28 36 29 37 30 38 91 39 31 40 90 41 32 42 33 43
REMARK SMILES IDX 34 44 84 45 35 46 89 47 83 48 85 49 36 50 88 51 82 52 81 53
REMARK SMILES IDX 37 55 69 56 49 57 68 58 50 59 53 60 67 61 86 62 51 63 52 64
REMARK SMILES IDX 66 66 87 67 54 68 38 69 39 70 47 71 40 72 46 73 48 74 45 75
REMARK SMILES IDX 41 76 42 77 43 78 44 79 70 80 71 81 79 82 72 83 78 84 80 85
REMARK SMILES IDX 77 86 73 87 74 88 75 89 76 90 55 91 56 92 64 93 57 94 63 95
REMARK SMILES IDX 65 96 62 97 58 98 59 99 60 100 61 101
REMARK H PARENT 9 13 85 54 53 65
REMARK Flexibility Score: inf
ROOT
ATOM      1  C   UNL A   1      50.733  26.070  30.848  1.00  0.00     0.261 C 
ENDROOT
BRANCH   1   2
ATOM      2  O   UNL A   1      49.506  25.474  30.254  1.00  0.00    -0.463 OA
BRANCH   2   3
ATOM      3  C   UNL A   1      48.456  26.109  29.638  1.00  0.00     0.310 C 
ATOM      4  O   UNL A   1      47.494  26.394  30.347  1.00  0.00    -0.252 OA
BRANCH   3   5
ATOM      5  C   UNL A   1      48.419  26.436  27.925  1.00  0.00     0.116 C 
ATOM      6  C   UNL A   1      47.401  25.939  26.851  1.00  0.00     0.097 C 
ATOM      7  C   UNL A   1      48.195  25.656  25.516  1.00  0.00     0.041 C 
ATOM      8  C   UNL A   1      49.055  26.776  25.021  1.00  0.00    -0.030 C 
ATOM      9  C   UNL A   1      48.909  27.831  27.233  1.00  0.00     0.043 C 
ATOM     10  C   UNL A   1      49.363  27.797  25.812  1.00  0.00    -0.030 C 
BRANCH   6  11
ATOM     11  C   UNL A   1      46.572  24.700  27.062  1.00  0.00     0.229 C 
ATOM     12  N   UNL A   1      45.201  24.797  27.004  1.00  0.00    -0.317 N 
ATOM     13  H   UNL A   1      44.693  24.119  26.504  1.00  0.00     0.170 HD
ATOM     14  O   UNL A   1      47.098  23.589  27.170  1.00  0.00    -0.274 OA
BRANCH  12  15
ATOM     15  C   UNL A   1      44.508  25.833  27.639  1.00  0.00     0.110 A 
ATOM     16  C   UNL A   1      44.431  27.629  27.495  1.00  0.00     0.098 A 
ATOM     17  C   UNL A   1      44.151  28.457  29.176  1.00  0.00    -0.017 A 
ATOM     18  S   UNL A   1      44.017  25.101  29.831  1.00  0.00    -0.122 S 
ATOM     19  C   UNL A   1      43.855  27.340  30.524  1.00  0.00     0.011 A 
ATOM     20  C   UNL A   1      43.711  29.888  29.277  1.00  0.00     0.038 C 
ATOM     21  C   UNL A   1      43.512  27.805  31.894  1.00  0.00     0.047 C 
ATOM     22  C   UNL A   1      43.366  30.290  30.725  1.00  0.00     0.005 C 
ATOM     23  C   UNL A   1      42.875  29.240  31.793  1.00  0.00     0.006 C 
BRANCH  16  24
ATOM     24  C   UNL A   1      44.457  28.593  26.283  1.00  0.00     0.341 C 
ATOM     25  O   UNL A   1      45.478  29.203  25.995  1.00  0.00    -0.246 OA
BRANCH  24  26
ATOM     26  O   UNL A   1      43.241  28.709  25.583  1.00  0.00    -0.462 OA
BRANCH  26  27
ATOM     27  C   UNL A   1      41.703  28.954  25.673  1.00  0.00     0.233 C 
BRANCH  27  28
ATOM     28  C   UNL A   1      40.618  28.462  26.934  1.00  0.00     0.038 C 
ATOM     29  C   UNL A   1      40.749  27.770  28.375  1.00  0.00     0.007 C 
ENDBRANCH  27  28
ENDBRANCH  26  27
ENDBRANCH  24  26
ENDBRANCH  16  24
ENDBRANCH  12  15
ENDBRANCH   6  11
ENDBRANCH   3   5
ENDBRANCH   2   3
ENDBRANCH   1   2
BRANCH   1  30
ATOM     30  C   UNL A   1      50.604  27.457  31.530  1.00  0.00     0.202 C 
BRANCH  30  31
ATOM     31  O   UNL A   1      49.442  27.737  32.297  1.00  0.00    -0.374 OA
BRANCH  31  32
ATOM     32  C   UNL A   1      49.289  29.078  32.717  1.00  0.00     0.202 C 
BRANCH  32  33
ATOM     33  C   UNL A   1      49.614  29.474  34.182  1.00  0.00     0.261 C 
BRANCH  33  34
ATOM     34  O   UNL A   1      49.240  28.590  35.315  1.00  0.00    -0.460 OA
BRANCH  34  35
ATOM     35  C   UNL A   1      48.320  29.063  36.369  1.00  0.00     0.338 C 
ATOM     36  O   UNL A   1      48.748  28.323  37.311  1.00  0.00    -0.246 OA
BRANCH  35  37
ATOM     37  C   UNL A   1      46.565  30.386  36.250  1.00  0.00     0.060 A 
ATOM     38  C   UNL A   1      45.302  30.152  35.561  1.00  0.00     0.016 A 
ATOM     39  C   UNL A   1      46.302  31.878  36.548  1.00  0.00     0.016 A 
ATOM     40  C   UNL A   1      44.730  30.946  34.615  1.00  0.00     0.010 A 
ATOM     41  C   UNL A   1      45.160  32.665  36.088  1.00  0.00     0.010 A 
ATOM     42  C   UNL A   1      44.316  32.114  35.137  1.00  0.00    -0.014 A 
BRANCH  42  43
ATOM     43  C   UNL A   1      43.008  32.449  34.542  1.00  0.00     0.031 A 
ATOM     44  C   UNL A   1      41.881  32.740  35.481  1.00  0.00     0.074 A 
ATOM     45  C   UNL A   1      43.001  33.057  33.320  1.00  0.00     0.049 A 
ATOM     46  N   UNL A   1      40.667  33.121  35.213  1.00  0.00    -0.248 NA
ATOM     47  C   UNL A   1      42.191  32.653  36.920  1.00  0.00     0.031 C 
ATOM     48  C   UNL A   1      44.190  33.294  32.474  1.00  0.00     0.029 A 
ATOM     49  N   UNL A   1      42.007  33.697  32.621  1.00  0.00    -0.354 N 
ATOM     50  C   UNL A   1      40.036  33.226  36.443  1.00  0.00     0.074 A 
ATOM     51  C   UNL A   1      41.024  32.961  37.462  1.00  0.00     0.031 C 
ATOM     52  C   UNL A   1      43.849  34.014  31.395  1.00  0.00     0.029 A 
ATOM     53  C   UNL A   1      42.404  34.167  31.383  1.00  0.00     0.049 A 
ATOM     54  H   UNL A   1      41.093  33.812  32.970  1.00  0.00     0.167 HD
ATOM     55  C   UNL A   1      38.722  33.446  36.662  1.00  0.00     0.034 A 
ATOM     56  C   UNL A   1      41.668  34.567  30.324  1.00  0.00     0.034 A 
ATOM     57  C   UNL A   1      37.796  33.687  35.588  1.00  0.00     0.049 A 
ATOM     58  C   UNL A   1      40.172  34.546  30.516  1.00  0.00     0.074 A 
ATOM     59  C   UNL A   1      36.418  33.754  35.631  1.00  0.00     0.029 A 
ATOM     60  N   UNL A   1      38.168  33.891  34.264  1.00  0.00    -0.354 N 
ATOM     61  N   UNL A   1      39.493  34.360  31.627  1.00  0.00    -0.248 NA
ATOM     62  C   UNL A   1      39.340  34.746  29.326  1.00  0.00     0.031 C 
ATOM     63  C   UNL A   1      35.956  33.890  34.318  1.00  0.00     0.029 A 
ATOM     64  C   UNL A   1      37.046  34.040  33.472  1.00  0.00     0.049 A 
ATOM     65  H   UNL A   1      39.097  33.925  33.937  1.00  0.00     0.167 HD
ATOM     66  C   UNL A   1      38.153  34.446  31.273  1.00  0.00     0.074 A 
ATOM     67  C   UNL A   1      38.123  34.721  29.849  1.00  0.00     0.031 C 
ATOM     68  C   UNL A   1      37.049  34.312  32.052  1.00  0.00     0.034 A 
BRANCH  55  69
ATOM     69  C   UNL A   1      38.223  33.188  38.056  1.00  0.00     0.023 A 
ATOM     70  C   UNL A   1      38.354  34.120  39.096  1.00  0.00     0.031 A 
ATOM     71  C   UNL A   1      37.725  31.909  38.367  1.00  0.00     0.131 A 
ATOM     72  C   UNL A   1      38.071  33.727  40.412  1.00  0.00     0.055 A 
ATOM     73  C   UNL A   1      37.349  31.561  39.662  1.00  0.00     0.041 A 
ATOM     74  F   UNL A   1      37.639  30.959  37.422  1.00  0.00    -0.206 F 
ATOM     75  C   UNL A   1      37.537  32.468  40.698  1.00  0.00     0.022 A 
BRANCH  72  76
ATOM     76  S   UNL A   1      38.602  34.810  41.768  1.00  0.00     0.124 S 
ATOM     77  O   UNL A   1      37.343  35.026  42.478  1.00  0.00    -0.237 OA
ATOM     78  O   UNL A   1      39.590  33.991  42.458  1.00  0.00    -0.237 OA
ATOM     79  O   UNL A   1      39.132  35.985  41.080  1.00  0.00    -0.744 OA
ENDBRANCH  72  76
ENDBRANCH  55  69
BRANCH  56  80
ATOM     80  C   UNL A   1      42.273  34.804  28.968  1.00  0.00     0.023 A 
ATOM     81  C   UNL A   1      42.985  33.805  28.281  1.00  0.00     0.031 A 
ATOM     82  C   UNL A   1      42.262  36.093  28.394  1.00  0.00     0.131 A 
ATOM     83  C   UNL A   1      43.686  34.122  27.100  1.00  0.00     0.055 A 
ATOM     84  C   UNL A   1      42.898  36.384  27.184  1.00  0.00     0.041 A 
ATOM     85  F   UNL A   1      41.644  37.112  29.013  1.00  0.00    -0.206 F 
ATOM     86  C   UNL A   1      43.629  35.398  26.537  1.00  0.00     0.022 A 
BRANCH  83  87
ATOM     87  S   UNL A   1      44.790  32.877  26.371  1.00  0.00     0.124 S 
ATOM     88  O   UNL A   1      43.836  31.960  25.757  1.00  0.00    -0.237 OA
ATOM     89  O   UNL A   1      45.591  33.681  25.455  1.00  0.00    -0.237 OA
ATOM     90  O   UNL A   1      45.514  32.344  27.524  1.00  0.00    -0.744 OA
ENDBRANCH  83  87
ENDBRANCH  56  80
BRANCH  68  91
ATOM     91  C   UNL A   1      35.717  34.541  31.392  1.00  0.00     0.023 A 
ATOM     92  C   UNL A   1      35.307  33.807  30.269  1.00  0.00     0.031 A 
ATOM     93  C   UNL A   1      34.844  35.517  31.906  1.00  0.00     0.131 A 
ATOM     94  C   UNL A   1      34.088  34.113  29.652  1.00  0.00     0.055 A 
ATOM     95  C   UNL A   1      33.591  35.748  31.345  1.00  0.00     0.041 A 
ATOM     96  F   UNL A   1      35.194  36.255  32.973  1.00  0.00    -0.206 F 
ATOM     97  C   UNL A   1      33.214  35.056  30.200  1.00  0.00     0.022 A 
BRANCH  94  98
ATOM     98  S   UNL A   1      33.729  33.368  28.040  1.00  0.00     0.124 S 
ATOM     99  O   UNL A   1      32.361  33.815  27.800  1.00  0.00    -0.237 OA
ATOM    100  O   UNL A   1      34.753  33.960  27.186  1.00  0.00    -0.237 OA
ATOM    101  O   UNL A   1      33.879  31.935  28.287  1.00  0.00    -0.744 OA
ENDBRANCH  94  98
ENDBRANCH  68  91
ENDBRANCH  42  43
ENDBRANCH  35  37
ENDBRANCH  34  35
ENDBRANCH  33  34
ENDBRANCH  32  33
ENDBRANCH  31  32
ENDBRANCH  30  31
ENDBRANCH   1  30
TORSDOF 23
ENDMDL
