MODEL 1
REMARK VINA RESULT:      -9.3      0.000      0.000
REMARK SMILES CCCSc1nc2n(n1)[C@@H](c1ccccc1C(=O)OCCOCCOC(=O)c1ccc(-c3c4nc(c(-c5cc(S(=O)(=O)[O-])ccc5F)c5ccc([nH]5)c(-c5cc(S(=O)(=O)[O-])ccc5F)c5nc(c(-c6cc(S(=O)(=O)[O-])ccc6F)c6ccc3[nH]6)C=C5)C=C4)cc1)C(C(=O)Nc1cccc(C)c1C)=C(C)N2
REMARK SMILES IDX 21 1 20 2 19 3 17 4 18 5 16 6 11 7 12 8 13 9 15 10 14 11
REMARK SMILES IDX 10 12 5 13 6 14 9 15 7 16 8 17 105 18 103 19 91 21 104 22
REMARK SMILES IDX 4 23 3 24 2 25 1 26 92 27 93 28 94 29 95 31 96 32 101 33
REMARK SMILES IDX 97 34 99 35 102 36 98 37 100 38 22 39 23 40 24 41 25 42
REMARK SMILES IDX 26 43 27 44 28 45 29 46 90 47 30 48 89 49 31 50 32 51 33 52
REMARK SMILES IDX 83 53 34 54 88 55 82 56 84 57 35 58 87 59 81 60 80 61 36 63
REMARK SMILES IDX 68 64 48 65 67 66 49 67 52 68 66 69 85 70 50 71 51 72 65 74
REMARK SMILES IDX 86 75 53 76 37 77 38 78 46 79 39 80 45 81 47 82 44 83 40 84
REMARK SMILES IDX 41 85 42 86 43 87 69 88 70 89 78 90 71 91 77 92 79 93 76 94
REMARK SMILES IDX 72 95 73 96 74 97 75 98 54 99 55 100 63 101 56 102 62 103
REMARK SMILES IDX 64 104 61 105 57 106 58 107 59 108 60 109
REMARK H PARENT 105 20 94 30 84 62 52 73
REMARK Flexibility Score: inf
ROOT
ATOM      1  C   UNL A   1      44.519  24.282  31.146  1.00  0.00     0.202 C 
ENDROOT
BRANCH   1   2
ATOM      2  C   UNL A   1      44.143  23.689  32.509  1.00  0.00     0.261 C 
BRANCH   2   3
ATOM      3  O   UNL A   1      45.169  23.015  33.262  1.00  0.00    -0.460 OA
BRANCH   3   4
ATOM      4  C   UNL A   1      44.745  22.588  34.476  1.00  0.00     0.338 C 
ATOM      5  O   UNL A   1      43.698  22.934  35.011  1.00  0.00    -0.246 OA
BRANCH   4   6
ATOM      6  C   UNL A   1      45.638  21.586  35.117  1.00  0.00     0.065 A 
ATOM      7  C   UNL A   1      46.826  21.850  35.847  1.00  0.00    -0.004 A 
ATOM      8  C   UNL A   1      47.362  20.763  36.585  1.00  0.00     0.007 A 
ATOM      9  C   UNL A   1      46.796  19.485  36.571  1.00  0.00     0.000 A 
ATOM     10  C   UNL A   1      45.076  20.289  35.120  1.00  0.00     0.016 A 
ATOM     11  C   UNL A   1      45.652  19.246  35.834  1.00  0.00     0.001 A 
BRANCH   7  12
ATOM     12  C   UNL A   1      47.465  23.252  35.998  1.00  0.00     0.180 C 
ATOM     13  C   UNL A   1      50.617  22.882  34.411  1.00  0.00     0.210 A 
ATOM     14  N   UNL A   1      51.056  23.128  35.687  1.00  0.00    -0.185 NA
ATOM     15  N   UNL A   1      49.288  23.001  34.231  1.00  0.00    -0.141 NA
ATOM     16  C   UNL A   1      49.958  23.348  36.348  1.00  0.00     0.227 A 
ATOM     17  N   UNL A   1      48.875  23.265  35.505  1.00  0.00    -0.218 N 
ATOM     18  N   UNL A   1      49.781  23.555  37.660  1.00  0.00    -0.328 N 
ATOM     19  C   UNL A   1      48.542  23.751  38.238  1.00  0.00     0.026 C 
ATOM     20  H   UNL A   1      50.575  23.570  38.242  1.00  0.00     0.169 HD
ATOM     21  C   UNL A   1      47.431  23.714  37.465  1.00  0.00     0.065 C 
ATOM     22  C   UNL A   1      48.553  23.969  39.729  1.00  0.00     0.065 C 
BRANCH  13  23
ATOM     23  S   UNL A   1      51.812  22.400  33.238  1.00  0.00    -0.084 SA
BRANCH  23  24
ATOM     24  C   UNL A   1      51.753  20.602  33.102  1.00  0.00     0.078 C 
BRANCH  24  25
ATOM     25  C   UNL A   1      52.520  19.843  34.185  1.00  0.00     0.008 C 
ATOM     26  C   UNL A   1      53.541  18.871  33.626  1.00  0.00     0.005 C 
ENDBRANCH  24  25
ENDBRANCH  23  24
ENDBRANCH  13  23
BRANCH  21  27
ATOM     27  C   UNL A   1      46.118  23.979  38.072  1.00  0.00     0.255 C 
ATOM     28  O   UNL A   1      45.547  23.099  38.707  1.00  0.00    -0.269 OA
ATOM     29  N   UNL A   1      45.541  25.221  37.928  1.00  0.00    -0.322 N 
ATOM     30  H   UNL A   1      44.711  25.327  37.409  1.00  0.00     0.170 HD
BRANCH  29  31
ATOM     31  C   UNL A   1      46.155  26.345  38.531  1.00  0.00     0.044 A 
ATOM     32  C   UNL A   1      45.911  26.488  39.906  1.00  0.00     0.026 A 
ATOM     33  C   UNL A   1      47.082  27.167  37.871  1.00  0.00    -0.025 A 
ATOM     34  C   UNL A   1      46.699  27.338  40.667  1.00  0.00     0.002 A 
ATOM     35  C   UNL A   1      47.935  27.967  38.664  1.00  0.00    -0.046 A 
ATOM     36  C   UNL A   1      47.148  27.223  36.368  1.00  0.00     0.047 C 
ATOM     37  C   UNL A   1      47.733  28.037  40.055  1.00  0.00     0.004 A 
ATOM     38  C   UNL A   1      49.131  28.690  38.104  1.00  0.00     0.044 C 
ENDBRANCH  29  31
ENDBRANCH  21  27
ENDBRANCH   7  12
ENDBRANCH   4   6
ENDBRANCH   3   4
ENDBRANCH   2   3
ENDBRANCH   1   2
BRANCH   1  39
ATOM     39  O   UNL A   1      44.301  23.575  29.935  1.00  0.00    -0.374 OA
BRANCH  39  40
ATOM     40  C   UNL A   1      43.827  24.211  28.756  1.00  0.00     0.202 C 
BRANCH  40  41
ATOM     41  C   UNL A   1      42.840  25.370  28.836  1.00  0.00     0.261 C 
BRANCH  41  42
ATOM     42  O   UNL A   1      42.479  25.860  27.558  1.00  0.00    -0.460 OA
BRANCH  42  43
ATOM     43  C   UNL A   1      41.328  25.334  27.099  1.00  0.00     0.338 C 
ATOM     44  O   UNL A   1      41.202  24.289  26.459  1.00  0.00    -0.246 OA
BRANCH  43  45
ATOM     45  C   UNL A   1      40.213  26.234  27.405  1.00  0.00     0.060 A 
ATOM     46  C   UNL A   1      40.401  27.528  26.923  1.00  0.00     0.016 A 
ATOM     47  C   UNL A   1      39.409  25.950  28.520  1.00  0.00     0.016 A 
ATOM     48  C   UNL A   1      40.159  28.551  27.798  1.00  0.00     0.010 A 
ATOM     49  C   UNL A   1      39.155  26.980  29.390  1.00  0.00     0.010 A 
ATOM     50  C   UNL A   1      39.671  28.232  29.071  1.00  0.00    -0.014 A 
BRANCH  50  51
ATOM     51  C   UNL A   1      39.793  29.263  30.073  1.00  0.00     0.031 A 
ATOM     52  C   UNL A   1      38.588  30.090  30.211  1.00  0.00     0.074 A 
ATOM     53  C   UNL A   1      40.901  29.430  30.816  1.00  0.00     0.049 A 
ATOM     54  N   UNL A   1      38.443  31.336  29.912  1.00  0.00    -0.248 NA
ATOM     55  C   UNL A   1      37.348  29.392  30.570  1.00  0.00     0.031 C 
ATOM     56  C   UNL A   1      42.051  28.532  30.950  1.00  0.00     0.029 A 
ATOM     57  N   UNL A   1      41.166  30.417  31.712  1.00  0.00    -0.354 N 
ATOM     58  C   UNL A   1      37.135  31.638  30.255  1.00  0.00     0.074 A 
ATOM     59  C   UNL A   1      36.465  30.381  30.461  1.00  0.00     0.031 C 
ATOM     60  C   UNL A   1      42.761  28.893  32.043  1.00  0.00     0.029 A 
ATOM     61  C   UNL A   1      42.188  30.111  32.596  1.00  0.00     0.049 A 
ATOM     62  H   UNL A   1      40.676  31.270  31.732  1.00  0.00     0.167 HD
ATOM     63  C   UNL A   1      36.766  32.903  30.584  1.00  0.00     0.034 A 
ATOM     64  C   UNL A   1      42.457  30.754  33.761  1.00  0.00     0.034 A 
ATOM     65  C   UNL A   1      37.707  33.880  30.090  1.00  0.00     0.049 A 
ATOM     66  C   UNL A   1      41.870  32.115  33.661  1.00  0.00     0.074 A 
ATOM     67  C   UNL A   1      38.183  34.214  28.836  1.00  0.00     0.029 A 
ATOM     68  N   UNL A   1      38.587  34.455  30.979  1.00  0.00    -0.354 N 
ATOM     69  N   UNL A   1      42.287  33.018  32.815  1.00  0.00    -0.248 NA
ATOM     70  C   UNL A   1      40.523  32.333  34.172  1.00  0.00     0.031 C 
ATOM     71  C   UNL A   1      39.558  34.539  29.032  1.00  0.00     0.029 A 
ATOM     72  C   UNL A   1      39.831  34.426  30.396  1.00  0.00     0.049 A 
ATOM     73  H   UNL A   1      38.366  34.819  31.867  1.00  0.00     0.167 HD
ATOM     74  C   UNL A   1      41.140  33.657  32.367  1.00  0.00     0.074 A 
ATOM     75  C   UNL A   1      40.101  33.274  33.320  1.00  0.00     0.031 C 
ATOM     76  C   UNL A   1      41.072  34.204  31.117  1.00  0.00     0.034 A 
BRANCH  63  77
ATOM     77  C   UNL A   1      35.734  33.209  31.637  1.00  0.00     0.023 A 
ATOM     78  C   UNL A   1      34.696  34.088  31.291  1.00  0.00     0.031 A 
ATOM     79  C   UNL A   1      35.859  32.909  33.016  1.00  0.00     0.131 A 
ATOM     80  C   UNL A   1      33.893  34.675  32.283  1.00  0.00     0.055 A 
ATOM     81  C   UNL A   1      35.007  33.431  33.988  1.00  0.00     0.041 A 
ATOM     82  F   UNL A   1      36.869  32.185  33.512  1.00  0.00    -0.206 F 
ATOM     83  C   UNL A   1      34.034  34.344  33.629  1.00  0.00     0.022 A 
BRANCH  80  84
ATOM     84  S   UNL A   1      32.792  36.028  31.804  1.00  0.00     0.124 S 
ATOM     85  O   UNL A   1      31.479  35.458  32.086  1.00  0.00    -0.237 OA
ATOM     86  O   UNL A   1      33.235  37.100  32.689  1.00  0.00    -0.237 OA
ATOM     87  O   UNL A   1      33.094  36.221  30.388  1.00  0.00    -0.744 OA
ENDBRANCH  80  84
ENDBRANCH  63  77
BRANCH  64  88
ATOM     88  C   UNL A   1      42.836  30.094  35.037  1.00  0.00     0.023 A 
ATOM     89  C   UNL A   1      42.321  28.843  35.426  1.00  0.00     0.031 A 
ATOM     90  C   UNL A   1      43.902  30.612  35.811  1.00  0.00     0.131 A 
ATOM     91  C   UNL A   1      42.857  28.176  36.552  1.00  0.00     0.055 A 
ATOM     92  C   UNL A   1      44.415  29.958  36.932  1.00  0.00     0.041 A 
ATOM     93  F   UNL A   1      44.542  31.738  35.456  1.00  0.00    -0.206 F 
ATOM     94  C   UNL A   1      43.896  28.730  37.304  1.00  0.00     0.022 A 
BRANCH  91  95
ATOM     95  S   UNL A   1      42.265  26.513  36.996  1.00  0.00     0.124 S 
ATOM     96  O   UNL A   1      40.819  26.664  36.901  1.00  0.00    -0.237 OA
ATOM     97  O   UNL A   1      42.898  25.676  35.983  1.00  0.00    -0.237 OA
ATOM     98  O   UNL A   1      42.777  26.321  38.354  1.00  0.00    -0.744 OA
ENDBRANCH  91  95
ENDBRANCH  64  88
BRANCH  76  99
ATOM     99  C   UNL A   1      42.358  34.352  30.330  1.00  0.00     0.023 A 
ATOM    100  C   UNL A   1      43.208  35.479  30.404  1.00  0.00     0.031 A 
ATOM    101  C   UNL A   1      42.802  33.250  29.579  1.00  0.00     0.131 A 
ATOM    102  C   UNL A   1      44.443  35.479  29.728  1.00  0.00     0.055 A 
ATOM    103  C   UNL A   1      44.035  33.245  28.927  1.00  0.00     0.041 A 
ATOM    104  F   UNL A   1      42.057  32.135  29.502  1.00  0.00    -0.206 F 
ATOM    105  C   UNL A   1      44.859  34.364  28.994  1.00  0.00     0.022 A 
BRANCH 102 106
ATOM    106  S   UNL A   1      45.534  36.936  29.799  1.00  0.00     0.124 S 
ATOM    107  O   UNL A   1      46.105  36.999  28.459  1.00  0.00    -0.237 OA
ATOM    108  O   UNL A   1      44.606  38.007  30.152  1.00  0.00    -0.237 OA
ATOM    109  O   UNL A   1      46.492  36.593  30.853  1.00  0.00    -0.744 OA
ENDBRANCH 102 106
ENDBRANCH  76  99
ENDBRANCH  50  51
ENDBRANCH  43  45
ENDBRANCH  42  43
ENDBRANCH  41  42
ENDBRANCH  40  41
ENDBRANCH  39  40
ENDBRANCH   1  39
TORSDOF 23
ENDMDL
MODEL 2
REMARK VINA RESULT:      -8.9      4.967     13.113
REMARK SMILES CCCSc1nc2n(n1)[C@@H](c1ccccc1C(=O)OCCOCCOC(=O)c1ccc(-c3c4nc(c(-c5cc(S(=O)(=O)[O-])ccc5F)c5ccc([nH]5)c(-c5cc(S(=O)(=O)[O-])ccc5F)c5nc(c(-c6cc(S(=O)(=O)[O-])ccc6F)c6ccc3[nH]6)C=C5)C=C4)cc1)C(C(=O)Nc1cccc(C)c1C)=C(C)N2
REMARK SMILES IDX 21 1 20 2 19 3 17 4 18 5 16 6 11 7 12 8 13 9 15 10 14 11
REMARK SMILES IDX 10 12 5 13 6 14 9 15 7 16 8 17 105 18 103 19 91 21 104 22
REMARK SMILES IDX 4 23 3 24 2 25 1 26 92 27 93 28 94 29 95 31 96 32 101 33
REMARK SMILES IDX 97 34 99 35 102 36 98 37 100 38 22 39 23 40 24 41 25 42
REMARK SMILES IDX 26 43 27 44 28 45 29 46 90 47 30 48 89 49 31 50 32 51 33 52
REMARK SMILES IDX 83 53 34 54 88 55 82 56 84 57 35 58 87 59 81 60 80 61 36 63
REMARK SMILES IDX 68 64 48 65 67 66 49 67 52 68 66 69 85 70 50 71 51 72 65 74
REMARK SMILES IDX 86 75 53 76 37 77 38 78 46 79 39 80 45 81 47 82 44 83 40 84
REMARK SMILES IDX 41 85 42 86 43 87 69 88 70 89 78 90 71 91 77 92 79 93 76 94
REMARK SMILES IDX 72 95 73 96 74 97 75 98 54 99 55 100 63 101 56 102 62 103
REMARK SMILES IDX 64 104 61 105 57 106 58 107 59 108 60 109
REMARK H PARENT 105 20 94 30 84 62 52 73
REMARK Flexibility Score: inf
ROOT
ATOM      1  C   UNL A   1      39.876  27.821  27.787  1.00  0.00     0.202 C 
ENDROOT
BRANCH   1   2
ATOM      2  C   UNL A   1      39.347  28.262  29.157  1.00  0.00     0.261 C 
BRANCH   2   3
ATOM      3  O   UNL A   1      40.294  28.763  30.120  1.00  0.00    -0.460 OA
BRANCH   3   4
ATOM      4  C   UNL A   1      39.709  29.433  31.142  1.00  0.00     0.338 C 
ATOM      5  O   UNL A   1      39.320  28.917  32.183  1.00  0.00    -0.246 OA
BRANCH   4   6
ATOM      6  C   UNL A   1      39.618  30.904  30.936  1.00  0.00     0.065 A 
ATOM      7  C   UNL A   1      38.558  31.755  31.340  1.00  0.00    -0.004 A 
ATOM      8  C   UNL A   1      38.813  33.149  31.272  1.00  0.00     0.007 A 
ATOM      9  C   UNL A   1      40.015  33.676  30.791  1.00  0.00     0.000 A 
ATOM     10  C   UNL A   1      40.830  31.455  30.459  1.00  0.00     0.016 A 
ATOM     11  C   UNL A   1      41.025  32.827  30.380  1.00  0.00     0.001 A 
BRANCH   7  12
ATOM     12  C   UNL A   1      37.235  31.261  31.974  1.00  0.00     0.180 C 
ATOM     13  C   UNL A   1      34.786  32.225  29.594  1.00  0.00     0.210 A 
ATOM     14  N   UNL A   1      34.377  33.011  30.642  1.00  0.00    -0.185 NA
ATOM     15  N   UNL A   1      35.780  31.364  29.880  1.00  0.00    -0.141 NA
ATOM     16  C   UNL A   1      35.184  32.677  31.605  1.00  0.00     0.227 A 
ATOM     17  N   UNL A   1      36.050  31.700  31.176  1.00  0.00    -0.218 N 
ATOM     18  N   UNL A   1      35.298  33.192  32.837  1.00  0.00    -0.328 N 
ATOM     19  C   UNL A   1      36.229  32.754  33.759  1.00  0.00     0.026 C 
ATOM     20  H   UNL A   1      34.687  33.918  33.099  1.00  0.00     0.169 HD
ATOM     21  C   UNL A   1      37.096  31.772  33.418  1.00  0.00     0.065 C 
ATOM     22  C   UNL A   1      36.197  33.460  35.090  1.00  0.00     0.065 C 
BRANCH  13  23
ATOM     23  S   UNL A   1      34.017  32.490  28.053  1.00  0.00    -0.084 SA
BRANCH  23  24
ATOM     24  C   UNL A   1      33.503  30.884  27.414  1.00  0.00     0.078 C 
BRANCH  24  25
ATOM     25  C   UNL A   1      32.100  30.844  26.807  1.00  0.00     0.008 C 
ATOM     26  C   UNL A   1      31.937  29.774  25.744  1.00  0.00     0.005 C 
ENDBRANCH  24  25
ENDBRANCH  23  24
ENDBRANCH  13  23
BRANCH  21  27
ATOM     27  C   UNL A   1      38.048  31.268  34.420  1.00  0.00     0.255 C 
ATOM     28  O   UNL A   1      38.183  30.060  34.585  1.00  0.00    -0.269 OA
ATOM     29  N   UNL A   1      38.787  32.160  35.164  1.00  0.00    -0.322 N 
ATOM     30  H   UNL A   1      38.648  32.234  36.135  1.00  0.00     0.170 HD
BRANCH  29  31
ATOM     31  C   UNL A   1      39.750  32.972  34.516  1.00  0.00     0.044 A 
ATOM     32  C   UNL A   1      39.392  34.321  34.376  1.00  0.00     0.026 A 
ATOM     33  C   UNL A   1      41.042  32.529  34.191  1.00  0.00    -0.025 A 
ATOM     34  C   UNL A   1      40.355  35.268  34.064  1.00  0.00     0.002 A 
ATOM     35  C   UNL A   1      42.034  33.506  33.956  1.00  0.00    -0.046 A 
ATOM     36  C   UNL A   1      41.357  31.062  34.063  1.00  0.00     0.047 C 
ATOM     37  C   UNL A   1      41.676  34.866  33.900  1.00  0.00     0.004 A 
ATOM     38  C   UNL A   1      43.500  33.175  33.852  1.00  0.00     0.044 C 
ENDBRANCH  29  31
ENDBRANCH  21  27
ENDBRANCH   7  12
ENDBRANCH   4   6
ENDBRANCH   3   4
ENDBRANCH   2   3
ENDBRANCH   1   2
BRANCH   1  39
ATOM     39  O   UNL A   1      39.815  26.469  27.359  1.00  0.00    -0.374 OA
BRANCH  39  40
ATOM     40  C   UNL A   1      40.206  25.387  28.193  1.00  0.00     0.202 C 
BRANCH  40  41
ATOM     41  C   UNL A   1      40.427  23.994  27.615  1.00  0.00     0.261 C 
BRANCH  41  42
ATOM     42  O   UNL A   1      41.798  23.708  27.410  1.00  0.00    -0.460 OA
BRANCH  42  43
ATOM     43  C   UNL A   1      42.027  23.011  26.281  1.00  0.00     0.338 C 
ATOM     44  O   UNL A   1      41.428  22.000  25.909  1.00  0.00    -0.246 OA
BRANCH  43  45
ATOM     45  C   UNL A   1      43.168  23.585  25.564  1.00  0.00     0.060 A 
ATOM     46  C   UNL A   1      44.399  23.129  26.033  1.00  0.00     0.016 A 
ATOM     47  C   UNL A   1      43.009  24.831  24.940  1.00  0.00     0.016 A 
ATOM     48  C   UNL A   1      45.352  24.079  26.278  1.00  0.00     0.010 A 
ATOM     49  C   UNL A   1      43.973  25.780  25.175  1.00  0.00     0.010 A 
ATOM     50  C   UNL A   1      45.055  25.412  25.969  1.00  0.00    -0.014 A 
BRANCH  50  51
ATOM     51  C   UNL A   1      45.900  26.408  26.582  1.00  0.00     0.031 A 
ATOM     52  C   UNL A   1      47.319  26.267  26.231  1.00  0.00     0.074 A 
ATOM     53  C   UNL A   1      45.422  27.379  27.380  1.00  0.00     0.049 A 
ATOM     54  N   UNL A   1      48.297  25.934  27.002  1.00  0.00    -0.248 NA
ATOM     55  C   UNL A   1      47.655  26.345  24.805  1.00  0.00     0.031 C 
ATOM     56  C   UNL A   1      44.028  27.773  27.599  1.00  0.00     0.029 A 
ATOM     57  N   UNL A   1      46.126  28.304  28.084  1.00  0.00    -0.354 N 
ATOM     58  C   UNL A   1      49.422  25.973  26.196  1.00  0.00     0.074 A 
ATOM     59  C   UNL A   1      48.949  26.033  24.837  1.00  0.00     0.031 C 
ATOM     60  C   UNL A   1      44.007  28.995  28.179  1.00  0.00     0.029 A 
ATOM     61  C   UNL A   1      45.372  29.397  28.482  1.00  0.00     0.049 A 
ATOM     62  H   UNL A   1      47.083  28.207  28.292  1.00  0.00     0.167 HD
ATOM     63  C   UNL A   1      50.656  26.201  26.715  1.00  0.00     0.034 A 
ATOM     64  C   UNL A   1      45.858  30.587  28.917  1.00  0.00     0.034 A 
ATOM     65  C   UNL A   1      50.700  25.924  28.130  1.00  0.00     0.049 A 
ATOM     66  C   UNL A   1      47.238  30.348  29.411  1.00  0.00     0.074 A 
ATOM     67  C   UNL A   1      50.447  24.805  28.902  1.00  0.00     0.029 A 
ATOM     68  N   UNL A   1      50.697  26.983  29.010  1.00  0.00    -0.354 N 
ATOM     69  N   UNL A   1      47.512  29.610  30.453  1.00  0.00    -0.248 NA
ATOM     70  C   UNL A   1      48.352  30.543  28.492  1.00  0.00     0.031 C 
ATOM     71  C   UNL A   1      49.831  25.301  30.089  1.00  0.00     0.029 A 
ATOM     72  C   UNL A   1      49.780  26.693  29.992  1.00  0.00     0.049 A 
ATOM     73  H   UNL A   1      51.248  27.796  28.947  1.00  0.00     0.167 HD
ATOM     74  C   UNL A   1      48.663  28.912  30.114  1.00  0.00     0.074 A 
ATOM     75  C   UNL A   1      49.196  29.612  28.948  1.00  0.00     0.031 C 
ATOM     76  C   UNL A   1      48.922  27.675  30.631  1.00  0.00     0.034 A 
BRANCH  63  77
ATOM     77  C   UNL A   1      51.714  26.994  25.995  1.00  0.00     0.023 A 
ATOM     78  C   UNL A   1      51.614  28.394  26.034  1.00  0.00     0.031 A 
ATOM     79  C   UNL A   1      52.641  26.465  25.064  1.00  0.00     0.131 A 
ATOM     80  C   UNL A   1      52.350  29.190  25.141  1.00  0.00     0.055 A 
ATOM     81  C   UNL A   1      53.430  27.264  24.236  1.00  0.00     0.041 A 
ATOM     82  F   UNL A   1      52.763  25.153  24.828  1.00  0.00    -0.206 F 
ATOM     83  C   UNL A   1      53.265  28.636  24.250  1.00  0.00     0.022 A 
BRANCH  80  84
ATOM     84  S   UNL A   1      51.943  30.950  25.029  1.00  0.00     0.124 S 
ATOM     85  O   UNL A   1      51.618  31.092  23.614  1.00  0.00    -0.237 OA
ATOM     86  O   UNL A   1      50.826  31.056  25.962  1.00  0.00    -0.237 OA
ATOM     87  O   UNL A   1      53.177  31.607  25.453  1.00  0.00    -0.744 OA
ENDBRANCH  80  84
ENDBRANCH  63  77
BRANCH  64  88
ATOM     88  C   UNL A   1      45.317  31.920  28.546  1.00  0.00     0.023 A 
ATOM     89  C   UNL A   1      45.219  32.355  27.212  1.00  0.00     0.031 A 
ATOM     90  C   UNL A   1      44.679  32.721  29.526  1.00  0.00     0.131 A 
ATOM     91  C   UNL A   1      44.524  33.548  26.905  1.00  0.00     0.055 A 
ATOM     92  C   UNL A   1      44.010  33.906  29.219  1.00  0.00     0.041 A 
ATOM     93  F   UNL A   1      44.611  32.334  30.810  1.00  0.00    -0.206 F 
ATOM     94  C   UNL A   1      43.925  34.322  27.902  1.00  0.00     0.022 A 
BRANCH  91  95
ATOM     95  S   UNL A   1      44.306  34.059  25.172  1.00  0.00     0.124 S 
ATOM     96  O   UNL A   1      43.147  34.939  25.252  1.00  0.00    -0.237 OA
ATOM     97  O   UNL A   1      45.584  34.695  24.872  1.00  0.00    -0.237 OA
ATOM     98  O   UNL A   1      44.073  32.796  24.471  1.00  0.00    -0.744 OA
ENDBRANCH  91  95
ENDBRANCH  64  88
BRANCH  76  99
ATOM     99  C   UNL A   1      48.079  27.194  31.795  1.00  0.00     0.023 A 
ATOM    100  C   UNL A   1      46.797  26.616  31.659  1.00  0.00     0.031 A 
ATOM    101  C   UNL A   1      48.658  27.201  33.076  1.00  0.00     0.131 A 
ATOM    102  C   UNL A   1      46.137  26.087  32.785  1.00  0.00     0.055 A 
ATOM    103  C   UNL A   1      48.010  26.660  34.186  1.00  0.00     0.041 A 
ATOM    104  F   UNL A   1      49.890  27.702  33.263  1.00  0.00    -0.206 F 
ATOM    105  C   UNL A   1      46.742  26.105  34.045  1.00  0.00     0.022 A 
BRANCH 102 106
ATOM    106  S   UNL A   1      44.473  25.361  32.623  1.00  0.00     0.124 S 
ATOM    107  O   UNL A   1      43.834  25.691  33.892  1.00  0.00    -0.237 OA
ATOM    108  O   UNL A   1      43.947  26.042  31.443  1.00  0.00    -0.237 OA
ATOM    109  O   UNL A   1      44.742  23.934  32.430  1.00  0.00    -0.744 OA
ENDBRANCH 102 106
ENDBRANCH  76  99
ENDBRANCH  50  51
ENDBRANCH  43  45
ENDBRANCH  42  43
ENDBRANCH  41  42
ENDBRANCH  40  41
ENDBRANCH  39  40
ENDBRANCH   1  39
TORSDOF 23
ENDMDL
MODEL 3
REMARK VINA RESULT:      -8.9      4.072     11.828
REMARK SMILES CCCSc1nc2n(n1)[C@@H](c1ccccc1C(=O)OCCOCCOC(=O)c1ccc(-c3c4nc(c(-c5cc(S(=O)(=O)[O-])ccc5F)c5ccc([nH]5)c(-c5cc(S(=O)(=O)[O-])ccc5F)c5nc(c(-c6cc(S(=O)(=O)[O-])ccc6F)c6ccc3[nH]6)C=C5)C=C4)cc1)C(C(=O)Nc1cccc(C)c1C)=C(C)N2
REMARK SMILES IDX 21 1 20 2 19 3 17 4 18 5 16 6 11 7 12 8 13 9 15 10 14 11
REMARK SMILES IDX 10 12 5 13 6 14 9 15 7 16 8 17 105 18 103 19 91 21 104 22
REMARK SMILES IDX 4 23 3 24 2 25 1 26 92 27 93 28 94 29 95 31 96 32 101 33
REMARK SMILES IDX 97 34 99 35 102 36 98 37 100 38 22 39 23 40 24 41 25 42
REMARK SMILES IDX 26 43 27 44 28 45 29 46 90 47 30 48 89 49 31 50 32 51 33 52
REMARK SMILES IDX 83 53 34 54 88 55 82 56 84 57 35 58 87 59 81 60 80 61 36 63
REMARK SMILES IDX 68 64 48 65 67 66 49 67 52 68 66 69 85 70 50 71 51 72 65 74
REMARK SMILES IDX 86 75 53 76 37 77 38 78 46 79 39 80 45 81 47 82 44 83 40 84
REMARK SMILES IDX 41 85 42 86 43 87 69 88 70 89 78 90 71 91 77 92 79 93 76 94
REMARK SMILES IDX 72 95 73 96 74 97 75 98 54 99 55 100 63 101 56 102 62 103
REMARK SMILES IDX 64 104 61 105 57 106 58 107 59 108 60 109
REMARK H PARENT 105 20 94 30 84 62 52 73
REMARK Flexibility Score: inf
ROOT
ATOM      1  C   UNL A   1      45.142  31.450  36.439  1.00  0.00     0.202 C 
ENDROOT
BRANCH   1   2
ATOM      2  C   UNL A   1      44.056  32.380  36.992  1.00  0.00     0.261 C 
BRANCH   2   3
ATOM      3  O   UNL A   1      43.108  32.942  36.064  1.00  0.00    -0.460 OA
BRANCH   3   4
ATOM      4  C   UNL A   1      41.824  32.827  36.481  1.00  0.00     0.338 C 
ATOM      5  O   UNL A   1      41.349  33.410  37.449  1.00  0.00    -0.246 OA
BRANCH   4   6
ATOM      6  C   UNL A   1      40.977  31.959  35.619  1.00  0.00     0.065 A 
ATOM      7  C   UNL A   1      40.435  32.291  34.351  1.00  0.00    -0.004 A 
ATOM      8  C   UNL A   1      39.886  31.216  33.604  1.00  0.00     0.007 A 
ATOM      9  C   UNL A   1      39.829  29.907  34.091  1.00  0.00     0.000 A 
ATOM     10  C   UNL A   1      40.916  30.628  36.092  1.00  0.00     0.016 A 
ATOM     11  C   UNL A   1      40.342  29.612  35.340  1.00  0.00     0.001 A 
BRANCH   7  12
ATOM     12  C   UNL A   1      40.542  33.688  33.693  1.00  0.00     0.180 C 
ATOM     13  C   UNL A   1      37.153  34.685  33.354  1.00  0.00     0.210 A 
ATOM     14  N   UNL A   1      37.484  34.620  32.024  1.00  0.00    -0.185 NA
ATOM     15  N   UNL A   1      38.178  34.501  34.207  1.00  0.00    -0.141 NA
ATOM     16  C   UNL A   1      38.750  34.322  32.040  1.00  0.00     0.227 A 
ATOM     17  N   UNL A   1      39.195  34.228  33.338  1.00  0.00    -0.218 N 
ATOM     18  N   UNL A   1      39.573  34.047  31.019  1.00  0.00    -0.328 N 
ATOM     19  C   UNL A   1      40.903  33.716  31.184  1.00  0.00     0.026 C 
ATOM     20  H   UNL A   1      39.211  34.085  30.104  1.00  0.00     0.169 HD
ATOM     21  C   UNL A   1      41.421  33.634  32.432  1.00  0.00     0.065 C 
ATOM     22  C   UNL A   1      41.662  33.444  29.911  1.00  0.00     0.065 C 
BRANCH  13  23
ATOM     23  S   UNL A   1      35.474  34.934  33.745  1.00  0.00    -0.084 SA
BRANCH  23  24
ATOM     24  C   UNL A   1      34.777  36.032  32.496  1.00  0.00     0.078 C 
BRANCH  24  25
ATOM     25  C   UNL A   1      33.528  35.503  31.789  1.00  0.00     0.008 C 
ATOM     26  C   UNL A   1      32.320  36.404  31.951  1.00  0.00     0.005 C 
ENDBRANCH  24  25
ENDBRANCH  23  24
ENDBRANCH  13  23
BRANCH  21  27
ATOM     27  C   UNL A   1      42.852  33.337  32.604  1.00  0.00     0.255 C 
ATOM     28  O   UNL A   1      43.345  32.357  32.055  1.00  0.00    -0.269 OA
ATOM     29  N   UNL A   1      43.630  34.169  33.377  1.00  0.00    -0.322 N 
ATOM     30  H   UNL A   1      44.023  33.842  34.218  1.00  0.00     0.170 HD
BRANCH  29  31
ATOM     31  C   UNL A   1      43.859  35.499  32.950  1.00  0.00     0.044 A 
ATOM     32  C   UNL A   1      44.009  35.661  31.564  1.00  0.00     0.026 A 
ATOM     33  C   UNL A   1      43.771  36.611  33.803  1.00  0.00    -0.025 A 
ATOM     34  C   UNL A   1      43.912  36.922  30.997  1.00  0.00     0.002 A 
ATOM     35  C   UNL A   1      43.590  37.881  33.213  1.00  0.00    -0.046 A 
ATOM     36  C   UNL A   1      43.897  36.464  35.296  1.00  0.00     0.047 C 
ATOM     37  C   UNL A   1      43.659  38.018  31.814  1.00  0.00     0.004 A 
ATOM     38  C   UNL A   1      43.227  39.108  34.008  1.00  0.00     0.044 C 
ENDBRANCH  29  31
ENDBRANCH  21  27
ENDBRANCH   7  12
ENDBRANCH   4   6
ENDBRANCH   3   4
ENDBRANCH   2   3
ENDBRANCH   1   2
BRANCH   1  39
ATOM     39  O   UNL A   1      44.844  30.418  35.511  1.00  0.00    -0.374 OA
BRANCH  39  40
ATOM     40  C   UNL A   1      45.221  29.065  35.728  1.00  0.00     0.202 C 
BRANCH  40  41
ATOM     41  C   UNL A   1      44.904  28.368  37.046  1.00  0.00     0.261 C 
BRANCH  41  42
ATOM     42  O   UNL A   1      44.786  26.965  36.898  1.00  0.00    -0.460 OA
BRANCH  42  43
ATOM     43  C   UNL A   1      45.976  26.347  36.776  1.00  0.00     0.338 C 
ATOM     44  O   UNL A   1      46.965  26.511  37.494  1.00  0.00    -0.246 OA
BRANCH  43  45
ATOM     45  C   UNL A   1      45.970  25.481  35.595  1.00  0.00     0.060 A 
ATOM     46  C   UNL A   1      46.850  25.901  34.599  1.00  0.00     0.016 A 
ATOM     47  C   UNL A   1      44.816  24.732  35.319  1.00  0.00     0.016 A 
ATOM     48  C   UNL A   1      46.354  25.960  33.325  1.00  0.00     0.010 A 
ATOM     49  C   UNL A   1      44.327  24.780  34.038  1.00  0.00     0.010 A 
ATOM     50  C   UNL A   1      45.042  25.524  33.105  1.00  0.00    -0.014 A 
BRANCH  50  51
ATOM     51  C   UNL A   1      44.432  25.948  31.868  1.00  0.00     0.031 A 
ATOM     52  C   UNL A   1      44.609  24.990  30.770  1.00  0.00     0.074 A 
ATOM     53  C   UNL A   1      43.755  27.103  31.748  1.00  0.00     0.049 A 
ATOM     54  N   UNL A   1      45.305  25.135  29.695  1.00  0.00    -0.248 NA
ATOM     55  C   UNL A   1      44.075  23.640  30.983  1.00  0.00     0.031 C 
ATOM     56  C   UNL A   1      43.300  28.006  32.808  1.00  0.00     0.029 A 
ATOM     57  N   UNL A   1      43.227  27.649  30.621  1.00  0.00    -0.354 N 
ATOM     58  C   UNL A   1      45.118  23.962  28.983  1.00  0.00     0.074 A 
ATOM     59  C   UNL A   1      44.529  23.018  29.897  1.00  0.00     0.031 C 
ATOM     60  C   UNL A   1      42.367  28.842  32.299  1.00  0.00     0.029 A 
ATOM     61  C   UNL A   1      42.262  28.614  30.866  1.00  0.00     0.049 A 
ATOM     62  H   UNL A   1      43.503  27.384  29.715  1.00  0.00     0.167 HD
ATOM     63  C   UNL A   1      45.235  23.930  27.630  1.00  0.00     0.034 A 
ATOM     64  C   UNL A   1      41.367  29.096  29.966  1.00  0.00     0.034 A 
ATOM     65  C   UNL A   1      45.996  25.051  27.133  1.00  0.00     0.049 A 
ATOM     66  C   UNL A   1      41.927  28.853  28.611  1.00  0.00     0.074 A 
ATOM     67  C   UNL A   1      47.276  25.523  27.355  1.00  0.00     0.029 A 
ATOM     68  N   UNL A   1      45.321  26.092  26.537  1.00  0.00    -0.354 N 
ATOM     69  N   UNL A   1      43.011  29.429  28.166  1.00  0.00    -0.248 NA
ATOM     70  C   UNL A   1      41.555  27.630  27.912  1.00  0.00     0.031 C 
ATOM     71  C   UNL A   1      47.159  26.944  27.335  1.00  0.00     0.029 A 
ATOM     72  C   UNL A   1      45.827  27.258  27.061  1.00  0.00     0.049 A 
ATOM     73  H   UNL A   1      44.610  26.016  25.861  1.00  0.00     0.167 HD
ATOM     74  C   UNL A   1      43.676  28.448  27.445  1.00  0.00     0.074 A 
ATOM     75  C   UNL A   1      42.680  27.402  27.227  1.00  0.00     0.031 C 
ATOM     76  C   UNL A   1      45.038  28.445  27.336  1.00  0.00     0.034 A 
BRANCH  63  77
ATOM     77  C   UNL A   1      44.371  23.064  26.753  1.00  0.00     0.023 A 
ATOM     78  C   UNL A   1      42.991  23.057  27.006  1.00  0.00     0.031 A 
ATOM     79  C   UNL A   1      44.846  22.055  25.878  1.00  0.00     0.131 A 
ATOM     80  C   UNL A   1      42.168  22.054  26.466  1.00  0.00     0.055 A 
ATOM     81  C   UNL A   1      44.011  21.112  25.280  1.00  0.00     0.041 A 
ATOM     82  F   UNL A   1      46.148  21.860  25.635  1.00  0.00    -0.206 F 
ATOM     83  C   UNL A   1      42.666  21.088  25.596  1.00  0.00     0.022 A 
BRANCH  80  84
ATOM     84  S   UNL A   1      40.471  21.918  27.079  1.00  0.00     0.124 S 
ATOM     85  O   UNL A   1      40.345  23.130  27.881  1.00  0.00    -0.237 OA
ATOM     86  O   UNL A   1      39.708  21.886  25.835  1.00  0.00    -0.237 OA
ATOM     87  O   UNL A   1      40.486  20.670  27.836  1.00  0.00    -0.744 OA
ENDBRANCH  80  84
ENDBRANCH  63  77
BRANCH  64  88
ATOM     88  C   UNL A   1      39.935  29.373  30.246  1.00  0.00     0.023 A 
ATOM     89  C   UNL A   1      39.266  30.501  29.736  1.00  0.00     0.031 A 
ATOM     90  C   UNL A   1      39.134  28.386  30.871  1.00  0.00     0.131 A 
ATOM     91  C   UNL A   1      37.864  30.616  29.875  1.00  0.00     0.055 A 
ATOM     92  C   UNL A   1      37.753  28.513  31.021  1.00  0.00     0.041 A 
ATOM     93  F   UNL A   1      39.656  27.220  31.285  1.00  0.00    -0.206 F 
ATOM     94  C   UNL A   1      37.110  29.630  30.516  1.00  0.00     0.022 A 
BRANCH  91  95
ATOM     95  S   UNL A   1      36.983  32.021  29.126  1.00  0.00     0.124 S 
ATOM     96  O   UNL A   1      36.035  32.385  30.171  1.00  0.00    -0.237 OA
ATOM     97  O   UNL A   1      38.064  32.967  28.873  1.00  0.00    -0.237 OA
ATOM     98  O   UNL A   1      36.382  31.444  27.922  1.00  0.00    -0.744 OA
ENDBRANCH  91  95
ENDBRANCH  64  88
BRANCH  76  99
ATOM     99  C   UNL A   1      45.794  29.683  27.776  1.00  0.00     0.023 A 
ATOM    100  C   UNL A   1      45.946  30.843  26.983  1.00  0.00     0.031 A 
ATOM    101  C   UNL A   1      46.261  29.734  29.101  1.00  0.00     0.131 A 
ATOM    102  C   UNL A   1      46.561  31.990  27.519  1.00  0.00     0.055 A 
ATOM    103  C   UNL A   1      46.853  30.879  29.635  1.00  0.00     0.041 A 
ATOM    104  F   UNL A   1      46.111  28.677  29.916  1.00  0.00    -0.206 F 
ATOM    105  C   UNL A   1      47.010  32.011  28.843  1.00  0.00     0.022 A 
BRANCH 102 106
ATOM    106  S   UNL A   1      46.782  33.482  26.497  1.00  0.00     0.124 S 
ATOM    107  O   UNL A   1      46.587  34.575  27.443  1.00  0.00    -0.237 OA
ATOM    108  O   UNL A   1      48.139  33.313  25.983  1.00  0.00    -0.237 OA
ATOM    109  O   UNL A   1      45.731  33.360  25.484  1.00  0.00    -0.744 OA
ENDBRANCH 102 106
ENDBRANCH  76  99
ENDBRANCH  50  51
ENDBRANCH  43  45
ENDBRANCH  42  43
ENDBRANCH  41  42
ENDBRANCH  40  41
ENDBRANCH  39  40
ENDBRANCH   1  39
TORSDOF 23
ENDMDL
