MODEL 1
REMARK VINA RESULT:     -10.3      0.000      0.000
REMARK SMILES CC[C@@H]1CCCN1C(=O)N(CC(=O)OCCOCCOC(=O)c1ccc(-c2c3nc(c(-c4cc(S(=O)(=O)[O-])ccc4F)c4ccc([nH]4)c(-c4cc(S(=O)(=O)[O-])ccc4F)c4nc(c(-c5cc(S(=O)(=O)[O-])ccc5F)c5ccc2[nH]5)C=C4)C=C3)cc1)CC(F)(F)F
REMARK SMILES IDX 16 1 15 2 14 3 12 4 13 5 11 6 10 7 8 8 9 9 7 10 3 11 4 12
REMARK SMILES IDX 5 13 6 14 2 15 1 16 86 17 87 18 88 19 89 20 90 21 17 22
REMARK SMILES IDX 18 23 19 24 20 25 21 26 22 27 23 28 24 29 85 30 25 31 84 32
REMARK SMILES IDX 26 33 27 34 28 35 78 36 29 37 83 38 77 39 79 40 30 41 82 42
REMARK SMILES IDX 76 43 75 44 31 46 63 47 43 48 62 49 44 50 47 51 61 52 80 53
REMARK SMILES IDX 45 54 46 55 60 57 81 58 48 59 32 60 33 61 41 62 34 63 40 64
REMARK SMILES IDX 42 65 39 66 35 67 36 68 37 69 38 70 64 71 65 72 73 73 66 74
REMARK SMILES IDX 72 75 74 76 71 77 67 78 68 79 69 80 70 81 49 82 50 83 58 84
REMARK SMILES IDX 51 85 57 86 59 87 56 88 52 89 53 90 54 91 55 92
REMARK H PARENT 79 45 47 56
REMARK Flexibility Score: inf
ROOT
ATOM      1  C   UNL A   1      33.594  21.143  24.249  1.00  0.00     0.202 C 
ENDROOT
BRANCH   1   2
ATOM      2  C   UNL A   1      32.170  21.009  24.785  1.00  0.00     0.261 C 
BRANCH   2   3
ATOM      3  O   UNL A   1      32.107  21.430  26.166  1.00  0.00    -0.462 OA
BRANCH   3   4
ATOM      4  C   UNL A   1      31.688  22.702  26.395  1.00  0.00     0.325 C 
ATOM      5  O   UNL A   1      31.915  23.340  27.418  1.00  0.00    -0.250 OA
BRANCH   4   6
ATOM      6  C   UNL A   1      30.841  23.276  25.251  1.00  0.00     0.244 C 
BRANCH   6   7
ATOM      7  N   UNL A   1      31.082  24.636  24.756  1.00  0.00    -0.304 N 
BRANCH   7   8
ATOM      8  C   UNL A   1      30.402  25.723  25.256  1.00  0.00     0.321 C 
ATOM      9  O   UNL A   1      29.861  25.621  26.360  1.00  0.00    -0.248 OA
BRANCH   8  10
ATOM     10  N   UNL A   1      30.386  26.919  24.588  1.00  0.00    -0.322 N 
ATOM     11  C   UNL A   1      31.255  28.109  24.579  1.00  0.00     0.086 C 
ATOM     12  C   UNL A   1      30.524  29.125  23.682  1.00  0.00     0.027 C 
ATOM     13  C   UNL A   1      29.644  28.275  22.792  1.00  0.00     0.024 C 
ATOM     14  C   UNL A   1      29.243  27.141  23.710  1.00  0.00     0.122 C 
BRANCH  11  15
ATOM     15  C   UNL A   1      31.599  28.778  25.910  1.00  0.00     0.022 C 
ATOM     16  C   UNL A   1      33.025  28.599  26.405  1.00  0.00     0.006 C 
ENDBRANCH  11  15
ENDBRANCH   8  10
ENDBRANCH   7   8
BRANCH   7  17
ATOM     17  C   UNL A   1      32.469  24.931  24.323  1.00  0.00     0.237 C 
BRANCH  17  18
ATOM     18  C   UNL A   1      32.780  24.882  22.812  1.00  0.00     0.406 C 
ATOM     19  F   UNL A   1      32.923  23.639  22.316  1.00  0.00    -0.169 F 
ATOM     20  F   UNL A   1      31.745  25.447  22.133  1.00  0.00    -0.169 F 
ATOM     21  F   UNL A   1      33.887  25.591  22.506  1.00  0.00    -0.169 F 
ENDBRANCH  17  18
ENDBRANCH   7  17
ENDBRANCH   6   7
ENDBRANCH   4   6
ENDBRANCH   3   4
ENDBRANCH   2   3
ENDBRANCH   1   2
BRANCH   1  22
ATOM     22  O   UNL A   1      34.544  20.289  24.891  1.00  0.00    -0.374 OA
BRANCH  22  23
ATOM     23  C   UNL A   1      35.741  20.901  25.358  1.00  0.00     0.202 C 
BRANCH  23  24
ATOM     24  C   UNL A   1      37.050  20.166  25.047  1.00  0.00     0.261 C 
BRANCH  24  25
ATOM     25  O   UNL A   1      38.182  21.042  24.917  1.00  0.00    -0.460 OA
BRANCH  25  26
ATOM     26  C   UNL A   1      39.156  20.794  25.832  1.00  0.00     0.338 C 
ATOM     27  O   UNL A   1      39.716  19.724  26.005  1.00  0.00    -0.246 OA
BRANCH  26  28
ATOM     28  C   UNL A   1      39.586  22.016  26.549  1.00  0.00     0.060 A 
ATOM     29  C   UNL A   1      38.908  23.194  26.216  1.00  0.00     0.016 A 
ATOM     30  C   UNL A   1      40.690  22.061  27.406  1.00  0.00     0.016 A 
ATOM     31  C   UNL A   1      39.398  24.427  26.633  1.00  0.00     0.010 A 
ATOM     32  C   UNL A   1      41.174  23.308  27.839  1.00  0.00     0.010 A 
ATOM     33  C   UNL A   1      40.571  24.499  27.395  1.00  0.00    -0.014 A 
BRANCH  33  34
ATOM     34  C   UNL A   1      41.232  25.826  27.526  1.00  0.00     0.031 A 
ATOM     35  C   UNL A   1      40.534  26.921  28.296  1.00  0.00     0.074 A 
ATOM     36  C   UNL A   1      42.488  26.017  27.083  1.00  0.00     0.049 A 
ATOM     37  N   UNL A   1      40.977  28.099  28.656  1.00  0.00    -0.248 NA
ATOM     38  C   UNL A   1      39.152  26.646  28.716  1.00  0.00     0.031 C 
ATOM     39  C   UNL A   1      43.279  25.030  26.350  1.00  0.00     0.029 A 
ATOM     40  N   UNL A   1      43.326  27.097  27.205  1.00  0.00    -0.354 N 
ATOM     41  C   UNL A   1      39.929  28.706  29.344  1.00  0.00     0.074 A 
ATOM     42  C   UNL A   1      38.814  27.784  29.301  1.00  0.00     0.031 C 
ATOM     43  C   UNL A   1      44.494  25.546  26.097  1.00  0.00     0.029 A 
ATOM     44  C   UNL A   1      44.560  26.907  26.629  1.00  0.00     0.049 A 
ATOM     45  H   UNL A   1      43.068  27.931  27.660  1.00  0.00     0.167 HD
ATOM     46  C   UNL A   1      39.902  29.910  29.970  1.00  0.00     0.034 A 
ATOM     47  C   UNL A   1      45.622  27.733  26.538  1.00  0.00     0.034 A 
ATOM     48  C   UNL A   1      41.020  30.824  29.999  1.00  0.00     0.049 A 
ATOM     49  C   UNL A   1      45.559  29.087  27.200  1.00  0.00     0.074 A 
ATOM     50  C   UNL A   1      41.110  32.056  30.624  1.00  0.00     0.029 A 
ATOM     51  N   UNL A   1      42.238  30.615  29.363  1.00  0.00    -0.354 N 
ATOM     52  N   UNL A   1      44.576  29.633  27.879  1.00  0.00    -0.248 NA
ATOM     53  C   UNL A   1      46.760  29.926  27.103  1.00  0.00     0.031 C 
ATOM     54  C   UNL A   1      42.348  32.624  30.299  1.00  0.00     0.029 A 
ATOM     55  C   UNL A   1      43.070  31.711  29.548  1.00  0.00     0.049 A 
ATOM     56  H   UNL A   1      42.475  29.807  28.854  1.00  0.00     0.167 HD
ATOM     57  C   UNL A   1      45.052  30.868  28.314  1.00  0.00     0.074 A 
ATOM     58  C   UNL A   1      46.415  30.977  27.834  1.00  0.00     0.031 C 
ATOM     59  C   UNL A   1      44.422  31.822  29.048  1.00  0.00     0.034 A 
BRANCH  46  60
ATOM     60  C   UNL A   1      38.599  30.322  30.619  1.00  0.00     0.023 A 
ATOM     61  C   UNL A   1      37.614  31.046  29.923  1.00  0.00     0.031 A 
ATOM     62  C   UNL A   1      38.360  30.030  31.974  1.00  0.00     0.131 A 
ATOM     63  C   UNL A   1      36.486  31.530  30.604  1.00  0.00     0.055 A 
ATOM     64  C   UNL A   1      37.191  30.438  32.623  1.00  0.00     0.041 A 
ATOM     65  F   UNL A   1      39.269  29.360  32.700  1.00  0.00    -0.206 F 
ATOM     66  C   UNL A   1      36.256  31.210  31.942  1.00  0.00     0.022 A 
BRANCH  63  67
ATOM     67  S   UNL A   1      35.411  32.729  29.764  1.00  0.00     0.124 S 
ATOM     68  O   UNL A   1      36.389  33.617  29.140  1.00  0.00    -0.237 OA
ATOM     69  O   UNL A   1      34.646  31.882  28.855  1.00  0.00    -0.237 OA
ATOM     70  O   UNL A   1      34.645  33.327  30.855  1.00  0.00    -0.744 OA
ENDBRANCH  63  67
ENDBRANCH  46  60
BRANCH  47  71
ATOM     71  C   UNL A   1      46.829  27.312  25.770  1.00  0.00     0.023 A 
ATOM     72  C   UNL A   1      47.059  27.749  24.456  1.00  0.00     0.031 A 
ATOM     73  C   UNL A   1      47.764  26.431  26.346  1.00  0.00     0.131 A 
ATOM     74  C   UNL A   1      48.179  27.279  23.750  1.00  0.00     0.055 A 
ATOM     75  C   UNL A   1      48.899  26.004  25.657  1.00  0.00     0.041 A 
ATOM     76  F   UNL A   1      47.591  25.985  27.600  1.00  0.00    -0.206 F 
ATOM     77  C   UNL A   1      49.107  26.421  24.347  1.00  0.00     0.022 A 
BRANCH  74  78
ATOM     78  S   UNL A   1      48.382  27.758  22.012  1.00  0.00     0.124 S 
ATOM     79  O   UNL A   1      49.637  28.500  22.053  1.00  0.00    -0.237 OA
ATOM     80  O   UNL A   1      48.422  26.462  21.343  1.00  0.00    -0.237 OA
ATOM     81  O   UNL A   1      47.190  28.559  21.738  1.00  0.00    -0.744 OA
ENDBRANCH  74  78
ENDBRANCH  47  71
BRANCH  59  82
ATOM     82  C   UNL A   1      45.224  33.052  29.413  1.00  0.00     0.023 A 
ATOM     83  C   UNL A   1      45.232  34.203  28.605  1.00  0.00     0.031 A 
ATOM     84  C   UNL A   1      46.015  33.060  30.577  1.00  0.00     0.131 A 
ATOM     85  C   UNL A   1      46.065  35.284  28.933  1.00  0.00     0.055 A 
ATOM     86  C   UNL A   1      46.788  34.165  30.935  1.00  0.00     0.041 A 
ATOM     87  F   UNL A   1      46.051  31.990  31.387  1.00  0.00    -0.206 F 
ATOM     88  C   UNL A   1      46.831  35.279  30.102  1.00  0.00     0.022 A 
BRANCH  85  89
ATOM     89  S   UNL A   1      46.232  36.648  27.748  1.00  0.00     0.124 S 
ATOM     90  O   UNL A   1      46.510  37.780  28.626  1.00  0.00    -0.237 OA
ATOM     91  O   UNL A   1      47.341  36.200  26.913  1.00  0.00    -0.237 OA
ATOM     92  O   UNL A   1      44.931  36.685  27.082  1.00  0.00    -0.744 OA
ENDBRANCH  85  89
ENDBRANCH  59  82
ENDBRANCH  33  34
ENDBRANCH  26  28
ENDBRANCH  25  26
ENDBRANCH  24  25
ENDBRANCH  23  24
ENDBRANCH  22  23
ENDBRANCH   1  22
TORSDOF 23
ENDMDL
MODEL 2
REMARK VINA RESULT:      -9.9      2.229      7.863
REMARK SMILES CC[C@@H]1CCCN1C(=O)N(CC(=O)OCCOCCOC(=O)c1ccc(-c2c3nc(c(-c4cc(S(=O)(=O)[O-])ccc4F)c4ccc([nH]4)c(-c4cc(S(=O)(=O)[O-])ccc4F)c4nc(c(-c5cc(S(=O)(=O)[O-])ccc5F)c5ccc2[nH]5)C=C4)C=C3)cc1)CC(F)(F)F
REMARK SMILES IDX 16 1 15 2 14 3 12 4 13 5 11 6 10 7 8 8 9 9 7 10 3 11 4 12
REMARK SMILES IDX 5 13 6 14 2 15 1 16 86 17 87 18 88 19 89 20 90 21 17 22
REMARK SMILES IDX 18 23 19 24 20 25 21 26 22 27 23 28 24 29 85 30 25 31 84 32
REMARK SMILES IDX 26 33 27 34 28 35 78 36 29 37 83 38 77 39 79 40 30 41 82 42
REMARK SMILES IDX 76 43 75 44 31 46 63 47 43 48 62 49 44 50 47 51 61 52 80 53
REMARK SMILES IDX 45 54 46 55 60 57 81 58 48 59 32 60 33 61 41 62 34 63 40 64
REMARK SMILES IDX 42 65 39 66 35 67 36 68 37 69 38 70 64 71 65 72 73 73 66 74
REMARK SMILES IDX 72 75 74 76 71 77 67 78 68 79 69 80 70 81 49 82 50 83 58 84
REMARK SMILES IDX 51 85 57 86 59 87 56 88 52 89 53 90 54 91 55 92
REMARK H PARENT 79 45 47 56
REMARK Flexibility Score: inf
ROOT
ATOM      1  C   UNL A   1      34.414  21.762  25.464  1.00  0.00     0.202 C 
ENDROOT
BRANCH   1   2
ATOM      2  C   UNL A   1      33.651  21.983  26.768  1.00  0.00     0.261 C 
BRANCH   2   3
ATOM      3  O   UNL A   1      33.014  23.280  26.768  1.00  0.00    -0.462 OA
BRANCH   3   4
ATOM      4  C   UNL A   1      31.669  23.297  26.572  1.00  0.00     0.325 C 
ATOM      5  O   UNL A   1      30.830  23.244  27.466  1.00  0.00    -0.250 OA
BRANCH   4   6
ATOM      6  C   UNL A   1      31.274  23.339  25.090  1.00  0.00     0.244 C 
BRANCH   6   7
ATOM      7  N   UNL A   1      31.419  24.578  24.316  1.00  0.00    -0.304 N 
BRANCH   7   8
ATOM      8  C   UNL A   1      32.574  24.878  23.633  1.00  0.00     0.321 C 
ATOM      9  O   UNL A   1      33.098  23.997  22.946  1.00  0.00    -0.248 OA
BRANCH   8  10
ATOM     10  N   UNL A   1      33.098  26.144  23.646  1.00  0.00    -0.322 N 
ATOM     11  C   UNL A   1      33.770  26.974  24.663  1.00  0.00     0.086 C 
ATOM     12  C   UNL A   1      33.949  28.350  23.994  1.00  0.00     0.027 C 
ATOM     13  C   UNL A   1      33.928  28.051  22.510  1.00  0.00     0.024 C 
ATOM     14  C   UNL A   1      32.937  26.912  22.417  1.00  0.00     0.122 C 
BRANCH  11  15
ATOM     15  C   UNL A   1      33.094  27.165  26.020  1.00  0.00     0.022 C 
ATOM     16  C   UNL A   1      33.226  28.541  26.652  1.00  0.00     0.006 C 
ENDBRANCH  11  15
ENDBRANCH   8  10
ENDBRANCH   7   8
BRANCH   7  17
ATOM     17  C   UNL A   1      30.182  25.089  23.676  1.00  0.00     0.237 C 
BRANCH  17  18
ATOM     18  C   UNL A   1      29.388  26.187  24.413  1.00  0.00     0.406 C 
ATOM     19  F   UNL A   1      29.163  25.928  25.714  1.00  0.00    -0.169 F 
ATOM     20  F   UNL A   1      30.099  27.346  24.372  1.00  0.00    -0.169 F 
ATOM     21  F   UNL A   1      28.201  26.431  23.818  1.00  0.00    -0.169 F 
ENDBRANCH  17  18
ENDBRANCH   7  17
ENDBRANCH   6   7
ENDBRANCH   4   6
ENDBRANCH   3   4
ENDBRANCH   2   3
ENDBRANCH   1   2
BRANCH   1  22
ATOM     22  O   UNL A   1      35.478  22.691  25.243  1.00  0.00    -0.374 OA
BRANCH  22  23
ATOM     23  C   UNL A   1      36.349  22.418  24.151  1.00  0.00     0.202 C 
BRANCH  23  24
ATOM     24  C   UNL A   1      37.546  21.505  24.445  1.00  0.00     0.261 C 
BRANCH  24  25
ATOM     25  O   UNL A   1      37.893  21.446  25.838  1.00  0.00    -0.460 OA
BRANCH  25  26
ATOM     26  C   UNL A   1      39.235  21.450  26.054  1.00  0.00     0.338 C 
ATOM     27  O   UNL A   1      40.044  20.704  25.526  1.00  0.00    -0.246 OA
BRANCH  26  28
ATOM     28  C   UNL A   1      39.666  22.561  26.931  1.00  0.00     0.060 A 
ATOM     29  C   UNL A   1      38.995  23.777  26.757  1.00  0.00     0.016 A 
ATOM     30  C   UNL A   1      40.766  22.486  27.791  1.00  0.00     0.016 A 
ATOM     31  C   UNL A   1      39.488  24.940  27.338  1.00  0.00     0.010 A 
ATOM     32  C   UNL A   1      41.254  23.660  28.390  1.00  0.00     0.010 A 
ATOM     33  C   UNL A   1      40.658  24.903  28.107  1.00  0.00    -0.014 A 
BRANCH  33  34
ATOM     34  C   UNL A   1      41.324  26.198  28.419  1.00  0.00     0.031 A 
ATOM     35  C   UNL A   1      42.706  26.462  27.871  1.00  0.00     0.074 A 
ATOM     36  C   UNL A   1      40.662  27.175  29.064  1.00  0.00     0.049 A 
ATOM     37  N   UNL A   1      43.415  27.562  27.895  1.00  0.00    -0.248 NA
ATOM     38  C   UNL A   1      43.374  25.332  27.208  1.00  0.00     0.031 C 
ATOM     39  C   UNL A   1      39.315  27.054  29.616  1.00  0.00     0.029 A 
ATOM     40  N   UNL A   1      41.027  28.468  29.344  1.00  0.00    -0.354 N 
ATOM     41  C   UNL A   1      44.613  27.257  27.251  1.00  0.00     0.074 A 
ATOM     42  C   UNL A   1      44.550  25.856  26.899  1.00  0.00     0.031 C 
ATOM     43  C   UNL A   1      38.959  28.230  30.159  1.00  0.00     0.029 A 
ATOM     44  C   UNL A   1      40.060  29.182  30.014  1.00  0.00     0.049 A 
ATOM     45  H   UNL A   1      41.898  28.851  29.090  1.00  0.00     0.167 HD
ATOM     46  C   UNL A   1      45.659  28.073  26.962  1.00  0.00     0.034 A 
ATOM     47  C   UNL A   1      40.061  30.454  30.462  1.00  0.00     0.034 A 
ATOM     48  C   UNL A   1      45.711  29.470  27.326  1.00  0.00     0.049 A 
ATOM     49  C   UNL A   1      41.252  31.334  30.173  1.00  0.00     0.074 A 
ATOM     50  C   UNL A   1      46.708  30.393  27.063  1.00  0.00     0.029 A 
ATOM     51  N   UNL A   1      44.732  30.144  28.047  1.00  0.00    -0.354 N 
ATOM     52  N   UNL A   1      42.361  31.044  29.531  1.00  0.00    -0.248 NA
ATOM     53  C   UNL A   1      41.179  32.720  30.649  1.00  0.00     0.031 C 
ATOM     54  C   UNL A   1      46.370  31.598  27.690  1.00  0.00     0.029 A 
ATOM     55  C   UNL A   1      45.119  31.458  28.270  1.00  0.00     0.049 A 
ATOM     56  H   UNL A   1      43.887  29.745  28.356  1.00  0.00     0.167 HD
ATOM     57  C   UNL A   1      43.105  32.222  29.502  1.00  0.00     0.074 A 
ATOM     58  C   UNL A   1      42.308  33.228  30.177  1.00  0.00     0.031 C 
ATOM     59  C   UNL A   1      44.329  32.452  28.962  1.00  0.00     0.034 A 
BRANCH  46  60
ATOM     60  C   UNL A   1      46.850  27.449  26.271  1.00  0.00     0.023 A 
ATOM     61  C   UNL A   1      47.934  26.913  26.989  1.00  0.00     0.031 A 
ATOM     62  C   UNL A   1      46.927  27.437  24.866  1.00  0.00     0.131 A 
ATOM     63  C   UNL A   1      49.081  26.474  26.307  1.00  0.00     0.055 A 
ATOM     64  C   UNL A   1      48.034  26.916  24.191  1.00  0.00     0.041 A 
ATOM     65  F   UNL A   1      45.935  27.953  24.122  1.00  0.00    -0.206 F 
ATOM     66  C   UNL A   1      49.128  26.450  24.912  1.00  0.00     0.022 A 
BRANCH  63  67
ATOM     67  S   UNL A   1      50.575  26.100  27.268  1.00  0.00     0.124 S 
ATOM     68  O   UNL A   1      51.353  27.324  27.095  1.00  0.00    -0.237 OA
ATOM     69  O   UNL A   1      50.039  25.866  28.604  1.00  0.00    -0.237 OA
ATOM     70  O   UNL A   1      51.126  24.922  26.601  1.00  0.00    -0.744 OA
ENDBRANCH  63  67
ENDBRANCH  46  60
BRANCH  47  71
ATOM     71  C   UNL A   1      38.905  30.965  31.252  1.00  0.00     0.023 A 
ATOM     72  C   UNL A   1      37.884  31.727  30.662  1.00  0.00     0.031 A 
ATOM     73  C   UNL A   1      38.826  30.714  32.635  1.00  0.00     0.131 A 
ATOM     74  C   UNL A   1      36.846  32.238  31.458  1.00  0.00     0.055 A 
ATOM     75  C   UNL A   1      37.767  31.184  33.412  1.00  0.00     0.041 A 
ATOM     76  F   UNL A   1      39.776  29.989  33.247  1.00  0.00    -0.206 F 
ATOM     77  C   UNL A   1      36.774  31.959  32.826  1.00  0.00     0.022 A 
BRANCH  74  78
ATOM     78  S   UNL A   1      35.611  33.325  30.693  1.00  0.00     0.124 S 
ATOM     79  O   UNL A   1      36.178  33.529  29.364  1.00  0.00    -0.237 OA
ATOM     80  O   UNL A   1      34.405  32.507  30.758  1.00  0.00    -0.237 OA
ATOM     81  O   UNL A   1      35.610  34.502  31.560  1.00  0.00    -0.744 OA
ENDBRANCH  74  78
ENDBRANCH  47  71
BRANCH  59  82
ATOM     82  C   UNL A   1      44.864  33.864  29.044  1.00  0.00     0.023 A 
ATOM     83  C   UNL A   1      45.689  34.290  30.100  1.00  0.00     0.031 A 
ATOM     84  C   UNL A   1      44.518  34.809  28.060  1.00  0.00     0.131 A 
ATOM     85  C   UNL A   1      46.083  35.634  30.186  1.00  0.00     0.055 A 
ATOM     86  C   UNL A   1      44.969  36.129  28.113  1.00  0.00     0.041 A 
ATOM     87  F   UNL A   1      43.730  34.465  27.028  1.00  0.00    -0.206 F 
ATOM     88  C   UNL A   1      45.742  36.553  29.189  1.00  0.00     0.022 A 
BRANCH  85  89
ATOM     89  S   UNL A   1      46.944  36.198  31.680  1.00  0.00     0.124 S 
ATOM     90  O   UNL A   1      46.532  35.201  32.663  1.00  0.00    -0.237 OA
ATOM     91  O   UNL A   1      48.344  36.149  31.269  1.00  0.00    -0.237 OA
ATOM     92  O   UNL A   1      46.409  37.541  31.898  1.00  0.00    -0.744 OA
ENDBRANCH  85  89
ENDBRANCH  59  82
ENDBRANCH  33  34
ENDBRANCH  26  28
ENDBRANCH  25  26
ENDBRANCH  24  25
ENDBRANCH  23  24
ENDBRANCH  22  23
ENDBRANCH   1  22
TORSDOF 23
ENDMDL
MODEL 3
REMARK VINA RESULT:      -9.8      1.379      2.597
REMARK SMILES CC[C@@H]1CCCN1C(=O)N(CC(=O)OCCOCCOC(=O)c1ccc(-c2c3nc(c(-c4cc(S(=O)(=O)[O-])ccc4F)c4ccc([nH]4)c(-c4cc(S(=O)(=O)[O-])ccc4F)c4nc(c(-c5cc(S(=O)(=O)[O-])ccc5F)c5ccc2[nH]5)C=C4)C=C3)cc1)CC(F)(F)F
REMARK SMILES IDX 16 1 15 2 14 3 12 4 13 5 11 6 10 7 8 8 9 9 7 10 3 11 4 12
REMARK SMILES IDX 5 13 6 14 2 15 1 16 86 17 87 18 88 19 89 20 90 21 17 22
REMARK SMILES IDX 18 23 19 24 20 25 21 26 22 27 23 28 24 29 85 30 25 31 84 32
REMARK SMILES IDX 26 33 27 34 28 35 78 36 29 37 83 38 77 39 79 40 30 41 82 42
REMARK SMILES IDX 76 43 75 44 31 46 63 47 43 48 62 49 44 50 47 51 61 52 80 53
REMARK SMILES IDX 45 54 46 55 60 57 81 58 48 59 32 60 33 61 41 62 34 63 40 64
REMARK SMILES IDX 42 65 39 66 35 67 36 68 37 69 38 70 64 71 65 72 73 73 66 74
REMARK SMILES IDX 72 75 74 76 71 77 67 78 68 79 69 80 70 81 49 82 50 83 58 84
REMARK SMILES IDX 51 85 57 86 59 87 56 88 52 89 53 90 54 91 55 92
REMARK H PARENT 79 45 47 56
REMARK Flexibility Score: inf
ROOT
ATOM      1  C   UNL A   1      36.258  21.957  24.729  1.00  0.00     0.202 C 
ENDROOT
BRANCH   1   2
ATOM      2  C   UNL A   1      36.099  23.164  23.808  1.00  0.00     0.261 C 
BRANCH   2   3
ATOM      3  O   UNL A   1      35.253  24.162  24.423  1.00  0.00    -0.462 OA
BRANCH   3   4
ATOM      4  C   UNL A   1      34.315  24.738  23.625  1.00  0.00     0.325 C 
ATOM      5  O   UNL A   1      34.367  24.777  22.400  1.00  0.00    -0.250 OA
BRANCH   4   6
ATOM      6  C   UNL A   1      33.176  25.400  24.411  1.00  0.00     0.244 C 
BRANCH   6   7
ATOM      7  N   UNL A   1      31.791  25.310  23.932  1.00  0.00    -0.304 N 
BRANCH   7   8
ATOM      8  C   UNL A   1      31.135  24.106  23.826  1.00  0.00     0.321 C 
ATOM      9  O   UNL A   1      30.028  24.086  23.280  1.00  0.00    -0.248 OA
BRANCH   8  10
ATOM     10  N   UNL A   1      31.720  22.939  24.241  1.00  0.00    -0.322 N 
ATOM     11  C   UNL A   1      31.962  22.316  25.555  1.00  0.00     0.086 C 
ATOM     12  C   UNL A   1      32.806  21.065  25.248  1.00  0.00     0.027 C 
ATOM     13  C   UNL A   1      32.485  20.740  23.805  1.00  0.00     0.024 C 
ATOM     14  C   UNL A   1      32.300  22.110  23.191  1.00  0.00     0.122 C 
BRANCH  11  15
ATOM     15  C   UNL A   1      32.660  23.134  26.640  1.00  0.00     0.022 C 
ATOM     16  C   UNL A   1      32.961  22.409  27.942  1.00  0.00     0.006 C 
ENDBRANCH  11  15
ENDBRANCH   8  10
ENDBRANCH   7   8
BRANCH   7  17
ATOM     17  C   UNL A   1      30.913  26.455  24.276  1.00  0.00     0.237 C 
BRANCH  17  18
ATOM     18  C   UNL A   1      30.483  27.403  23.136  1.00  0.00     0.406 C 
ATOM     19  F   UNL A   1      30.969  27.070  21.927  1.00  0.00    -0.169 F 
ATOM     20  F   UNL A   1      29.128  27.369  23.025  1.00  0.00    -0.169 F 
ATOM     21  F   UNL A   1      30.826  28.683  23.394  1.00  0.00    -0.169 F 
ENDBRANCH  17  18
ENDBRANCH   7  17
ENDBRANCH   6   7
ENDBRANCH   4   6
ENDBRANCH   3   4
ENDBRANCH   2   3
ENDBRANCH   1   2
BRANCH   1  22
ATOM     22  O   UNL A   1      37.486  21.245  24.554  1.00  0.00    -0.374 OA
BRANCH  22  23
ATOM     23  C   UNL A   1      37.438  19.834  24.738  1.00  0.00     0.202 C 
BRANCH  23  24
ATOM     24  C   UNL A   1      38.727  19.164  25.227  1.00  0.00     0.261 C 
BRANCH  24  25
ATOM     25  O   UNL A   1      39.209  19.692  26.474  1.00  0.00    -0.460 OA
BRANCH  25  26
ATOM     26  C   UNL A   1      40.490  20.140  26.405  1.00  0.00     0.338 C 
ATOM     27  O   UNL A   1      41.416  19.569  25.850  1.00  0.00    -0.246 OA
BRANCH  26  28
ATOM     28  C   UNL A   1      40.652  21.494  26.980  1.00  0.00     0.060 A 
ATOM     29  C   UNL A   1      40.006  22.532  26.298  1.00  0.00     0.016 A 
ATOM     30  C   UNL A   1      41.503  21.783  28.050  1.00  0.00     0.016 A 
ATOM     31  C   UNL A   1      40.300  23.858  26.598  1.00  0.00     0.010 A 
ATOM     32  C   UNL A   1      41.787  23.124  28.362  1.00  0.00     0.010 A 
ATOM     33  C   UNL A   1      41.240  24.165  27.588  1.00  0.00    -0.014 A 
BRANCH  33  34
ATOM     34  C   UNL A   1      41.765  25.558  27.638  1.00  0.00     0.031 A 
ATOM     35  C   UNL A   1      40.984  26.609  28.390  1.00  0.00     0.074 A 
ATOM     36  C   UNL A   1      42.978  25.855  27.138  1.00  0.00     0.049 A 
ATOM     37  N   UNL A   1      41.314  27.841  28.682  1.00  0.00    -0.248 NA
ATOM     38  C   UNL A   1      39.654  26.213  28.875  1.00  0.00     0.031 C 
ATOM     39  C   UNL A   1      43.840  24.922  26.416  1.00  0.00     0.029 A 
ATOM     40  N   UNL A   1      43.702  27.020  27.182  1.00  0.00    -0.354 N 
ATOM     41  C   UNL A   1      40.234  28.368  29.386  1.00  0.00     0.074 A 
ATOM     42  C   UNL A   1      39.221  27.337  29.426  1.00  0.00     0.031 C 
ATOM     43  C   UNL A   1      44.985  25.547  26.094  1.00  0.00     0.029 A 
ATOM     44  C   UNL A   1      44.929  26.930  26.567  1.00  0.00     0.049 A 
ATOM     45  H   UNL A   1      43.375  27.843  27.613  1.00  0.00     0.167 HD
ATOM     46  C   UNL A   1      40.105  29.591  29.963  1.00  0.00     0.034 A 
ATOM     47  C   UNL A   1      45.896  27.856  26.399  1.00  0.00     0.034 A 
ATOM     48  C   UNL A   1      41.122  30.615  29.910  1.00  0.00     0.049 A 
ATOM     49  C   UNL A   1      45.716  29.225  27.006  1.00  0.00     0.074 A 
ATOM     50  C   UNL A   1      41.107  31.876  30.479  1.00  0.00     0.029 A 
ATOM     51  N   UNL A   1      42.332  30.502  29.235  1.00  0.00    -0.354 N 
ATOM     52  N   UNL A   1      44.706  29.698  27.701  1.00  0.00    -0.248 NA
ATOM     53  C   UNL A   1      46.819  30.176  26.828  1.00  0.00     0.031 C 
ATOM     54  C   UNL A   1      42.266  32.552  30.082  1.00  0.00     0.029 A 
ATOM     55  C   UNL A   1      43.053  31.684  29.341  1.00  0.00     0.049 A 
ATOM     56  H   UNL A   1      42.634  29.700  28.751  1.00  0.00     0.167 HD
ATOM     57  C   UNL A   1      45.066  30.994  28.065  1.00  0.00     0.074 A 
ATOM     58  C   UNL A   1      46.393  31.218  27.527  1.00  0.00     0.031 C 
ATOM     59  C   UNL A   1      44.367  31.910  28.784  1.00  0.00     0.034 A 
BRANCH  46  60
ATOM     60  C   UNL A   1      38.789  29.896  30.645  1.00  0.00     0.023 A 
ATOM     61  C   UNL A   1      37.773  30.632  30.011  1.00  0.00     0.031 A 
ATOM     62  C   UNL A   1      38.570  29.488  31.973  1.00  0.00     0.131 A 
ATOM     63  C   UNL A   1      36.629  31.015  30.730  1.00  0.00     0.055 A 
ATOM     64  C   UNL A   1      37.390  29.796  32.655  1.00  0.00     0.041 A 
ATOM     65  F   UNL A   1      39.510  28.800  32.642  1.00  0.00    -0.206 F 
ATOM     66  C   UNL A   1      36.420  30.580  32.040  1.00  0.00     0.022 A 
BRANCH  63  67
ATOM     67  S   UNL A   1      35.502  32.231  29.990  1.00  0.00     0.124 S 
ATOM     68  O   UNL A   1      34.492  32.373  31.036  1.00  0.00    -0.237 OA
ATOM     69  O   UNL A   1      36.374  33.381  29.782  1.00  0.00    -0.237 OA
ATOM     70  O   UNL A   1      35.036  31.571  28.772  1.00  0.00    -0.744 OA
ENDBRANCH  63  67
ENDBRANCH  46  60
BRANCH  47  71
ATOM     71  C   UNL A   1      47.112  27.526  25.602  1.00  0.00     0.023 A 
ATOM     72  C   UNL A   1      47.207  27.834  24.236  1.00  0.00     0.031 A 
ATOM     73  C   UNL A   1      48.197  26.863  26.206  1.00  0.00     0.131 A 
ATOM     74  C   UNL A   1      48.348  27.451  23.512  1.00  0.00     0.055 A 
ATOM     75  C   UNL A   1      49.347  26.526  25.493  1.00  0.00     0.041 A 
ATOM     76  F   UNL A   1      48.156  26.546  27.510  1.00  0.00    -0.206 F 
ATOM     77  C   UNL A   1      49.424  26.812  24.135  1.00  0.00     0.022 A 
BRANCH  74  78
ATOM     78  S   UNL A   1      48.388  27.747  21.722  1.00  0.00     0.124 S 
ATOM     79  O   UNL A   1      48.642  26.408  21.204  1.00  0.00    -0.237 OA
ATOM     80  O   UNL A   1      47.057  28.290  21.475  1.00  0.00    -0.237 OA
ATOM     81  O   UNL A   1      49.485  28.700  21.559  1.00  0.00    -0.744 OA
ENDBRANCH  74  78
ENDBRANCH  47  71
BRANCH  59  82
ATOM     82  C   UNL A   1      45.050  33.230  29.065  1.00  0.00     0.023 A 
ATOM     83  C   UNL A   1      45.074  34.273  28.122  1.00  0.00     0.031 A 
ATOM     84  C   UNL A   1      45.710  33.437  30.291  1.00  0.00     0.131 A 
ATOM     85  C   UNL A   1      45.800  35.444  28.389  1.00  0.00     0.055 A 
ATOM     86  C   UNL A   1      46.373  34.632  30.579  1.00  0.00     0.041 A 
ATOM     87  F   UNL A   1      45.725  32.478  31.231  1.00  0.00    -0.206 F 
ATOM     88  C   UNL A   1      46.436  35.637  29.619  1.00  0.00     0.022 A 
BRANCH  85  89
ATOM     89  S   UNL A   1      46.009  36.663  27.062  1.00  0.00     0.124 S 
ATOM     90  O   UNL A   1      46.009  35.820  25.871  1.00  0.00    -0.237 OA
ATOM     91  O   UNL A   1      44.839  37.518  27.239  1.00  0.00    -0.237 OA
ATOM     92  O   UNL A   1      47.290  37.295  27.374  1.00  0.00    -0.744 OA
ENDBRANCH  85  89
ENDBRANCH  59  82
ENDBRANCH  33  34
ENDBRANCH  26  28
ENDBRANCH  25  26
ENDBRANCH  24  25
ENDBRANCH  23  24
ENDBRANCH  22  23
ENDBRANCH   1  22
TORSDOF 23
ENDMDL
