MODEL 1
REMARK VINA RESULT:     -11.7      0.000      0.000
REMARK SMILES CCOc1cccc(-c2ccc([C@@H](C)C(=O)OCCOCCOC(=O)c3ccc(-c4c5nc(c(-c6cc(S(=O)(=O)[O-])ccc6F)c6ccc([nH]6)c(-c6cc(S(=O)(=O)[O-])ccc6F)c6nc(c(-c7cc(S(=O)(=O)[O-])ccc7F)c7ccc4[nH]7)C=C6)C=C5)cc3)cc2F)c1
REMARK SMILES IDX 19 1 18 2 17 3 15 4 16 5 13 6 14 7 12 8 9 9 10 10 90 11
REMARK SMILES IDX 11 12 89 13 91 14 8 15 4 16 5 17 92 18 6 19 7 20 3 21 2 22
REMARK SMILES IDX 1 23 20 24 21 25 22 26 23 27 24 28 25 29 26 30 27 31 88 32
REMARK SMILES IDX 28 33 87 34 29 35 30 36 31 37 81 38 32 39 86 40 80 41 82 42
REMARK SMILES IDX 33 43 85 44 79 45 78 46 34 48 66 49 46 50 65 51 47 52 50 53
REMARK SMILES IDX 64 54 83 55 48 56 49 57 63 59 84 60 51 61 35 62 36 63 44 64
REMARK SMILES IDX 37 65 43 66 45 67 42 68 38 69 39 70 40 71 41 72 67 73 68 74
REMARK SMILES IDX 76 75 69 76 75 77 77 78 74 79 70 80 71 81 72 82 73 83 52 84
REMARK SMILES IDX 53 85 61 86 54 87 60 88 62 89 59 90 55 91 56 92 57 93 58 94
REMARK H PARENT 82 47 50 58
REMARK Flexibility Score: inf
ROOT
ATOM      1  C   UNL A   1      42.024  20.064  26.851  1.00  0.00     0.202 C 
ENDROOT
BRANCH   1   2
ATOM      2  C   UNL A   1      40.875  21.048  27.085  1.00  0.00     0.261 C 
BRANCH   2   3
ATOM      3  O   UNL A   1      39.931  21.025  25.999  1.00  0.00    -0.463 OA
BRANCH   3   4
ATOM      4  C   UNL A   1      38.947  21.959  26.048  1.00  0.00     0.313 C 
ATOM      5  O   UNL A   1      39.115  23.130  26.379  1.00  0.00    -0.252 OA
BRANCH   4   6
ATOM      6  C   UNL A   1      37.571  21.427  25.684  1.00  0.00     0.126 C 
ATOM      7  C   UNL A   1      37.721  20.190  24.805  1.00  0.00     0.025 C 
BRANCH   6   8
ATOM      8  C   UNL A   1      36.544  22.402  25.120  1.00  0.00    -0.031 A 
ATOM      9  C   UNL A   1      34.432  24.071  24.150  1.00  0.00     0.018 A 
ATOM     10  C   UNL A   1      35.313  23.420  23.270  1.00  0.00     0.012 A 
ATOM     11  C   UNL A   1      34.660  23.891  25.521  1.00  0.00     0.131 A 
ATOM     12  C   UNL A   1      36.350  22.598  23.746  1.00  0.00     0.005 A 
ATOM     13  C   UNL A   1      35.691  23.081  26.001  1.00  0.00     0.044 A 
ATOM     14  F   UNL A   1      33.862  24.477  26.428  1.00  0.00    -0.206 F 
BRANCH   9  15
ATOM     15  C   UNL A   1      33.311  24.895  23.655  1.00  0.00    -0.012 A 
ATOM     16  C   UNL A   1      32.390  27.076  23.064  1.00  0.00     0.119 A 
ATOM     17  C   UNL A   1      31.156  26.503  22.781  1.00  0.00     0.046 A 
ATOM     18  C   UNL A   1      33.447  26.287  23.518  1.00  0.00     0.055 A 
ATOM     19  C   UNL A   1      30.994  25.125  22.912  1.00  0.00     0.004 A 
ATOM     20  C   UNL A   1      32.064  24.329  23.338  1.00  0.00     0.009 A 
BRANCH  16  21
ATOM     21  O   UNL A   1      32.507  28.438  23.006  1.00  0.00    -0.494 OA
BRANCH  21  22
ATOM     22  C   UNL A   1      31.254  29.111  23.191  1.00  0.00     0.226 C 
ATOM     23  C   UNL A   1      31.071  29.567  24.630  1.00  0.00     0.049 C 
ENDBRANCH  21  22
ENDBRANCH  16  21
ENDBRANCH   9  15
ENDBRANCH   6   8
ENDBRANCH   4   6
ENDBRANCH   3   4
ENDBRANCH   2   3
ENDBRANCH   1   2
BRANCH   1  24
ATOM     24  O   UNL A   1      42.829  20.296  25.696  1.00  0.00    -0.374 OA
BRANCH  24  25
ATOM     25  C   UNL A   1      43.768  21.369  25.751  1.00  0.00     0.202 C 
BRANCH  25  26
ATOM     26  C   UNL A   1      43.924  22.228  24.490  1.00  0.00     0.261 C 
BRANCH  26  27
ATOM     27  O   UNL A   1      43.230  23.485  24.588  1.00  0.00    -0.460 OA
BRANCH  27  28
ATOM     28  C   UNL A   1      43.985  24.524  25.017  1.00  0.00     0.338 C 
ATOM     29  O   UNL A   1      45.095  24.845  24.608  1.00  0.00    -0.246 OA
BRANCH  28  30
ATOM     30  C   UNL A   1      43.201  25.368  25.937  1.00  0.00     0.060 A 
ATOM     31  C   UNL A   1      43.454  26.746  25.939  1.00  0.00     0.016 A 
ATOM     32  C   UNL A   1      42.283  24.814  26.833  1.00  0.00     0.016 A 
ATOM     33  C   UNL A   1      42.822  27.573  26.866  1.00  0.00     0.010 A 
ATOM     34  C   UNL A   1      41.660  25.644  27.770  1.00  0.00     0.010 A 
ATOM     35  C   UNL A   1      41.949  27.022  27.813  1.00  0.00    -0.014 A 
BRANCH  35  36
ATOM     36  C   UNL A   1      41.462  27.844  28.948  1.00  0.00     0.031 A 
ATOM     37  C   UNL A   1      42.221  27.799  30.247  1.00  0.00     0.074 A 
ATOM     38  C   UNL A   1      40.368  28.616  28.830  1.00  0.00     0.049 A 
ATOM     39  N   UNL A   1      41.917  28.321  31.406  1.00  0.00    -0.248 NA
ATOM     40  C   UNL A   1      43.490  27.056  30.232  1.00  0.00     0.031 C 
ATOM     41  C   UNL A   1      39.593  28.797  27.604  1.00  0.00     0.029 A 
ATOM     42  N   UNL A   1      39.711  29.382  29.760  1.00  0.00    -0.354 N 
ATOM     43  C   UNL A   1      42.951  27.961  32.265  1.00  0.00     0.074 A 
ATOM     44  C   UNL A   1      43.872  27.148  31.497  1.00  0.00     0.031 C 
ATOM     45  C   UNL A   1      38.551  29.606  27.864  1.00  0.00     0.029 A 
ATOM     46  C   UNL A   1      38.556  29.959  29.283  1.00  0.00     0.049 A 
ATOM     47  H   UNL A   1      40.034  29.508  30.682  1.00  0.00     0.167 HD
ATOM     48  C   UNL A   1      43.116  28.281  33.573  1.00  0.00     0.034 A 
ATOM     49  C   UNL A   1      37.596  30.653  29.928  1.00  0.00     0.034 A 
ATOM     50  C   UNL A   1      42.183  29.083  34.324  1.00  0.00     0.049 A 
ATOM     51  C   UNL A   1      37.743  30.906  31.411  1.00  0.00     0.074 A 
ATOM     52  C   UNL A   1      42.253  29.472  35.650  1.00  0.00     0.029 A 
ATOM     53  N   UNL A   1      41.001  29.610  33.819  1.00  0.00    -0.354 N 
ATOM     54  N   UNL A   1      38.715  30.546  32.219  1.00  0.00    -0.248 NA
ATOM     55  C   UNL A   1      36.664  31.656  32.070  1.00  0.00     0.031 C 
ATOM     56  C   UNL A   1      41.081  30.169  35.966  1.00  0.00     0.029 A 
ATOM     57  C   UNL A   1      40.318  30.290  34.816  1.00  0.00     0.049 A 
ATOM     58  H   UNL A   1      40.693  29.515  32.889  1.00  0.00     0.167 HD
ATOM     59  C   UNL A   1      38.382  31.063  33.469  1.00  0.00     0.074 A 
ATOM     60  C   UNL A   1      37.122  31.758  33.310  1.00  0.00     0.031 C 
ATOM     61  C   UNL A   1      39.062  30.979  34.641  1.00  0.00     0.034 A 
BRANCH  48  62
ATOM     62  C   UNL A   1      44.321  27.710  34.280  1.00  0.00     0.023 A 
ATOM     63  C   UNL A   1      44.282  26.461  34.924  1.00  0.00     0.031 A 
ATOM     64  C   UNL A   1      45.522  28.441  34.333  1.00  0.00     0.131 A 
ATOM     65  C   UNL A   1      45.395  26.014  35.652  1.00  0.00     0.055 A 
ATOM     66  C   UNL A   1      46.653  27.954  34.992  1.00  0.00     0.041 A 
ATOM     67  F   UNL A   1      45.612  29.651  33.759  1.00  0.00    -0.206 F 
ATOM     68  C   UNL A   1      46.588  26.740  35.669  1.00  0.00     0.022 A 
BRANCH  65  69
ATOM     69  S   UNL A   1      45.213  24.543  36.697  1.00  0.00     0.124 S 
ATOM     70  O   UNL A   1      44.176  24.972  37.633  1.00  0.00    -0.237 OA
ATOM     71  O   UNL A   1      44.821  23.520  35.735  1.00  0.00    -0.237 OA
ATOM     72  O   UNL A   1      46.540  24.373  37.284  1.00  0.00    -0.744 OA
ENDBRANCH  65  69
ENDBRANCH  48  62
BRANCH  49  73
ATOM     73  C   UNL A   1      36.380  31.118  29.199  1.00  0.00     0.023 A 
ATOM     74  C   UNL A   1      35.936  32.445  29.299  1.00  0.00     0.031 A 
ATOM     75  C   UNL A   1      35.607  30.221  28.439  1.00  0.00     0.131 A 
ATOM     76  C   UNL A   1      34.730  32.828  28.691  1.00  0.00     0.055 A 
ATOM     77  C   UNL A   1      34.438  30.621  27.788  1.00  0.00     0.041 A 
ATOM     78  F   UNL A   1      35.982  28.938  28.312  1.00  0.00    -0.206 F 
ATOM     79  C   UNL A   1      33.986  31.929  27.924  1.00  0.00     0.022 A 
BRANCH  76  80
ATOM     80  S   UNL A   1      34.098  34.501  28.993  1.00  0.00     0.124 S 
ATOM     81  O   UNL A   1      34.527  34.734  30.369  1.00  0.00    -0.237 OA
ATOM     82  O   UNL A   1      34.786  35.275  27.966  1.00  0.00    -0.237 OA
ATOM     83  O   UNL A   1      32.656  34.359  28.804  1.00  0.00    -0.744 OA
ENDBRANCH  76  80
ENDBRANCH  49  73
BRANCH  61  84
ATOM     84  C   UNL A   1      38.491  31.714  35.830  1.00  0.00     0.023 A 
ATOM     85  C   UNL A   1      37.879  31.040  36.901  1.00  0.00     0.031 A 
ATOM     86  C   UNL A   1      38.588  33.116  35.899  1.00  0.00     0.131 A 
ATOM     87  C   UNL A   1      37.352  31.773  37.976  1.00  0.00     0.055 A 
ATOM     88  C   UNL A   1      38.112  33.834  36.996  1.00  0.00     0.041 A 
ATOM     89  F   UNL A   1      39.163  33.810  34.903  1.00  0.00    -0.206 F 
ATOM     90  C   UNL A   1      37.482  33.164  38.038  1.00  0.00     0.022 A 
BRANCH  87  91
ATOM     91  S   UNL A   1      36.437  30.892  39.271  1.00  0.00     0.124 S 
ATOM     92  O   UNL A   1      36.123  29.627  38.613  1.00  0.00    -0.237 OA
ATOM     93  O   UNL A   1      37.413  30.822  40.353  1.00  0.00    -0.237 OA
ATOM     94  O   UNL A   1      35.288  31.757  39.531  1.00  0.00    -0.744 OA
ENDBRANCH  87  91
ENDBRANCH  61  84
ENDBRANCH  35  36
ENDBRANCH  28  30
ENDBRANCH  27  28
ENDBRANCH  26  27
ENDBRANCH  25  26
ENDBRANCH  24  25
ENDBRANCH   1  24
TORSDOF 21
ENDMDL
MODEL 2
REMARK VINA RESULT:     -11.2      1.796      2.119
REMARK SMILES CCOc1cccc(-c2ccc([C@@H](C)C(=O)OCCOCCOC(=O)c3ccc(-c4c5nc(c(-c6cc(S(=O)(=O)[O-])ccc6F)c6ccc([nH]6)c(-c6cc(S(=O)(=O)[O-])ccc6F)c6nc(c(-c7cc(S(=O)(=O)[O-])ccc7F)c7ccc4[nH]7)C=C6)C=C5)cc3)cc2F)c1
REMARK SMILES IDX 19 1 18 2 17 3 15 4 16 5 13 6 14 7 12 8 9 9 10 10 90 11
REMARK SMILES IDX 11 12 89 13 91 14 8 15 4 16 5 17 92 18 6 19 7 20 3 21 2 22
REMARK SMILES IDX 1 23 20 24 21 25 22 26 23 27 24 28 25 29 26 30 27 31 88 32
REMARK SMILES IDX 28 33 87 34 29 35 30 36 31 37 81 38 32 39 86 40 80 41 82 42
REMARK SMILES IDX 33 43 85 44 79 45 78 46 34 48 66 49 46 50 65 51 47 52 50 53
REMARK SMILES IDX 64 54 83 55 48 56 49 57 63 59 84 60 51 61 35 62 36 63 44 64
REMARK SMILES IDX 37 65 43 66 45 67 42 68 38 69 39 70 40 71 41 72 67 73 68 74
REMARK SMILES IDX 76 75 69 76 75 77 77 78 74 79 70 80 71 81 72 82 73 83 52 84
REMARK SMILES IDX 53 85 61 86 54 87 60 88 62 89 59 90 55 91 56 92 57 93 58 94
REMARK H PARENT 82 47 50 58
REMARK Flexibility Score: inf
ROOT
ATOM      1  C   UNL A   1      41.968  19.987  26.988  1.00  0.00     0.202 C 
ENDROOT
BRANCH   1   2
ATOM      2  C   UNL A   1      40.594  20.625  27.208  1.00  0.00     0.261 C 
BRANCH   2   3
ATOM      3  O   UNL A   1      40.049  21.140  25.979  1.00  0.00    -0.463 OA
BRANCH   3   4
ATOM      4  C   UNL A   1      39.076  22.078  26.109  1.00  0.00     0.313 C 
ATOM      5  O   UNL A   1      39.263  23.225  26.507  1.00  0.00    -0.252 OA
BRANCH   4   6
ATOM      6  C   UNL A   1      37.686  21.581  25.746  1.00  0.00     0.126 C 
ATOM      7  C   UNL A   1      37.802  20.270  24.975  1.00  0.00     0.025 C 
BRANCH   6   8
ATOM      8  C   UNL A   1      36.725  22.553  25.071  1.00  0.00    -0.031 A 
ATOM      9  C   UNL A   1      34.732  24.279  23.959  1.00  0.00     0.018 A 
ATOM     10  C   UNL A   1      35.347  23.279  23.187  1.00  0.00     0.012 A 
ATOM     11  C   UNL A   1      35.165  24.411  25.285  1.00  0.00     0.131 A 
ATOM     12  C   UNL A   1      36.325  22.429  23.733  1.00  0.00     0.005 A 
ATOM     13  C   UNL A   1      36.140  23.574  25.833  1.00  0.00     0.044 A 
ATOM     14  F   UNL A   1      34.625  25.340  26.090  1.00  0.00    -0.206 F 
BRANCH   9  15
ATOM     15  C   UNL A   1      33.669  25.141  23.404  1.00  0.00    -0.012 A 
ATOM     16  C   UNL A   1      31.820  26.697  23.738  1.00  0.00     0.119 A 
ATOM     17  C   UNL A   1      31.579  26.738  22.369  1.00  0.00     0.046 A 
ATOM     18  C   UNL A   1      32.836  25.890  24.250  1.00  0.00     0.055 A 
ATOM     19  C   UNL A   1      32.388  26.001  21.508  1.00  0.00     0.004 A 
ATOM     20  C   UNL A   1      33.428  25.215  22.021  1.00  0.00     0.009 A 
BRANCH  16  21
ATOM     21  O   UNL A   1      30.965  27.364  24.572  1.00  0.00    -0.494 OA
BRANCH  21  22
ATOM     22  C   UNL A   1      30.152  28.324  23.883  1.00  0.00     0.226 C 
ATOM     23  C   UNL A   1      30.645  29.743  24.117  1.00  0.00     0.049 C 
ENDBRANCH  21  22
ENDBRANCH  16  21
ENDBRANCH   9  15
ENDBRANCH   6   8
ENDBRANCH   4   6
ENDBRANCH   3   4
ENDBRANCH   2   3
ENDBRANCH   1   2
BRANCH   1  24
ATOM     24  O   UNL A   1      42.662  20.374  25.803  1.00  0.00    -0.374 OA
BRANCH  24  25
ATOM     25  C   UNL A   1      43.452  21.561  25.859  1.00  0.00     0.202 C 
BRANCH  25  26
ATOM     26  C   UNL A   1      43.819  22.221  24.524  1.00  0.00     0.261 C 
BRANCH  26  27
ATOM     27  O   UNL A   1      43.298  23.556  24.404  1.00  0.00    -0.460 OA
BRANCH  27  28
ATOM     28  C   UNL A   1      44.088  24.527  24.921  1.00  0.00     0.338 C 
ATOM     29  O   UNL A   1      45.236  24.796  24.587  1.00  0.00    -0.246 OA
BRANCH  28  30
ATOM     30  C   UNL A   1      43.305  25.378  25.836  1.00  0.00     0.060 A 
ATOM     31  C   UNL A   1      43.593  26.749  25.864  1.00  0.00     0.016 A 
ATOM     32  C   UNL A   1      42.353  24.835  26.703  1.00  0.00     0.016 A 
ATOM     33  C   UNL A   1      42.961  27.579  26.789  1.00  0.00     0.010 A 
ATOM     34  C   UNL A   1      41.730  25.668  27.637  1.00  0.00     0.010 A 
ATOM     35  C   UNL A   1      42.053  27.037  27.707  1.00  0.00    -0.014 A 
BRANCH  35  36
ATOM     36  C   UNL A   1      41.561  27.855  28.844  1.00  0.00     0.031 A 
ATOM     37  C   UNL A   1      42.287  27.769  30.159  1.00  0.00     0.074 A 
ATOM     38  C   UNL A   1      40.491  28.658  28.711  1.00  0.00     0.049 A 
ATOM     39  N   UNL A   1      41.970  28.282  31.319  1.00  0.00    -0.248 NA
ATOM     40  C   UNL A   1      43.536  26.993  30.162  1.00  0.00     0.031 C 
ATOM     41  C   UNL A   1      39.751  28.879  27.470  1.00  0.00     0.029 A 
ATOM     42  N   UNL A   1      39.833  29.428  29.638  1.00  0.00    -0.354 N 
ATOM     43  C   UNL A   1      42.972  27.881  32.196  1.00  0.00     0.074 A 
ATOM     44  C   UNL A   1      43.889  27.055  31.437  1.00  0.00     0.031 C 
ATOM     45  C   UNL A   1      38.725  29.712  27.718  1.00  0.00     0.029 A 
ATOM     46  C   UNL A   1      38.706  30.043  29.142  1.00  0.00     0.049 A 
ATOM     47  H   UNL A   1      40.137  29.531  30.568  1.00  0.00     0.167 HD
ATOM     48  C   UNL A   1      43.114  28.177  33.512  1.00  0.00     0.034 A 
ATOM     49  C   UNL A   1      37.750  30.754  29.775  1.00  0.00     0.034 A 
ATOM     50  C   UNL A   1      42.185  28.993  34.253  1.00  0.00     0.049 A 
ATOM     51  C   UNL A   1      37.868  30.980  31.265  1.00  0.00     0.074 A 
ATOM     52  C   UNL A   1      42.234  29.360  35.587  1.00  0.00     0.029 A 
ATOM     53  N   UNL A   1      41.030  29.560  33.729  1.00  0.00    -0.354 N 
ATOM     54  N   UNL A   1      38.810  30.582  32.090  1.00  0.00    -0.248 NA
ATOM     55  C   UNL A   1      36.794  31.749  31.910  1.00  0.00     0.031 C 
ATOM     56  C   UNL A   1      41.074  30.084  35.885  1.00  0.00     0.029 A 
ATOM     57  C   UNL A   1      40.343  30.243  34.720  1.00  0.00     0.049 A 
ATOM     58  H   UNL A   1      40.742  29.487  32.790  1.00  0.00     0.167 HD
ATOM     59  C   UNL A   1      38.461  31.088  33.340  1.00  0.00     0.074 A 
ATOM     60  C   UNL A   1      37.224  31.820  33.162  1.00  0.00     0.031 C 
ATOM     61  C   UNL A   1      39.110  30.969  34.526  1.00  0.00     0.034 A 
BRANCH  48  62
ATOM     62  C   UNL A   1      44.286  27.563  34.238  1.00  0.00     0.023 A 
ATOM     63  C   UNL A   1      45.558  28.163  34.236  1.00  0.00     0.031 A 
ATOM     64  C   UNL A   1      44.135  26.342  34.922  1.00  0.00     0.131 A 
ATOM     65  C   UNL A   1      46.641  27.507  34.841  1.00  0.00     0.055 A 
ATOM     66  C   UNL A   1      45.199  25.735  35.591  1.00  0.00     0.041 A 
ATOM     67  F   UNL A   1      42.951  25.710  34.937  1.00  0.00    -0.206 F 
ATOM     68  C   UNL A   1      46.465  26.311  35.540  1.00  0.00     0.022 A 
BRANCH  65  69
ATOM     69  S   UNL A   1      48.310  28.166  34.575  1.00  0.00     0.124 S 
ATOM     70  O   UNL A   1      48.226  29.461  35.248  1.00  0.00    -0.237 OA
ATOM     71  O   UNL A   1      49.151  27.165  35.220  1.00  0.00    -0.237 OA
ATOM     72  O   UNL A   1      48.423  28.235  33.120  1.00  0.00    -0.744 OA
ENDBRANCH  65  69
ENDBRANCH  48  62
BRANCH  49  73
ATOM     73  C   UNL A   1      36.565  31.262  29.026  1.00  0.00     0.023 A 
ATOM     74  C   UNL A   1      35.587  30.385  28.531  1.00  0.00     0.031 A 
ATOM     75  C   UNL A   1      36.424  32.633  28.739  1.00  0.00     0.131 A 
ATOM     76  C   UNL A   1      34.540  30.879  27.737  1.00  0.00     0.055 A 
ATOM     77  C   UNL A   1      35.349  33.126  27.997  1.00  0.00     0.041 A 
ATOM     78  F   UNL A   1      37.332  33.517  29.184  1.00  0.00    -0.206 F 
ATOM     79  C   UNL A   1      34.406  32.246  27.479  1.00  0.00     0.022 A 
BRANCH  76  80
ATOM     80  S   UNL A   1      33.402  29.696  26.966  1.00  0.00     0.124 S 
ATOM     81  O   UNL A   1      32.105  30.292  27.271  1.00  0.00    -0.237 OA
ATOM     82  O   UNL A   1      33.818  29.742  25.569  1.00  0.00    -0.237 OA
ATOM     83  O   UNL A   1      33.693  28.444  27.660  1.00  0.00    -0.744 OA
ENDBRANCH  76  80
ENDBRANCH  49  73
BRANCH  61  84
ATOM     84  C   UNL A   1      38.531  31.701  35.713  1.00  0.00     0.023 A 
ATOM     85  C   UNL A   1      37.924  31.024  36.785  1.00  0.00     0.031 A 
ATOM     86  C   UNL A   1      38.614  33.104  35.778  1.00  0.00     0.131 A 
ATOM     87  C   UNL A   1      37.389  31.755  37.857  1.00  0.00     0.055 A 
ATOM     88  C   UNL A   1      38.130  33.821  36.873  1.00  0.00     0.041 A 
ATOM     89  F   UNL A   1      39.183  33.801  34.781  1.00  0.00    -0.206 F 
ATOM     90  C   UNL A   1      37.505  33.147  37.916  1.00  0.00     0.022 A 
BRANCH  87  91
ATOM     91  S   UNL A   1      36.481  30.868  39.153  1.00  0.00     0.124 S 
ATOM     92  O   UNL A   1      35.311  31.721  39.342  1.00  0.00    -0.237 OA
ATOM     93  O   UNL A   1      36.230  29.572  38.530  1.00  0.00    -0.237 OA
ATOM     94  O   UNL A   1      37.417  30.842  40.275  1.00  0.00    -0.744 OA
ENDBRANCH  87  91
ENDBRANCH  61  84
ENDBRANCH  35  36
ENDBRANCH  28  30
ENDBRANCH  27  28
ENDBRANCH  26  27
ENDBRANCH  25  26
ENDBRANCH  24  25
ENDBRANCH   1  24
TORSDOF 21
ENDMDL
MODEL 3
REMARK VINA RESULT:     -10.6      4.767      8.467
REMARK SMILES CCOc1cccc(-c2ccc([C@@H](C)C(=O)OCCOCCOC(=O)c3ccc(-c4c5nc(c(-c6cc(S(=O)(=O)[O-])ccc6F)c6ccc([nH]6)c(-c6cc(S(=O)(=O)[O-])ccc6F)c6nc(c(-c7cc(S(=O)(=O)[O-])ccc7F)c7ccc4[nH]7)C=C6)C=C5)cc3)cc2F)c1
REMARK SMILES IDX 19 1 18 2 17 3 15 4 16 5 13 6 14 7 12 8 9 9 10 10 90 11
REMARK SMILES IDX 11 12 89 13 91 14 8 15 4 16 5 17 92 18 6 19 7 20 3 21 2 22
REMARK SMILES IDX 1 23 20 24 21 25 22 26 23 27 24 28 25 29 26 30 27 31 88 32
REMARK SMILES IDX 28 33 87 34 29 35 30 36 31 37 81 38 32 39 86 40 80 41 82 42
REMARK SMILES IDX 33 43 85 44 79 45 78 46 34 48 66 49 46 50 65 51 47 52 50 53
REMARK SMILES IDX 64 54 83 55 48 56 49 57 63 59 84 60 51 61 35 62 36 63 44 64
REMARK SMILES IDX 37 65 43 66 45 67 42 68 38 69 39 70 40 71 41 72 67 73 68 74
REMARK SMILES IDX 76 75 69 76 75 77 77 78 74 79 70 80 71 81 72 82 73 83 52 84
REMARK SMILES IDX 53 85 61 86 54 87 60 88 62 89 59 90 55 91 56 92 57 93 58 94
REMARK H PARENT 82 47 50 58
REMARK Flexibility Score: inf
ROOT
ATOM      1  C   UNL A   1      44.742  20.234  25.112  1.00  0.00     0.202 C 
ENDROOT
BRANCH   1   2
ATOM      2  C   UNL A   1      43.508  21.076  25.442  1.00  0.00     0.261 C 
BRANCH   2   3
ATOM      3  O   UNL A   1      42.320  20.266  25.510  1.00  0.00    -0.463 OA
BRANCH   3   4
ATOM      4  C   UNL A   1      41.764  20.130  26.742  1.00  0.00     0.313 C 
ATOM      5  O   UNL A   1      42.255  19.475  27.658  1.00  0.00    -0.252 OA
BRANCH   4   6
ATOM      6  C   UNL A   1      40.432  20.843  26.901  1.00  0.00     0.126 C 
ATOM      7  C   UNL A   1      39.470  20.367  25.816  1.00  0.00     0.025 C 
BRANCH   6   8
ATOM      8  C   UNL A   1      40.435  22.362  27.029  1.00  0.00    -0.031 A 
ATOM      9  C   UNL A   1      40.423  25.179  27.530  1.00  0.00     0.018 A 
ATOM     10  C   UNL A   1      39.368  24.553  26.843  1.00  0.00     0.012 A 
ATOM     11  C   UNL A   1      41.492  24.364  27.925  1.00  0.00     0.131 A 
ATOM     12  C   UNL A   1      39.373  23.168  26.598  1.00  0.00     0.005 A 
ATOM     13  C   UNL A   1      41.506  22.989  27.682  1.00  0.00     0.044 A 
ATOM     14  F   UNL A   1      42.536  24.884  28.589  1.00  0.00    -0.206 F 
BRANCH   9  15
ATOM     15  C   UNL A   1      40.399  26.624  27.833  1.00  0.00    -0.012 A 
ATOM     16  C   UNL A   1      40.225  28.442  29.451  1.00  0.00     0.119 A 
ATOM     17  C   UNL A   1      40.274  29.384  28.430  1.00  0.00     0.046 A 
ATOM     18  C   UNL A   1      40.262  27.079  29.155  1.00  0.00     0.055 A 
ATOM     19  C   UNL A   1      40.405  28.959  27.110  1.00  0.00     0.004 A 
ATOM     20  C   UNL A   1      40.474  27.591  26.816  1.00  0.00     0.009 A 
BRANCH  16  21
ATOM     21  O   UNL A   1      40.015  28.876  30.731  1.00  0.00    -0.494 OA
BRANCH  21  22
ATOM     22  C   UNL A   1      39.466  27.858  31.580  1.00  0.00     0.226 C 
ATOM     23  C   UNL A   1      38.161  28.306  32.218  1.00  0.00     0.049 C 
ENDBRANCH  21  22
ENDBRANCH  16  21
ENDBRANCH   9  15
ENDBRANCH   6   8
ENDBRANCH   4   6
ENDBRANCH   3   4
ENDBRANCH   2   3
ENDBRANCH   1   2
BRANCH   1  24
ATOM     24  O   UNL A   1      46.004  20.892  25.218  1.00  0.00    -0.374 OA
BRANCH  24  25
ATOM     25  C   UNL A   1      46.000  22.273  25.575  1.00  0.00     0.202 C 
BRANCH  25  26
ATOM     26  C   UNL A   1      46.265  23.286  24.454  1.00  0.00     0.261 C 
BRANCH  26  27
ATOM     27  O   UNL A   1      45.656  24.565  24.708  1.00  0.00    -0.460 OA
BRANCH  27  28
ATOM     28  C   UNL A   1      46.522  25.560  25.017  1.00  0.00     0.338 C 
ATOM     29  O   UNL A   1      47.633  25.744  24.534  1.00  0.00    -0.246 OA
BRANCH  28  30
ATOM     30  C   UNL A   1      45.865  26.541  25.900  1.00  0.00     0.060 A 
ATOM     31  C   UNL A   1      46.676  27.301  26.753  1.00  0.00     0.016 A 
ATOM     32  C   UNL A   1      44.474  26.668  25.944  1.00  0.00     0.016 A 
ATOM     33  C   UNL A   1      46.099  28.162  27.685  1.00  0.00     0.010 A 
ATOM     34  C   UNL A   1      43.898  27.523  26.888  1.00  0.00     0.010 A 
ATOM     35  C   UNL A   1      44.704  28.251  27.784  1.00  0.00    -0.014 A 
BRANCH  35  36
ATOM     36  C   UNL A   1      44.080  28.970  28.922  1.00  0.00     0.031 A 
ATOM     37  C   UNL A   1      43.827  30.447  28.789  1.00  0.00     0.074 A 
ATOM     38  C   UNL A   1      43.744  28.325  30.053  1.00  0.00     0.049 A 
ATOM     39  N   UNL A   1      43.420  31.306  29.686  1.00  0.00    -0.248 NA
ATOM     40  C   UNL A   1      44.077  31.032  27.463  1.00  0.00     0.031 C 
ATOM     41  C   UNL A   1      43.874  26.886  30.273  1.00  0.00     0.029 A 
ATOM     42  N   UNL A   1      43.237  28.802  31.236  1.00  0.00    -0.354 N 
ATOM     43  C   UNL A   1      43.375  32.537  29.040  1.00  0.00     0.074 A 
ATOM     44  C   UNL A   1      43.829  32.314  27.682  1.00  0.00     0.031 C 
ATOM     45  C   UNL A   1      43.477  26.599  31.525  1.00  0.00     0.029 A 
ATOM     46  C   UNL A   1      43.114  27.838  32.211  1.00  0.00     0.049 A 
ATOM     47  H   UNL A   1      42.985  29.744  31.375  1.00  0.00     0.167 HD
ATOM     48  C   UNL A   1      42.988  33.739  29.533  1.00  0.00     0.034 A 
ATOM     49  C   UNL A   1      42.786  27.953  33.515  1.00  0.00     0.034 A 
ATOM     50  C   UNL A   1      42.548  33.943  30.890  1.00  0.00     0.049 A 
ATOM     51  C   UNL A   1      42.464  29.319  34.074  1.00  0.00     0.074 A 
ATOM     52  C   UNL A   1      42.130  35.116  31.494  1.00  0.00     0.029 A 
ATOM     53  N   UNL A   1      42.480  32.952  31.862  1.00  0.00    -0.354 N 
ATOM     54  N   UNL A   1      42.442  30.481  33.459  1.00  0.00    -0.248 NA
ATOM     55  C   UNL A   1      42.127  29.393  35.502  1.00  0.00     0.031 C 
ATOM     56  C   UNL A   1      41.881  34.850  32.845  1.00  0.00     0.029 A 
ATOM     57  C   UNL A   1      42.061  33.494  33.067  1.00  0.00     0.049 A 
ATOM     58  H   UNL A   1      42.699  32.003  31.715  1.00  0.00     0.167 HD
ATOM     59  C   UNL A   1      42.048  31.412  34.417  1.00  0.00     0.074 A 
ATOM     60  C   UNL A   1      41.843  30.679  35.649  1.00  0.00     0.031 C 
ATOM     61  C   UNL A   1      41.861  32.750  34.287  1.00  0.00     0.034 A 
BRANCH  48  62
ATOM     62  C   UNL A   1      43.083  34.930  28.610  1.00  0.00     0.023 A 
ATOM     63  C   UNL A   1      44.320  35.500  28.259  1.00  0.00     0.031 A 
ATOM     64  C   UNL A   1      41.915  35.522  28.096  1.00  0.00     0.131 A 
ATOM     65  C   UNL A   1      44.356  36.666  27.478  1.00  0.00     0.055 A 
ATOM     66  C   UNL A   1      41.962  36.635  27.253  1.00  0.00     0.041 A 
ATOM     67  F   UNL A   1      40.706  35.038  28.417  1.00  0.00    -0.206 F 
ATOM     68  C   UNL A   1      43.187  37.222  26.952  1.00  0.00     0.022 A 
BRANCH  65  69
ATOM     69  S   UNL A   1      45.940  37.528  27.282  1.00  0.00     0.124 S 
ATOM     70  O   UNL A   1      46.590  37.244  28.560  1.00  0.00    -0.237 OA
ATOM     71  O   UNL A   1      46.513  36.872  26.114  1.00  0.00    -0.237 OA
ATOM     72  O   UNL A   1      45.548  38.922  27.088  1.00  0.00    -0.744 OA
ENDBRANCH  65  69
ENDBRANCH  48  62
BRANCH  49  73
ATOM     73  C   UNL A   1      42.794  26.755  34.404  1.00  0.00     0.023 A 
ATOM     74  C   UNL A   1      43.998  26.183  34.841  1.00  0.00     0.031 A 
ATOM     75  C   UNL A   1      41.592  26.127  34.781  1.00  0.00     0.131 A 
ATOM     76  C   UNL A   1      43.979  24.995  35.588  1.00  0.00     0.055 A 
ATOM     77  C   UNL A   1      41.577  24.976  35.572  1.00  0.00     0.041 A 
ATOM     78  F   UNL A   1      40.410  26.628  34.389  1.00  0.00    -0.206 F 
ATOM     79  C   UNL A   1      42.776  24.396  35.969  1.00  0.00     0.022 A 
BRANCH  76  80
ATOM     80  S   UNL A   1      45.557  24.189  35.977  1.00  0.00     0.124 S 
ATOM     81  O   UNL A   1      45.165  22.784  36.035  1.00  0.00    -0.237 OA
ATOM     82  O   UNL A   1      46.384  24.578  34.841  1.00  0.00    -0.237 OA
ATOM     83  O   UNL A   1      45.936  24.785  37.256  1.00  0.00    -0.744 OA
ENDBRANCH  76  80
ENDBRANCH  49  73
BRANCH  61  84
ATOM     84  C   UNL A   1      41.347  33.500  35.492  1.00  0.00     0.023 A 
ATOM     85  C   UNL A   1      42.210  34.151  36.391  1.00  0.00     0.031 A 
ATOM     86  C   UNL A   1      39.962  33.583  35.727  1.00  0.00     0.131 A 
ATOM     87  C   UNL A   1      41.680  34.824  37.504  1.00  0.00     0.055 A 
ATOM     88  C   UNL A   1      39.439  34.300  36.804  1.00  0.00     0.041 A 
ATOM     89  F   UNL A   1      39.093  32.979  34.900  1.00  0.00    -0.206 F 
ATOM     90  C   UNL A   1      40.299  34.917  37.704  1.00  0.00     0.022 A 
BRANCH  87  91
ATOM     91  S   UNL A   1      42.820  35.527  38.726  1.00  0.00     0.124 S 
ATOM     92  O   UNL A   1      44.091  35.499  38.007  1.00  0.00    -0.237 OA
ATOM     93  O   UNL A   1      42.251  36.850  38.962  1.00  0.00    -0.237 OA
ATOM     94  O   UNL A   1      42.727  34.605  39.856  1.00  0.00    -0.744 OA
ENDBRANCH  87  91
ENDBRANCH  61  84
ENDBRANCH  35  36
ENDBRANCH  28  30
ENDBRANCH  27  28
ENDBRANCH  26  27
ENDBRANCH  25  26
ENDBRANCH  24  25
ENDBRANCH   1  24
TORSDOF 21
ENDMDL
