MODEL 1
REMARK VINA RESULT:     -10.2      0.000      0.000
REMARK SMILES CC[C@@H](C)N(CC(=O)OCCOCCOC(=O)c1ccc(-c2c3nc(c(-c4cc(S(=O)(=O)[O-])ccc4F)c4ccc([nH]4)c(-c4cc(S(=O)(=O)[O-])ccc4F)c4nc(c(-c5cc(S(=O)(=O)[O-])ccc5F)c5ccc2[nH]5)C=C4)C=C3)cc1)C(=O)NCc1cscc1C
REMARK SMILES IDX 11 1 10 2 9 3 7 4 8 5 6 6 5 7 3 8 4 9 2 10 1 11 81 12 82 13
REMARK SMILES IDX 83 14 84 16 85 17 86 18 89 19 87 20 88 21 90 22 12 23 13 24
REMARK SMILES IDX 14 25 15 26 16 27 17 28 18 29 19 30 80 31 20 32 79 33 21 34
REMARK SMILES IDX 22 35 23 36 73 37 24 38 78 39 72 40 74 41 25 42 77 43 71 44
REMARK SMILES IDX 70 45 26 47 58 48 38 49 57 50 39 51 42 52 56 53 75 54 40 55
REMARK SMILES IDX 41 56 55 58 76 59 43 60 27 61 28 62 36 63 29 64 35 65 37 66
REMARK SMILES IDX 34 67 30 68 31 69 32 70 33 71 59 72 60 73 68 74 61 75 67 76
REMARK SMILES IDX 69 77 66 78 62 79 63 80 64 81 65 82 44 83 45 84 53 85 46 86
REMARK SMILES IDX 52 87 54 88 51 89 47 90 48 91 49 92 50 93
REMARK H PARENT 83 15 74 46 42 57
REMARK Flexibility Score: inf
ROOT
ATOM      1  C   UNL A   1      35.799  23.705  24.485  1.00  0.00     0.202 C 
ENDROOT
BRANCH   1   2
ATOM      2  C   UNL A   1      34.680  24.124  23.494  1.00  0.00     0.261 C 
BRANCH   2   3
ATOM      3  O   UNL A   1      34.068  25.395  23.849  1.00  0.00    -0.462 OA
BRANCH   3   4
ATOM      4  C   UNL A   1      33.323  25.999  22.889  1.00  0.00     0.325 C 
ATOM      5  O   UNL A   1      33.734  26.227  21.754  1.00  0.00    -0.250 OA
BRANCH   4   6
ATOM      6  C   UNL A   1      31.915  26.473  23.341  1.00  0.00     0.244 C 
BRANCH   6   7
ATOM      7  N   UNL A   1      31.551  26.975  24.690  1.00  0.00    -0.311 N 
BRANCH   7   8
ATOM      8  C   UNL A   1      31.527  28.479  24.820  1.00  0.00     0.084 C 
ATOM      9  C   UNL A   1      30.734  29.188  23.709  1.00  0.00     0.031 C 
BRANCH   8  10
ATOM     10  C   UNL A   1      32.949  29.083  24.971  1.00  0.00     0.021 C 
ATOM     11  C   UNL A   1      33.896  28.256  25.835  1.00  0.00     0.006 C 
ENDBRANCH   8  10
ENDBRANCH   7   8
BRANCH   7  12
ATOM     12  C   UNL A   1      31.156  26.240  25.782  1.00  0.00     0.318 C 
ATOM     13  O   UNL A   1      30.774  26.796  26.821  1.00  0.00    -0.249 OA
ATOM     14  N   UNL A   1      31.198  24.906  25.930  1.00  0.00    -0.334 N 
ATOM     15  H   UNL A   1      31.185  24.697  26.893  1.00  0.00     0.165 HD
BRANCH  14  16
ATOM     16  C   UNL A   1      31.256  23.660  25.185  1.00  0.00     0.154 C 
BRANCH  16  17
ATOM     17  C   UNL A   1      32.234  22.616  25.701  1.00  0.00    -0.015 A 
ATOM     18  C   UNL A   1      32.945  22.884  26.866  1.00  0.00     0.070 A 
ATOM     19  C   UNL A   1      32.689  21.336  25.150  1.00  0.00    -0.035 A 
ATOM     20  S   UNL A   1      33.953  21.619  27.390  1.00  0.00    -0.152 S 
ATOM     21  C   UNL A   1      33.525  20.678  26.045  1.00  0.00     0.068 A 
ATOM     22  C   UNL A   1      32.368  20.678  23.842  1.00  0.00     0.045 C 
ENDBRANCH  16  17
ENDBRANCH  14  16
ENDBRANCH   7  12
ENDBRANCH   6   7
ENDBRANCH   4   6
ENDBRANCH   3   4
ENDBRANCH   2   3
ENDBRANCH   1   2
BRANCH   1  23
ATOM     23  O   UNL A   1      36.833  22.868  23.952  1.00  0.00    -0.374 OA
BRANCH  23  24
ATOM     24  C   UNL A   1      36.637  21.495  24.261  1.00  0.00     0.202 C 
BRANCH  24  25
ATOM     25  C   UNL A   1      37.739  20.772  24.997  1.00  0.00     0.261 C 
BRANCH  25  26
ATOM     26  O   UNL A   1      38.199  21.586  26.044  1.00  0.00    -0.460 OA
BRANCH  26  27
ATOM     27  C   UNL A   1      39.498  21.375  26.324  1.00  0.00     0.338 C 
ATOM     28  O   UNL A   1      40.194  20.414  26.074  1.00  0.00    -0.246 OA
BRANCH  27  29
ATOM     29  C   UNL A   1      39.946  22.654  26.843  1.00  0.00     0.060 A 
ATOM     30  C   UNL A   1      39.324  23.790  26.336  1.00  0.00     0.016 A 
ATOM     31  C   UNL A   1      40.917  22.697  27.857  1.00  0.00     0.016 A 
ATOM     32  C   UNL A   1      39.742  25.016  26.796  1.00  0.00     0.010 A 
ATOM     33  C   UNL A   1      41.309  23.921  28.343  1.00  0.00     0.010 A 
ATOM     34  C   UNL A   1      40.756  25.067  27.764  1.00  0.00    -0.014 A 
BRANCH  34  35
ATOM     35  C   UNL A   1      41.373  26.355  28.052  1.00  0.00     0.031 A 
ATOM     36  C   UNL A   1      42.758  26.578  27.539  1.00  0.00     0.074 A 
ATOM     37  C   UNL A   1      40.649  27.251  28.733  1.00  0.00     0.049 A 
ATOM     38  N   UNL A   1      43.518  27.626  27.656  1.00  0.00    -0.248 NA
ATOM     39  C   UNL A   1      43.379  25.458  26.805  1.00  0.00     0.031 C 
ATOM     40  C   UNL A   1      39.286  27.028  29.228  1.00  0.00     0.029 A 
ATOM     41  N   UNL A   1      40.948  28.519  29.117  1.00  0.00    -0.354 N 
ATOM     42  C   UNL A   1      44.705  27.296  27.014  1.00  0.00     0.074 A 
ATOM     43  C   UNL A   1      44.588  25.932  26.555  1.00  0.00     0.031 C 
ATOM     44  C   UNL A   1      38.860  28.143  29.840  1.00  0.00     0.029 A 
ATOM     45  C   UNL A   1      39.933  29.128  29.811  1.00  0.00     0.049 A 
ATOM     46  H   UNL A   1      41.806  28.958  28.918  1.00  0.00     0.167 HD
ATOM     47  C   UNL A   1      45.785  28.088  26.828  1.00  0.00     0.034 A 
ATOM     48  C   UNL A   1      39.907  30.353  30.362  1.00  0.00     0.034 A 
ATOM     49  C   UNL A   1      45.830  29.435  27.341  1.00  0.00     0.049 A 
ATOM     50  C   UNL A   1      41.132  31.205  30.160  1.00  0.00     0.074 A 
ATOM     51  C   UNL A   1      46.846  30.366  27.260  1.00  0.00     0.029 A 
ATOM     52  N   UNL A   1      44.791  30.035  28.052  1.00  0.00    -0.354 N 
ATOM     53  N   UNL A   1      42.255  30.901  29.542  1.00  0.00    -0.248 NA
ATOM     54  C   UNL A   1      41.084  32.562  30.704  1.00  0.00     0.031 C 
ATOM     55  C   UNL A   1      46.445  31.502  27.973  1.00  0.00     0.029 A 
ATOM     56  C   UNL A   1      45.149  31.315  28.435  1.00  0.00     0.049 A 
ATOM     57  H   UNL A   1      43.927  29.609  28.253  1.00  0.00     0.167 HD
ATOM     58  C   UNL A   1      43.047  32.039  29.607  1.00  0.00     0.074 A 
ATOM     59  C   UNL A   1      42.251  33.041  30.300  1.00  0.00     0.031 C 
ATOM     60  C   UNL A   1      44.309  32.253  29.149  1.00  0.00     0.034 A 
BRANCH  47  61
ATOM     61  C   UNL A   1      46.974  27.486  26.117  1.00  0.00     0.023 A 
ATOM     62  C   UNL A   1      48.071  26.949  26.820  1.00  0.00     0.031 A 
ATOM     63  C   UNL A   1      47.052  27.519  24.714  1.00  0.00     0.131 A 
ATOM     64  C   UNL A   1      49.222  26.541  26.126  1.00  0.00     0.055 A 
ATOM     65  C   UNL A   1      48.167  27.037  24.024  1.00  0.00     0.041 A 
ATOM     66  F   UNL A   1      46.057  28.050  23.987  1.00  0.00    -0.206 F 
ATOM     67  C   UNL A   1      49.267  26.558  24.730  1.00  0.00     0.022 A 
BRANCH  64  68
ATOM     68  S   UNL A   1      50.713  26.126  27.073  1.00  0.00     0.124 S 
ATOM     69  O   UNL A   1      51.764  26.703  26.238  1.00  0.00    -0.237 OA
ATOM     70  O   UNL A   1      50.474  26.790  28.349  1.00  0.00    -0.237 OA
ATOM     71  O   UNL A   1      50.696  24.665  27.118  1.00  0.00    -0.744 OA
ENDBRANCH  64  68
ENDBRANCH  47  61
BRANCH  48  72
ATOM     72  C   UNL A   1      38.714  30.809  31.121  1.00  0.00     0.023 A 
ATOM     73  C   UNL A   1      37.623  31.403  30.471  1.00  0.00     0.031 A 
ATOM     74  C   UNL A   1      38.635  30.639  32.516  1.00  0.00     0.131 A 
ATOM     75  C   UNL A   1      36.515  31.838  31.216  1.00  0.00     0.055 A 
ATOM     76  C   UNL A   1      37.511  31.027  33.248  1.00  0.00     0.041 A 
ATOM     77  F   UNL A   1      39.643  30.060  33.188  1.00  0.00    -0.206 F 
ATOM     78  C   UNL A   1      36.446  31.642  32.597  1.00  0.00     0.022 A 
BRANCH  75  79
ATOM     79  S   UNL A   1      35.189  32.729  30.359  1.00  0.00     0.124 S 
ATOM     80  O   UNL A   1      34.180  32.842  31.406  1.00  0.00    -0.237 OA
ATOM     81  O   UNL A   1      35.859  33.968  29.976  1.00  0.00    -0.237 OA
ATOM     82  O   UNL A   1      34.843  31.841  29.251  1.00  0.00    -0.744 OA
ENDBRANCH  75  79
ENDBRANCH  48  72
BRANCH  60  83
ATOM     83  C   UNL A   1      44.863  33.632  29.382  1.00  0.00     0.023 A 
ATOM     84  C   UNL A   1      44.802  34.617  28.384  1.00  0.00     0.031 A 
ATOM     85  C   UNL A   1      45.484  33.947  30.601  1.00  0.00     0.131 A 
ATOM     86  C   UNL A   1      45.428  35.851  28.594  1.00  0.00     0.055 A 
ATOM     87  C   UNL A   1      46.038  35.204  30.831  1.00  0.00     0.041 A 
ATOM     88  F   UNL A   1      45.565  33.035  31.585  1.00  0.00    -0.206 F 
ATOM     89  C   UNL A   1      46.028  36.159  29.818  1.00  0.00     0.022 A 
BRANCH  86  90
ATOM     90  S   UNL A   1      45.557  36.996  27.195  1.00  0.00     0.124 S 
ATOM     91  O   UNL A   1      45.885  36.093  26.096  1.00  0.00    -0.237 OA
ATOM     92  O   UNL A   1      44.225  37.592  27.156  1.00  0.00    -0.237 OA
ATOM     93  O   UNL A   1      46.631  37.903  27.596  1.00  0.00    -0.744 OA
ENDBRANCH  86  90
ENDBRANCH  60  83
ENDBRANCH  34  35
ENDBRANCH  27  29
ENDBRANCH  26  27
ENDBRANCH  25  26
ENDBRANCH  24  25
ENDBRANCH  23  24
ENDBRANCH   1  23
TORSDOF 23
ENDMDL
MODEL 2
REMARK VINA RESULT:     -10.0      1.900      3.014
REMARK SMILES CC[C@@H](C)N(CC(=O)OCCOCCOC(=O)c1ccc(-c2c3nc(c(-c4cc(S(=O)(=O)[O-])ccc4F)c4ccc([nH]4)c(-c4cc(S(=O)(=O)[O-])ccc4F)c4nc(c(-c5cc(S(=O)(=O)[O-])ccc5F)c5ccc2[nH]5)C=C4)C=C3)cc1)C(=O)NCc1cscc1C
REMARK SMILES IDX 11 1 10 2 9 3 7 4 8 5 6 6 5 7 3 8 4 9 2 10 1 11 81 12 82 13
REMARK SMILES IDX 83 14 84 16 85 17 86 18 89 19 87 20 88 21 90 22 12 23 13 24
REMARK SMILES IDX 14 25 15 26 16 27 17 28 18 29 19 30 80 31 20 32 79 33 21 34
REMARK SMILES IDX 22 35 23 36 73 37 24 38 78 39 72 40 74 41 25 42 77 43 71 44
REMARK SMILES IDX 70 45 26 47 58 48 38 49 57 50 39 51 42 52 56 53 75 54 40 55
REMARK SMILES IDX 41 56 55 58 76 59 43 60 27 61 28 62 36 63 29 64 35 65 37 66
REMARK SMILES IDX 34 67 30 68 31 69 32 70 33 71 59 72 60 73 68 74 61 75 67 76
REMARK SMILES IDX 69 77 66 78 62 79 63 80 64 81 65 82 44 83 45 84 53 85 46 86
REMARK SMILES IDX 52 87 54 88 51 89 47 90 48 91 49 92 50 93
REMARK H PARENT 83 15 74 46 42 57
REMARK Flexibility Score: inf
ROOT
ATOM      1  C   UNL A   1      34.305  22.664  23.819  1.00  0.00     0.202 C 
ENDROOT
BRANCH   1   2
ATOM      2  C   UNL A   1      33.875  23.404  22.526  1.00  0.00     0.261 C 
BRANCH   2   3
ATOM      3  O   UNL A   1      33.460  24.776  22.780  1.00  0.00    -0.462 OA
BRANCH   3   4
ATOM      4  C   UNL A   1      32.249  25.145  22.290  1.00  0.00     0.325 C 
ATOM      5  O   UNL A   1      32.105  25.854  21.297  1.00  0.00    -0.250 OA
BRANCH   4   6
ATOM      6  C   UNL A   1      31.025  24.676  23.123  1.00  0.00     0.244 C 
BRANCH   6   7
ATOM      7  N   UNL A   1      30.286  25.485  24.124  1.00  0.00    -0.311 N 
BRANCH   7   8
ATOM      8  C   UNL A   1      30.678  25.229  25.559  1.00  0.00     0.084 C 
ATOM      9  C   UNL A   1      31.956  25.965  25.997  1.00  0.00     0.031 C 
BRANCH   8  10
ATOM     10  C   UNL A   1      30.760  23.714  25.889  1.00  0.00     0.021 C 
ATOM     11  C   UNL A   1      31.851  23.344  26.888  1.00  0.00     0.006 C 
ENDBRANCH   8  10
ENDBRANCH   7   8
BRANCH   7  12
ATOM     12  C   UNL A   1      29.370  26.482  23.889  1.00  0.00     0.318 C 
ATOM     13  O   UNL A   1      28.181  26.346  24.209  1.00  0.00    -0.249 OA
ATOM     14  N   UNL A   1      29.570  27.643  23.244  1.00  0.00    -0.334 N 
ATOM     15  H   UNL A   1      28.699  27.983  22.933  1.00  0.00     0.165 HD
BRANCH  14  16
ATOM     16  C   UNL A   1      30.606  28.579  22.840  1.00  0.00     0.154 C 
BRANCH  16  17
ATOM     17  C   UNL A   1      31.552  29.045  23.936  1.00  0.00    -0.015 A 
ATOM     18  C   UNL A   1      31.055  29.863  24.945  1.00  0.00     0.070 A 
ATOM     19  C   UNL A   1      32.996  28.882  24.124  1.00  0.00    -0.035 A 
ATOM     20  S   UNL A   1      32.181  30.262  26.154  1.00  0.00    -0.152 S 
ATOM     21  C   UNL A   1      33.402  29.404  25.347  1.00  0.00     0.068 A 
ATOM     22  C   UNL A   1      34.021  28.242  23.235  1.00  0.00     0.045 C 
ENDBRANCH  16  17
ENDBRANCH  14  16
ENDBRANCH   7  12
ENDBRANCH   6   7
ENDBRANCH   4   6
ENDBRANCH   3   4
ENDBRANCH   2   3
ENDBRANCH   1   2
BRANCH   1  23
ATOM     23  O   UNL A   1      35.637  22.133  23.829  1.00  0.00    -0.374 OA
BRANCH  23  24
ATOM     24  C   UNL A   1      35.865  21.254  24.923  1.00  0.00     0.202 C 
BRANCH  24  25
ATOM     25  C   UNL A   1      37.259  20.706  25.110  1.00  0.00     0.261 C 
BRANCH  25  26
ATOM     26  O   UNL A   1      38.137  21.771  25.368  1.00  0.00    -0.460 OA
BRANCH  26  27
ATOM     27  C   UNL A   1      39.197  21.393  26.104  1.00  0.00     0.338 C 
ATOM     28  O   UNL A   1      39.728  20.306  26.190  1.00  0.00    -0.246 OA
BRANCH  27  29
ATOM     29  C   UNL A   1      39.697  22.642  26.649  1.00  0.00     0.060 A 
ATOM     30  C   UNL A   1      39.086  23.810  26.202  1.00  0.00     0.016 A 
ATOM     31  C   UNL A   1      40.704  22.628  27.626  1.00  0.00     0.016 A 
ATOM     32  C   UNL A   1      39.552  25.009  26.687  1.00  0.00     0.010 A 
ATOM     33  C   UNL A   1      41.145  23.824  28.138  1.00  0.00     0.010 A 
ATOM     34  C   UNL A   1      40.601  25.003  27.618  1.00  0.00    -0.014 A 
BRANCH  34  35
ATOM     35  C   UNL A   1      41.261  26.264  27.926  1.00  0.00     0.031 A 
ATOM     36  C   UNL A   1      42.667  26.432  27.452  1.00  0.00     0.074 A 
ATOM     37  C   UNL A   1      40.555  27.188  28.588  1.00  0.00     0.049 A 
ATOM     38  N   UNL A   1      43.466  27.449  27.593  1.00  0.00    -0.248 NA
ATOM     39  C   UNL A   1      43.263  25.289  26.734  1.00  0.00     0.031 C 
ATOM     40  C   UNL A   1      39.170  27.020  29.044  1.00  0.00     0.029 A 
ATOM     41  N   UNL A   1      40.893  28.443  28.983  1.00  0.00    -0.354 N 
ATOM     42  C   UNL A   1      44.655  27.072  26.983  1.00  0.00     0.074 A 
ATOM     43  C   UNL A   1      44.496  25.714  26.519  1.00  0.00     0.031 C 
ATOM     44  C   UNL A   1      38.773  28.151  29.646  1.00  0.00     0.029 A 
ATOM     45  C   UNL A   1      39.884  29.092  29.649  1.00  0.00     0.049 A 
ATOM     46  H   UNL A   1      41.774  28.847  28.808  1.00  0.00     0.167 HD
ATOM     47  C   UNL A   1      45.771  27.820  26.829  1.00  0.00     0.034 A 
ATOM     48  C   UNL A   1      39.892  30.316  30.201  1.00  0.00     0.034 A 
ATOM     49  C   UNL A   1      45.856  29.164  27.345  1.00  0.00     0.049 A 
ATOM     50  C   UNL A   1      41.155  31.119  30.035  1.00  0.00     0.074 A 
ATOM     51  C   UNL A   1      46.910  30.053  27.295  1.00  0.00     0.029 A 
ATOM     52  N   UNL A   1      44.822  29.805  28.029  1.00  0.00    -0.354 N 
ATOM     53  N   UNL A   1      42.282  30.771  29.448  1.00  0.00    -0.248 NA
ATOM     54  C   UNL A   1      41.146  32.476  30.580  1.00  0.00     0.031 C 
ATOM     55  C   UNL A   1      46.535  31.204  27.999  1.00  0.00     0.029 A 
ATOM     56  C   UNL A   1      45.220  31.069  28.423  1.00  0.00     0.049 A 
ATOM     57  H   UNL A   1      43.936  29.413  28.204  1.00  0.00     0.167 HD
ATOM     58  C   UNL A   1      43.117  31.876  29.538  1.00  0.00     0.074 A 
ATOM     59  C   UNL A   1      42.343  32.908  30.210  1.00  0.00     0.031 C 
ATOM     60  C   UNL A   1      44.399  32.039  29.115  1.00  0.00     0.034 A 
BRANCH  47  61
ATOM     61  C   UNL A   1      46.955  27.171  26.151  1.00  0.00     0.023 A 
ATOM     62  C   UNL A   1      47.922  26.444  26.871  1.00  0.00     0.031 A 
ATOM     63  C   UNL A   1      47.166  27.348  24.772  1.00  0.00     0.131 A 
ATOM     64  C   UNL A   1      49.086  25.989  26.230  1.00  0.00     0.055 A 
ATOM     65  C   UNL A   1      48.286  26.823  24.123  1.00  0.00     0.041 A 
ATOM     66  F   UNL A   1      46.301  28.062  24.035  1.00  0.00    -0.206 F 
ATOM     67  C   UNL A   1      49.262  26.152  24.854  1.00  0.00     0.022 A 
BRANCH  64  68
ATOM     68  S   UNL A   1      50.433  25.311  27.239  1.00  0.00     0.124 S 
ATOM     69  O   UNL A   1      49.794  24.140  27.835  1.00  0.00    -0.237 OA
ATOM     70  O   UNL A   1      51.467  25.040  26.247  1.00  0.00    -0.237 OA
ATOM     71  O   UNL A   1      50.737  26.390  28.176  1.00  0.00    -0.744 OA
ENDBRANCH  64  68
ENDBRANCH  47  61
BRANCH  48  72
ATOM     72  C   UNL A   1      38.697  30.819  30.927  1.00  0.00     0.023 A 
ATOM     73  C   UNL A   1      37.708  31.565  30.270  1.00  0.00     0.031 A 
ATOM     74  C   UNL A   1      38.512  30.544  32.295  1.00  0.00     0.131 A 
ATOM     75  C   UNL A   1      36.597  32.039  30.985  1.00  0.00     0.055 A 
ATOM     76  C   UNL A   1      37.382  30.975  32.992  1.00  0.00     0.041 A 
ATOM     77  F   UNL A   1      39.419  29.820  32.971  1.00  0.00    -0.206 F 
ATOM     78  C   UNL A   1      36.421  31.738  32.338  1.00  0.00     0.022 A 
BRANCH  75  79
ATOM     79  S   UNL A   1      35.414  33.118  30.135  1.00  0.00     0.124 S 
ATOM     80  O   UNL A   1      36.279  33.833  29.202  1.00  0.00    -0.237 OA
ATOM     81  O   UNL A   1      34.494  32.151  29.545  1.00  0.00    -0.237 OA
ATOM     82  O   UNL A   1      34.856  33.929  31.216  1.00  0.00    -0.744 OA
ENDBRANCH  75  79
ENDBRANCH  48  72
BRANCH  60  83
ATOM     83  C   UNL A   1      45.001  33.394  29.367  1.00  0.00     0.023 A 
ATOM     84  C   UNL A   1      45.698  33.670  30.553  1.00  0.00     0.031 A 
ATOM     85  C   UNL A   1      44.844  34.423  28.424  1.00  0.00     0.131 A 
ATOM     86  C   UNL A   1      46.146  34.972  30.804  1.00  0.00     0.055 A 
ATOM     87  C   UNL A   1      45.359  35.698  28.647  1.00  0.00     0.041 A 
ATOM     88  F   UNL A   1      44.184  34.205  27.275  1.00  0.00    -0.206 F 
ATOM     89  C   UNL A   1      45.998  35.983  29.851  1.00  0.00     0.022 A 
BRANCH  86  90
ATOM     90  S   UNL A   1      46.806  35.350  32.449  1.00  0.00     0.124 S 
ATOM     91  O   UNL A   1      48.245  35.268  32.222  1.00  0.00    -0.237 OA
ATOM     92  O   UNL A   1      46.274  36.687  32.698  1.00  0.00    -0.237 OA
ATOM     93  O   UNL A   1      46.248  34.293  33.291  1.00  0.00    -0.744 OA
ENDBRANCH  86  90
ENDBRANCH  60  83
ENDBRANCH  34  35
ENDBRANCH  27  29
ENDBRANCH  26  27
ENDBRANCH  25  26
ENDBRANCH  24  25
ENDBRANCH  23  24
ENDBRANCH   1  23
TORSDOF 23
ENDMDL
MODEL 3
REMARK VINA RESULT:      -9.9      4.714     10.094
REMARK SMILES CC[C@@H](C)N(CC(=O)OCCOCCOC(=O)c1ccc(-c2c3nc(c(-c4cc(S(=O)(=O)[O-])ccc4F)c4ccc([nH]4)c(-c4cc(S(=O)(=O)[O-])ccc4F)c4nc(c(-c5cc(S(=O)(=O)[O-])ccc5F)c5ccc2[nH]5)C=C4)C=C3)cc1)C(=O)NCc1cscc1C
REMARK SMILES IDX 11 1 10 2 9 3 7 4 8 5 6 6 5 7 3 8 4 9 2 10 1 11 81 12 82 13
REMARK SMILES IDX 83 14 84 16 85 17 86 18 89 19 87 20 88 21 90 22 12 23 13 24
REMARK SMILES IDX 14 25 15 26 16 27 17 28 18 29 19 30 80 31 20 32 79 33 21 34
REMARK SMILES IDX 22 35 23 36 73 37 24 38 78 39 72 40 74 41 25 42 77 43 71 44
REMARK SMILES IDX 70 45 26 47 58 48 38 49 57 50 39 51 42 52 56 53 75 54 40 55
REMARK SMILES IDX 41 56 55 58 76 59 43 60 27 61 28 62 36 63 29 64 35 65 37 66
REMARK SMILES IDX 34 67 30 68 31 69 32 70 33 71 59 72 60 73 68 74 61 75 67 76
REMARK SMILES IDX 69 77 66 78 62 79 63 80 64 81 65 82 44 83 45 84 53 85 46 86
REMARK SMILES IDX 52 87 54 88 51 89 47 90 48 91 49 92 50 93
REMARK H PARENT 83 15 74 46 42 57
REMARK Flexibility Score: inf
ROOT
ATOM      1  C   UNL A   1      31.908  27.601  25.852  1.00  0.00     0.202 C 
ENDROOT
BRANCH   1   2
ATOM      2  C   UNL A   1      31.905  26.351  24.934  1.00  0.00     0.261 C 
BRANCH   2   3
ATOM      3  O   UNL A   1      30.775  25.471  25.194  1.00  0.00    -0.462 OA
BRANCH   3   4
ATOM      4  C   UNL A   1      31.015  24.389  25.978  1.00  0.00     0.325 C 
ATOM      5  O   UNL A   1      31.318  24.467  27.167  1.00  0.00    -0.250 OA
BRANCH   4   6
ATOM      6  C   UNL A   1      30.966  23.018  25.252  1.00  0.00     0.244 C 
BRANCH   6   7
ATOM      7  N   UNL A   1      32.115  22.318  24.624  1.00  0.00    -0.311 N 
BRANCH   7   8
ATOM      8  C   UNL A   1      32.316  20.894  25.084  1.00  0.00     0.084 C 
ATOM      9  C   UNL A   1      33.265  20.756  26.287  1.00  0.00     0.031 C 
BRANCH   8  10
ATOM     10  C   UNL A   1      32.735  19.951  23.924  1.00  0.00     0.021 C 
ATOM     11  C   UNL A   1      32.569  18.466  24.229  1.00  0.00     0.006 C 
ENDBRANCH   8  10
ENDBRANCH   7   8
BRANCH   7  12
ATOM     12  C   UNL A   1      32.940  22.783  23.629  1.00  0.00     0.318 C 
ATOM     13  O   UNL A   1      32.568  22.801  22.448  1.00  0.00    -0.249 OA
ATOM     14  N   UNL A   1      34.217  23.181  23.742  1.00  0.00    -0.334 N 
ATOM     15  H   UNL A   1      34.642  23.129  22.855  1.00  0.00     0.165 HD
BRANCH  14  16
ATOM     16  C   UNL A   1      35.199  23.660  24.701  1.00  0.00     0.154 C 
BRANCH  16  17
ATOM     17  C   UNL A   1      36.361  22.723  24.993  1.00  0.00    -0.015 A 
ATOM     18  C   UNL A   1      36.253  21.387  24.621  1.00  0.00     0.070 A 
ATOM     19  C   UNL A   1      37.623  22.915  25.715  1.00  0.00    -0.035 A 
ATOM     20  S   UNL A   1      37.638  20.451  24.929  1.00  0.00    -0.152 S 
ATOM     21  C   UNL A   1      38.423  21.781  25.631  1.00  0.00     0.068 A 
ATOM     22  C   UNL A   1      38.138  24.110  26.459  1.00  0.00     0.045 C 
ENDBRANCH  16  17
ENDBRANCH  14  16
ENDBRANCH   7  12
ENDBRANCH   6   7
ENDBRANCH   4   6
ENDBRANCH   3   4
ENDBRANCH   2   3
ENDBRANCH   1   2
BRANCH   1  23
ATOM     23  O   UNL A   1      31.230  28.759  25.345  1.00  0.00    -0.374 OA
BRANCH  23  24
ATOM     24  C   UNL A   1      32.055  29.916  25.344  1.00  0.00     0.202 C 
BRANCH  24  25
ATOM     25  C   UNL A   1      32.160  30.710  26.624  1.00  0.00     0.261 C 
BRANCH  25  26
ATOM     26  O   UNL A   1      33.432  30.508  27.183  1.00  0.00    -0.460 OA
BRANCH  26  27
ATOM     27  C   UNL A   1      33.976  31.650  27.641  1.00  0.00     0.338 C 
ATOM     28  O   UNL A   1      33.488  32.756  27.727  1.00  0.00    -0.246 OA
BRANCH  27  29
ATOM     29  C   UNL A   1      35.248  31.222  28.195  1.00  0.00     0.060 A 
ATOM     30  C   UNL A   1      35.383  29.867  28.483  1.00  0.00     0.016 A 
ATOM     31  C   UNL A   1      36.290  32.149  28.356  1.00  0.00     0.016 A 
ATOM     32  C   UNL A   1      36.571  29.437  29.027  1.00  0.00     0.010 A 
ATOM     33  C   UNL A   1      37.489  31.713  28.866  1.00  0.00     0.010 A 
ATOM     34  C   UNL A   1      37.593  30.372  29.247  1.00  0.00    -0.014 A 
BRANCH  34  35
ATOM     35  C   UNL A   1      38.736  29.969  30.056  1.00  0.00     0.031 A 
ATOM     36  C   UNL A   1      38.816  30.515  31.444  1.00  0.00     0.074 A 
ATOM     37  C   UNL A   1      39.616  29.124  29.508  1.00  0.00     0.049 A 
ATOM     38  N   UNL A   1      39.719  30.310  32.356  1.00  0.00    -0.248 NA
ATOM     39  C   UNL A   1      37.736  31.432  31.856  1.00  0.00     0.031 C 
ATOM     40  C   UNL A   1      39.527  28.585  28.146  1.00  0.00     0.029 A 
ATOM     41  N   UNL A   1      40.742  28.566  30.022  1.00  0.00    -0.354 N 
ATOM     42  C   UNL A   1      39.321  31.069  33.449  1.00  0.00     0.074 A 
ATOM     43  C   UNL A   1      38.124  31.783  33.070  1.00  0.00     0.031 C 
ATOM     44  C   UNL A   1      40.559  27.753  27.942  1.00  0.00     0.029 A 
ATOM     45  C   UNL A   1      41.390  27.739  29.138  1.00  0.00     0.049 A 
ATOM     46  H   UNL A   1      41.063  28.737  30.937  1.00  0.00     0.167 HD
ATOM     47  C   UNL A   1      39.917  31.140  34.660  1.00  0.00     0.034 A 
ATOM     48  C   UNL A   1      42.538  27.063  29.305  1.00  0.00     0.034 A 
ATOM     49  C   UNL A   1      41.128  30.412  34.949  1.00  0.00     0.049 A 
ATOM     50  C   UNL A   1      43.194  27.178  30.655  1.00  0.00     0.074 A 
ATOM     51  C   UNL A   1      41.872  30.382  36.110  1.00  0.00     0.029 A 
ATOM     52  N   UNL A   1      41.777  29.582  34.034  1.00  0.00    -0.354 N 
ATOM     53  N   UNL A   1      42.814  27.888  31.699  1.00  0.00    -0.248 NA
ATOM     54  C   UNL A   1      44.411  26.395  30.862  1.00  0.00     0.031 C 
ATOM     55  C   UNL A   1      43.000  29.585  35.877  1.00  0.00     0.029 A 
ATOM     56  C   UNL A   1      42.924  29.053  34.597  1.00  0.00     0.049 A 
ATOM     57  H   UNL A   1      41.464  29.399  33.119  1.00  0.00     0.167 HD
ATOM     58  C   UNL A   1      43.740  27.623  32.698  1.00  0.00     0.074 A 
ATOM     59  C   UNL A   1      44.676  26.663  32.133  1.00  0.00     0.031 C 
ATOM     60  C   UNL A   1      43.826  28.116  33.962  1.00  0.00     0.034 A 
BRANCH  47  61
ATOM     61  C   UNL A   1      39.304  32.067  35.684  1.00  0.00     0.023 A 
ATOM     62  C   UNL A   1      39.735  33.399  35.838  1.00  0.00     0.031 A 
ATOM     63  C   UNL A   1      38.328  31.590  36.575  1.00  0.00     0.131 A 
ATOM     64  C   UNL A   1      39.250  34.179  36.901  1.00  0.00     0.055 A 
ATOM     65  C   UNL A   1      37.789  32.396  37.582  1.00  0.00     0.041 A 
ATOM     66  F   UNL A   1      37.902  30.320  36.506  1.00  0.00    -0.206 F 
ATOM     67  C   UNL A   1      38.260  33.694  37.759  1.00  0.00     0.022 A 
BRANCH  64  68
ATOM     68  S   UNL A   1      40.031  35.782  37.238  1.00  0.00     0.124 S 
ATOM     69  O   UNL A   1      41.447  35.419  37.268  1.00  0.00    -0.237 OA
ATOM     70  O   UNL A   1      39.603  36.589  36.102  1.00  0.00    -0.237 OA
ATOM     71  O   UNL A   1      39.469  36.173  38.529  1.00  0.00    -0.744 OA
ENDBRANCH  64  68
ENDBRANCH  47  61
BRANCH  48  72
ATOM     72  C   UNL A   1      43.099  26.252  28.193  1.00  0.00     0.023 A 
ATOM     73  C   UNL A   1      44.179  26.715  27.429  1.00  0.00     0.031 A 
ATOM     74  C   UNL A   1      42.575  24.981  27.890  1.00  0.00     0.131 A 
ATOM     75  C   UNL A   1      44.679  25.932  26.376  1.00  0.00     0.055 A 
ATOM     76  C   UNL A   1      43.106  24.184  26.874  1.00  0.00     0.041 A 
ATOM     77  F   UNL A   1      41.552  24.480  28.600  1.00  0.00    -0.206 F 
ATOM     78  C   UNL A   1      44.158  24.665  26.102  1.00  0.00     0.022 A 
BRANCH  75  79
ATOM     79  S   UNL A   1      45.979  26.626  25.320  1.00  0.00     0.124 S 
ATOM     80  O   UNL A   1      45.248  27.648  24.579  1.00  0.00    -0.237 OA
ATOM     81  O   UNL A   1      46.940  27.110  26.306  1.00  0.00    -0.237 OA
ATOM     82  O   UNL A   1      46.423  25.479  24.530  1.00  0.00    -0.744 OA
ENDBRANCH  75  79
ENDBRANCH  48  72
BRANCH  60  83
ATOM     83  C   UNL A   1      44.967  27.591  34.791  1.00  0.00     0.023 A 
ATOM     84  C   UNL A   1      44.802  26.477  35.629  1.00  0.00     0.031 A 
ATOM     85  C   UNL A   1      46.215  28.233  34.763  1.00  0.00     0.131 A 
ATOM     86  C   UNL A   1      45.850  26.086  36.470  1.00  0.00     0.055 A 
ATOM     87  C   UNL A   1      47.278  27.791  35.547  1.00  0.00     0.041 A 
ATOM     88  F   UNL A   1      46.418  29.302  33.975  1.00  0.00    -0.206 F 
ATOM     89  C   UNL A   1      47.093  26.723  36.421  1.00  0.00     0.022 A 
BRANCH  86  90
ATOM     90  S   UNL A   1      45.518  24.818  37.721  1.00  0.00     0.124 S 
ATOM     91  O   UNL A   1      44.104  25.037  38.005  1.00  0.00    -0.237 OA
ATOM     92  O   UNL A   1      45.843  23.585  37.009  1.00  0.00    -0.237 OA
ATOM     93  O   UNL A   1      46.431  25.164  38.809  1.00  0.00    -0.744 OA
ENDBRANCH  86  90
ENDBRANCH  60  83
ENDBRANCH  34  35
ENDBRANCH  27  29
ENDBRANCH  26  27
ENDBRANCH  25  26
ENDBRANCH  24  25
ENDBRANCH  23  24
ENDBRANCH   1  23
TORSDOF 23
ENDMDL
