MODEL 1
REMARK VINA RESULT:     -11.1      0.000      0.000
REMARK SMILES O=C(OCCOCCOC(=O)[C@]1(CCc2cccnc2)C[C@H]2CC[C@@H]1O2)c1ccc(-c2c3nc(c(-c4cc(S(=O)(=O)[O-])ccc4F)c4ccc([nH]4)c(-c4cc(S(=O)(=O)[O-])ccc4F)c4nc(c(-c5cc(S(=O)(=O)[O-])ccc5F)c5ccc2[nH]5)C=C4)C=C3)cc1
REMARK SMILES IDX 6 1 5 2 4 3 3 4 2 5 1 6 27 7 28 8 89 9 29 10 88 11 30 12
REMARK SMILES IDX 31 13 32 14 82 15 33 16 87 17 81 18 83 19 34 20 86 21 80 22
REMARK SMILES IDX 79 23 35 25 67 26 47 27 66 28 48 29 51 30 65 31 84 32 49 33
REMARK SMILES IDX 50 34 64 36 85 37 52 38 36 39 37 40 45 41 38 42 44 43 46 44
REMARK SMILES IDX 43 45 39 46 40 47 41 48 42 49 68 50 69 51 77 52 70 53 76 54
REMARK SMILES IDX 78 55 75 56 71 57 72 58 73 59 74 60 53 61 54 62 62 63 55 64
REMARK SMILES IDX 61 65 63 66 60 67 56 68 57 69 58 70 59 71 7 72 8 73 9 74
REMARK SMILES IDX 10 75 11 76 12 77 21 78 25 79 22 80 24 81 26 82 23 83 13 84
REMARK SMILES IDX 14 85 15 86 16 87 20 88 17 89 19 90 18 91
REMARK H PARENT 83 24 51 35
REMARK Flexibility Score: inf
ROOT
ATOM      1  O   UNL A   1      35.524  22.444  25.908  1.00  0.00    -0.374 OA
ENDROOT
BRANCH   1   2
ATOM      2  C   UNL A   1      35.923  21.922  24.636  1.00  0.00     0.202 C 
BRANCH   2   3
ATOM      3  C   UNL A   1      37.242  21.144  24.523  1.00  0.00     0.261 C 
BRANCH   3   4
ATOM      4  O   UNL A   1      37.862  20.936  25.797  1.00  0.00    -0.460 OA
BRANCH   4   5
ATOM      5  C   UNL A   1      39.151  21.191  26.126  1.00  0.00     0.338 C 
ATOM      6  O   UNL A   1      39.958  20.263  26.086  1.00  0.00    -0.246 OA
BRANCH   5   7
ATOM      7  C   UNL A   1      39.636  22.532  26.590  1.00  0.00     0.060 A 
ATOM      8  C   UNL A   1      39.080  23.760  26.223  1.00  0.00     0.016 A 
ATOM      9  C   UNL A   1      40.690  22.547  27.516  1.00  0.00     0.016 A 
ATOM     10  C   UNL A   1      39.582  24.962  26.680  1.00  0.00     0.010 A 
ATOM     11  C   UNL A   1      41.200  23.754  28.003  1.00  0.00     0.010 A 
ATOM     12  C   UNL A   1      40.661  24.962  27.550  1.00  0.00    -0.014 A 
BRANCH  12  13
ATOM     13  C   UNL A   1      41.325  26.257  27.744  1.00  0.00     0.031 A 
ATOM     14  C   UNL A   1      40.604  27.271  28.577  1.00  0.00     0.074 A 
ATOM     15  C   UNL A   1      42.608  26.409  27.376  1.00  0.00     0.049 A 
ATOM     16  N   UNL A   1      40.964  28.476  28.917  1.00  0.00    -0.248 NA
ATOM     17  C   UNL A   1      39.303  26.850  29.128  1.00  0.00     0.031 C 
ATOM     18  C   UNL A   1      43.430  25.379  26.735  1.00  0.00     0.029 A 
ATOM     19  N   UNL A   1      43.456  27.469  27.529  1.00  0.00    -0.354 N 
ATOM     20  C   UNL A   1      39.922  28.972  29.692  1.00  0.00     0.074 A 
ATOM     21  C   UNL A   1      38.917  27.937  29.773  1.00  0.00     0.031 C 
ATOM     22  C   UNL A   1      44.672  25.859  26.561  1.00  0.00     0.029 A 
ATOM     23  C   UNL A   1      44.710  27.247  27.010  1.00  0.00     0.049 A 
ATOM     24  H   UNL A   1      43.196  28.310  27.968  1.00  0.00     0.167 HD
ATOM     25  C   UNL A   1      39.819  30.192  30.265  1.00  0.00     0.034 A 
ATOM     26  C   UNL A   1      45.745  28.099  26.883  1.00  0.00     0.034 A 
ATOM     27  C   UNL A   1      40.843  31.196  30.127  1.00  0.00     0.049 A 
ATOM     28  C   UNL A   1      45.549  29.505  27.400  1.00  0.00     0.074 A 
ATOM     29  C   UNL A   1      40.839  32.508  30.559  1.00  0.00     0.029 A 
ATOM     30  N   UNL A   1      42.064  30.988  29.491  1.00  0.00    -0.354 N 
ATOM     31  N   UNL A   1      44.517  30.017  28.036  1.00  0.00    -0.248 NA
ATOM     32  C   UNL A   1      46.649  30.448  27.177  1.00  0.00     0.031 C 
ATOM     33  C   UNL A   1      42.024  33.111  30.121  1.00  0.00     0.029 A 
ATOM     34  C   UNL A   1      42.809  32.152  29.494  1.00  0.00     0.049 A 
ATOM     35  H   UNL A   1      42.355  30.134  29.095  1.00  0.00     0.167 HD
ATOM     36  C   UNL A   1      44.861  31.334  28.322  1.00  0.00     0.074 A 
ATOM     37  C   UNL A   1      46.199  31.529  27.798  1.00  0.00     0.031 C 
ATOM     38  C   UNL A   1      44.145  32.299  28.959  1.00  0.00     0.034 A 
BRANCH  25  39
ATOM     39  C   UNL A   1      38.512  30.513  30.947  1.00  0.00     0.023 A 
ATOM     40  C   UNL A   1      37.449  31.142  30.271  1.00  0.00     0.031 A 
ATOM     41  C   UNL A   1      38.379  30.306  32.331  1.00  0.00     0.131 A 
ATOM     42  C   UNL A   1      36.350  31.628  30.998  1.00  0.00     0.055 A 
ATOM     43  C   UNL A   1      37.243  30.709  33.032  1.00  0.00     0.041 A 
ATOM     44  F   UNL A   1      39.377  29.748  33.036  1.00  0.00    -0.206 F 
ATOM     45  C   UNL A   1      36.227  31.393  32.370  1.00  0.00     0.022 A 
BRANCH  42  46
ATOM     46  S   UNL A   1      35.179  32.737  30.164  1.00  0.00     0.124 S 
ATOM     47  O   UNL A   1      34.595  31.848  29.160  1.00  0.00    -0.237 OA
ATOM     48  O   UNL A   1      34.294  33.138  31.251  1.00  0.00    -0.237 OA
ATOM     49  O   UNL A   1      36.030  33.797  29.628  1.00  0.00    -0.744 OA
ENDBRANCH  42  46
ENDBRANCH  25  39
BRANCH  26  50
ATOM     50  C   UNL A   1      47.001  27.689  26.190  1.00  0.00     0.023 A 
ATOM     51  C   UNL A   1      47.196  27.937  24.822  1.00  0.00     0.031 A 
ATOM     52  C   UNL A   1      48.007  26.980  26.876  1.00  0.00     0.131 A 
ATOM     53  C   UNL A   1      48.339  27.438  24.175  1.00  0.00     0.055 A 
ATOM     54  C   UNL A   1      49.170  26.541  26.242  1.00  0.00     0.041 A 
ATOM     55  F   UNL A   1      47.874  26.704  28.183  1.00  0.00    -0.206 F 
ATOM     56  C   UNL A   1      49.335  26.756  24.878  1.00  0.00     0.022 A 
BRANCH  53  57
ATOM     57  S   UNL A   1      48.458  27.602  22.372  1.00  0.00     0.124 S 
ATOM     58  O   UNL A   1      48.644  26.215  21.961  1.00  0.00    -0.237 OA
ATOM     59  O   UNL A   1      47.171  28.203  22.036  1.00  0.00    -0.237 OA
ATOM     60  O   UNL A   1      49.619  28.470  22.184  1.00  0.00    -0.744 OA
ENDBRANCH  53  57
ENDBRANCH  26  50
BRANCH  38  61
ATOM     61  C   UNL A   1      44.838  33.619  29.178  1.00  0.00     0.023 A 
ATOM     62  C   UNL A   1      44.646  34.710  28.314  1.00  0.00     0.031 A 
ATOM     63  C   UNL A   1      45.713  33.778  30.267  1.00  0.00     0.131 A 
ATOM     64  C   UNL A   1      45.371  35.892  28.517  1.00  0.00     0.055 A 
ATOM     65  C   UNL A   1      46.377  34.979  30.503  1.00  0.00     0.041 A 
ATOM     66  F   UNL A   1      45.931  32.765  31.121  1.00  0.00    -0.206 F 
ATOM     67  C   UNL A   1      46.220  36.040  29.617  1.00  0.00     0.022 A 
BRANCH  64  68
ATOM     68  S   UNL A   1      45.276  37.194  27.259  1.00  0.00     0.124 S 
ATOM     69  O   UNL A   1      46.222  36.716  26.256  1.00  0.00    -0.237 OA
ATOM     70  O   UNL A   1      43.869  37.157  26.877  1.00  0.00    -0.237 OA
ATOM     71  O   UNL A   1      45.691  38.396  27.979  1.00  0.00    -0.744 OA
ENDBRANCH  64  68
ENDBRANCH  38  61
ENDBRANCH  12  13
ENDBRANCH   5   7
ENDBRANCH   4   5
ENDBRANCH   3   4
ENDBRANCH   2   3
ENDBRANCH   1   2
BRANCH   1  72
ATOM     72  C   UNL A   1      34.488  23.436  25.926  1.00  0.00     0.202 C 
BRANCH  72  73
ATOM     73  C   UNL A   1      33.552  23.236  24.738  1.00  0.00     0.261 C 
BRANCH  73  74
ATOM     74  O   UNL A   1      32.590  24.288  24.846  1.00  0.00    -0.463 OA
BRANCH  74  75
ATOM     75  C   UNL A   1      32.701  25.307  23.971  1.00  0.00     0.314 C 
ATOM     76  O   UNL A   1      33.266  25.215  22.881  1.00  0.00    -0.252 OA
BRANCH  75  77
ATOM     77  C   UNL A   1      32.059  26.589  24.501  1.00  0.00     0.097 C 
ATOM     78  C   UNL A   1      32.936  27.794  24.091  1.00  0.00     0.053 C 
ATOM     79  C   UNL A   1      32.223  26.665  26.047  1.00  0.00     0.136 C 
ATOM     80  C   UNL A   1      33.507  28.284  25.430  1.00  0.00     0.120 C 
ATOM     81  C   UNL A   1      31.539  27.868  26.696  1.00  0.00     0.036 C 
ATOM     82  O   UNL A   1      33.615  27.061  26.173  1.00  0.00    -0.374 OA
ATOM     83  C   UNL A   1      32.454  29.011  26.263  1.00  0.00     0.035 C 
BRANCH  77  84
ATOM     84  C   UNL A   1      30.574  26.698  24.041  1.00  0.00     0.026 C 
BRANCH  84  85
ATOM     85  C   UNL A   1      30.220  27.633  22.860  1.00  0.00     0.038 C 
BRANCH  85  86
ATOM     86  C   UNL A   1      29.371  28.857  23.108  1.00  0.00    -0.030 A 
ATOM     87  C   UNL A   1      29.875  30.105  23.470  1.00  0.00     0.007 A 
ATOM     88  C   UNL A   1      27.992  28.786  22.906  1.00  0.00     0.114 A 
ATOM     89  C   UNL A   1      29.008  31.175  23.696  1.00  0.00     0.020 A 
ATOM     90  N   UNL A   1      27.125  29.808  23.095  1.00  0.00    -0.264 NA
ATOM     91  C   UNL A   1      27.653  30.980  23.500  1.00  0.00     0.111 A 
ENDBRANCH  85  86
ENDBRANCH  84  85
ENDBRANCH  77  84
ENDBRANCH  75  77
ENDBRANCH  74  75
ENDBRANCH  73  74
ENDBRANCH  72  73
ENDBRANCH   1  72
TORSDOF 20
ENDMDL
MODEL 2
REMARK VINA RESULT:     -10.8      5.144     10.398
REMARK SMILES O=C(OCCOCCOC(=O)[C@]1(CCc2cccnc2)C[C@H]2CC[C@@H]1O2)c1ccc(-c2c3nc(c(-c4cc(S(=O)(=O)[O-])ccc4F)c4ccc([nH]4)c(-c4cc(S(=O)(=O)[O-])ccc4F)c4nc(c(-c5cc(S(=O)(=O)[O-])ccc5F)c5ccc2[nH]5)C=C4)C=C3)cc1
REMARK SMILES IDX 6 1 5 2 4 3 3 4 2 5 1 6 27 7 28 8 89 9 29 10 88 11 30 12
REMARK SMILES IDX 31 13 32 14 82 15 33 16 87 17 81 18 83 19 34 20 86 21 80 22
REMARK SMILES IDX 79 23 35 25 67 26 47 27 66 28 48 29 51 30 65 31 84 32 49 33
REMARK SMILES IDX 50 34 64 36 85 37 52 38 36 39 37 40 45 41 38 42 44 43 46 44
REMARK SMILES IDX 43 45 39 46 40 47 41 48 42 49 68 50 69 51 77 52 70 53 76 54
REMARK SMILES IDX 78 55 75 56 71 57 72 58 73 59 74 60 53 61 54 62 62 63 55 64
REMARK SMILES IDX 61 65 63 66 60 67 56 68 57 69 58 70 59 71 7 72 8 73 9 74
REMARK SMILES IDX 10 75 11 76 12 77 21 78 25 79 22 80 24 81 26 82 23 83 13 84
REMARK SMILES IDX 14 85 15 86 16 87 20 88 17 89 19 90 18 91
REMARK H PARENT 83 24 51 35
REMARK Flexibility Score: inf
ROOT
ATOM      1  O   UNL A   1      33.523  28.505  26.145  1.00  0.00    -0.374 OA
ENDROOT
BRANCH   1   2
ATOM      2  C   UNL A   1      32.312  28.932  26.779  1.00  0.00     0.202 C 
BRANCH   2   3
ATOM      3  C   UNL A   1      31.932  30.419  26.749  1.00  0.00     0.261 C 
BRANCH   3   4
ATOM      4  O   UNL A   1      33.073  31.269  26.589  1.00  0.00    -0.460 OA
BRANCH   4   5
ATOM      5  C   UNL A   1      33.804  31.845  27.574  1.00  0.00     0.338 C 
ATOM      6  O   UNL A   1      33.423  32.921  28.031  1.00  0.00    -0.246 OA
BRANCH   5   7
ATOM      7  C   UNL A   1      35.084  31.266  28.098  1.00  0.00     0.060 A 
ATOM      8  C   UNL A   1      35.266  29.937  28.490  1.00  0.00     0.016 A 
ATOM      9  C   UNL A   1      36.203  32.114  28.136  1.00  0.00     0.016 A 
ATOM     10  C   UNL A   1      36.472  29.471  28.974  1.00  0.00     0.010 A 
ATOM     11  C   UNL A   1      37.436  31.653  28.607  1.00  0.00     0.010 A 
ATOM     12  C   UNL A   1      37.552  30.335  29.059  1.00  0.00    -0.014 A 
BRANCH  12  13
ATOM     13  C   UNL A   1      38.689  29.861  29.858  1.00  0.00     0.031 A 
ATOM     14  C   UNL A   1      39.636  28.911  29.194  1.00  0.00     0.074 A 
ATOM     15  C   UNL A   1      38.964  30.445  31.036  1.00  0.00     0.049 A 
ATOM     16  N   UNL A   1      40.718  28.354  29.658  1.00  0.00    -0.248 NA
ATOM     17  C   UNL A   1      39.330  28.563  27.794  1.00  0.00     0.031 C 
ATOM     18  C   UNL A   1      38.183  31.525  31.645  1.00  0.00     0.029 A 
ATOM     19  N   UNL A   1      39.998  30.246  31.906  1.00  0.00    -0.354 N 
ATOM     20  C   UNL A   1      41.205  27.565  28.623  1.00  0.00     0.074 A 
ATOM     21  C   UNL A   1      40.301  27.715  27.506  1.00  0.00     0.031 C 
ATOM     22  C   UNL A   1      38.778  31.900  32.790  1.00  0.00     0.029 A 
ATOM     23  C   UNL A   1      39.933  31.041  33.026  1.00  0.00     0.049 A 
ATOM     24  H   UNL A   1      40.720  29.596  31.747  1.00  0.00     0.167 HD
ATOM     25  C   UNL A   1      42.303  26.775  28.624  1.00  0.00     0.034 A 
ATOM     26  C   UNL A   1      40.707  31.029  34.128  1.00  0.00     0.034 A 
ATOM     27  C   UNL A   1      43.154  26.643  29.779  1.00  0.00     0.049 A 
ATOM     28  C   UNL A   1      41.840  30.030  34.166  1.00  0.00     0.074 A 
ATOM     29  C   UNL A   1      44.238  25.808  29.969  1.00  0.00     0.029 A 
ATOM     30  N   UNL A   1      43.001  27.374  30.954  1.00  0.00    -0.354 N 
ATOM     31  N   UNL A   1      42.239  29.195  33.229  1.00  0.00    -0.248 NA
ATOM     32  C   UNL A   1      42.621  29.965  35.404  1.00  0.00     0.031 C 
ATOM     33  C   UNL A   1      44.692  25.982  31.282  1.00  0.00     0.029 A 
ATOM     34  C   UNL A   1      43.951  26.991  31.883  1.00  0.00     0.049 A 
ATOM     35  H   UNL A   1      42.314  28.064  31.103  1.00  0.00     0.167 HD
ATOM     36  C   UNL A   1      43.342  28.532  33.755  1.00  0.00     0.074 A 
ATOM     37  C   UNL A   1      43.548  29.075  35.085  1.00  0.00     0.031 C 
ATOM     38  C   UNL A   1      44.120  27.565  33.199  1.00  0.00     0.034 A 
BRANCH  25  39
ATOM     39  C   UNL A   1      42.525  25.921  27.401  1.00  0.00     0.023 A 
ATOM     40  C   UNL A   1      42.000  24.620  27.289  1.00  0.00     0.031 A 
ATOM     41  C   UNL A   1      43.390  26.369  26.386  1.00  0.00     0.131 A 
ATOM     42  C   UNL A   1      42.423  23.783  26.244  1.00  0.00     0.055 A 
ATOM     43  C   UNL A   1      43.734  25.563  25.301  1.00  0.00     0.041 A 
ATOM     44  F   UNL A   1      43.953  27.586  26.459  1.00  0.00    -0.206 F 
ATOM     45  C   UNL A   1      43.267  24.254  25.235  1.00  0.00     0.022 A 
BRANCH  42  46
ATOM     46  S   UNL A   1      42.013  22.016  26.325  1.00  0.00     0.124 S 
ATOM     47  O   UNL A   1      42.438  21.677  27.683  1.00  0.00    -0.237 OA
ATOM     48  O   UNL A   1      40.575  22.012  26.089  1.00  0.00    -0.237 OA
ATOM     49  O   UNL A   1      42.824  21.425  25.262  1.00  0.00    -0.744 OA
ENDBRANCH  42  46
ENDBRANCH  25  39
BRANCH  26  50
ATOM     50  C   UNL A   1      40.406  31.913  35.292  1.00  0.00     0.023 A 
ATOM     51  C   UNL A   1      39.374  31.609  36.194  1.00  0.00     0.031 A 
ATOM     52  C   UNL A   1      41.110  33.118  35.485  1.00  0.00     0.131 A 
ATOM     53  C   UNL A   1      39.042  32.518  37.212  1.00  0.00     0.055 A 
ATOM     54  C   UNL A   1      40.817  33.989  36.536  1.00  0.00     0.041 A 
ATOM     55  F   UNL A   1      42.101  33.469  34.650  1.00  0.00    -0.206 F 
ATOM     56  C   UNL A   1      39.766  33.698  37.399  1.00  0.00     0.022 A 
BRANCH  53  57
ATOM     57  S   UNL A   1      37.576  32.188  38.228  1.00  0.00     0.124 S 
ATOM     58  O   UNL A   1      38.059  32.525  39.562  1.00  0.00    -0.237 OA
ATOM     59  O   UNL A   1      36.595  33.102  37.652  1.00  0.00    -0.237 OA
ATOM     60  O   UNL A   1      37.315  30.768  37.999  1.00  0.00    -0.744 OA
ENDBRANCH  53  57
ENDBRANCH  26  50
BRANCH  38  61
ATOM     61  C   UNL A   1      45.299  27.097  34.013  1.00  0.00     0.023 A 
ATOM     62  C   UNL A   1      45.212  25.998  34.883  1.00  0.00     0.031 A 
ATOM     63  C   UNL A   1      46.528  27.775  33.917  1.00  0.00     0.131 A 
ATOM     64  C   UNL A   1      46.315  25.650  35.673  1.00  0.00     0.055 A 
ATOM     65  C   UNL A   1      47.642  27.379  34.653  1.00  0.00     0.041 A 
ATOM     66  F   UNL A   1      46.662  28.832  33.100  1.00  0.00    -0.206 F 
ATOM     67  C   UNL A   1      47.535  26.320  35.550  1.00  0.00     0.022 A 
BRANCH  64  68
ATOM     68  S   UNL A   1      46.102  24.379  36.949  1.00  0.00     0.124 S 
ATOM     69  O   UNL A   1      47.457  23.854  37.084  1.00  0.00    -0.237 OA
ATOM     70  O   UNL A   1      45.602  25.154  38.080  1.00  0.00    -0.237 OA
ATOM     71  O   UNL A   1      45.136  23.457  36.355  1.00  0.00    -0.744 OA
ENDBRANCH  64  68
ENDBRANCH  38  61
ENDBRANCH  12  13
ENDBRANCH   5   7
ENDBRANCH   4   5
ENDBRANCH   3   4
ENDBRANCH   2   3
ENDBRANCH   1   2
BRANCH   1  72
ATOM     72  C   UNL A   1      33.465  28.176  24.750  1.00  0.00     0.202 C 
BRANCH  72  73
ATOM     73  C   UNL A   1      32.943  26.754  24.569  1.00  0.00     0.261 C 
BRANCH  73  74
ATOM     74  O   UNL A   1      34.074  25.914  24.810  1.00  0.00    -0.463 OA
BRANCH  74  75
ATOM     75  C   UNL A   1      34.273  24.899  23.946  1.00  0.00     0.314 C 
ATOM     76  O   UNL A   1      34.145  25.003  22.726  1.00  0.00    -0.252 OA
BRANCH  75  77
ATOM     77  C   UNL A   1      34.657  23.604  24.663  1.00  0.00     0.097 C 
ATOM     78  C   UNL A   1      35.463  23.956  25.934  1.00  0.00     0.053 C 
ATOM     79  C   UNL A   1      35.761  22.858  23.857  1.00  0.00     0.136 C 
ATOM     80  C   UNL A   1      36.873  23.444  25.609  1.00  0.00     0.120 C 
ATOM     81  C   UNL A   1      36.159  21.502  24.438  1.00  0.00     0.036 C 
ATOM     82  O   UNL A   1      36.941  23.638  24.189  1.00  0.00    -0.374 OA
ATOM     83  C   UNL A   1      36.952  21.920  25.675  1.00  0.00     0.035 C 
BRANCH  77  84
ATOM     84  C   UNL A   1      33.399  22.724  24.930  1.00  0.00     0.026 C 
BRANCH  84  85
ATOM     85  C   UNL A   1      32.854  21.829  23.791  1.00  0.00     0.038 C 
BRANCH  85  86
ATOM     86  C   UNL A   1      32.671  20.350  24.028  1.00  0.00    -0.030 A 
ATOM     87  C   UNL A   1      32.514  19.403  23.015  1.00  0.00     0.007 A 
ATOM     88  C   UNL A   1      32.724  19.852  25.331  1.00  0.00     0.114 A 
ATOM     89  C   UNL A   1      32.333  18.057  23.334  1.00  0.00     0.020 A 
ATOM     90  N   UNL A   1      32.574  18.552  25.673  1.00  0.00    -0.264 NA
ATOM     91  C   UNL A   1      32.367  17.682  24.665  1.00  0.00     0.111 A 
ENDBRANCH  85  86
ENDBRANCH  84  85
ENDBRANCH  77  84
ENDBRANCH  75  77
ENDBRANCH  74  75
ENDBRANCH  73  74
ENDBRANCH  72  73
ENDBRANCH   1  72
TORSDOF 20
ENDMDL
MODEL 3
REMARK VINA RESULT:     -10.7      2.017      7.979
REMARK SMILES O=C(OCCOCCOC(=O)[C@]1(CCc2cccnc2)C[C@H]2CC[C@@H]1O2)c1ccc(-c2c3nc(c(-c4cc(S(=O)(=O)[O-])ccc4F)c4ccc([nH]4)c(-c4cc(S(=O)(=O)[O-])ccc4F)c4nc(c(-c5cc(S(=O)(=O)[O-])ccc5F)c5ccc2[nH]5)C=C4)C=C3)cc1
REMARK SMILES IDX 6 1 5 2 4 3 3 4 2 5 1 6 27 7 28 8 89 9 29 10 88 11 30 12
REMARK SMILES IDX 31 13 32 14 82 15 33 16 87 17 81 18 83 19 34 20 86 21 80 22
REMARK SMILES IDX 79 23 35 25 67 26 47 27 66 28 48 29 51 30 65 31 84 32 49 33
REMARK SMILES IDX 50 34 64 36 85 37 52 38 36 39 37 40 45 41 38 42 44 43 46 44
REMARK SMILES IDX 43 45 39 46 40 47 41 48 42 49 68 50 69 51 77 52 70 53 76 54
REMARK SMILES IDX 78 55 75 56 71 57 72 58 73 59 74 60 53 61 54 62 62 63 55 64
REMARK SMILES IDX 61 65 63 66 60 67 56 68 57 69 58 70 59 71 7 72 8 73 9 74
REMARK SMILES IDX 10 75 11 76 12 77 21 78 25 79 22 80 24 81 26 82 23 83 13 84
REMARK SMILES IDX 14 85 15 86 16 87 20 88 17 89 19 90 18 91
REMARK H PARENT 83 24 51 35
REMARK Flexibility Score: inf
ROOT
ATOM      1  O   UNL A   1      37.087  21.632  25.954  1.00  0.00    -0.374 OA
ENDROOT
BRANCH   1   2
ATOM      2  C   UNL A   1      37.031  20.602  24.960  1.00  0.00     0.202 C 
BRANCH   2   3
ATOM      3  C   UNL A   1      38.215  19.637  24.812  1.00  0.00     0.261 C 
BRANCH   3   4
ATOM      4  O   UNL A   1      39.012  19.565  25.998  1.00  0.00    -0.460 OA
BRANCH   4   5
ATOM      5  C   UNL A   1      40.257  20.069  26.175  1.00  0.00     0.338 C 
ATOM      6  O   UNL A   1      41.220  19.336  25.955  1.00  0.00    -0.246 OA
BRANCH   5   7
ATOM      7  C   UNL A   1      40.523  21.457  26.677  1.00  0.00     0.060 A 
ATOM      8  C   UNL A   1      39.967  22.625  26.149  1.00  0.00     0.016 A 
ATOM      9  C   UNL A   1      41.347  21.582  27.807  1.00  0.00     0.016 A 
ATOM     10  C   UNL A   1      40.263  23.875  26.655  1.00  0.00     0.010 A 
ATOM     11  C   UNL A   1      41.644  22.839  28.342  1.00  0.00     0.010 A 
ATOM     12  C   UNL A   1      41.123  23.987  27.735  1.00  0.00    -0.014 A 
BRANCH  12  13
ATOM     13  C   UNL A   1      41.627  25.337  28.015  1.00  0.00     0.031 A 
ATOM     14  C   UNL A   1      42.969  25.690  27.454  1.00  0.00     0.074 A 
ATOM     15  C   UNL A   1      40.806  26.257  28.548  1.00  0.00     0.049 A 
ATOM     16  N   UNL A   1      43.638  26.805  27.536  1.00  0.00    -0.248 NA
ATOM     17  C   UNL A   1      43.638  24.640  26.664  1.00  0.00     0.031 C 
ATOM     18  C   UNL A   1      39.411  26.022  28.933  1.00  0.00     0.029 A 
ATOM     19  N   UNL A   1      41.009  27.581  28.816  1.00  0.00    -0.354 N 
ATOM     20  C   UNL A   1      44.820  26.582  26.838  1.00  0.00     0.074 A 
ATOM     21  C   UNL A   1      44.776  25.227  26.340  1.00  0.00     0.031 C 
ATOM     22  C   UNL A   1      38.882  27.174  29.378  1.00  0.00     0.029 A 
ATOM     23  C   UNL A   1      39.918  28.202  29.376  1.00  0.00     0.049 A 
ATOM     24  H   UNL A   1      41.855  28.046  28.626  1.00  0.00     0.167 HD
ATOM     25  C   UNL A   1      45.850  27.438  26.653  1.00  0.00     0.034 A 
ATOM     26  C   UNL A   1      39.804  29.451  29.866  1.00  0.00     0.034 A 
ATOM     27  C   UNL A   1      45.851  28.771  27.198  1.00  0.00     0.049 A 
ATOM     28  C   UNL A   1      41.021  30.340  29.780  1.00  0.00     0.074 A 
ATOM     29  C   UNL A   1      46.858  29.716  27.185  1.00  0.00     0.029 A 
ATOM     30  N   UNL A   1      44.773  29.344  27.870  1.00  0.00    -0.354 N 
ATOM     31  N   UNL A   1      42.188  30.096  29.220  1.00  0.00    -0.248 NA
ATOM     32  C   UNL A   1      40.914  31.666  30.395  1.00  0.00     0.031 C 
ATOM     33  C   UNL A   1      46.417  30.829  27.911  1.00  0.00     0.029 A 
ATOM     34  C   UNL A   1      45.100  30.617  28.300  1.00  0.00     0.049 A 
ATOM     35  H   UNL A   1      43.904  28.905  28.019  1.00  0.00     0.167 HD
ATOM     36  C   UNL A   1      42.940  31.254  29.385  1.00  0.00     0.074 A 
ATOM     37  C   UNL A   1      42.088  32.197  30.085  1.00  0.00     0.031 C 
ATOM     38  C   UNL A   1      44.214  31.524  28.995  1.00  0.00     0.034 A 
BRANCH  25  39
ATOM     39  C   UNL A   1      47.073  26.887  25.963  1.00  0.00     0.023 A 
ATOM     40  C   UNL A   1      48.078  26.191  26.661  1.00  0.00     0.031 A 
ATOM     41  C   UNL A   1      47.300  27.182  24.607  1.00  0.00     0.131 A 
ATOM     42  C   UNL A   1      49.298  25.903  26.027  1.00  0.00     0.055 A 
ATOM     43  C   UNL A   1      48.478  26.811  23.958  1.00  0.00     0.041 A 
ATOM     44  F   UNL A   1      46.395  27.879  23.900  1.00  0.00    -0.206 F 
ATOM     45  C   UNL A   1      49.495  26.186  24.673  1.00  0.00     0.022 A 
BRANCH  42  46
ATOM     46  S   UNL A   1      50.692  25.333  27.041  1.00  0.00     0.124 S 
ATOM     47  O   UNL A   1      50.062  24.286  27.845  1.00  0.00    -0.237 OA
ATOM     48  O   UNL A   1      51.648  24.879  26.040  1.00  0.00    -0.237 OA
ATOM     49  O   UNL A   1      51.086  26.527  27.787  1.00  0.00    -0.744 OA
ENDBRANCH  42  46
ENDBRANCH  25  39
BRANCH  26  50
ATOM     50  C   UNL A   1      38.550  29.905  30.535  1.00  0.00     0.023 A 
ATOM     51  C   UNL A   1      37.561  30.611  29.832  1.00  0.00     0.031 A 
ATOM     52  C   UNL A   1      38.348  29.696  31.913  1.00  0.00     0.131 A 
ATOM     53  C   UNL A   1      36.446  31.124  30.516  1.00  0.00     0.055 A 
ATOM     54  C   UNL A   1      37.209  30.153  32.576  1.00  0.00     0.041 A 
ATOM     55  F   UNL A   1      39.263  29.036  32.642  1.00  0.00    -0.206 F 
ATOM     56  C   UNL A   1      36.255  30.886  31.879  1.00  0.00     0.022 A 
BRANCH  53  57
ATOM     57  S   UNL A   1      35.295  32.202  29.617  1.00  0.00     0.124 S 
ATOM     58  O   UNL A   1      34.338  32.548  30.662  1.00  0.00    -0.237 OA
ATOM     59  O   UNL A   1      36.173  33.278  29.170  1.00  0.00    -0.237 OA
ATOM     60  O   UNL A   1      34.777  31.339  28.557  1.00  0.00    -0.744 OA
ENDBRANCH  53  57
ENDBRANCH  26  50
BRANCH  38  61
ATOM     61  C   UNL A   1      44.720  32.918  29.263  1.00  0.00     0.023 A 
ATOM     62  C   UNL A   1      44.530  33.966  28.347  1.00  0.00     0.031 A 
ATOM     63  C   UNL A   1      45.413  33.194  30.456  1.00  0.00     0.131 A 
ATOM     64  C   UNL A   1      45.085  35.225  28.608  1.00  0.00     0.055 A 
ATOM     65  C   UNL A   1      45.901  34.466  30.741  1.00  0.00     0.041 A 
ATOM     66  F   UNL A   1      45.622  32.226  31.363  1.00  0.00    -0.206 F 
ATOM     67  C   UNL A   1      45.752  35.488  29.808  1.00  0.00     0.022 A 
BRANCH  64  68
ATOM     68  S   UNL A   1      45.021  36.487  27.308  1.00  0.00     0.124 S 
ATOM     69  O   UNL A   1      46.249  36.219  26.565  1.00  0.00    -0.237 OA
ATOM     70  O   UNL A   1      43.776  36.164  26.620  1.00  0.00    -0.237 OA
ATOM     71  O   UNL A   1      45.009  37.745  28.053  1.00  0.00    -0.744 OA
ENDBRANCH  64  68
ENDBRANCH  38  61
ENDBRANCH  12  13
ENDBRANCH   5   7
ENDBRANCH   4   5
ENDBRANCH   3   4
ENDBRANCH   2   3
ENDBRANCH   1   2
BRANCH   1  72
ATOM     72  C   UNL A   1      36.072  22.646  25.922  1.00  0.00     0.202 C 
BRANCH  72  73
ATOM     73  C   UNL A   1      34.771  22.102  26.506  1.00  0.00     0.261 C 
BRANCH  73  74
ATOM     74  O   UNL A   1      33.784  23.082  26.180  1.00  0.00    -0.463 OA
BRANCH  74  75
ATOM     75  C   UNL A   1      32.724  22.663  25.462  1.00  0.00     0.314 C 
ATOM     76  O   UNL A   1      32.162  21.582  25.637  1.00  0.00    -0.252 OA
BRANCH  75  77
ATOM     77  C   UNL A   1      32.317  23.680  24.395  1.00  0.00     0.097 C 
ATOM     78  C   UNL A   1      32.023  22.930  23.075  1.00  0.00     0.053 C 
ATOM     79  C   UNL A   1      33.558  24.508  23.950  1.00  0.00     0.136 C 
ATOM     80  C   UNL A   1      33.167  23.378  22.155  1.00  0.00     0.120 C 
ATOM     81  C   UNL A   1      33.249  25.618  22.946  1.00  0.00     0.036 C 
ATOM     82  O   UNL A   1      34.244  23.563  23.086  1.00  0.00    -0.374 OA
ATOM     83  C   UNL A   1      32.979  24.816  21.675  1.00  0.00     0.035 C 
BRANCH  77  84
ATOM     84  C   UNL A   1      31.140  24.570  24.897  1.00  0.00     0.026 C 
BRANCH  84  85
ATOM     85  C   UNL A   1      31.339  25.431  26.167  1.00  0.00     0.038 C 
BRANCH  85  86
ATOM     86  C   UNL A   1      31.570  26.917  26.031  1.00  0.00    -0.030 A 
ATOM     87  C   UNL A   1      31.132  27.688  24.954  1.00  0.00     0.007 A 
ATOM     88  C   UNL A   1      32.205  27.609  27.063  1.00  0.00     0.114 A 
ATOM     89  C   UNL A   1      31.410  29.054  24.909  1.00  0.00     0.020 A 
ATOM     90  N   UNL A   1      32.471  28.935  27.061  1.00  0.00    -0.264 NA
ATOM     91  C   UNL A   1      32.079  29.629  25.974  1.00  0.00     0.111 A 
ENDBRANCH  85  86
ENDBRANCH  84  85
ENDBRANCH  77  84
ENDBRANCH  75  77
ENDBRANCH  74  75
ENDBRANCH  73  74
ENDBRANCH  72  73
ENDBRANCH   1  72
TORSDOF 20
ENDMDL
