MODEL 1
REMARK VINA RESULT:      -7.9      0.000      0.000
REMARK SMILES CC(C)(C)OC(=O)N1CC(Cc2ccc(C(=O)OCCOCCOC(=O)c3ccc(-c4c5nc(c(-c6cc(S(=O)(=O)[O-])ccc6F)c6ccc([nH]6)c(-c6cc(S(=O)(=O)[O-])ccc6F)c6nc(c(-c7cc(S(=O)(=O)[O-])ccc7F)c7ccc4[nH]7)C=C6)C=C5)cc3)cc2)C1
REMARK SMILES IDX 20 1 19 2 18 3 16 4 17 5 15 6 12 7 13 8 91 9 14 10 90 11
REMARK SMILES IDX 11 12 10 13 6 14 7 15 8 16 9 17 92 18 5 19 2 20 1 21 3 22
REMARK SMILES IDX 4 23 21 24 22 25 23 26 24 27 25 28 26 29 27 30 28 31 89 32
REMARK SMILES IDX 29 33 88 34 30 35 31 36 32 37 82 38 33 39 87 40 81 41 83 42
REMARK SMILES IDX 34 43 86 44 80 45 79 46 35 48 67 49 47 50 66 51 48 52 51 53
REMARK SMILES IDX 65 54 84 55 49 56 50 57 64 59 85 60 52 61 36 62 37 63 45 64
REMARK SMILES IDX 38 65 44 66 46 67 43 68 39 69 40 70 41 71 42 72 68 73 69 74
REMARK SMILES IDX 77 75 70 76 76 77 78 78 75 79 71 80 72 81 73 82 74 83 53 84
REMARK SMILES IDX 54 85 62 86 55 87 61 88 63 89 60 90 56 91 57 92 58 93 59 94
REMARK H PARENT 83 47 51 58
REMARK Flexibility Score: inf
ROOT
ATOM      1  C   UNL A   1      44.762  19.894  24.659  1.00  0.00     0.202 C 
ENDROOT
BRANCH   1   2
ATOM      2  C   UNL A   1      45.632  21.149  24.739  1.00  0.00     0.261 C 
BRANCH   2   3
ATOM      3  O   UNL A   1      45.527  21.735  26.048  1.00  0.00    -0.460 OA
BRANCH   3   4
ATOM      4  C   UNL A   1      44.935  22.950  26.102  1.00  0.00     0.338 C 
ATOM      5  O   UNL A   1      44.374  23.533  25.189  1.00  0.00    -0.246 OA
BRANCH   4   6
ATOM      6  C   UNL A   1      44.962  23.476  27.491  1.00  0.00     0.060 A 
ATOM      7  C   UNL A   1      44.846  24.481  30.111  1.00  0.00    -0.048 A 
ATOM      8  C   UNL A   1      43.794  23.709  29.604  1.00  0.00     0.004 A 
ATOM      9  C   UNL A   1      45.980  24.699  29.314  1.00  0.00     0.004 A 
ATOM     10  C   UNL A   1      43.853  23.210  28.304  1.00  0.00     0.016 A 
ATOM     11  C   UNL A   1      46.039  24.205  28.008  1.00  0.00     0.016 A 
BRANCH   7  12
ATOM     12  C   UNL A   1      44.726  25.122  31.472  1.00  0.00     0.042 C 
BRANCH  12  13
ATOM     13  C   UNL A   1      44.876  26.629  31.329  1.00  0.00     0.033 C 
ATOM     14  C   UNL A   1      45.121  29.733  32.315  1.00  0.00     0.410 C 
ATOM     15  O   UNL A   1      46.240  30.245  32.305  1.00  0.00    -0.224 OA
ATOM     16  N   UNL A   1      44.926  28.390  32.339  1.00  0.00    -0.307 N 
ATOM     17  C   UNL A   1      45.886  27.305  32.279  1.00  0.00     0.128 C 
ATOM     18  C   UNL A   1      43.802  27.556  31.961  1.00  0.00     0.128 C 
BRANCH  14  19
ATOM     19  O   UNL A   1      43.949  30.413  32.313  1.00  0.00    -0.444 OA
BRANCH  19  20
ATOM     20  C   UNL A   1      43.626  31.358  33.367  1.00  0.00     0.106 C 
ATOM     21  C   UNL A   1      43.783  30.569  34.676  1.00  0.00     0.056 C 
ATOM     22  C   UNL A   1      42.166  31.799  33.220  1.00  0.00     0.056 C 
ATOM     23  C   UNL A   1      44.575  32.564  33.426  1.00  0.00     0.056 C 
ENDBRANCH  19  20
ENDBRANCH  14  19
ENDBRANCH  12  13
ENDBRANCH   7  12
ENDBRANCH   4   6
ENDBRANCH   3   4
ENDBRANCH   2   3
ENDBRANCH   1   2
BRANCH   1  24
ATOM     24  O   UNL A   1      43.996  19.653  25.844  1.00  0.00    -0.374 OA
BRANCH  24  25
ATOM     25  C   UNL A   1      42.577  19.720  25.684  1.00  0.00     0.202 C 
BRANCH  25  26
ATOM     26  C   UNL A   1      41.895  20.757  26.581  1.00  0.00     0.261 C 
BRANCH  26  27
ATOM     27  O   UNL A   1      41.482  21.902  25.811  1.00  0.00    -0.460 OA
BRANCH  27  28
ATOM     28  C   UNL A   1      40.219  22.325  26.057  1.00  0.00     0.338 C 
ATOM     29  O   UNL A   1      39.196  21.669  25.948  1.00  0.00    -0.246 OA
BRANCH  28  30
ATOM     30  C   UNL A   1      40.242  23.679  26.655  1.00  0.00     0.060 A 
ATOM     31  C   UNL A   1      40.576  24.742  25.807  1.00  0.00     0.016 A 
ATOM     32  C   UNL A   1      39.986  23.914  28.011  1.00  0.00     0.016 A 
ATOM     33  C   UNL A   1      40.715  26.029  26.321  1.00  0.00     0.010 A 
ATOM     34  C   UNL A   1      40.129  25.210  28.526  1.00  0.00     0.010 A 
ATOM     35  C   UNL A   1      40.531  26.265  27.689  1.00  0.00    -0.014 A 
BRANCH  35  36
ATOM     36  C   UNL A   1      40.921  27.587  28.239  1.00  0.00     0.031 A 
ATOM     37  C   UNL A   1      42.379  27.963  28.263  1.00  0.00     0.074 A 
ATOM     38  C   UNL A   1      39.988  28.471  28.634  1.00  0.00     0.049 A 
ATOM     39  N   UNL A   1      42.940  29.096  28.600  1.00  0.00    -0.248 NA
ATOM     40  C   UNL A   1      43.329  26.918  27.851  1.00  0.00     0.031 C 
ATOM     41  C   UNL A   1      38.546  28.228  28.642  1.00  0.00     0.029 A 
ATOM     42  N   UNL A   1      40.115  29.757  29.093  1.00  0.00    -0.354 N 
ATOM     43  C   UNL A   1      44.306  28.909  28.421  1.00  0.00     0.074 A 
ATOM     44  C   UNL A   1      44.490  27.536  27.999  1.00  0.00     0.031 C 
ATOM     45  C   UNL A   1      37.921  29.334  29.083  1.00  0.00     0.029 A 
ATOM     46  C   UNL A   1      38.916  30.356  29.400  1.00  0.00     0.049 A 
ATOM     47  H   UNL A   1      40.984  30.209  29.194  1.00  0.00     0.167 HD
ATOM     48  C   UNL A   1      45.315  29.804  28.575  1.00  0.00     0.034 A 
ATOM     49  C   UNL A   1      38.654  31.588  29.881  1.00  0.00     0.034 A 
ATOM     50  C   UNL A   1      45.124  31.162  29.021  1.00  0.00     0.049 A 
ATOM     51  C   UNL A   1      39.796  32.549  30.100  1.00  0.00     0.074 A 
ATOM     52  C   UNL A   1      46.075  32.151  29.213  1.00  0.00     0.029 A 
ATOM     53  N   UNL A   1      43.898  31.721  29.359  1.00  0.00    -0.354 N 
ATOM     54  N   UNL A   1      41.081  32.368  29.899  1.00  0.00    -0.248 NA
ATOM     55  C   UNL A   1      39.447  33.888  30.590  1.00  0.00     0.031 C 
ATOM     56  C   UNL A   1      45.431  33.286  29.722  1.00  0.00     0.029 A 
ATOM     57  C   UNL A   1      44.071  33.030  29.786  1.00  0.00     0.049 A 
ATOM     58  H   UNL A   1      43.032  31.256  29.306  1.00  0.00     0.167 HD
ATOM     59  C   UNL A   1      41.689  33.580  30.217  1.00  0.00     0.074 A 
ATOM     60  C   UNL A   1      40.628  34.487  30.604  1.00  0.00     0.031 C 
ATOM     61  C   UNL A   1      43.005  33.916  30.189  1.00  0.00     0.034 A 
BRANCH  48  62
ATOM     62  C   UNL A   1      46.714  29.311  28.298  1.00  0.00     0.023 A 
ATOM     63  C   UNL A   1      47.529  28.796  29.323  1.00  0.00     0.031 A 
ATOM     64  C   UNL A   1      47.256  29.397  27.004  1.00  0.00     0.131 A 
ATOM     65  C   UNL A   1      48.862  28.456  29.050  1.00  0.00     0.055 A 
ATOM     66  C   UNL A   1      48.562  28.988  26.725  1.00  0.00     0.041 A 
ATOM     67  F   UNL A   1      46.532  29.902  25.993  1.00  0.00    -0.206 F 
ATOM     68  C   UNL A   1      49.378  28.527  27.754  1.00  0.00     0.022 A 
BRANCH  65  69
ATOM     69  S   UNL A   1      49.956  28.050  30.440  1.00  0.00     0.124 S 
ATOM     70  O   UNL A   1      50.021  26.594  30.351  1.00  0.00    -0.237 OA
ATOM     71  O   UNL A   1      51.179  28.768  30.098  1.00  0.00    -0.237 OA
ATOM     72  O   UNL A   1      49.236  28.564  31.604  1.00  0.00    -0.744 OA
ENDBRANCH  65  69
ENDBRANCH  48  62
BRANCH  49  73
ATOM     73  C   UNL A   1      37.258  31.984  30.212  1.00  0.00     0.023 A 
ATOM     74  C   UNL A   1      36.410  32.551  29.248  1.00  0.00     0.031 A 
ATOM     75  C   UNL A   1      36.771  31.847  31.525  1.00  0.00     0.131 A 
ATOM     76  C   UNL A   1      35.133  33.000  29.621  1.00  0.00     0.055 A 
ATOM     77  C   UNL A   1      35.484  32.255  31.880  1.00  0.00     0.041 A 
ATOM     78  F   UNL A   1      37.542  31.306  32.481  1.00  0.00    -0.206 F 
ATOM     79  C   UNL A   1      34.662  32.848  30.927  1.00  0.00     0.022 A 
BRANCH  76  80
ATOM     80  S   UNL A   1      34.117  33.855  28.384  1.00  0.00     0.124 S 
ATOM     81  O   UNL A   1      33.465  34.881  29.190  1.00  0.00    -0.237 OA
ATOM     82  O   UNL A   1      35.124  34.323  27.438  1.00  0.00    -0.237 OA
ATOM     83  O   UNL A   1      33.237  32.802  27.881  1.00  0.00    -0.744 OA
ENDBRANCH  76  80
ENDBRANCH  49  73
BRANCH  61  84
ATOM     84  C   UNL A   1      43.352  35.336  30.562  1.00  0.00     0.023 A 
ATOM     85  C   UNL A   1      43.524  35.726  31.903  1.00  0.00     0.031 A 
ATOM     86  C   UNL A   1      43.481  36.320  29.566  1.00  0.00     0.131 A 
ATOM     87  C   UNL A   1      43.752  37.075  32.215  1.00  0.00     0.055 A 
ATOM     88  C   UNL A   1      43.764  37.650  29.879  1.00  0.00     0.041 A 
ATOM     89  F   UNL A   1      43.327  36.003  28.270  1.00  0.00    -0.206 F 
ATOM     90  C   UNL A   1      43.886  38.037  31.210  1.00  0.00     0.022 A 
BRANCH  87  91
ATOM     91  S   UNL A   1      43.768  37.575  33.958  1.00  0.00     0.124 S 
ATOM     92  O   UNL A   1      42.809  38.674  33.970  1.00  0.00    -0.237 OA
ATOM     93  O   UNL A   1      43.346  36.353  34.636  1.00  0.00    -0.237 OA
ATOM     94  O   UNL A   1      45.158  37.964  34.191  1.00  0.00    -0.744 OA
ENDBRANCH  87  91
ENDBRANCH  61  84
ENDBRANCH  35  36
ENDBRANCH  28  30
ENDBRANCH  27  28
ENDBRANCH  26  27
ENDBRANCH  25  26
ENDBRANCH  24  25
ENDBRANCH   1  24
TORSDOF 21
ENDMDL
MODEL 2
REMARK VINA RESULT:      -7.9      4.983     10.933
REMARK SMILES CC(C)(C)OC(=O)N1CC(Cc2ccc(C(=O)OCCOCCOC(=O)c3ccc(-c4c5nc(c(-c6cc(S(=O)(=O)[O-])ccc6F)c6ccc([nH]6)c(-c6cc(S(=O)(=O)[O-])ccc6F)c6nc(c(-c7cc(S(=O)(=O)[O-])ccc7F)c7ccc4[nH]7)C=C6)C=C5)cc3)cc2)C1
REMARK SMILES IDX 20 1 19 2 18 3 16 4 17 5 15 6 12 7 13 8 91 9 14 10 90 11
REMARK SMILES IDX 11 12 10 13 6 14 7 15 8 16 9 17 92 18 5 19 2 20 1 21 3 22
REMARK SMILES IDX 4 23 21 24 22 25 23 26 24 27 25 28 26 29 27 30 28 31 89 32
REMARK SMILES IDX 29 33 88 34 30 35 31 36 32 37 82 38 33 39 87 40 81 41 83 42
REMARK SMILES IDX 34 43 86 44 80 45 79 46 35 48 67 49 47 50 66 51 48 52 51 53
REMARK SMILES IDX 65 54 84 55 49 56 50 57 64 59 85 60 52 61 36 62 37 63 45 64
REMARK SMILES IDX 38 65 44 66 46 67 43 68 39 69 40 70 41 71 42 72 68 73 69 74
REMARK SMILES IDX 77 75 70 76 76 77 78 78 75 79 71 80 72 81 73 82 74 83 53 84
REMARK SMILES IDX 54 85 62 86 55 87 61 88 63 89 60 90 56 91 57 92 58 93 59 94
REMARK H PARENT 83 47 51 58
REMARK Flexibility Score: inf
ROOT
ATOM      1  C   UNL A   1      36.857  23.041  26.009  1.00  0.00     0.202 C 
ENDROOT
BRANCH   1   2
ATOM      2  C   UNL A   1      35.351  22.785  26.090  1.00  0.00     0.261 C 
BRANCH   2   3
ATOM      3  O   UNL A   1      35.011  21.617  25.324  1.00  0.00    -0.460 OA
BRANCH   3   4
ATOM      4  C   UNL A   1      33.757  21.142  25.501  1.00  0.00     0.338 C 
ATOM      5  O   UNL A   1      33.439  20.097  26.045  1.00  0.00    -0.246 OA
BRANCH   4   6
ATOM      6  C   UNL A   1      32.758  22.133  25.025  1.00  0.00     0.060 A 
ATOM      7  C   UNL A   1      30.982  24.058  24.012  1.00  0.00    -0.048 A 
ATOM      8  C   UNL A   1      31.942  23.476  23.177  1.00  0.00     0.004 A 
ATOM      9  C   UNL A   1      30.882  23.627  25.345  1.00  0.00     0.004 A 
ATOM     10  C   UNL A   1      32.823  22.520  23.681  1.00  0.00     0.016 A 
ATOM     11  C   UNL A   1      31.768  22.674  25.853  1.00  0.00     0.016 A 
BRANCH   7  12
ATOM     12  C   UNL A   1      30.111  25.180  23.499  1.00  0.00     0.042 C 
BRANCH  12  13
ATOM     13  C   UNL A   1      30.426  26.451  24.274  1.00  0.00     0.033 C 
ATOM     14  C   UNL A   1      31.539  29.484  24.748  1.00  0.00     0.410 C 
ATOM     15  O   UNL A   1      30.708  30.389  24.815  1.00  0.00    -0.224 OA
ATOM     16  N   UNL A   1      31.280  28.289  24.158  1.00  0.00    -0.307 N 
ATOM     17  C   UNL A   1      30.052  27.778  23.582  1.00  0.00     0.128 C 
ATOM     18  C   UNL A   1      31.886  26.979  24.292  1.00  0.00     0.128 C 
BRANCH  14  19
ATOM     19  O   UNL A   1      32.803  29.545  25.231  1.00  0.00    -0.444 OA
BRANCH  19  20
ATOM     20  C   UNL A   1      33.063  29.565  26.660  1.00  0.00     0.106 C 
ATOM     21  C   UNL A   1      34.397  28.825  26.835  1.00  0.00     0.056 C 
ATOM     22  C   UNL A   1      31.960  28.788  27.385  1.00  0.00     0.056 C 
ATOM     23  C   UNL A   1      33.227  30.979  27.236  1.00  0.00     0.056 C 
ENDBRANCH  19  20
ENDBRANCH  14  19
ENDBRANCH  12  13
ENDBRANCH   7  12
ENDBRANCH   4   6
ENDBRANCH   3   4
ENDBRANCH   2   3
ENDBRANCH   1   2
BRANCH   1  24
ATOM     24  O   UNL A   1      37.592  21.951  25.444  1.00  0.00    -0.374 OA
BRANCH  24  25
ATOM     25  C   UNL A   1      38.875  21.706  26.025  1.00  0.00     0.202 C 
BRANCH  25  26
ATOM     26  C   UNL A   1      39.522  20.391  25.581  1.00  0.00     0.261 C 
BRANCH  26  27
ATOM     27  O   UNL A   1      40.307  19.825  26.646  1.00  0.00    -0.460 OA
BRANCH  27  28
ATOM     28  C   UNL A   1      41.601  19.578  26.328  1.00  0.00     0.338 C 
ATOM     29  O   UNL A   1      42.059  18.530  25.904  1.00  0.00    -0.246 OA
BRANCH  28  30
ATOM     30  C   UNL A   1      42.392  20.827  26.400  1.00  0.00     0.060 A 
ATOM     31  C   UNL A   1      42.528  21.419  27.661  1.00  0.00     0.016 A 
ATOM     32  C   UNL A   1      42.954  21.436  25.273  1.00  0.00     0.016 A 
ATOM     33  C   UNL A   1      43.174  22.647  27.791  1.00  0.00     0.010 A 
ATOM     34  C   UNL A   1      43.601  22.672  25.405  1.00  0.00     0.010 A 
ATOM     35  C   UNL A   1      43.679  23.300  26.660  1.00  0.00    -0.014 A 
BRANCH  35  36
ATOM     36  C   UNL A   1      44.138  24.704  26.798  1.00  0.00     0.031 A 
ATOM     37  C   UNL A   1      43.170  25.741  27.304  1.00  0.00     0.074 A 
ATOM     38  C   UNL A   1      45.419  25.037  26.557  1.00  0.00     0.049 A 
ATOM     39  N   UNL A   1      43.376  26.998  27.600  1.00  0.00    -0.248 NA
ATOM     40  C   UNL A   1      41.782  25.293  27.502  1.00  0.00     0.031 C 
ATOM     41  C   UNL A   1      46.453  24.120  26.080  1.00  0.00     0.029 A 
ATOM     42  N   UNL A   1      46.070  26.236  26.693  1.00  0.00    -0.354 N 
ATOM     43  C   UNL A   1      42.151  27.489  28.039  1.00  0.00     0.074 A 
ATOM     44  C   UNL A   1      41.198  26.406  27.916  1.00  0.00     0.031 C 
ATOM     45  C   UNL A   1      47.612  24.792  25.964  1.00  0.00     0.029 A 
ATOM     46  C   UNL A   1      47.400  26.186  26.347  1.00  0.00     0.049 A 
ATOM     47  H   UNL A   1      45.626  27.057  27.007  1.00  0.00     0.167 HD
ATOM     48  C   UNL A   1      41.851  28.723  28.518  1.00  0.00     0.034 A 
ATOM     49  C   UNL A   1      48.337  27.155  26.342  1.00  0.00     0.034 A 
ATOM     50  C   UNL A   1      42.803  29.802  28.611  1.00  0.00     0.049 A 
ATOM     51  C   UNL A   1      47.969  28.536  26.825  1.00  0.00     0.074 A 
ATOM     52  C   UNL A   1      42.606  31.091  29.079  1.00  0.00     0.029 A 
ATOM     53  N   UNL A   1      44.132  29.725  28.216  1.00  0.00    -0.354 N 
ATOM     54  N   UNL A   1      46.813  28.979  27.264  1.00  0.00    -0.248 NA
ATOM     55  C   UNL A   1      49.039  29.541  26.831  1.00  0.00     0.031 C 
ATOM     56  C   UNL A   1      43.798  31.806  28.912  1.00  0.00     0.029 A 
ATOM     57  C   UNL A   1      44.759  30.949  28.402  1.00  0.00     0.049 A 
ATOM     58  H   UNL A   1      44.567  28.919  27.855  1.00  0.00     0.167 HD
ATOM     59  C   UNL A   1      47.027  30.309  27.620  1.00  0.00     0.074 A 
ATOM     60  C   UNL A   1      48.425  30.587  27.361  1.00  0.00     0.031 C 
ATOM     61  C   UNL A   1      46.149  31.218  28.119  1.00  0.00     0.034 A 
BRANCH  48  62
ATOM     62  C   UNL A   1      40.421  28.966  28.931  1.00  0.00     0.023 A 
ATOM     63  C   UNL A   1      40.029  28.931  30.282  1.00  0.00     0.031 A 
ATOM     64  C   UNL A   1      39.428  29.191  27.961  1.00  0.00     0.131 A 
ATOM     65  C   UNL A   1      38.672  29.046  30.619  1.00  0.00     0.055 A 
ATOM     66  C   UNL A   1      38.089  29.377  28.310  1.00  0.00     0.041 A 
ATOM     67  F   UNL A   1      39.740  29.211  26.656  1.00  0.00    -0.206 F 
ATOM     68  C   UNL A   1      37.702  29.291  29.645  1.00  0.00     0.022 A 
BRANCH  65  69
ATOM     69  S   UNL A   1      38.175  28.732  32.335  1.00  0.00     0.124 S 
ATOM     70  O   UNL A   1      39.054  29.638  33.069  1.00  0.00    -0.237 OA
ATOM     71  O   UNL A   1      36.759  29.084  32.323  1.00  0.00    -0.237 OA
ATOM     72  O   UNL A   1      38.462  27.311  32.521  1.00  0.00    -0.744 OA
ENDBRANCH  65  69
ENDBRANCH  48  62
BRANCH  49  73
ATOM     73  C   UNL A   1      49.711  26.870  25.843  1.00  0.00     0.023 A 
ATOM     74  C   UNL A   1      50.101  27.211  24.539  1.00  0.00     0.031 A 
ATOM     75  C   UNL A   1      50.640  26.199  26.660  1.00  0.00     0.131 A 
ATOM     76  C   UNL A   1      51.373  26.840  24.073  1.00  0.00     0.055 A 
ATOM     77  C   UNL A   1      51.919  25.873  26.206  1.00  0.00     0.041 A 
ATOM     78  F   UNL A   1      50.315  25.857  27.916  1.00  0.00    -0.206 F 
ATOM     79  C   UNL A   1      52.286  26.183  24.900  1.00  0.00     0.022 A 
BRANCH  76  80
ATOM     80  S   UNL A   1      51.794  27.171  22.339  1.00  0.00     0.124 S 
ATOM     81  O   UNL A   1      52.963  26.320  22.148  1.00  0.00    -0.237 OA
ATOM     82  O   UNL A   1      50.577  26.756  21.650  1.00  0.00    -0.237 OA
ATOM     83  O   UNL A   1      52.056  28.609  22.321  1.00  0.00    -0.744 OA
ENDBRANCH  76  80
ENDBRANCH  49  73
BRANCH  61  84
ATOM     84  C   UNL A   1      46.698  32.586  28.440  1.00  0.00     0.023 A 
ATOM     85  C   UNL A   1      46.781  33.596  27.464  1.00  0.00     0.031 A 
ATOM     86  C   UNL A   1      47.172  32.874  29.732  1.00  0.00     0.131 A 
ATOM     87  C   UNL A   1      47.384  34.823  27.779  1.00  0.00     0.055 A 
ATOM     88  C   UNL A   1      47.719  34.116  30.054  1.00  0.00     0.041 A 
ATOM     89  F   UNL A   1      47.116  31.947  30.702  1.00  0.00    -0.206 F 
ATOM     90  C   UNL A   1      47.842  35.094  29.071  1.00  0.00     0.022 A 
BRANCH  87  91
ATOM     91  S   UNL A   1      47.657  36.025  26.448  1.00  0.00     0.124 S 
ATOM     92  O   UNL A   1      48.240  35.193  25.400  1.00  0.00    -0.237 OA
ATOM     93  O   UNL A   1      46.307  36.518  26.193  1.00  0.00    -0.237 OA
ATOM     94  O   UNL A   1      48.570  36.997  27.045  1.00  0.00    -0.744 OA
ENDBRANCH  87  91
ENDBRANCH  61  84
ENDBRANCH  35  36
ENDBRANCH  28  30
ENDBRANCH  27  28
ENDBRANCH  26  27
ENDBRANCH  25  26
ENDBRANCH  24  25
ENDBRANCH   1  24
TORSDOF 21
ENDMDL
MODEL 3
REMARK VINA RESULT:      -7.8      2.084      2.565
REMARK SMILES CC(C)(C)OC(=O)N1CC(Cc2ccc(C(=O)OCCOCCOC(=O)c3ccc(-c4c5nc(c(-c6cc(S(=O)(=O)[O-])ccc6F)c6ccc([nH]6)c(-c6cc(S(=O)(=O)[O-])ccc6F)c6nc(c(-c7cc(S(=O)(=O)[O-])ccc7F)c7ccc4[nH]7)C=C6)C=C5)cc3)cc2)C1
REMARK SMILES IDX 20 1 19 2 18 3 16 4 17 5 15 6 12 7 13 8 91 9 14 10 90 11
REMARK SMILES IDX 11 12 10 13 6 14 7 15 8 16 9 17 92 18 5 19 2 20 1 21 3 22
REMARK SMILES IDX 4 23 21 24 22 25 23 26 24 27 25 28 26 29 27 30 28 31 89 32
REMARK SMILES IDX 29 33 88 34 30 35 31 36 32 37 82 38 33 39 87 40 81 41 83 42
REMARK SMILES IDX 34 43 86 44 80 45 79 46 35 48 67 49 47 50 66 51 48 52 51 53
REMARK SMILES IDX 65 54 84 55 49 56 50 57 64 59 85 60 52 61 36 62 37 63 45 64
REMARK SMILES IDX 38 65 44 66 46 67 43 68 39 69 40 70 41 71 42 72 68 73 69 74
REMARK SMILES IDX 77 75 70 76 76 77 78 78 75 79 71 80 72 81 73 82 74 83 53 84
REMARK SMILES IDX 54 85 62 86 55 87 61 88 63 89 60 90 56 91 57 92 58 93 59 94
REMARK H PARENT 83 47 51 58
REMARK Flexibility Score: inf
ROOT
ATOM      1  C   UNL A   1      44.428  19.763  24.620  1.00  0.00     0.202 C 
ENDROOT
BRANCH   1   2
ATOM      2  C   UNL A   1      45.702  20.582  24.829  1.00  0.00     0.261 C 
BRANCH   2   3
ATOM      3  O   UNL A   1      45.547  21.446  25.968  1.00  0.00    -0.460 OA
BRANCH   3   4
ATOM      4  C   UNL A   1      45.958  22.723  25.797  1.00  0.00     0.338 C 
ATOM      5  O   UNL A   1      46.308  23.247  24.751  1.00  0.00    -0.246 OA
BRANCH   4   6
ATOM      6  C   UNL A   1      45.833  23.481  27.069  1.00  0.00     0.060 A 
ATOM      7  C   UNL A   1      45.766  24.922  29.478  1.00  0.00    -0.048 A 
ATOM      8  C   UNL A   1      46.800  25.132  28.559  1.00  0.00     0.004 A 
ATOM      9  C   UNL A   1      44.735  24.025  29.155  1.00  0.00     0.004 A 
ATOM     10  C   UNL A   1      46.833  24.416  27.364  1.00  0.00     0.016 A 
ATOM     11  C   UNL A   1      44.770  23.302  27.960  1.00  0.00     0.016 A 
BRANCH   7  12
ATOM     12  C   UNL A   1      45.798  25.606  30.823  1.00  0.00     0.042 C 
BRANCH  12  13
ATOM     13  C   UNL A   1      44.999  26.899  30.745  1.00  0.00     0.033 C 
ATOM     14  C   UNL A   1      43.611  29.646  31.838  1.00  0.00     0.410 C 
ATOM     15  O   UNL A   1      44.178  30.707  31.584  1.00  0.00    -0.224 OA
ATOM     16  N   UNL A   1      44.251  28.448  31.823  1.00  0.00    -0.307 N 
ATOM     17  C   UNL A   1      45.614  28.121  31.457  1.00  0.00     0.128 C 
ATOM     18  C   UNL A   1      43.775  27.086  31.682  1.00  0.00     0.128 C 
BRANCH  14  19
ATOM     19  O   UNL A   1      42.305  29.515  32.170  1.00  0.00    -0.444 OA
BRANCH  19  20
ATOM     20  C   UNL A   1      41.790  30.045  33.421  1.00  0.00     0.106 C 
ATOM     21  C   UNL A   1      40.768  29.006  33.906  1.00  0.00     0.056 C 
ATOM     22  C   UNL A   1      41.068  31.369  33.150  1.00  0.00     0.056 C 
ATOM     23  C   UNL A   1      42.860  30.200  34.512  1.00  0.00     0.056 C 
ENDBRANCH  19  20
ENDBRANCH  14  19
ENDBRANCH  12  13
ENDBRANCH   7  12
ENDBRANCH   4   6
ENDBRANCH   3   4
ENDBRANCH   2   3
ENDBRANCH   1   2
BRANCH   1  24
ATOM     24  O   UNL A   1      43.715  19.496  25.832  1.00  0.00    -0.374 OA
BRANCH  24  25
ATOM     25  C   UNL A   1      42.296  19.652  25.759  1.00  0.00     0.202 C 
BRANCH  25  26
ATOM     26  C   UNL A   1      41.755  20.839  26.562  1.00  0.00     0.261 C 
BRANCH  26  27
ATOM     27  O   UNL A   1      41.010  21.731  25.712  1.00  0.00    -0.460 OA
BRANCH  27  28
ATOM     28  C   UNL A   1      39.808  22.115  26.209  1.00  0.00     0.338 C 
ATOM     29  O   UNL A   1      38.810  21.422  26.318  1.00  0.00    -0.246 OA
BRANCH  28  30
ATOM     30  C   UNL A   1      39.904  23.479  26.777  1.00  0.00     0.060 A 
ATOM     31  C   UNL A   1      39.979  24.541  25.869  1.00  0.00     0.016 A 
ATOM     32  C   UNL A   1      39.960  23.725  28.154  1.00  0.00     0.016 A 
ATOM     33  C   UNL A   1      40.171  25.842  26.328  1.00  0.00     0.010 A 
ATOM     34  C   UNL A   1      40.155  25.034  28.614  1.00  0.00     0.010 A 
ATOM     35  C   UNL A   1      40.299  26.092  27.701  1.00  0.00    -0.014 A 
BRANCH  35  36
ATOM     36  C   UNL A   1      40.742  27.440  28.137  1.00  0.00     0.031 A 
ATOM     37  C   UNL A   1      42.187  27.824  27.958  1.00  0.00     0.074 A 
ATOM     38  C   UNL A   1      39.857  28.337  28.607  1.00  0.00     0.049 A 
ATOM     39  N   UNL A   1      42.774  28.974  28.170  1.00  0.00    -0.248 NA
ATOM     40  C   UNL A   1      43.088  26.766  27.476  1.00  0.00     0.031 C 
ATOM     41  C   UNL A   1      38.430  28.087  28.809  1.00  0.00     0.029 A 
ATOM     42  N   UNL A   1      40.027  29.643  28.988  1.00  0.00    -0.354 N 
ATOM     43  C   UNL A   1      44.108  28.786  27.827  1.00  0.00     0.074 A 
ATOM     44  C   UNL A   1      44.252  27.396  27.448  1.00  0.00     0.031 C 
ATOM     45  C   UNL A   1      37.854  29.208  29.277  1.00  0.00     0.029 A 
ATOM     46  C   UNL A   1      38.871  30.249  29.418  1.00  0.00     0.049 A 
ATOM     47  H   UNL A   1      40.897  30.103  28.958  1.00  0.00     0.167 HD
ATOM     48  C   UNL A   1      45.119  29.692  27.812  1.00  0.00     0.034 A 
ATOM     49  C   UNL A   1      38.658  31.500  29.873  1.00  0.00     0.034 A 
ATOM     50  C   UNL A   1      44.972  31.068  28.218  1.00  0.00     0.049 A 
ATOM     51  C   UNL A   1      39.808  32.476  29.902  1.00  0.00     0.074 A 
ATOM     52  C   UNL A   1      45.928  32.069  28.243  1.00  0.00     0.029 A 
ATOM     53  N   UNL A   1      43.793  31.636  28.683  1.00  0.00    -0.354 N 
ATOM     54  N   UNL A   1      41.060  32.292  29.547  1.00  0.00    -0.248 NA
ATOM     55  C   UNL A   1      39.510  33.834  30.371  1.00  0.00     0.031 C 
ATOM     56  C   UNL A   1      45.342  33.223  28.778  1.00  0.00     0.029 A 
ATOM     57  C   UNL A   1      44.004  32.964  29.025  1.00  0.00     0.049 A 
ATOM     58  H   UNL A   1      42.932  31.165  28.761  1.00  0.00     0.167 HD
ATOM     59  C   UNL A   1      41.690  33.521  29.731  1.00  0.00     0.074 A 
ATOM     60  C   UNL A   1      40.677  34.440  30.208  1.00  0.00     0.031 C 
ATOM     61  C   UNL A   1      42.988  33.862  29.521  1.00  0.00     0.034 A 
BRANCH  48  62
ATOM     62  C   UNL A   1      46.476  29.194  27.382  1.00  0.00     0.023 A 
ATOM     63  C   UNL A   1      46.685  28.634  26.107  1.00  0.00     0.031 A 
ATOM     64  C   UNL A   1      47.566  29.236  28.270  1.00  0.00     0.131 A 
ATOM     65  C   UNL A   1      47.931  28.076  25.784  1.00  0.00     0.055 A 
ATOM     66  C   UNL A   1      48.823  28.744  27.914  1.00  0.00     0.041 A 
ATOM     67  F   UNL A   1      47.419  29.737  29.506  1.00  0.00    -0.206 F 
ATOM     68  C   UNL A   1      49.008  28.147  26.670  1.00  0.00     0.022 A 
BRANCH  65  69
ATOM     69  S   UNL A   1      48.085  27.131  24.243  1.00  0.00     0.124 S 
ATOM     70  O   UNL A   1      48.217  28.198  23.254  1.00  0.00    -0.237 OA
ATOM     71  O   UNL A   1      49.280  26.330  24.483  1.00  0.00    -0.237 OA
ATOM     72  O   UNL A   1      46.834  26.380  24.175  1.00  0.00    -0.744 OA
ENDBRANCH  65  69
ENDBRANCH  48  62
BRANCH  49  73
ATOM     73  C   UNL A   1      37.311  31.904  30.361  1.00  0.00     0.023 A 
ATOM     74  C   UNL A   1      36.379  32.518  29.510  1.00  0.00     0.031 A 
ATOM     75  C   UNL A   1      36.960  31.726  31.712  1.00  0.00     0.131 A 
ATOM     76  C   UNL A   1      35.155  32.971  30.029  1.00  0.00     0.055 A 
ATOM     77  C   UNL A   1      35.724  32.140  32.212  1.00  0.00     0.041 A 
ATOM     78  F   UNL A   1      37.816  31.140  32.563  1.00  0.00    -0.206 F 
ATOM     79  C   UNL A   1      34.819  32.778  31.371  1.00  0.00     0.022 A 
BRANCH  76  80
ATOM     80  S   UNL A   1      34.032  33.885  28.935  1.00  0.00     0.124 S 
ATOM     81  O   UNL A   1      33.435  32.808  28.154  1.00  0.00    -0.237 OA
ATOM     82  O   UNL A   1      33.153  34.549  29.892  1.00  0.00    -0.237 OA
ATOM     83  O   UNL A   1      34.927  34.773  28.196  1.00  0.00    -0.744 OA
ENDBRANCH  76  80
ENDBRANCH  49  73
BRANCH  61  84
ATOM     84  C   UNL A   1      43.364  35.300  29.783  1.00  0.00     0.023 A 
ATOM     85  C   UNL A   1      43.330  36.269  28.764  1.00  0.00     0.031 A 
ATOM     86  C   UNL A   1      43.791  35.699  31.061  1.00  0.00     0.131 A 
ATOM     87  C   UNL A   1      43.778  37.573  29.024  1.00  0.00     0.055 A 
ATOM     88  C   UNL A   1      44.181  37.012  31.329  1.00  0.00     0.041 A 
ATOM     89  F   UNL A   1      43.842  34.816  32.071  1.00  0.00    -0.206 F 
ATOM     90  C   UNL A   1      44.191  37.953  30.303  1.00  0.00     0.022 A 
BRANCH  87  91
ATOM     91  S   UNL A   1      43.911  38.739  27.642  1.00  0.00     0.124 S 
ATOM     92  O   UNL A   1      44.132  40.006  28.332  1.00  0.00    -0.237 OA
ATOM     93  O   UNL A   1      45.050  38.211  26.897  1.00  0.00    -0.237 OA
ATOM     94  O   UNL A   1      42.620  38.620  26.967  1.00  0.00    -0.744 OA
ENDBRANCH  87  91
ENDBRANCH  61  84
ENDBRANCH  35  36
ENDBRANCH  28  30
ENDBRANCH  27  28
ENDBRANCH  26  27
ENDBRANCH  25  26
ENDBRANCH  24  25
ENDBRANCH   1  24
TORSDOF 21
ENDMDL
