MODEL 1
REMARK VINA RESULT:     -11.2      0.000      0.000
REMARK SMILES CCCCc1nc(C[N@H+]2CC[NH2+][C@H](C(=O)OCCOCCOC(=O)c3ccc(-c4c5nc(c(-c6cc(S(=O)(=O)[O-])ccc6F)c6ccc([nH]6)c(-c6cc(S(=O)(=O)[O-])ccc6F)c6nc(c(-c7cc(S(=O)(=O)[O-])ccc7F)c7ccc4[nH]7)C=C6)C=C5)cc3)C2)c(Cl)[nH]1
REMARK SMILES IDX 18 1 17 2 16 3 14 4 15 5 13 6 9 7 10 8 88 9 11 11 12 12 8 15
REMARK SMILES IDX 7 16 5 17 6 18 91 19 89 20 90 22 4 23 3 24 2 25 1 26 19 27
REMARK SMILES IDX 20 28 21 29 22 30 23 31 24 32 25 33 26 34 87 35 27 36 86 37
REMARK SMILES IDX 28 38 29 39 30 40 80 41 31 42 85 43 79 44 81 45 32 46 84 47
REMARK SMILES IDX 78 48 77 49 33 51 65 52 45 53 64 54 46 55 49 56 63 57 82 58
REMARK SMILES IDX 47 59 48 60 62 62 83 63 50 64 34 65 35 66 43 67 36 68 42 69
REMARK SMILES IDX 44 70 41 71 37 72 38 73 39 74 40 75 66 76 67 77 75 78 68 79
REMARK SMILES IDX 74 80 76 81 73 82 69 83 70 84 71 85 72 86 51 87 52 88 60 89
REMARK SMILES IDX 53 90 59 91 61 92 58 93 54 94 55 95 56 96 57 97
REMARK H PARENT 9 10 12 13 12 14 91 21 81 50 49 61
REMARK Flexibility Score: inf
ROOT
ATOM      1  C   UNL A   1      31.835  28.117  26.798  1.00  0.00     0.202 C 
ENDROOT
BRANCH   1   2
ATOM      2  C   UNL A   1      30.980  26.959  26.266  1.00  0.00     0.261 C 
BRANCH   2   3
ATOM      3  O   UNL A   1      31.385  25.701  26.838  1.00  0.00    -0.459 OA
BRANCH   3   4
ATOM      4  C   UNL A   1      31.326  24.605  26.025  1.00  0.00     0.371 C 
ATOM      5  O   UNL A   1      30.602  23.633  26.217  1.00  0.00    -0.245 OA
BRANCH   4   6
ATOM      6  C   UNL A   1      32.226  24.798  24.791  1.00  0.00     0.348 C 
ATOM      7  N   UNL A   1      32.109  24.651  22.239  1.00  0.00    -0.320 N 
ATOM      8  C   UNL A   1      33.315  23.823  22.316  1.00  0.00     0.324 C 
ATOM      9  C   UNL A   1      31.366  24.671  23.507  1.00  0.00     0.341 C 
ATOM     10  H   UNL A   1      31.508  24.159  21.578  1.00  0.00     0.348 HD
ATOM     11  C   UNL A   1      34.154  24.012  23.600  1.00  0.00     0.323 C 
ATOM     12  N   UNL A   1      33.363  23.841  24.831  1.00  0.00    -0.325 N 
ATOM     13  H   UNL A   1      33.945  24.033  25.646  1.00  0.00     0.347 HD
ATOM     14  H   UNL A   1      33.014  22.885  24.896  1.00  0.00     0.347 HD
BRANCH   7  15
ATOM     15  C   UNL A   1      32.222  25.933  21.533  1.00  0.00     0.323 C 
BRANCH  15  16
ATOM     16  C   UNL A   1      31.706  27.159  22.225  1.00  0.00     0.132 A 
ATOM     17  C   UNL A   1      30.319  28.766  22.726  1.00  0.00     0.107 A 
ATOM     18  N   UNL A   1      30.399  27.609  22.079  1.00  0.00    -0.231 NA
ATOM     19  N   UNL A   1      31.535  29.074  23.293  1.00  0.00    -0.333 N 
ATOM     20  C   UNL A   1      32.399  28.078  22.972  1.00  0.00     0.135 A 
ATOM     21  H   UNL A   1      31.741  29.873  23.831  1.00  0.00     0.169 HD
ATOM     22  Cl  UNL A   1      34.000  28.198  23.508  1.00  0.00    -0.062 Cl
BRANCH  17  23
ATOM     23  C   UNL A   1      29.102  29.586  23.034  1.00  0.00     0.075 C 
BRANCH  23  24
ATOM     24  C   UNL A   1      29.279  30.973  23.663  1.00  0.00     0.008 C 
BRANCH  24  25
ATOM     25  C   UNL A   1      28.265  32.065  23.307  1.00  0.00    -0.003 C 
ATOM     26  C   UNL A   1      28.907  33.426  23.048  1.00  0.00     0.004 C 
ENDBRANCH  24  25
ENDBRANCH  23  24
ENDBRANCH  17  23
ENDBRANCH  15  16
ENDBRANCH   7  15
ENDBRANCH   4   6
ENDBRANCH   3   4
ENDBRANCH   2   3
ENDBRANCH   1   2
BRANCH   1  27
ATOM     27  O   UNL A   1      31.615  29.399  26.211  1.00  0.00    -0.374 OA
BRANCH  27  28
ATOM     28  C   UNL A   1      32.122  30.526  26.902  1.00  0.00     0.202 C 
BRANCH  28  29
ATOM     29  C   UNL A   1      33.632  30.746  26.947  1.00  0.00     0.261 C 
BRANCH  29  30
ATOM     30  O   UNL A   1      34.273  30.956  28.200  1.00  0.00    -0.460 OA
BRANCH  30  31
ATOM     31  C   UNL A   1      35.331  31.785  28.067  1.00  0.00     0.338 C 
ATOM     32  O   UNL A   1      35.279  32.917  27.568  1.00  0.00    -0.246 OA
BRANCH  31  33
ATOM     33  C   UNL A   1      36.598  31.118  28.408  1.00  0.00     0.060 A 
ATOM     34  C   UNL A   1      36.646  29.727  28.273  1.00  0.00     0.016 A 
ATOM     35  C   UNL A   1      37.680  31.814  28.973  1.00  0.00     0.016 A 
ATOM     36  C   UNL A   1      37.760  29.034  28.716  1.00  0.00     0.010 A 
ATOM     37  C   UNL A   1      38.785  31.114  29.448  1.00  0.00     0.010 A 
ATOM     38  C   UNL A   1      38.823  29.724  29.313  1.00  0.00    -0.014 A 
BRANCH  38  39
ATOM     39  C   UNL A   1      40.063  28.982  29.516  1.00  0.00     0.031 A 
ATOM     40  C   UNL A   1      40.428  28.822  30.948  1.00  0.00     0.074 A 
ATOM     41  C   UNL A   1      40.796  28.373  28.567  1.00  0.00     0.049 A 
ATOM     42  N   UNL A   1      41.455  29.314  31.557  1.00  0.00    -0.248 NA
ATOM     43  C   UNL A   1      39.468  28.150  31.836  1.00  0.00     0.031 C 
ATOM     44  C   UNL A   1      40.465  28.196  27.157  1.00  0.00     0.029 A 
ATOM     45  N   UNL A   1      41.972  27.688  28.706  1.00  0.00    -0.354 N 
ATOM     46  C   UNL A   1      41.389  28.834  32.860  1.00  0.00     0.074 A 
ATOM     47  C   UNL A   1      40.069  28.287  33.017  1.00  0.00     0.031 C 
ATOM     48  C   UNL A   1      41.305  27.281  26.621  1.00  0.00     0.029 A 
ATOM     49  C   UNL A   1      42.288  26.882  27.620  1.00  0.00     0.049 A 
ATOM     50  H   UNL A   1      42.543  27.759  29.506  1.00  0.00     0.167 HD
ATOM     51  C   UNL A   1      42.506  28.721  33.630  1.00  0.00     0.034 A 
ATOM     52  C   UNL A   1      43.235  25.907  27.565  1.00  0.00     0.034 A 
ATOM     53  C   UNL A   1      43.580  29.550  33.123  1.00  0.00     0.049 A 
ATOM     54  C   UNL A   1      44.247  26.201  28.610  1.00  0.00     0.074 A 
ATOM     55  C   UNL A   1      43.690  30.892  32.803  1.00  0.00     0.029 A 
ATOM     56  N   UNL A   1      44.670  28.948  32.535  1.00  0.00    -0.354 N 
ATOM     57  N   UNL A   1      45.061  27.220  28.558  1.00  0.00    -0.248 NA
ATOM     58  C   UNL A   1      44.079  25.618  29.934  1.00  0.00     0.031 C 
ATOM     59  C   UNL A   1      44.511  30.928  31.640  1.00  0.00     0.029 A 
ATOM     60  C   UNL A   1      44.911  29.621  31.363  1.00  0.00     0.049 A 
ATOM     61  H   UNL A   1      45.179  28.182  32.886  1.00  0.00     0.167 HD
ATOM     62  C   UNL A   1      45.156  27.673  29.864  1.00  0.00     0.074 A 
ATOM     63  C   UNL A   1      44.625  26.583  30.679  1.00  0.00     0.031 C 
ATOM     64  C   UNL A   1      45.389  28.990  30.148  1.00  0.00     0.034 A 
BRANCH  51  65
ATOM     65  C   UNL A   1      42.748  27.593  34.611  1.00  0.00     0.023 A 
ATOM     66  C   UNL A   1      43.521  26.510  34.153  1.00  0.00     0.031 A 
ATOM     67  C   UNL A   1      42.029  27.366  35.807  1.00  0.00     0.131 A 
ATOM     68  C   UNL A   1      43.435  25.250  34.767  1.00  0.00     0.055 A 
ATOM     69  C   UNL A   1      42.017  26.133  36.465  1.00  0.00     0.041 A 
ATOM     70  F   UNL A   1      41.224  28.280  36.359  1.00  0.00    -0.206 F 
ATOM     71  C   UNL A   1      42.687  25.052  35.923  1.00  0.00     0.022 A 
BRANCH  68  72
ATOM     72  S   UNL A   1      44.129  23.832  33.883  1.00  0.00     0.124 S 
ATOM     73  O   UNL A   1      43.582  22.721  34.655  1.00  0.00    -0.237 OA
ATOM     74  O   UNL A   1      43.583  24.018  32.543  1.00  0.00    -0.237 OA
ATOM     75  O   UNL A   1      45.571  24.031  34.006  1.00  0.00    -0.744 OA
ENDBRANCH  68  72
ENDBRANCH  51  65
BRANCH  52  76
ATOM     76  C   UNL A   1      43.177  24.626  26.804  1.00  0.00     0.023 A 
ATOM     77  C   UNL A   1      42.276  23.587  27.122  1.00  0.00     0.031 A 
ATOM     78  C   UNL A   1      43.879  24.495  25.583  1.00  0.00     0.131 A 
ATOM     79  C   UNL A   1      42.121  22.483  26.248  1.00  0.00     0.055 A 
ATOM     80  C   UNL A   1      43.739  23.394  24.736  1.00  0.00     0.041 A 
ATOM     81  F   UNL A   1      44.669  25.477  25.120  1.00  0.00    -0.206 F 
ATOM     82  C   UNL A   1      42.852  22.385  25.062  1.00  0.00     0.022 A 
BRANCH  79  83
ATOM     83  S   UNL A   1      40.869  21.202  26.582  1.00  0.00     0.124 S 
ATOM     84  O   UNL A   1      41.492  20.006  26.030  1.00  0.00    -0.237 OA
ATOM     85  O   UNL A   1      40.739  21.259  28.034  1.00  0.00    -0.237 OA
ATOM     86  O   UNL A   1      39.694  21.678  25.848  1.00  0.00    -0.744 OA
ENDBRANCH  79  83
ENDBRANCH  52  76
BRANCH  64  87
ATOM     87  C   UNL A   1      45.922  29.903  29.064  1.00  0.00     0.023 A 
ATOM     88  C   UNL A   1      45.135  30.788  28.297  1.00  0.00     0.031 A 
ATOM     89  C   UNL A   1      47.319  29.957  28.889  1.00  0.00     0.131 A 
ATOM     90  C   UNL A   1      45.748  31.670  27.387  1.00  0.00     0.055 A 
ATOM     91  C   UNL A   1      47.924  30.849  28.005  1.00  0.00     0.041 A 
ATOM     92  F   UNL A   1      48.128  29.161  29.607  1.00  0.00    -0.206 F 
ATOM     93  C   UNL A   1      47.139  31.705  27.243  1.00  0.00     0.022 A 
BRANCH  90  94
ATOM     94  S   UNL A   1      44.739  32.779  26.356  1.00  0.00     0.124 S 
ATOM     95  O   UNL A   1      45.718  33.448  25.509  1.00  0.00    -0.237 OA
ATOM     96  O   UNL A   1      43.841  31.847  25.680  1.00  0.00    -0.237 OA
ATOM     97  O   UNL A   1      44.085  33.650  27.335  1.00  0.00    -0.744 OA
ENDBRANCH  90  94
ENDBRANCH  64  87
ENDBRANCH  38  39
ENDBRANCH  31  33
ENDBRANCH  30  31
ENDBRANCH  29  30
ENDBRANCH  28  29
ENDBRANCH  27  28
ENDBRANCH   1  27
TORSDOF 22
ENDMDL
MODEL 2
REMARK VINA RESULT:     -10.7      2.748      4.575
REMARK SMILES CCCCc1nc(C[N@H+]2CC[NH2+][C@H](C(=O)OCCOCCOC(=O)c3ccc(-c4c5nc(c(-c6cc(S(=O)(=O)[O-])ccc6F)c6ccc([nH]6)c(-c6cc(S(=O)(=O)[O-])ccc6F)c6nc(c(-c7cc(S(=O)(=O)[O-])ccc7F)c7ccc4[nH]7)C=C6)C=C5)cc3)C2)c(Cl)[nH]1
REMARK SMILES IDX 18 1 17 2 16 3 14 4 15 5 13 6 9 7 10 8 88 9 11 11 12 12 8 15
REMARK SMILES IDX 7 16 5 17 6 18 91 19 89 20 90 22 4 23 3 24 2 25 1 26 19 27
REMARK SMILES IDX 20 28 21 29 22 30 23 31 24 32 25 33 26 34 87 35 27 36 86 37
REMARK SMILES IDX 28 38 29 39 30 40 80 41 31 42 85 43 79 44 81 45 32 46 84 47
REMARK SMILES IDX 78 48 77 49 33 51 65 52 45 53 64 54 46 55 49 56 63 57 82 58
REMARK SMILES IDX 47 59 48 60 62 62 83 63 50 64 34 65 35 66 43 67 36 68 42 69
REMARK SMILES IDX 44 70 41 71 37 72 38 73 39 74 40 75 66 76 67 77 75 78 68 79
REMARK SMILES IDX 74 80 76 81 73 82 69 83 70 84 71 85 72 86 51 87 52 88 60 89
REMARK SMILES IDX 53 90 59 91 61 92 58 93 54 94 55 95 56 96 57 97
REMARK H PARENT 9 10 12 13 12 14 91 21 81 50 49 61
REMARK Flexibility Score: inf
ROOT
ATOM      1  C   UNL A   1      32.237  28.992  26.821  1.00  0.00     0.202 C 
ENDROOT
BRANCH   1   2
ATOM      2  C   UNL A   1      31.604  28.265  25.627  1.00  0.00     0.261 C 
BRANCH   2   3
ATOM      3  O   UNL A   1      32.192  28.690  24.383  1.00  0.00    -0.459 OA
BRANCH   3   4
ATOM      4  C   UNL A   1      33.242  27.954  23.912  1.00  0.00     0.371 C 
ATOM      5  O   UNL A   1      34.395  28.364  23.822  1.00  0.00    -0.245 OA
BRANCH   4   6
ATOM      6  C   UNL A   1      32.796  26.516  23.596  1.00  0.00     0.348 C 
ATOM      7  N   UNL A   1      33.450  24.099  24.127  1.00  0.00    -0.320 N 
ATOM      8  C   UNL A   1      33.395  23.856  22.683  1.00  0.00     0.324 C 
ATOM      9  C   UNL A   1      33.630  25.522  24.445  1.00  0.00     0.341 C 
ATOM     10  H   UNL A   1      34.310  23.641  24.427  1.00  0.00     0.348 HD
ATOM     11  C   UNL A   1      32.523  24.853  21.888  1.00  0.00     0.323 C 
ATOM     12  N   UNL A   1      32.890  26.259  22.135  1.00  0.00    -0.325 N 
ATOM     13  H   UNL A   1      32.251  26.877  21.635  1.00  0.00     0.347 HD
ATOM     14  H   UNL A   1      33.840  26.438  21.808  1.00  0.00     0.347 HD
BRANCH   7  15
ATOM     15  C   UNL A   1      32.496  23.363  24.966  1.00  0.00     0.323 C 
BRANCH  15  16
ATOM     16  C   UNL A   1      32.769  21.912  25.224  1.00  0.00     0.132 A 
ATOM     17  C   UNL A   1      32.636  19.751  24.961  1.00  0.00     0.107 A 
ATOM     18  N   UNL A   1      32.325  20.902  24.377  1.00  0.00    -0.231 NA
ATOM     19  N   UNL A   1      33.275  19.985  26.158  1.00  0.00    -0.333 N 
ATOM     20  C   UNL A   1      33.349  21.330  26.323  1.00  0.00     0.135 A 
ATOM     21  H   UNL A   1      33.616  19.302  26.780  1.00  0.00     0.169 HD
ATOM     22  Cl  UNL A   1      34.063  21.928  27.737  1.00  0.00    -0.062 Cl
BRANCH  17  23
ATOM     23  C   UNL A   1      32.544  18.361  24.403  1.00  0.00     0.075 C 
BRANCH  23  24
ATOM     24  C   UNL A   1      32.511  17.172  25.369  1.00  0.00     0.008 C 
BRANCH  24  25
ATOM     25  C   UNL A   1      33.700  16.204  25.368  1.00  0.00    -0.003 C 
ATOM     26  C   UNL A   1      34.774  16.567  24.344  1.00  0.00     0.004 C 
ENDBRANCH  24  25
ENDBRANCH  23  24
ENDBRANCH  17  23
ENDBRANCH  15  16
ENDBRANCH   7  15
ENDBRANCH   4   6
ENDBRANCH   3   4
ENDBRANCH   2   3
ENDBRANCH   1   2
BRANCH   1  27
ATOM     27  O   UNL A   1      31.668  30.250  27.182  1.00  0.00    -0.374 OA
BRANCH  27  28
ATOM     28  C   UNL A   1      32.409  31.415  26.867  1.00  0.00     0.202 C 
BRANCH  28  29
ATOM     29  C   UNL A   1      33.518  31.862  27.816  1.00  0.00     0.261 C 
BRANCH  29  30
ATOM     30  O   UNL A   1      34.668  31.040  27.985  1.00  0.00    -0.460 OA
BRANCH  30  31
ATOM     31  C   UNL A   1      35.792  31.788  28.030  1.00  0.00     0.338 C 
ATOM     32  O   UNL A   1      35.867  32.967  27.662  1.00  0.00    -0.246 OA
BRANCH  31  33
ATOM     33  C   UNL A   1      36.973  30.985  28.388  1.00  0.00     0.060 A 
ATOM     34  C   UNL A   1      36.933  29.619  28.092  1.00  0.00     0.016 A 
ATOM     35  C   UNL A   1      38.048  31.522  29.117  1.00  0.00     0.016 A 
ATOM     36  C   UNL A   1      37.951  28.792  28.536  1.00  0.00     0.010 A 
ATOM     37  C   UNL A   1      39.053  30.685  29.591  1.00  0.00     0.010 A 
ATOM     38  C   UNL A   1      39.003  29.321  29.294  1.00  0.00    -0.014 A 
BRANCH  38  39
ATOM     39  C   UNL A   1      40.164  28.461  29.505  1.00  0.00     0.031 A 
ATOM     40  C   UNL A   1      40.559  28.343  30.933  1.00  0.00     0.074 A 
ATOM     41  C   UNL A   1      40.795  27.725  28.572  1.00  0.00     0.049 A 
ATOM     42  N   UNL A   1      41.653  28.754  31.482  1.00  0.00    -0.248 NA
ATOM     43  C   UNL A   1      39.565  27.829  31.885  1.00  0.00     0.031 C 
ATOM     44  C   UNL A   1      40.397  27.507  27.185  1.00  0.00     0.029 A 
ATOM     45  N   UNL A   1      41.895  26.926  28.718  1.00  0.00    -0.354 N 
ATOM     46  C   UNL A   1      41.582  28.356  32.812  1.00  0.00     0.074 A 
ATOM     47  C   UNL A   1      40.217  27.965  33.039  1.00  0.00     0.031 C 
ATOM     48  C   UNL A   1      41.116  26.478  26.680  1.00  0.00     0.029 A 
ATOM     49  C   UNL A   1      42.086  26.032  27.672  1.00  0.00     0.049 A 
ATOM     50  H   UNL A   1      42.498  26.980  29.495  1.00  0.00     0.167 HD
ATOM     51  C   UNL A   1      42.707  28.167  33.555  1.00  0.00     0.034 A 
ATOM     52  C   UNL A   1      42.921  24.958  27.647  1.00  0.00     0.034 A 
ATOM     53  C   UNL A   1      43.844  28.845  32.970  1.00  0.00     0.049 A 
ATOM     54  C   UNL A   1      43.995  25.200  28.644  1.00  0.00     0.074 A 
ATOM     55  C   UNL A   1      44.085  30.148  32.568  1.00  0.00     0.029 A 
ATOM     56  N   UNL A   1      44.843  28.098  32.386  1.00  0.00    -0.354 N 
ATOM     57  N   UNL A   1      44.910  26.120  28.509  1.00  0.00    -0.248 NA
ATOM     58  C   UNL A   1      43.812  24.712  30.004  1.00  0.00     0.031 C 
ATOM     59  C   UNL A   1      44.865  30.031  31.381  1.00  0.00     0.029 A 
ATOM     60  C   UNL A   1      45.114  28.675  31.171  1.00  0.00     0.049 A 
ATOM     61  H   UNL A   1      45.280  27.302  32.768  1.00  0.00     0.167 HD
ATOM     62  C   UNL A   1      45.098  26.631  29.782  1.00  0.00     0.074 A 
ATOM     63  C   UNL A   1      44.483  25.653  30.675  1.00  0.00     0.031 C 
ATOM     64  C   UNL A   1      45.479  27.929  29.982  1.00  0.00     0.034 A 
BRANCH  51  65
ATOM     65  C   UNL A   1      42.861  27.075  34.593  1.00  0.00     0.023 A 
ATOM     66  C   UNL A   1      43.705  25.999  34.260  1.00  0.00     0.031 A 
ATOM     67  C   UNL A   1      42.018  26.866  35.709  1.00  0.00     0.131 A 
ATOM     68  C   UNL A   1      43.577  24.757  34.902  1.00  0.00     0.055 A 
ATOM     69  C   UNL A   1      41.959  25.654  36.401  1.00  0.00     0.041 A 
ATOM     70  F   UNL A   1      41.136  27.776  36.137  1.00  0.00    -0.206 F 
ATOM     71  C   UNL A   1      42.709  24.574  35.973  1.00  0.00     0.022 A 
BRANCH  68  72
ATOM     72  S   UNL A   1      44.398  23.330  34.148  1.00  0.00     0.124 S 
ATOM     73  O   UNL A   1      43.416  22.937  33.142  1.00  0.00    -0.237 OA
ATOM     74  O   UNL A   1      45.632  23.925  33.648  1.00  0.00    -0.237 OA
ATOM     75  O   UNL A   1      44.557  22.403  35.265  1.00  0.00    -0.744 OA
ENDBRANCH  68  72
ENDBRANCH  51  65
BRANCH  52  76
ATOM     76  C   UNL A   1      42.701  23.651  26.965  1.00  0.00     0.023 A 
ATOM     77  C   UNL A   1      43.715  22.982  26.247  1.00  0.00     0.031 A 
ATOM     78  C   UNL A   1      41.514  22.920  27.203  1.00  0.00     0.131 A 
ATOM     79  C   UNL A   1      43.513  21.655  25.794  1.00  0.00     0.055 A 
ATOM     80  C   UNL A   1      41.311  21.620  26.735  1.00  0.00     0.041 A 
ATOM     81  F   UNL A   1      40.532  23.410  27.976  1.00  0.00    -0.206 F 
ATOM     82  C   UNL A   1      42.315  20.978  26.034  1.00  0.00     0.022 A 
BRANCH  79  83
ATOM     83  S   UNL A   1      44.860  20.735  24.982  1.00  0.00     0.124 S 
ATOM     84  O   UNL A   1      44.529  20.880  23.570  1.00  0.00    -0.237 OA
ATOM     85  O   UNL A   1      46.049  21.439  25.449  1.00  0.00    -0.237 OA
ATOM     86  O   UNL A   1      44.711  19.378  25.513  1.00  0.00    -0.744 OA
ENDBRANCH  79  83
ENDBRANCH  52  76
BRANCH  64  87
ATOM     87  C   UNL A   1      46.068  28.718  28.832  1.00  0.00     0.023 A 
ATOM     88  C   UNL A   1      47.436  28.739  28.484  1.00  0.00     0.031 A 
ATOM     89  C   UNL A   1      45.171  29.389  27.977  1.00  0.00     0.131 A 
ATOM     90  C   UNL A   1      47.862  29.423  27.331  1.00  0.00     0.055 A 
ATOM     91  C   UNL A   1      45.594  30.045  26.822  1.00  0.00     0.041 A 
ATOM     92  F   UNL A   1      43.853  29.387  28.234  1.00  0.00    -0.206 F 
ATOM     93  C   UNL A   1      46.945  30.072  26.498  1.00  0.00     0.022 A 
BRANCH  90  94
ATOM     94  S   UNL A   1      49.629  29.498  26.903  1.00  0.00     0.124 S 
ATOM     95  O   UNL A   1      50.300  29.128  28.143  1.00  0.00    -0.237 OA
ATOM     96  O   UNL A   1      49.728  28.532  25.811  1.00  0.00    -0.237 OA
ATOM     97  O   UNL A   1      49.821  30.893  26.499  1.00  0.00    -0.744 OA
ENDBRANCH  90  94
ENDBRANCH  64  87
ENDBRANCH  38  39
ENDBRANCH  31  33
ENDBRANCH  30  31
ENDBRANCH  29  30
ENDBRANCH  28  29
ENDBRANCH  27  28
ENDBRANCH   1  27
TORSDOF 22
ENDMDL
MODEL 3
REMARK VINA RESULT:     -10.6      1.872      3.945
REMARK SMILES CCCCc1nc(C[N@H+]2CC[NH2+][C@H](C(=O)OCCOCCOC(=O)c3ccc(-c4c5nc(c(-c6cc(S(=O)(=O)[O-])ccc6F)c6ccc([nH]6)c(-c6cc(S(=O)(=O)[O-])ccc6F)c6nc(c(-c7cc(S(=O)(=O)[O-])ccc7F)c7ccc4[nH]7)C=C6)C=C5)cc3)C2)c(Cl)[nH]1
REMARK SMILES IDX 18 1 17 2 16 3 14 4 15 5 13 6 9 7 10 8 88 9 11 11 12 12 8 15
REMARK SMILES IDX 7 16 5 17 6 18 91 19 89 20 90 22 4 23 3 24 2 25 1 26 19 27
REMARK SMILES IDX 20 28 21 29 22 30 23 31 24 32 25 33 26 34 87 35 27 36 86 37
REMARK SMILES IDX 28 38 29 39 30 40 80 41 31 42 85 43 79 44 81 45 32 46 84 47
REMARK SMILES IDX 78 48 77 49 33 51 65 52 45 53 64 54 46 55 49 56 63 57 82 58
REMARK SMILES IDX 47 59 48 60 62 62 83 63 50 64 34 65 35 66 43 67 36 68 42 69
REMARK SMILES IDX 44 70 41 71 37 72 38 73 39 74 40 75 66 76 67 77 75 78 68 79
REMARK SMILES IDX 74 80 76 81 73 82 69 83 70 84 71 85 72 86 51 87 52 88 60 89
REMARK SMILES IDX 53 90 59 91 61 92 58 93 54 94 55 95 56 96 57 97
REMARK H PARENT 9 10 12 13 12 14 91 21 81 50 49 61
REMARK Flexibility Score: inf
ROOT
ATOM      1  C   UNL A   1      32.360  28.263  26.434  1.00  0.00     0.202 C 
ENDROOT
BRANCH   1   2
ATOM      2  C   UNL A   1      31.389  27.155  26.002  1.00  0.00     0.261 C 
BRANCH   2   3
ATOM      3  O   UNL A   1      30.889  27.385  24.672  1.00  0.00    -0.459 OA
BRANCH   3   4
ATOM      4  C   UNL A   1      31.737  27.110  23.637  1.00  0.00     0.371 C 
ATOM      5  O   UNL A   1      32.127  27.934  22.816  1.00  0.00    -0.245 OA
BRANCH   4   6
ATOM      6  C   UNL A   1      32.204  25.644  23.696  1.00  0.00     0.348 C 
ATOM      7  N   UNL A   1      34.359  24.281  23.915  1.00  0.00    -0.320 N 
ATOM      8  C   UNL A   1      33.895  23.519  22.753  1.00  0.00     0.324 C 
ATOM      9  C   UNL A   1      33.723  25.603  24.004  1.00  0.00     0.341 C 
ATOM     10  H   UNL A   1      35.343  24.464  23.720  1.00  0.00     0.348 HD
ATOM     11  C   UNL A   1      32.369  23.565  22.511  1.00  0.00     0.323 C 
ATOM     12  N   UNL A   1      31.842  24.939  22.439  1.00  0.00    -0.325 N 
ATOM     13  H   UNL A   1      30.827  24.915  22.338  1.00  0.00     0.347 HD
ATOM     14  H   UNL A   1      32.239  25.427  21.636  1.00  0.00     0.347 HD
BRANCH   7  15
ATOM     15  C   UNL A   1      34.510  23.548  25.178  1.00  0.00     0.323 C 
BRANCH  15  16
ATOM     16  C   UNL A   1      33.721  22.285  25.351  1.00  0.00     0.132 A 
ATOM     17  C   UNL A   1      33.223  20.170  25.165  1.00  0.00     0.107 A 
ATOM     18  N   UNL A   1      34.213  21.037  24.988  1.00  0.00    -0.231 NA
ATOM     19  N   UNL A   1      32.105  20.820  25.639  1.00  0.00    -0.333 N 
ATOM     20  C   UNL A   1      32.415  22.137  25.745  1.00  0.00     0.135 A 
ATOM     21  H   UNL A   1      31.240  20.405  25.859  1.00  0.00     0.169 HD
ATOM     22  Cl  UNL A   1      31.214  23.205  26.277  1.00  0.00    -0.062 Cl
BRANCH  17  23
ATOM     23  C   UNL A   1      33.264  18.672  25.093  1.00  0.00     0.075 C 
BRANCH  23  24
ATOM     24  C   UNL A   1      33.273  17.993  23.719  1.00  0.00     0.008 C 
BRANCH  24  25
ATOM     25  C   UNL A   1      33.820  16.565  23.621  1.00  0.00    -0.003 C 
ATOM     26  C   UNL A   1      34.757  16.196  24.770  1.00  0.00     0.004 C 
ENDBRANCH  24  25
ENDBRANCH  23  24
ENDBRANCH  17  23
ENDBRANCH  15  16
ENDBRANCH   7  15
ENDBRANCH   4   6
ENDBRANCH   3   4
ENDBRANCH   2   3
ENDBRANCH   1   2
BRANCH   1  27
ATOM     27  O   UNL A   1      31.811  29.335  27.199  1.00  0.00    -0.374 OA
BRANCH  27  28
ATOM     28  C   UNL A   1      32.084  30.654  26.760  1.00  0.00     0.202 C 
BRANCH  28  29
ATOM     29  C   UNL A   1      33.227  31.427  27.415  1.00  0.00     0.261 C 
BRANCH  29  30
ATOM     30  O   UNL A   1      34.456  30.763  27.686  1.00  0.00    -0.460 OA
BRANCH  30  31
ATOM     31  C   UNL A   1      35.454  31.654  27.871  1.00  0.00     0.338 C 
ATOM     32  O   UNL A   1      35.373  32.863  27.617  1.00  0.00    -0.246 OA
BRANCH  31  33
ATOM     33  C   UNL A   1      36.721  30.995  28.230  1.00  0.00     0.060 A 
ATOM     34  C   UNL A   1      36.831  29.627  27.957  1.00  0.00     0.016 A 
ATOM     35  C   UNL A   1      37.735  31.661  28.937  1.00  0.00     0.016 A 
ATOM     36  C   UNL A   1      37.939  28.927  28.403  1.00  0.00     0.010 A 
ATOM     37  C   UNL A   1      38.832  30.950  29.414  1.00  0.00     0.010 A 
ATOM     38  C   UNL A   1      38.932  29.584  29.141  1.00  0.00    -0.014 A 
BRANCH  38  39
ATOM     39  C   UNL A   1      40.184  28.864  29.353  1.00  0.00     0.031 A 
ATOM     40  C   UNL A   1      40.527  28.687  30.788  1.00  0.00     0.074 A 
ATOM     41  C   UNL A   1      40.946  28.287  28.407  1.00  0.00     0.049 A 
ATOM     42  N   UNL A   1      41.533  29.189  31.424  1.00  0.00    -0.248 NA
ATOM     43  C   UNL A   1      39.566  27.980  31.647  1.00  0.00     0.031 C 
ATOM     44  C   UNL A   1      40.642  28.128  26.988  1.00  0.00     0.029 A 
ATOM     45  N   UNL A   1      42.132  27.623  28.555  1.00  0.00    -0.354 N 
ATOM     46  C   UNL A   1      41.454  28.684  32.717  1.00  0.00     0.074 A 
ATOM     47  C   UNL A   1      40.143  28.108  32.841  1.00  0.00     0.031 C 
ATOM     48  C   UNL A   1      41.510  27.239  26.452  1.00  0.00     0.029 A 
ATOM     49  C   UNL A   1      42.485  26.843  27.461  1.00  0.00     0.049 A 
ATOM     50  H   UNL A   1      42.688  27.692  29.366  1.00  0.00     0.167 HD
ATOM     51  C   UNL A   1      42.560  28.581  33.504  1.00  0.00     0.034 A 
ATOM     52  C   UNL A   1      43.452  25.888  27.406  1.00  0.00     0.034 A 
ATOM     53  C   UNL A   1      43.625  29.440  33.031  1.00  0.00     0.049 A 
ATOM     54  C   UNL A   1      44.440  26.185  28.474  1.00  0.00     0.074 A 
ATOM     55  C   UNL A   1      43.713  30.790  32.736  1.00  0.00     0.029 A 
ATOM     56  N   UNL A   1      44.737  28.871  32.451  1.00  0.00    -0.354 N 
ATOM     57  N   UNL A   1      45.233  27.221  28.454  1.00  0.00    -0.248 NA
ATOM     58  C   UNL A   1      44.260  25.576  29.784  1.00  0.00     0.031 C 
ATOM     59  C   UNL A   1      44.554  30.863  31.588  1.00  0.00     0.029 A 
ATOM     60  C   UNL A   1      44.985  29.569  31.296  1.00  0.00     0.049 A 
ATOM     61  H   UNL A   1      45.256  28.110  32.799  1.00  0.00     0.167 HD
ATOM     62  C   UNL A   1      45.296  27.653  29.769  1.00  0.00     0.074 A 
ATOM     63  C   UNL A   1      44.774  26.539  30.556  1.00  0.00     0.031 C 
ATOM     64  C   UNL A   1      45.497  28.969  30.079  1.00  0.00     0.034 A 
BRANCH  51  65
ATOM     65  C   UNL A   1      42.808  27.441  34.470  1.00  0.00     0.023 A 
ATOM     66  C   UNL A   1      43.589  26.370  33.998  1.00  0.00     0.031 A 
ATOM     67  C   UNL A   1      42.089  27.193  35.662  1.00  0.00     0.131 A 
ATOM     68  C   UNL A   1      43.510  25.101  34.595  1.00  0.00     0.055 A 
ATOM     69  C   UNL A   1      42.084  25.951  36.303  1.00  0.00     0.041 A 
ATOM     70  F   UNL A   1      41.277  28.094  36.226  1.00  0.00    -0.206 F 
ATOM     71  C   UNL A   1      42.762  24.882  35.747  1.00  0.00     0.022 A 
BRANCH  68  72
ATOM     72  S   UNL A   1      44.215  23.700  33.693  1.00  0.00     0.124 S 
ATOM     73  O   UNL A   1      43.865  22.590  34.574  1.00  0.00    -0.237 OA
ATOM     74  O   UNL A   1      43.497  23.769  32.425  1.00  0.00    -0.237 OA
ATOM     75  O   UNL A   1      45.638  24.023  33.626  1.00  0.00    -0.744 OA
ENDBRANCH  68  72
ENDBRANCH  51  65
BRANCH  52  76
ATOM     76  C   UNL A   1      43.433  24.620  26.622  1.00  0.00     0.023 A 
ATOM     77  C   UNL A   1      42.603  23.528  26.953  1.00  0.00     0.031 A 
ATOM     78  C   UNL A   1      44.094  24.549  25.374  1.00  0.00     0.131 A 
ATOM     79  C   UNL A   1      42.474  22.433  26.064  1.00  0.00     0.055 A 
ATOM     80  C   UNL A   1      43.981  23.458  24.511  1.00  0.00     0.041 A 
ATOM     81  F   UNL A   1      44.812  25.581  24.902  1.00  0.00    -0.206 F 
ATOM     82  C   UNL A   1      43.162  22.396  24.849  1.00  0.00     0.022 A 
BRANCH  79  83
ATOM     83  S   UNL A   1      41.305  21.080  26.419  1.00  0.00     0.124 S 
ATOM     84  O   UNL A   1      40.019  21.692  26.113  1.00  0.00    -0.237 OA
ATOM     85  O   UNL A   1      41.759  20.027  25.517  1.00  0.00    -0.237 OA
ATOM     86  O   UNL A   1      41.532  20.802  27.840  1.00  0.00    -0.744 OA
ENDBRANCH  79  83
ENDBRANCH  52  76
BRANCH  64  87
ATOM     87  C   UNL A   1      46.030  29.912  29.021  1.00  0.00     0.023 A 
ATOM     88  C   UNL A   1      45.243  30.818  28.278  1.00  0.00     0.031 A 
ATOM     89  C   UNL A   1      47.426  29.970  28.846  1.00  0.00     0.131 A 
ATOM     90  C   UNL A   1      45.855  31.724  27.393  1.00  0.00     0.055 A 
ATOM     91  C   UNL A   1      48.031  30.885  27.987  1.00  0.00     0.041 A 
ATOM     92  F   UNL A   1      48.236  29.154  29.541  1.00  0.00    -0.206 F 
ATOM     93  C   UNL A   1      47.246  31.763  27.249  1.00  0.00     0.022 A 
BRANCH  90  94
ATOM     94  S   UNL A   1      44.846  32.862  26.394  1.00  0.00     0.124 S 
ATOM     95  O   UNL A   1      45.822  33.535  25.545  1.00  0.00    -0.237 OA
ATOM     96  O   UNL A   1      43.928  31.952  25.714  1.00  0.00    -0.237 OA
ATOM     97  O   UNL A   1      44.214  33.724  27.396  1.00  0.00    -0.744 OA
ENDBRANCH  90  94
ENDBRANCH  64  87
ENDBRANCH  38  39
ENDBRANCH  31  33
ENDBRANCH  30  31
ENDBRANCH  29  30
ENDBRANCH  28  29
ENDBRANCH  27  28
ENDBRANCH   1  27
TORSDOF 22
ENDMDL
