MODEL 1
REMARK VINA RESULT:     -10.3      0.000      0.000
REMARK SMILES Nc1c(CC(=O)OCCOCCOC(=O)c2ccc(-c3c4nc(c(-c5cc(S(=O)(=O)[O-])ccc5F)c5ccc([nH]5)c(-c5cc(S(=O)(=O)[O-])ccc5F)c5nc(c(-c6cc(S(=O)(=O)[O-])ccc6F)c6ccc3[nH]6)C=C5)C=C4)cc2)cccc1C(=O)c1ccc(Br)cc1
REMARK SMILES IDX 10 1 9 2 8 3 7 4 5 5 6 6 4 7 3 8 2 9 82 10 79 11 81 12 80 13
REMARK SMILES IDX 1 14 83 17 84 18 85 19 86 20 91 21 87 22 90 23 88 24 89 25
REMARK SMILES IDX 11 26 12 27 13 28 14 29 15 30 16 31 17 32 78 33 18 34 77 35
REMARK SMILES IDX 19 36 20 37 21 38 71 39 22 40 76 41 70 42 72 43 23 44 75 45
REMARK SMILES IDX 69 46 68 47 24 49 56 50 36 51 55 52 37 53 40 54 54 55 73 56
REMARK SMILES IDX 38 57 39 58 53 60 74 61 41 62 25 63 26 64 34 65 27 66 33 67
REMARK SMILES IDX 35 68 32 69 28 70 29 71 30 72 31 73 57 74 58 75 66 76 59 77
REMARK SMILES IDX 65 78 67 79 64 80 60 81 61 82 62 83 63 84 42 85 43 86 51 87
REMARK SMILES IDX 44 88 50 89 52 90 49 91 45 92 46 93 47 94 48 95
REMARK H PARENT 1 15 1 16 72 48 40 59
REMARK Flexibility Score: inf
ROOT
ATOM      1  O   UNL A   1      36.035  23.652  25.906  1.00  0.00    -0.374 OA
ENDROOT
BRANCH   1   2
ATOM      2  C   UNL A   1      34.664  23.313  26.128  1.00  0.00     0.202 C 
BRANCH   2   3
ATOM      3  C   UNL A   1      34.412  21.983  26.846  1.00  0.00     0.261 C 
BRANCH   3   4
ATOM      4  O   UNL A   1      33.304  21.278  26.256  1.00  0.00    -0.463 OA
BRANCH   4   5
ATOM      5  C   UNL A   1      33.524  20.755  25.025  1.00  0.00     0.310 C 
ATOM      6  O   UNL A   1      34.486  20.051  24.728  1.00  0.00    -0.252 OA
BRANCH   5   7
ATOM      7  C   UNL A   1      32.429  21.040  24.026  1.00  0.00     0.160 C 
BRANCH   7   8
ATOM      8  C   UNL A   1      32.265  22.450  23.490  1.00  0.00    -0.013 A 
ATOM      9  C   UNL A   1      31.469  23.414  24.150  1.00  0.00     0.047 A 
ATOM     10  C   UNL A   1      31.593  24.767  23.742  1.00  0.00     0.046 A 
ATOM     11  C   UNL A   1      32.991  22.811  22.336  1.00  0.00     0.006 A 
ATOM     12  C   UNL A   1      32.300  25.095  22.571  1.00  0.00     0.014 A 
ATOM     13  C   UNL A   1      32.975  24.115  21.856  1.00  0.00     0.001 A 
BRANCH   9  14
ATOM     14  N   UNL A   1      30.713  23.026  25.259  1.00  0.00    -0.398 N 
ATOM     15  H   UNL A   1      31.152  22.889  26.130  1.00  0.00     0.156 HD
ATOM     16  H   UNL A   1      29.742  22.892  25.171  1.00  0.00     0.156 HD
ENDBRANCH   9  14
BRANCH  10  17
ATOM     17  C   UNL A   1      31.022  25.933  24.483  1.00  0.00     0.195 C 
ATOM     18  O   UNL A   1      29.803  26.071  24.579  1.00  0.00    -0.289 OA
BRANCH  17  19
ATOM     19  C   UNL A   1      31.886  26.968  25.092  1.00  0.00     0.023 A 
ATOM     20  C   UNL A   1      31.382  28.270  25.193  1.00  0.00     0.013 A 
ATOM     21  C   UNL A   1      33.148  26.655  25.611  1.00  0.00     0.013 A 
ATOM     22  C   UNL A   1      32.110  29.243  25.879  1.00  0.00     0.016 A 
ATOM     23  C   UNL A   1      33.874  27.631  26.297  1.00  0.00     0.016 A 
ATOM     24  C   UNL A   1      33.344  28.914  26.440  1.00  0.00     0.018 A 
ATOM     25  Br  UNL A   1      34.300  30.215  27.424  1.00  0.00    -0.051 Br
ENDBRANCH  17  19
ENDBRANCH  10  17
ENDBRANCH   7   8
ENDBRANCH   5   7
ENDBRANCH   4   5
ENDBRANCH   3   4
ENDBRANCH   2   3
ENDBRANCH   1   2
BRANCH   1  26
ATOM     26  C   UNL A   1      36.761  22.849  24.977  1.00  0.00     0.202 C 
BRANCH  26  27
ATOM     27  C   UNL A   1      37.829  21.909  25.550  1.00  0.00     0.261 C 
BRANCH  27  28
ATOM     28  O   UNL A   1      39.147  22.482  25.527  1.00  0.00    -0.460 OA
BRANCH  28  29
ATOM     29  C   UNL A   1      39.695  22.648  26.754  1.00  0.00     0.338 C 
ATOM     30  O   UNL A   1      40.305  21.801  27.399  1.00  0.00    -0.246 OA
BRANCH  29  31
ATOM     31  C   UNL A   1      39.637  24.058  27.186  1.00  0.00     0.060 A 
ATOM     32  C   UNL A   1      40.193  25.001  26.314  1.00  0.00     0.016 A 
ATOM     33  C   UNL A   1      39.156  24.450  28.438  1.00  0.00     0.016 A 
ATOM     34  C   UNL A   1      40.357  26.320  26.723  1.00  0.00     0.010 A 
ATOM     35  C   UNL A   1      39.323  25.781  28.850  1.00  0.00     0.010 A 
ATOM     36  C   UNL A   1      39.974  26.707  28.014  1.00  0.00    -0.014 A 
BRANCH  36  37
ATOM     37  C   UNL A   1      40.447  28.024  28.515  1.00  0.00     0.031 A 
ATOM     38  C   UNL A   1      41.916  28.351  28.425  1.00  0.00     0.074 A 
ATOM     39  C   UNL A   1      39.570  28.956  28.930  1.00  0.00     0.049 A 
ATOM     40  N   UNL A   1      42.538  29.470  28.694  1.00  0.00    -0.248 NA
ATOM     41  C   UNL A   1      42.799  27.268  27.965  1.00  0.00     0.031 C 
ATOM     42  C   UNL A   1      38.123  28.769  29.021  1.00  0.00     0.029 A 
ATOM     43  N   UNL A   1      39.768  30.253  29.333  1.00  0.00    -0.354 N 
ATOM     44  C   UNL A   1      43.884  29.231  28.428  1.00  0.00     0.074 A 
ATOM     45  C   UNL A   1      43.990  27.843  28.025  1.00  0.00     0.031 C 
ATOM     46  C   UNL A   1      37.561  29.915  29.443  1.00  0.00     0.029 A 
ATOM     47  C   UNL A   1      38.607  30.909  29.674  1.00  0.00     0.049 A 
ATOM     48  H   UNL A   1      40.656  30.675  29.374  1.00  0.00     0.167 HD
ATOM     49  C   UNL A   1      44.931  30.090  28.495  1.00  0.00     0.034 A 
ATOM     50  C   UNL A   1      38.415  32.166  30.124  1.00  0.00     0.034 A 
ATOM     51  C   UNL A   1      44.812  31.467  28.911  1.00  0.00     0.049 A 
ATOM     52  C   UNL A   1      39.605  33.084  30.257  1.00  0.00     0.074 A 
ATOM     53  C   UNL A   1      45.804  32.428  29.009  1.00  0.00     0.029 A 
ATOM     54  N   UNL A   1      43.629  32.078  29.310  1.00  0.00    -0.354 N 
ATOM     55  N   UNL A   1      40.868  32.850  29.983  1.00  0.00    -0.248 NA
ATOM     56  C   UNL A   1      39.338  34.443  30.747  1.00  0.00     0.031 C 
ATOM     57  C   UNL A   1      45.234  33.595  29.532  1.00  0.00     0.029 A 
ATOM     58  C   UNL A   1      43.872  33.390  29.687  1.00  0.00     0.049 A 
ATOM     59  H   UNL A   1      42.746  31.641  29.322  1.00  0.00     0.167 HD
ATOM     60  C   UNL A   1      41.541  34.041  30.243  1.00  0.00     0.074 A 
ATOM     61  C   UNL A   1      40.539  34.996  30.673  1.00  0.00     0.031 C 
ATOM     62  C   UNL A   1      42.866  34.324  30.136  1.00  0.00     0.034 A 
BRANCH  49  63
ATOM     63  C   UNL A   1      46.298  29.540  28.161  1.00  0.00     0.023 A 
ATOM     64  C   UNL A   1      47.122  28.954  29.139  1.00  0.00     0.031 A 
ATOM     65  C   UNL A   1      46.801  29.640  26.852  1.00  0.00     0.131 A 
ATOM     66  C   UNL A   1      48.428  28.557  28.810  1.00  0.00     0.055 A 
ATOM     67  C   UNL A   1      48.072  29.171  26.513  1.00  0.00     0.041 A 
ATOM     68  F   UNL A   1      46.071  30.209  25.881  1.00  0.00    -0.206 F 
ATOM     69  C   UNL A   1      48.900  28.639  27.498  1.00  0.00     0.022 A 
BRANCH  66  70
ATOM     70  S   UNL A   1      49.550  28.062  30.146  1.00  0.00     0.124 S 
ATOM     71  O   UNL A   1      50.852  28.402  29.580  1.00  0.00    -0.237 OA
ATOM     72  O   UNL A   1      49.100  28.888  31.260  1.00  0.00    -0.237 OA
ATOM     73  O   UNL A   1      49.299  26.629  30.292  1.00  0.00    -0.744 OA
ENDBRANCH  66  70
ENDBRANCH  49  63
BRANCH  50  74
ATOM     74  C   UNL A   1      37.050  32.628  30.509  1.00  0.00     0.023 A 
ATOM     75  C   UNL A   1      36.171  33.184  29.567  1.00  0.00     0.031 A 
ATOM     76  C   UNL A   1      36.628  32.569  31.850  1.00  0.00     0.131 A 
ATOM     77  C   UNL A   1      34.932  33.699  29.984  1.00  0.00     0.055 A 
ATOM     78  C   UNL A   1      35.376  33.037  32.252  1.00  0.00     0.041 A 
ATOM     79  F   UNL A   1      37.430  32.048  32.792  1.00  0.00    -0.206 F 
ATOM     80  C   UNL A   1      34.525  33.618  31.318  1.00  0.00     0.022 A 
BRANCH  77  81
ATOM     81  S   UNL A   1      33.889  34.552  28.769  1.00  0.00     0.124 S 
ATOM     82  O   UNL A   1      34.741  35.669  28.378  1.00  0.00    -0.237 OA
ATOM     83  O   UNL A   1      33.686  33.514  27.764  1.00  0.00    -0.237 OA
ATOM     84  O   UNL A   1      32.699  34.913  29.538  1.00  0.00    -0.744 OA
ENDBRANCH  77  81
ENDBRANCH  50  74
BRANCH  62  85
ATOM     85  C   UNL A   1      43.291  35.735  30.465  1.00  0.00     0.023 A 
ATOM     86  C   UNL A   1      43.594  36.127  31.782  1.00  0.00     0.031 A 
ATOM     87  C   UNL A   1      43.363  36.709  29.454  1.00  0.00     0.131 A 
ATOM     88  C   UNL A   1      43.887  37.470  32.062  1.00  0.00     0.055 A 
ATOM     89  C   UNL A   1      43.719  38.031  29.730  1.00  0.00     0.041 A 
ATOM     90  F   UNL A   1      43.083  36.395  28.179  1.00  0.00    -0.206 F 
ATOM     91  C   UNL A   1      43.967  38.422  31.042  1.00  0.00     0.022 A 
BRANCH  88  92
ATOM     92  S   UNL A   1      44.051  37.981  33.796  1.00  0.00     0.124 S 
ATOM     93  O   UNL A   1      44.930  39.142  33.689  1.00  0.00    -0.237 OA
ATOM     94  O   UNL A   1      42.668  38.262  34.168  1.00  0.00    -0.237 OA
ATOM     95  O   UNL A   1      44.643  36.813  34.443  1.00  0.00    -0.744 OA
ENDBRANCH  88  92
ENDBRANCH  62  85
ENDBRANCH  36  37
ENDBRANCH  29  31
ENDBRANCH  28  29
ENDBRANCH  27  28
ENDBRANCH  26  27
ENDBRANCH   1  26
TORSDOF 21
ENDMDL
MODEL 2
REMARK VINA RESULT:     -10.1      3.458      4.637
REMARK SMILES Nc1c(CC(=O)OCCOCCOC(=O)c2ccc(-c3c4nc(c(-c5cc(S(=O)(=O)[O-])ccc5F)c5ccc([nH]5)c(-c5cc(S(=O)(=O)[O-])ccc5F)c5nc(c(-c6cc(S(=O)(=O)[O-])ccc6F)c6ccc3[nH]6)C=C5)C=C4)cc2)cccc1C(=O)c1ccc(Br)cc1
REMARK SMILES IDX 10 1 9 2 8 3 7 4 5 5 6 6 4 7 3 8 2 9 82 10 79 11 81 12 80 13
REMARK SMILES IDX 1 14 83 17 84 18 85 19 86 20 91 21 87 22 90 23 88 24 89 25
REMARK SMILES IDX 11 26 12 27 13 28 14 29 15 30 16 31 17 32 78 33 18 34 77 35
REMARK SMILES IDX 19 36 20 37 21 38 71 39 22 40 76 41 70 42 72 43 23 44 75 45
REMARK SMILES IDX 69 46 68 47 24 49 56 50 36 51 55 52 37 53 40 54 54 55 73 56
REMARK SMILES IDX 38 57 39 58 53 60 74 61 41 62 25 63 26 64 34 65 27 66 33 67
REMARK SMILES IDX 35 68 32 69 28 70 29 71 30 72 31 73 57 74 58 75 66 76 59 77
REMARK SMILES IDX 65 78 67 79 64 80 60 81 61 82 62 83 63 84 42 85 43 86 51 87
REMARK SMILES IDX 44 88 50 89 52 90 49 91 45 92 46 93 47 94 48 95
REMARK H PARENT 1 15 1 16 72 48 40 59
REMARK Flexibility Score: inf
ROOT
ATOM      1  O   UNL A   1      37.514  22.689  25.638  1.00  0.00    -0.374 OA
ENDROOT
BRANCH   1   2
ATOM      2  C   UNL A   1      36.093  22.642  25.484  1.00  0.00     0.202 C 
BRANCH   2   3
ATOM      3  C   UNL A   1      35.438  21.281  25.742  1.00  0.00     0.261 C 
BRANCH   3   4
ATOM      4  O   UNL A   1      34.003  21.377  25.680  1.00  0.00    -0.463 OA
BRANCH   4   5
ATOM      5  C   UNL A   1      33.391  20.545  24.802  1.00  0.00     0.310 C 
ATOM      6  O   UNL A   1      33.499  19.322  24.810  1.00  0.00    -0.252 OA
BRANCH   5   7
ATOM      7  C   UNL A   1      32.474  21.240  23.826  1.00  0.00     0.160 C 
BRANCH   7   8
ATOM      8  C   UNL A   1      32.601  22.740  23.629  1.00  0.00    -0.013 A 
ATOM      9  C   UNL A   1      31.733  23.655  24.267  1.00  0.00     0.047 A 
ATOM     10  C   UNL A   1      32.091  25.028  24.253  1.00  0.00     0.046 A 
ATOM     11  C   UNL A   1      33.667  23.219  22.839  1.00  0.00     0.006 A 
ATOM     12  C   UNL A   1      33.140  25.481  23.434  1.00  0.00     0.014 A 
ATOM     13  C   UNL A   1      33.909  24.581  22.708  1.00  0.00     0.001 A 
BRANCH   9  14
ATOM     14  N   UNL A   1      30.650  23.165  25.001  1.00  0.00    -0.398 N 
ATOM     15  H   UNL A   1      30.567  22.199  25.171  1.00  0.00     0.156 HD
ATOM     16  H   UNL A   1      29.970  23.786  25.351  1.00  0.00     0.156 HD
ENDBRANCH   9  14
BRANCH  10  17
ATOM     17  C   UNL A   1      31.430  26.086  25.077  1.00  0.00     0.195 C 
ATOM     18  O   UNL A   1      31.333  25.954  26.295  1.00  0.00    -0.289 OA
BRANCH  17  19
ATOM     19  C   UNL A   1      30.848  27.300  24.463  1.00  0.00     0.023 A 
ATOM     20  C   UNL A   1      29.742  27.145  23.618  1.00  0.00     0.013 A 
ATOM     21  C   UNL A   1      31.339  28.577  24.757  1.00  0.00     0.013 A 
ATOM     22  C   UNL A   1      29.082  28.271  23.127  1.00  0.00     0.016 A 
ATOM     23  C   UNL A   1      30.678  29.703  24.262  1.00  0.00     0.016 A 
ATOM     24  C   UNL A   1      29.544  29.544  23.464  1.00  0.00     0.018 A 
ATOM     25  Br  UNL A   1      28.613  31.070  22.849  1.00  0.00    -0.051 Br
ENDBRANCH  17  19
ENDBRANCH  10  17
ENDBRANCH   7   8
ENDBRANCH   5   7
ENDBRANCH   4   5
ENDBRANCH   3   4
ENDBRANCH   2   3
ENDBRANCH   1   2
BRANCH   1  26
ATOM     26  C   UNL A   1      38.218  21.451  25.564  1.00  0.00     0.202 C 
BRANCH  26  27
ATOM     27  C   UNL A   1      39.634  21.414  26.152  1.00  0.00     0.261 C 
BRANCH  27  28
ATOM     28  O   UNL A   1      40.047  20.090  26.528  1.00  0.00    -0.460 OA
BRANCH  28  29
ATOM     29  C   UNL A   1      41.352  19.829  26.278  1.00  0.00     0.338 C 
ATOM     30  O   UNL A   1      41.804  18.820  25.748  1.00  0.00    -0.246 OA
BRANCH  29  31
ATOM     31  C   UNL A   1      42.201  21.003  26.559  1.00  0.00     0.060 A 
ATOM     32  C   UNL A   1      42.332  21.371  27.903  1.00  0.00     0.016 A 
ATOM     33  C   UNL A   1      42.770  21.788  25.552  1.00  0.00     0.016 A 
ATOM     34  C   UNL A   1      42.948  22.571  28.242  1.00  0.00     0.010 A 
ATOM     35  C   UNL A   1      43.391  22.999  25.896  1.00  0.00     0.010 A 
ATOM     36  C   UNL A   1      43.432  23.420  27.238  1.00  0.00    -0.014 A 
BRANCH  36  37
ATOM     37  C   UNL A   1      43.793  24.812  27.617  1.00  0.00     0.031 A 
ATOM     38  C   UNL A   1      45.226  25.257  27.466  1.00  0.00     0.074 A 
ATOM     39  C   UNL A   1      42.843  25.696  27.970  1.00  0.00     0.049 A 
ATOM     40  N   UNL A   1      45.749  26.445  27.627  1.00  0.00    -0.248 NA
ATOM     41  C   UNL A   1      46.195  24.220  27.080  1.00  0.00     0.031 C 
ATOM     42  C   UNL A   1      41.420  25.391  28.109  1.00  0.00     0.029 A 
ATOM     43  N   UNL A   1      42.930  27.035  28.258  1.00  0.00    -0.354 N 
ATOM     44  C   UNL A   1      47.107  26.303  27.352  1.00  0.00     0.074 A 
ATOM     45  C   UNL A   1      47.331  24.901  27.066  1.00  0.00     0.031 C 
ATOM     46  C   UNL A   1      40.764  26.515  28.445  1.00  0.00     0.029 A 
ATOM     47  C   UNL A   1      41.721  27.613  28.568  1.00  0.00     0.049 A 
ATOM     48  H   UNL A   1      43.777  27.535  28.244  1.00  0.00     0.167 HD
ATOM     49  C   UNL A   1      48.074  27.253  27.324  1.00  0.00     0.034 A 
ATOM     50  C   UNL A   1      41.423  28.882  28.914  1.00  0.00     0.034 A 
ATOM     51  C   UNL A   1      47.839  28.645  27.624  1.00  0.00     0.049 A 
ATOM     52  C   UNL A   1      42.529  29.909  28.943  1.00  0.00     0.074 A 
ATOM     53  C   UNL A   1      48.742  29.694  27.620  1.00  0.00     0.029 A 
ATOM     54  N   UNL A   1      46.613  29.182  27.996  1.00  0.00    -0.354 N 
ATOM     55  N   UNL A   1      43.804  29.764  28.662  1.00  0.00    -0.248 NA
ATOM     56  C   UNL A   1      42.148  31.276  29.323  1.00  0.00     0.031 C 
ATOM     57  C   UNL A   1      48.079  30.847  28.055  1.00  0.00     0.029 A 
ATOM     58  C   UNL A   1      46.743  30.538  28.257  1.00  0.00     0.049 A 
ATOM     59  H   UNL A   1      45.772  28.672  28.064  1.00  0.00     0.167 HD
ATOM     60  C   UNL A   1      44.371  31.028  28.806  1.00  0.00     0.074 A 
ATOM     61  C   UNL A   1      43.294  31.924  29.176  1.00  0.00     0.031 C 
ATOM     62  C   UNL A   1      45.664  31.415  28.647  1.00  0.00     0.034 A 
BRANCH  49  63
ATOM     63  C   UNL A   1      49.480  26.799  27.007  1.00  0.00     0.023 A 
ATOM     64  C   UNL A   1      50.489  26.767  27.988  1.00  0.00     0.031 A 
ATOM     65  C   UNL A   1      49.827  26.429  25.696  1.00  0.00     0.131 A 
ATOM     66  C   UNL A   1      51.807  26.444  27.628  1.00  0.00     0.055 A 
ATOM     67  C   UNL A   1      51.124  26.033  25.360  1.00  0.00     0.041 A 
ATOM     68  F   UNL A   1      48.914  26.461  24.713  1.00  0.00    -0.206 F 
ATOM     69  C   UNL A   1      52.126  26.054  26.325  1.00  0.00     0.022 A 
BRANCH  66  70
ATOM     70  S   UNL A   1      53.125  26.677  28.852  1.00  0.00     0.124 S 
ATOM     71  O   UNL A   1      52.533  26.074  30.044  1.00  0.00    -0.237 OA
ATOM     72  O   UNL A   1      54.241  25.954  28.257  1.00  0.00    -0.237 OA
ATOM     73  O   UNL A   1      53.284  28.129  28.913  1.00  0.00    -0.744 OA
ENDBRANCH  66  70
ENDBRANCH  49  63
BRANCH  50  74
ATOM     74  C   UNL A   1      40.028  29.254  29.289  1.00  0.00     0.023 A 
ATOM     75  C   UNL A   1      39.635  29.366  30.633  1.00  0.00     0.031 A 
ATOM     76  C   UNL A   1      39.049  29.448  28.298  1.00  0.00     0.131 A 
ATOM     77  C   UNL A   1      38.291  29.621  30.949  1.00  0.00     0.055 A 
ATOM     78  C   UNL A   1      37.724  29.750  28.616  1.00  0.00     0.041 A 
ATOM     79  F   UNL A   1      39.371  29.352  26.998  1.00  0.00    -0.206 F 
ATOM     80  C   UNL A   1      37.336  29.825  29.949  1.00  0.00     0.022 A 
BRANCH  77  81
ATOM     81  S   UNL A   1      37.787  29.602  32.692  1.00  0.00     0.124 S 
ATOM     82  O   UNL A   1      37.405  28.207  32.876  1.00  0.00    -0.237 OA
ATOM     83  O   UNL A   1      39.009  30.029  33.364  1.00  0.00    -0.237 OA
ATOM     84  O   UNL A   1      36.685  30.563  32.737  1.00  0.00    -0.744 OA
ENDBRANCH  77  81
ENDBRANCH  50  74
BRANCH  62  85
ATOM     85  C   UNL A   1      45.966  32.881  28.846  1.00  0.00     0.023 A 
ATOM     86  C   UNL A   1      45.899  33.799  27.782  1.00  0.00     0.031 A 
ATOM     87  C   UNL A   1      46.355  33.361  30.109  1.00  0.00     0.131 A 
ATOM     88  C   UNL A   1      46.284  35.134  27.984  1.00  0.00     0.055 A 
ATOM     89  C   UNL A   1      46.675  34.704  30.318  1.00  0.00     0.041 A 
ATOM     90  F   UNL A   1      46.438  32.532  31.161  1.00  0.00    -0.206 F 
ATOM     91  C   UNL A   1      46.656  35.596  29.249  1.00  0.00     0.022 A 
BRANCH  88  92
ATOM     92  S   UNL A   1      46.402  36.233  26.546  1.00  0.00     0.124 S 
ATOM     93  O   UNL A   1      45.802  35.419  25.492  1.00  0.00    -0.237 OA
ATOM     94  O   UNL A   1      45.626  37.391  26.975  1.00  0.00    -0.237 OA
ATOM     95  O   UNL A   1      47.838  36.465  26.408  1.00  0.00    -0.744 OA
ENDBRANCH  88  92
ENDBRANCH  62  85
ENDBRANCH  36  37
ENDBRANCH  29  31
ENDBRANCH  28  29
ENDBRANCH  27  28
ENDBRANCH  26  27
ENDBRANCH   1  26
TORSDOF 21
ENDMDL
MODEL 3
REMARK VINA RESULT:     -10.1      2.944      3.846
REMARK SMILES Nc1c(CC(=O)OCCOCCOC(=O)c2ccc(-c3c4nc(c(-c5cc(S(=O)(=O)[O-])ccc5F)c5ccc([nH]5)c(-c5cc(S(=O)(=O)[O-])ccc5F)c5nc(c(-c6cc(S(=O)(=O)[O-])ccc6F)c6ccc3[nH]6)C=C5)C=C4)cc2)cccc1C(=O)c1ccc(Br)cc1
REMARK SMILES IDX 10 1 9 2 8 3 7 4 5 5 6 6 4 7 3 8 2 9 82 10 79 11 81 12 80 13
REMARK SMILES IDX 1 14 83 17 84 18 85 19 86 20 91 21 87 22 90 23 88 24 89 25
REMARK SMILES IDX 11 26 12 27 13 28 14 29 15 30 16 31 17 32 78 33 18 34 77 35
REMARK SMILES IDX 19 36 20 37 21 38 71 39 22 40 76 41 70 42 72 43 23 44 75 45
REMARK SMILES IDX 69 46 68 47 24 49 56 50 36 51 55 52 37 53 40 54 54 55 73 56
REMARK SMILES IDX 38 57 39 58 53 60 74 61 41 62 25 63 26 64 34 65 27 66 33 67
REMARK SMILES IDX 35 68 32 69 28 70 29 71 30 72 31 73 57 74 58 75 66 76 59 77
REMARK SMILES IDX 65 78 67 79 64 80 60 81 61 82 62 83 63 84 42 85 43 86 51 87
REMARK SMILES IDX 44 88 50 89 52 90 49 91 45 92 46 93 47 94 48 95
REMARK H PARENT 1 15 1 16 72 48 40 59
REMARK Flexibility Score: inf
ROOT
ATOM      1  O   UNL A   1      37.372  22.823  25.375  1.00  0.00    -0.374 OA
ENDROOT
BRANCH   1   2
ATOM      2  C   UNL A   1      35.966  22.631  25.558  1.00  0.00     0.202 C 
BRANCH   2   3
ATOM      3  C   UNL A   1      35.488  21.176  25.585  1.00  0.00     0.261 C 
BRANCH   3   4
ATOM      4  O   UNL A   1      34.085  21.098  25.900  1.00  0.00    -0.463 OA
BRANCH   4   5
ATOM      5  C   UNL A   1      33.369  20.191  25.190  1.00  0.00     0.310 C 
ATOM      6  O   UNL A   1      33.653  19.001  25.093  1.00  0.00    -0.252 OA
BRANCH   5   7
ATOM      7  C   UNL A   1      32.112  20.746  24.566  1.00  0.00     0.160 C 
BRANCH   7   8
ATOM      8  C   UNL A   1      32.085  22.196  24.117  1.00  0.00    -0.013 A 
ATOM      9  C   UNL A   1      31.305  23.171  24.780  1.00  0.00     0.047 A 
ATOM     10  C   UNL A   1      31.551  24.535  24.476  1.00  0.00     0.046 A 
ATOM     11  C   UNL A   1      32.924  22.576  23.049  1.00  0.00     0.006 A 
ATOM     12  C   UNL A   1      32.370  24.884  23.387  1.00  0.00     0.014 A 
ATOM     13  C   UNL A   1      33.034  23.906  22.659  1.00  0.00     0.001 A 
BRANCH   9  14
ATOM     14  N   UNL A   1      30.438  22.769  25.799  1.00  0.00    -0.398 N 
ATOM     15  H   UNL A   1      30.776  22.658  26.717  1.00  0.00     0.156 HD
ATOM     16  H   UNL A   1      29.489  22.599  25.600  1.00  0.00     0.156 HD
ENDBRANCH   9  14
BRANCH  10  17
ATOM     17  C   UNL A   1      31.001  25.690  25.250  1.00  0.00     0.195 C 
ATOM     18  O   UNL A   1      31.002  25.670  26.479  1.00  0.00    -0.289 OA
BRANCH  17  19
ATOM     19  C   UNL A   1      30.415  26.869  24.577  1.00  0.00     0.023 A 
ATOM     20  C   UNL A   1      31.126  28.074  24.622  1.00  0.00     0.013 A 
ATOM     21  C   UNL A   1      29.214  26.783  23.861  1.00  0.00     0.013 A 
ATOM     22  C   UNL A   1      30.675  29.173  23.890  1.00  0.00     0.016 A 
ATOM     23  C   UNL A   1      28.764  27.885  23.131  1.00  0.00     0.016 A 
ATOM     24  C   UNL A   1      29.505  29.068  23.136  1.00  0.00     0.018 A 
ATOM     25  Br  UNL A   1      28.928  30.536  22.095  1.00  0.00    -0.051 Br
ENDBRANCH  17  19
ENDBRANCH  10  17
ENDBRANCH   7   8
ENDBRANCH   5   7
ENDBRANCH   4   5
ENDBRANCH   3   4
ENDBRANCH   2   3
ENDBRANCH   1   2
BRANCH   1  26
ATOM     26  C   UNL A   1      38.193  21.657  25.383  1.00  0.00     0.202 C 
BRANCH  26  27
ATOM     27  C   UNL A   1      39.481  21.713  26.212  1.00  0.00     0.261 C 
BRANCH  27  28
ATOM     28  O   UNL A   1      40.061  20.415  26.430  1.00  0.00    -0.460 OA
BRANCH  28  29
ATOM     29  C   UNL A   1      41.377  20.343  26.120  1.00  0.00     0.338 C 
ATOM     30  O   UNL A   1      41.937  19.421  25.535  1.00  0.00    -0.246 OA
BRANCH  29  31
ATOM     31  C   UNL A   1      42.072  21.611  26.412  1.00  0.00     0.060 A 
ATOM     32  C   UNL A   1      42.485  21.807  27.735  1.00  0.00     0.016 A 
ATOM     33  C   UNL A   1      42.229  22.627  25.464  1.00  0.00     0.016 A 
ATOM     34  C   UNL A   1      42.969  23.046  28.140  1.00  0.00     0.010 A 
ATOM     35  C   UNL A   1      42.717  23.877  25.875  1.00  0.00     0.010 A 
ATOM     36  C   UNL A   1      43.036  24.106  27.226  1.00  0.00    -0.014 A 
BRANCH  36  37
ATOM     37  C   UNL A   1      43.256  25.475  27.762  1.00  0.00     0.031 A 
ATOM     38  C   UNL A   1      44.629  26.089  27.646  1.00  0.00     0.074 A 
ATOM     39  C   UNL A   1      42.227  26.203  28.233  1.00  0.00     0.049 A 
ATOM     40  N   UNL A   1      45.026  27.300  27.939  1.00  0.00    -0.248 NA
ATOM     41  C   UNL A   1      45.693  25.217  27.125  1.00  0.00     0.031 C 
ATOM     42  C   UNL A   1      40.849  25.730  28.354  1.00  0.00     0.029 A 
ATOM     43  N   UNL A   1      42.178  27.500  28.677  1.00  0.00    -0.354 N 
ATOM     44  C   UNL A   1      46.383  27.340  27.630  1.00  0.00     0.074 A 
ATOM     45  C   UNL A   1      46.748  26.014  27.176  1.00  0.00     0.031 C 
ATOM     46  C   UNL A   1      40.086  26.729  28.831  1.00  0.00     0.029 A 
ATOM     47  C   UNL A   1      40.923  27.902  29.071  1.00  0.00     0.049 A 
ATOM     48  H   UNL A   1      42.967  28.088  28.710  1.00  0.00     0.167 HD
ATOM     49  C   UNL A   1      47.243  28.387  27.701  1.00  0.00     0.034 A 
ATOM     50  C   UNL A   1      40.501  29.082  29.570  1.00  0.00     0.034 A 
ATOM     51  C   UNL A   1      46.868  29.700  28.169  1.00  0.00     0.049 A 
ATOM     52  C   UNL A   1      41.491  30.214  29.705  1.00  0.00     0.074 A 
ATOM     53  C   UNL A   1      47.654  30.835  28.276  1.00  0.00     0.029 A 
ATOM     54  N   UNL A   1      45.602  30.053  28.620  1.00  0.00    -0.354 N 
ATOM     55  N   UNL A   1      42.766  30.242  29.391  1.00  0.00    -0.248 NA
ATOM     56  C   UNL A   1      40.977  31.477  30.250  1.00  0.00     0.031 C 
ATOM     57  C   UNL A   1      46.883  31.850  28.855  1.00  0.00     0.029 A 
ATOM     58  C   UNL A   1      45.594  31.375  29.038  1.00  0.00     0.049 A 
ATOM     59  H   UNL A   1      44.823  29.450  28.639  1.00  0.00     0.167 HD
ATOM     60  C   UNL A   1      43.199  31.535  29.676  1.00  0.00     0.074 A 
ATOM     61  C   UNL A   1      42.043  32.259  30.165  1.00  0.00     0.031 C 
ATOM     62  C   UNL A   1      44.438  32.077  29.546  1.00  0.00     0.034 A 
BRANCH  49  63
ATOM     63  C   UNL A   1      48.680  28.130  27.313  1.00  0.00     0.023 A 
ATOM     64  C   UNL A   1      49.140  28.322  25.997  1.00  0.00     0.031 A 
ATOM     65  C   UNL A   1      49.595  27.647  28.265  1.00  0.00     0.131 A 
ATOM     66  C   UNL A   1      50.454  27.966  25.654  1.00  0.00     0.055 A 
ATOM     67  C   UNL A   1      50.923  27.369  27.935  1.00  0.00     0.041 A 
ATOM     68  F   UNL A   1      49.210  27.423  29.530  1.00  0.00    -0.206 F 
ATOM     69  C   UNL A   1      51.356  27.513  26.621  1.00  0.00     0.022 A 
BRANCH  66  70
ATOM     70  S   UNL A   1      50.928  27.969  23.904  1.00  0.00     0.124 S 
ATOM     71  O   UNL A   1      51.532  29.291  23.763  1.00  0.00    -0.237 OA
ATOM     72  O   UNL A   1      51.841  26.836  23.821  1.00  0.00    -0.237 OA
ATOM     73  O   UNL A   1      49.657  27.797  23.203  1.00  0.00    -0.744 OA
ENDBRANCH  66  70
ENDBRANCH  49  63
BRANCH  50  74
ATOM     74  C   UNL A   1      39.085  29.253  30.007  1.00  0.00     0.023 A 
ATOM     75  C   UNL A   1      38.144  29.915  29.201  1.00  0.00     0.031 A 
ATOM     76  C   UNL A   1      38.668  28.801  31.272  1.00  0.00     0.131 A 
ATOM     77  C   UNL A   1      36.847  30.144  29.687  1.00  0.00     0.055 A 
ATOM     78  C   UNL A   1      37.363  28.988  31.731  1.00  0.00     0.041 A 
ATOM     79  F   UNL A   1      39.528  28.164  32.083  1.00  0.00    -0.206 F 
ATOM     80  C   UNL A   1      36.447  29.675  30.941  1.00  0.00     0.022 A 
BRANCH  77  81
ATOM     81  S   UNL A   1      35.705  31.139  28.687  1.00  0.00     0.124 S 
ATOM     82  O   UNL A   1      34.903  31.793  29.714  1.00  0.00    -0.237 OA
ATOM     83  O   UNL A   1      36.623  31.995  27.944  1.00  0.00    -0.237 OA
ATOM     84  O   UNL A   1      35.000  30.141  27.884  1.00  0.00    -0.744 OA
ENDBRANCH  77  81
ENDBRANCH  50  74
BRANCH  62  85
ATOM     85  C   UNL A   1      44.587  33.535  29.914  1.00  0.00     0.023 A 
ATOM     86  C   UNL A   1      44.282  34.561  29.001  1.00  0.00     0.031 A 
ATOM     87  C   UNL A   1      45.069  33.901  31.183  1.00  0.00     0.131 A 
ATOM     88  C   UNL A   1      44.529  35.899  29.345  1.00  0.00     0.055 A 
ATOM     89  C   UNL A   1      45.251  35.238  31.542  1.00  0.00     0.041 A 
ATOM     90  F   UNL A   1      45.378  32.965  32.094  1.00  0.00    -0.206 F 
ATOM     91  C   UNL A   1      44.996  36.245  30.615  1.00  0.00     0.022 A 
BRANCH  88  92
ATOM     92  S   UNL A   1      44.338  37.174  28.069  1.00  0.00     0.124 S 
ATOM     93  O   UNL A   1      43.507  38.163  28.749  1.00  0.00    -0.237 OA
ATOM     94  O   UNL A   1      45.720  37.569  27.816  1.00  0.00    -0.237 OA
ATOM     95  O   UNL A   1      43.685  36.466  26.970  1.00  0.00    -0.744 OA
ENDBRANCH  88  92
ENDBRANCH  62  85
ENDBRANCH  36  37
ENDBRANCH  29  31
ENDBRANCH  28  29
ENDBRANCH  27  28
ENDBRANCH  26  27
ENDBRANCH   1  26
TORSDOF 21
ENDMDL
