MODEL 1
REMARK VINA RESULT:     -10.7      0.000      0.000
REMARK SMILES COc1ccc(C(C)(C)C)cc1CC(=O)OCCOCCOC(=O)c1ccc(-c2c3nc(c(-c4cc(S(=O)(=O)[O-])ccc4F)c4ccc([nH]4)c(-c4cc(S(=O)(=O)[O-])ccc4F)c4nc(c(-c5cc(S(=O)(=O)[O-])ccc5F)c5ccc2[nH]5)C=C4)C=C3)cc1
REMARK SMILES IDX 20 1 19 2 18 3 17 4 16 5 14 6 15 7 13 8 12 9 3 10 4 11 5 12
REMARK SMILES IDX 11 13 6 14 2 15 1 16 7 17 8 18 9 19 10 20 21 21 22 22 23 23
REMARK SMILES IDX 24 24 25 25 26 26 87 27 27 28 86 29 28 30 29 31 30 32 80 33
REMARK SMILES IDX 31 34 85 35 79 36 81 37 32 38 84 39 78 40 77 41 33 43 65 44
REMARK SMILES IDX 45 45 64 46 46 47 49 48 63 49 82 50 47 51 48 52 62 54 83 55
REMARK SMILES IDX 50 56 34 57 35 58 43 59 36 60 42 61 44 62 41 63 37 64 38 65
REMARK SMILES IDX 39 66 40 67 66 68 67 69 75 70 68 71 74 72 76 73 73 74 69 75
REMARK SMILES IDX 70 76 71 77 72 78 51 79 52 80 60 81 53 82 59 83 61 84 58 85
REMARK SMILES IDX 54 86 55 87 56 88 57 89
REMARK H PARENT 81 42 49 53
REMARK Flexibility Score: inf
ROOT
ATOM      1  C   UNL A   1      31.558  31.329  26.478  1.00  0.00     0.202 C 
ENDROOT
BRANCH   1   2
ATOM      2  O   UNL A   1      32.812  30.809  26.039  1.00  0.00    -0.374 OA
BRANCH   2   3
ATOM      3  C   UNL A   1      32.793  29.588  25.305  1.00  0.00     0.202 C 
BRANCH   3   4
ATOM      4  C   UNL A   1      33.793  28.501  25.720  1.00  0.00     0.261 C 
BRANCH   4   5
ATOM      5  O   UNL A   1      33.430  27.791  26.918  1.00  0.00    -0.463 OA
BRANCH   5   6
ATOM      6  C   UNL A   1      32.144  27.357  26.963  1.00  0.00     0.310 C 
ATOM      7  O   UNL A   1      31.288  27.799  27.727  1.00  0.00    -0.252 OA
BRANCH   6   8
ATOM      8  C   UNL A   1      31.802  26.247  26.002  1.00  0.00     0.162 C 
BRANCH   8   9
ATOM      9  C   UNL A   1      32.416  24.873  26.171  1.00  0.00     0.005 A 
ATOM     10  C   UNL A   1      31.675  23.823  26.720  1.00  0.00     0.122 A 
ATOM     11  C   UNL A   1      32.229  22.552  26.850  1.00  0.00     0.047 A 
ATOM     12  C   UNL A   1      33.515  22.298  26.372  1.00  0.00     0.008 A 
ATOM     13  C   UNL A   1      33.718  24.595  25.689  1.00  0.00     0.012 A 
ATOM     14  C   UNL A   1      34.286  23.305  25.761  1.00  0.00    -0.042 A 
BRANCH  10  15
ATOM     15  O   UNL A   1      30.397  24.024  27.169  1.00  0.00    -0.496 OA
ATOM     16  C   UNL A   1      29.667  22.794  27.176  1.00  0.00     0.278 C 
ENDBRANCH  10  15
BRANCH  14  17
ATOM     17  C   UNL A   1      35.685  22.952  25.210  1.00  0.00    -0.013 C 
ATOM     18  C   UNL A   1      36.741  23.853  25.889  1.00  0.00     0.016 C 
ATOM     19  C   UNL A   1      36.016  21.472  25.516  1.00  0.00     0.016 C 
ATOM     20  C   UNL A   1      35.840  23.107  23.681  1.00  0.00     0.016 C 
ENDBRANCH  14  17
ENDBRANCH   8   9
ENDBRANCH   6   8
ENDBRANCH   5   6
ENDBRANCH   4   5
ENDBRANCH   3   4
ENDBRANCH   2   3
ENDBRANCH   1   2
BRANCH   1  21
ATOM     21  C   UNL A   1      31.549  32.750  27.041  1.00  0.00     0.261 C 
BRANCH  21  22
ATOM     22  O   UNL A   1      32.814  33.412  26.909  1.00  0.00    -0.460 OA
BRANCH  22  23
ATOM     23  C   UNL A   1      33.373  33.778  28.084  1.00  0.00     0.338 C 
ATOM     24  O   UNL A   1      32.902  34.546  28.919  1.00  0.00    -0.246 OA
BRANCH  23  25
ATOM     25  C   UNL A   1      34.588  32.997  28.333  1.00  0.00     0.060 A 
ATOM     26  C   UNL A   1      34.434  31.639  28.642  1.00  0.00     0.016 A 
ATOM     27  C   UNL A   1      35.842  33.608  28.382  1.00  0.00     0.016 A 
ATOM     28  C   UNL A   1      35.533  30.897  29.065  1.00  0.00     0.010 A 
ATOM     29  C   UNL A   1      36.941  32.863  28.817  1.00  0.00     0.010 A 
ATOM     30  C   UNL A   1      36.780  31.519  29.200  1.00  0.00    -0.014 A 
BRANCH  30  31
ATOM     31  C   UNL A   1      37.875  30.818  29.912  1.00  0.00     0.031 A 
ATOM     32  C   UNL A   1      38.149  31.190  31.344  1.00  0.00     0.074 A 
ATOM     33  C   UNL A   1      38.600  29.869  29.293  1.00  0.00     0.049 A 
ATOM     34  N   UNL A   1      39.109  30.791  32.136  1.00  0.00    -0.248 NA
ATOM     35  C   UNL A   1      37.215  32.146  31.964  1.00  0.00     0.031 C 
ATOM     36  C   UNL A   1      38.378  29.395  27.927  1.00  0.00     0.029 A 
ATOM     37  N   UNL A   1      39.680  29.144  29.729  1.00  0.00    -0.354 N 
ATOM     38  C   UNL A   1      38.911  31.464  33.338  1.00  0.00     0.074 A 
ATOM     39  C   UNL A   1      37.747  32.305  33.167  1.00  0.00     0.031 C 
ATOM     40  C   UNL A   1      39.308  28.472  27.630  1.00  0.00     0.029 A 
ATOM     41  C   UNL A   1      40.218  28.324  28.763  1.00  0.00     0.049 A 
ATOM     42  H   UNL A   1      40.037  29.205  30.644  1.00  0.00     0.167 HD
ATOM     43  C   UNL A   1      39.641  31.385  34.477  1.00  0.00     0.034 A 
ATOM     44  C   UNL A   1      41.338  27.573  28.787  1.00  0.00     0.034 A 
ATOM     45  C   UNL A   1      40.791  30.530  34.625  1.00  0.00     0.049 A 
ATOM     46  C   UNL A   1      42.174  27.558  30.048  1.00  0.00     0.074 A 
ATOM     47  C   UNL A   1      41.587  30.345  35.743  1.00  0.00     0.029 A 
ATOM     48  N   UNL A   1      41.318  29.728  33.622  1.00  0.00    -0.354 N 
ATOM     49  N   UNL A   1      41.967  28.186  31.184  1.00  0.00    -0.248 NA
ATOM     50  C   UNL A   1      43.389  26.731  30.034  1.00  0.00     0.031 C 
ATOM     51  C   UNL A   1      42.633  29.486  35.394  1.00  0.00     0.029 A 
ATOM     52  C   UNL A   1      42.447  29.073  34.084  1.00  0.00     0.049 A 
ATOM     53  H   UNL A   1      40.944  29.639  32.716  1.00  0.00     0.167 HD
ATOM     54  C   UNL A   1      43.000  27.790  32.031  1.00  0.00     0.074 A 
ATOM     55  C   UNL A   1      43.826  26.872  31.277  1.00  0.00     0.031 C 
ATOM     56  C   UNL A   1      43.243  28.146  33.318  1.00  0.00     0.034 A 
BRANCH  43  57
ATOM     57  C   UNL A   1      39.259  32.286  35.622  1.00  0.00     0.023 A 
ATOM     58  C   UNL A   1      39.705  33.616  35.711  1.00  0.00     0.031 A 
ATOM     59  C   UNL A   1      38.419  31.801  36.642  1.00  0.00     0.131 A 
ATOM     60  C   UNL A   1      39.343  34.400  36.818  1.00  0.00     0.055 A 
ATOM     61  C   UNL A   1      38.010  32.606  37.705  1.00  0.00     0.041 A 
ATOM     62  F   UNL A   1      37.983  30.532  36.620  1.00  0.00    -0.206 F 
ATOM     63  C   UNL A   1      38.480  33.912  37.802  1.00  0.00     0.022 A 
BRANCH  60  64
ATOM     64  S   UNL A   1      40.093  36.041  37.007  1.00  0.00     0.124 S 
ATOM     65  O   UNL A   1      39.354  36.574  38.149  1.00  0.00    -0.237 OA
ATOM     66  O   UNL A   1      41.496  35.723  37.247  1.00  0.00    -0.237 OA
ATOM     67  O   UNL A   1      39.811  36.695  35.731  1.00  0.00    -0.744 OA
ENDBRANCH  60  64
ENDBRANCH  43  57
BRANCH  44  68
ATOM     68  C   UNL A   1      41.779  26.816  27.579  1.00  0.00     0.023 A 
ATOM     69  C   UNL A   1      41.527  25.440  27.453  1.00  0.00     0.031 A 
ATOM     70  C   UNL A   1      42.537  27.440  26.570  1.00  0.00     0.131 A 
ATOM     71  C   UNL A   1      42.082  24.722  26.382  1.00  0.00     0.055 A 
ATOM     72  C   UNL A   1      43.033  26.731  25.474  1.00  0.00     0.041 A 
ATOM     73  F   UNL A   1      42.814  28.751  26.640  1.00  0.00    -0.206 F 
ATOM     74  C   UNL A   1      42.822  25.360  25.385  1.00  0.00     0.022 A 
BRANCH  71  75
ATOM     75  S   UNL A   1      41.932  22.914  26.383  1.00  0.00     0.124 S 
ATOM     76  O   UNL A   1      42.560  22.563  25.114  1.00  0.00    -0.237 OA
ATOM     77  O   UNL A   1      42.670  22.550  27.588  1.00  0.00    -0.237 OA
ATOM     78  O   UNL A   1      40.488  22.693  26.448  1.00  0.00    -0.744 OA
ENDBRANCH  71  75
ENDBRANCH  44  68
BRANCH  56  79
ATOM     79  C   UNL A   1      44.399  27.476  34.014  1.00  0.00     0.023 A 
ATOM     80  C   UNL A   1      44.247  26.271  34.720  1.00  0.00     0.031 A 
ATOM     81  C   UNL A   1      45.682  28.049  33.943  1.00  0.00     0.131 A 
ATOM     82  C   UNL A   1      45.355  25.697  35.361  1.00  0.00     0.055 A 
ATOM     83  C   UNL A   1      46.790  27.445  34.537  1.00  0.00     0.041 A 
ATOM     84  F   UNL A   1      45.880  29.199  33.279  1.00  0.00    -0.206 F 
ATOM     85  C   UNL A   1      46.627  26.266  35.259  1.00  0.00     0.022 A 
BRANCH  82  86
ATOM     86  S   UNL A   1      45.102  24.219  36.382  1.00  0.00     0.124 S 
ATOM     87  O   UNL A   1      44.642  24.795  37.642  1.00  0.00    -0.237 OA
ATOM     88  O   UNL A   1      44.104  23.476  35.619  1.00  0.00    -0.237 OA
ATOM     89  O   UNL A   1      46.427  23.603  36.429  1.00  0.00    -0.744 OA
ENDBRANCH  82  86
ENDBRANCH  56  79
ENDBRANCH  30  31
ENDBRANCH  23  25
ENDBRANCH  22  23
ENDBRANCH  21  22
ENDBRANCH   1  21
TORSDOF 20
ENDMDL
MODEL 2
REMARK VINA RESULT:     -10.5      1.419      8.028
REMARK SMILES COc1ccc(C(C)(C)C)cc1CC(=O)OCCOCCOC(=O)c1ccc(-c2c3nc(c(-c4cc(S(=O)(=O)[O-])ccc4F)c4ccc([nH]4)c(-c4cc(S(=O)(=O)[O-])ccc4F)c4nc(c(-c5cc(S(=O)(=O)[O-])ccc5F)c5ccc2[nH]5)C=C4)C=C3)cc1
REMARK SMILES IDX 20 1 19 2 18 3 17 4 16 5 14 6 15 7 13 8 12 9 3 10 4 11 5 12
REMARK SMILES IDX 11 13 6 14 2 15 1 16 7 17 8 18 9 19 10 20 21 21 22 22 23 23
REMARK SMILES IDX 24 24 25 25 26 26 87 27 27 28 86 29 28 30 29 31 30 32 80 33
REMARK SMILES IDX 31 34 85 35 79 36 81 37 32 38 84 39 78 40 77 41 33 43 65 44
REMARK SMILES IDX 45 45 64 46 46 47 49 48 63 49 82 50 47 51 48 52 62 54 83 55
REMARK SMILES IDX 50 56 34 57 35 58 43 59 36 60 42 61 44 62 41 63 37 64 38 65
REMARK SMILES IDX 39 66 40 67 66 68 67 69 75 70 68 71 74 72 76 73 73 74 69 75
REMARK SMILES IDX 70 76 71 77 72 78 51 79 52 80 60 81 53 82 59 83 61 84 58 85
REMARK SMILES IDX 54 86 55 87 56 88 57 89
REMARK H PARENT 81 42 49 53
REMARK Flexibility Score: inf
ROOT
ATOM      1  C   UNL A   1      31.381  29.309  25.505  1.00  0.00     0.202 C 
ENDROOT
BRANCH   1   2
ATOM      2  O   UNL A   1      32.465  28.392  25.371  1.00  0.00    -0.374 OA
BRANCH   2   3
ATOM      3  C   UNL A   1      33.056  28.260  24.081  1.00  0.00     0.202 C 
BRANCH   3   4
ATOM      4  C   UNL A   1      32.184  28.604  22.867  1.00  0.00     0.261 C 
BRANCH   4   5
ATOM      5  O   UNL A   1      31.687  27.456  22.155  1.00  0.00    -0.463 OA
BRANCH   5   6
ATOM      6  C   UNL A   1      32.613  26.500  21.886  1.00  0.00     0.310 C 
ATOM      7  O   UNL A   1      33.637  26.690  21.231  1.00  0.00    -0.252 OA
BRANCH   6   8
ATOM      8  C   UNL A   1      32.308  25.130  22.436  1.00  0.00     0.162 C 
BRANCH   8   9
ATOM      9  C   UNL A   1      32.943  24.668  23.731  1.00  0.00     0.005 A 
ATOM     10  C   UNL A   1      32.254  24.779  24.943  1.00  0.00     0.122 A 
ATOM     11  C   UNL A   1      32.826  24.328  26.130  1.00  0.00     0.047 A 
ATOM     12  C   UNL A   1      34.072  23.700  26.111  1.00  0.00     0.008 A 
ATOM     13  C   UNL A   1      34.205  24.025  23.732  1.00  0.00     0.012 A 
ATOM     14  C   UNL A   1      34.785  23.512  24.912  1.00  0.00    -0.042 A 
BRANCH  10  15
ATOM     15  O   UNL A   1      31.015  25.358  24.997  1.00  0.00    -0.496 OA
ATOM     16  C   UNL A   1      30.364  25.040  26.230  1.00  0.00     0.278 C 
ENDBRANCH  10  15
BRANCH  14  17
ATOM     17  C   UNL A   1      36.138  22.769  24.950  1.00  0.00    -0.013 C 
ATOM     18  C   UNL A   1      36.725  22.710  23.522  1.00  0.00     0.016 C 
ATOM     19  C   UNL A   1      37.129  23.520  25.870  1.00  0.00     0.016 C 
ATOM     20  C   UNL A   1      36.072  21.326  25.497  1.00  0.00     0.016 C 
ENDBRANCH  14  17
ENDBRANCH   8   9
ENDBRANCH   6   8
ENDBRANCH   5   6
ENDBRANCH   4   5
ENDBRANCH   3   4
ENDBRANCH   2   3
ENDBRANCH   1   2
BRANCH   1  21
ATOM     21  C   UNL A   1      31.711  30.708  26.028  1.00  0.00     0.261 C 
BRANCH  21  22
ATOM     22  O   UNL A   1      32.473  30.686  27.242  1.00  0.00    -0.460 OA
BRANCH  22  23
ATOM     23  C   UNL A   1      33.250  31.776  27.427  1.00  0.00     0.338 C 
ATOM     24  O   UNL A   1      32.892  32.951  27.407  1.00  0.00    -0.246 OA
BRANCH  23  25
ATOM     25  C   UNL A   1      34.601  31.374  27.831  1.00  0.00     0.060 A 
ATOM     26  C   UNL A   1      34.791  30.044  28.226  1.00  0.00     0.016 A 
ATOM     27  C   UNL A   1      35.632  32.309  27.933  1.00  0.00     0.016 A 
ATOM     28  C   UNL A   1      36.003  29.656  28.790  1.00  0.00     0.010 A 
ATOM     29  C   UNL A   1      36.844  31.919  28.509  1.00  0.00     0.010 A 
ATOM     30  C   UNL A   1      37.016  30.604  28.978  1.00  0.00    -0.014 A 
BRANCH  30  31
ATOM     31  C   UNL A   1      38.185  30.269  29.825  1.00  0.00     0.031 A 
ATOM     32  C   UNL A   1      39.189  29.279  29.298  1.00  0.00     0.074 A 
ATOM     33  C   UNL A   1      38.346  30.841  31.031  1.00  0.00     0.049 A 
ATOM     34  N   UNL A   1      40.230  28.757  29.891  1.00  0.00    -0.248 NA
ATOM     35  C   UNL A   1      38.987  28.811  27.916  1.00  0.00     0.031 C 
ATOM     36  C   UNL A   1      37.461  31.854  31.608  1.00  0.00     0.029 A 
ATOM     37  N   UNL A   1      39.302  30.641  31.995  1.00  0.00    -0.354 N 
ATOM     38  C   UNL A   1      40.793  27.883  28.967  1.00  0.00     0.074 A 
ATOM     39  C   UNL A   1      39.972  27.935  27.778  1.00  0.00     0.031 C 
ATOM     40  C   UNL A   1      37.907  32.171  32.836  1.00  0.00     0.029 A 
ATOM     41  C   UNL A   1      39.076  31.353  33.151  1.00  0.00     0.049 A 
ATOM     42  H   UNL A   1      40.075  30.045  31.871  1.00  0.00     0.167 HD
ATOM     43  C   UNL A   1      41.894  27.106  29.105  1.00  0.00     0.034 A 
ATOM     44  C   UNL A   1      39.719  31.314  34.335  1.00  0.00     0.034 A 
ATOM     45  C   UNL A   1      42.703  27.079  30.297  1.00  0.00     0.049 A 
ATOM     46  C   UNL A   1      40.904  30.384  34.485  1.00  0.00     0.074 A 
ATOM     47  C   UNL A   1      43.858  26.356  30.537  1.00  0.00     0.029 A 
ATOM     48  N   UNL A   1      42.434  27.798  31.455  1.00  0.00    -0.354 N 
ATOM     49  N   UNL A   1      41.437  29.574  33.598  1.00  0.00    -0.248 NA
ATOM     50  C   UNL A   1      41.577  30.367  35.792  1.00  0.00     0.031 C 
ATOM     51  C   UNL A   1      44.247  26.584  31.861  1.00  0.00     0.029 A 
ATOM     52  C   UNL A   1      43.382  27.510  32.422  1.00  0.00     0.049 A 
ATOM     53  H   UNL A   1      41.680  28.421  31.569  1.00  0.00     0.167 HD
ATOM     54  C   UNL A   1      42.533  28.990  34.227  1.00  0.00     0.074 A 
ATOM     55  C   UNL A   1      42.587  29.539  35.565  1.00  0.00     0.031 C 
ATOM     56  C   UNL A   1      43.423  28.086  33.743  1.00  0.00     0.034 A 
BRANCH  43  57
ATOM     57  C   UNL A   1      42.251  26.180  27.971  1.00  0.00     0.023 A 
ATOM     58  C   UNL A   1      41.736  24.876  27.879  1.00  0.00     0.031 A 
ATOM     59  C   UNL A   1      43.118  26.622  26.956  1.00  0.00     0.131 A 
ATOM     60  C   UNL A   1      42.128  24.045  26.816  1.00  0.00     0.055 A 
ATOM     61  C   UNL A   1      43.451  25.814  25.867  1.00  0.00     0.041 A 
ATOM     62  F   UNL A   1      43.658  27.850  27.006  1.00  0.00    -0.206 F 
ATOM     63  C   UNL A   1      42.961  24.514  25.798  1.00  0.00     0.022 A 
BRANCH  60  64
ATOM     64  S   UNL A   1      41.608  22.308  26.830  1.00  0.00     0.124 S 
ATOM     65  O   UNL A   1      42.302  21.801  28.012  1.00  0.00    -0.237 OA
ATOM     66  O   UNL A   1      40.157  22.412  26.938  1.00  0.00    -0.237 OA
ATOM     67  O   UNL A   1      42.103  21.791  25.556  1.00  0.00    -0.744 OA
ENDBRANCH  60  64
ENDBRANCH  43  57
BRANCH  44  68
ATOM     68  C   UNL A   1      39.243  32.125  35.493  1.00  0.00     0.023 A 
ATOM     69  C   UNL A   1      39.633  33.465  35.649  1.00  0.00     0.031 A 
ATOM     70  C   UNL A   1      38.461  31.546  36.511  1.00  0.00     0.131 A 
ATOM     71  C   UNL A   1      39.297  34.160  36.822  1.00  0.00     0.055 A 
ATOM     72  C   UNL A   1      38.077  32.262  37.646  1.00  0.00     0.041 A 
ATOM     73  F   UNL A   1      38.064  30.267  36.419  1.00  0.00    -0.206 F 
ATOM     74  C   UNL A   1      38.511  33.573  37.814  1.00  0.00     0.022 A 
BRANCH  71  75
ATOM     75  S   UNL A   1      40.015  35.804  37.089  1.00  0.00     0.124 S 
ATOM     76  O   UNL A   1      39.658  36.488  35.851  1.00  0.00    -0.237 OA
ATOM     77  O   UNL A   1      39.319  36.246  38.292  1.00  0.00    -0.237 OA
ATOM     78  O   UNL A   1      41.441  35.528  37.261  1.00  0.00    -0.744 OA
ENDBRANCH  71  75
ENDBRANCH  44  68
BRANCH  56  79
ATOM     79  C   UNL A   1      44.574  27.702  34.637  1.00  0.00     0.023 A 
ATOM     80  C   UNL A   1      44.524  26.572  35.471  1.00  0.00     0.031 A 
ATOM     81  C   UNL A   1      45.751  28.472  34.629  1.00  0.00     0.131 A 
ATOM     82  C   UNL A   1      45.619  26.268  36.294  1.00  0.00     0.055 A 
ATOM     83  C   UNL A   1      46.856  28.133  35.408  1.00  0.00     0.041 A 
ATOM     84  F   UNL A   1      45.849  29.560  33.848  1.00  0.00    -0.206 F 
ATOM     85  C   UNL A   1      46.791  27.029  36.254  1.00  0.00     0.022 A 
BRANCH  82  86
ATOM     86  S   UNL A   1      45.475  24.889  37.463  1.00  0.00     0.124 S 
ATOM     87  O   UNL A   1      44.662  25.474  38.525  1.00  0.00    -0.237 OA
ATOM     88  O   UNL A   1      44.825  23.859  36.657  1.00  0.00    -0.237 OA
ATOM     89  O   UNL A   1      46.861  24.601  37.829  1.00  0.00    -0.744 OA
ENDBRANCH  82  86
ENDBRANCH  56  79
ENDBRANCH  30  31
ENDBRANCH  23  25
ENDBRANCH  22  23
ENDBRANCH  21  22
ENDBRANCH   1  21
TORSDOF 20
ENDMDL
MODEL 3
REMARK VINA RESULT:     -10.5      4.764      8.100
REMARK SMILES COc1ccc(C(C)(C)C)cc1CC(=O)OCCOCCOC(=O)c1ccc(-c2c3nc(c(-c4cc(S(=O)(=O)[O-])ccc4F)c4ccc([nH]4)c(-c4cc(S(=O)(=O)[O-])ccc4F)c4nc(c(-c5cc(S(=O)(=O)[O-])ccc5F)c5ccc2[nH]5)C=C4)C=C3)cc1
REMARK SMILES IDX 20 1 19 2 18 3 17 4 16 5 14 6 15 7 13 8 12 9 3 10 4 11 5 12
REMARK SMILES IDX 11 13 6 14 2 15 1 16 7 17 8 18 9 19 10 20 21 21 22 22 23 23
REMARK SMILES IDX 24 24 25 25 26 26 87 27 27 28 86 29 28 30 29 31 30 32 80 33
REMARK SMILES IDX 31 34 85 35 79 36 81 37 32 38 84 39 78 40 77 41 33 43 65 44
REMARK SMILES IDX 45 45 64 46 46 47 49 48 63 49 82 50 47 51 48 52 62 54 83 55
REMARK SMILES IDX 50 56 34 57 35 58 43 59 36 60 42 61 44 62 41 63 37 64 38 65
REMARK SMILES IDX 39 66 40 67 66 68 67 69 75 70 68 71 74 72 76 73 73 74 69 75
REMARK SMILES IDX 70 76 71 77 72 78 51 79 52 80 60 81 53 82 59 83 61 84 58 85
REMARK SMILES IDX 54 86 55 87 56 88 57 89
REMARK H PARENT 81 42 49 53
REMARK Flexibility Score: inf
ROOT
ATOM      1  C   UNL A   1      36.063  20.241  25.146  1.00  0.00     0.202 C 
ENDROOT
BRANCH   1   2
ATOM      2  O   UNL A   1      35.456  21.496  25.444  1.00  0.00    -0.374 OA
BRANCH   2   3
ATOM      3  C   UNL A   1      34.398  21.502  26.399  1.00  0.00     0.202 C 
BRANCH   3   4
ATOM      4  C   UNL A   1      32.986  21.813  25.887  1.00  0.00     0.261 C 
BRANCH   4   5
ATOM      5  O   UNL A   1      32.802  23.173  25.455  1.00  0.00    -0.463 OA
BRANCH   5   6
ATOM      6  C   UNL A   1      33.129  23.415  24.160  1.00  0.00     0.310 C 
ATOM      7  O   UNL A   1      32.648  22.817  23.199  1.00  0.00    -0.252 OA
BRANCH   6   8
ATOM      8  C   UNL A   1      34.167  24.487  23.943  1.00  0.00     0.162 C 
BRANCH   8   9
ATOM      9  C   UNL A   1      33.766  25.947  23.922  1.00  0.00     0.005 A 
ATOM     10  C   UNL A   1      33.501  26.597  22.714  1.00  0.00     0.122 A 
ATOM     11  C   UNL A   1      33.105  27.932  22.695  1.00  0.00     0.047 A 
ATOM     12  C   UNL A   1      32.905  28.618  23.894  1.00  0.00     0.008 A 
ATOM     13  C   UNL A   1      33.555  26.659  25.128  1.00  0.00     0.012 A 
ATOM     14  C   UNL A   1      33.104  27.997  25.141  1.00  0.00    -0.042 A 
BRANCH  10  15
ATOM     15  O   UNL A   1      33.652  25.948  21.518  1.00  0.00    -0.496 OA
ATOM     16  C   UNL A   1      32.383  25.744  20.891  1.00  0.00     0.278 C 
ENDBRANCH  10  15
BRANCH  14  17
ATOM     17  C   UNL A   1      32.822  28.794  26.433  1.00  0.00    -0.013 C 
ATOM     18  C   UNL A   1      31.779  28.034  27.283  1.00  0.00     0.016 C 
ATOM     19  C   UNL A   1      34.124  28.947  27.254  1.00  0.00     0.016 C 
ATOM     20  C   UNL A   1      32.298  30.230  26.210  1.00  0.00     0.016 C 
ENDBRANCH  14  17
ENDBRANCH   8   9
ENDBRANCH   6   8
ENDBRANCH   5   6
ENDBRANCH   4   5
ENDBRANCH   3   4
ENDBRANCH   2   3
ENDBRANCH   1   2
BRANCH   1  21
ATOM     21  C   UNL A   1      37.526  20.260  24.701  1.00  0.00     0.261 C 
BRANCH  21  22
ATOM     22  O   UNL A   1      38.229  21.431  25.137  1.00  0.00    -0.460 OA
BRANCH  22  23
ATOM     23  C   UNL A   1      39.252  21.180  25.982  1.00  0.00     0.338 C 
ATOM     24  O   UNL A   1      39.849  20.116  26.125  1.00  0.00    -0.246 OA
BRANCH  23  25
ATOM     25  C   UNL A   1      39.695  22.420  26.626  1.00  0.00     0.060 A 
ATOM     26  C   UNL A   1      39.152  23.624  26.159  1.00  0.00     0.016 A 
ATOM     27  C   UNL A   1      40.709  22.413  27.586  1.00  0.00     0.016 A 
ATOM     28  C   UNL A   1      39.669  24.836  26.606  1.00  0.00     0.010 A 
ATOM     29  C   UNL A   1      41.233  23.632  28.025  1.00  0.00     0.010 A 
ATOM     30  C   UNL A   1      40.743  24.844  27.504  1.00  0.00    -0.014 A 
BRANCH  30  31
ATOM     31  C   UNL A   1      41.475  26.107  27.760  1.00  0.00     0.031 A 
ATOM     32  C   UNL A   1      40.774  27.195  28.528  1.00  0.00     0.074 A 
ATOM     33  C   UNL A   1      42.735  26.271  27.323  1.00  0.00     0.049 A 
ATOM     34  N   UNL A   1      41.168  28.414  28.787  1.00  0.00    -0.248 NA
ATOM     35  C   UNL A   1      39.446  26.864  29.072  1.00  0.00     0.031 C 
ATOM     36  C   UNL A   1      43.523  25.257  26.620  1.00  0.00     0.029 A 
ATOM     37  N   UNL A   1      43.571  27.357  27.391  1.00  0.00    -0.354 N 
ATOM     38  C   UNL A   1      40.130  29.003  29.501  1.00  0.00     0.074 A 
ATOM     39  C   UNL A   1      39.084  28.013  29.624  1.00  0.00     0.031 C 
ATOM     40  C   UNL A   1      44.721  25.779  26.305  1.00  0.00     0.029 A 
ATOM     41  C   UNL A   1      44.768  27.173  26.738  1.00  0.00     0.049 A 
ATOM     42  H   UNL A   1      43.336  28.189  27.862  1.00  0.00     0.167 HD
ATOM     43  C   UNL A   1      40.061  30.260  30.003  1.00  0.00     0.034 A 
ATOM     44  C   UNL A   1      45.766  28.047  26.490  1.00  0.00     0.034 A 
ATOM     45  C   UNL A   1      41.122  31.225  29.876  1.00  0.00     0.049 A 
ATOM     46  C   UNL A   1      45.631  29.465  27.002  1.00  0.00     0.074 A 
ATOM     47  C   UNL A   1      41.175  32.516  30.373  1.00  0.00     0.029 A 
ATOM     48  N   UNL A   1      42.312  31.012  29.194  1.00  0.00    -0.354 N 
ATOM     49  N   UNL A   1      44.651  30.005  27.690  1.00  0.00    -0.248 NA
ATOM     50  C   UNL A   1      46.737  30.388  26.708  1.00  0.00     0.031 C 
ATOM     51  C   UNL A   1      42.364  33.104  29.931  1.00  0.00     0.029 A 
ATOM     52  C   UNL A   1      43.090  32.156  29.227  1.00  0.00     0.049 A 
ATOM     53  H   UNL A   1      42.565  30.169  28.751  1.00  0.00     0.167 HD
ATOM     54  C   UNL A   1      45.047  31.315  27.951  1.00  0.00     0.074 A 
ATOM     55  C   UNL A   1      46.351  31.483  27.347  1.00  0.00     0.031 C 
ATOM     56  C   UNL A   1      44.397  32.291  28.633  1.00  0.00     0.034 A 
BRANCH  43  57
ATOM     57  C   UNL A   1      38.780  30.680  30.676  1.00  0.00     0.023 A 
ATOM     58  C   UNL A   1      37.762  31.364  29.988  1.00  0.00     0.031 A 
ATOM     59  C   UNL A   1      38.572  30.378  32.034  1.00  0.00     0.131 A 
ATOM     60  C   UNL A   1      36.602  31.760  30.674  1.00  0.00     0.055 A 
ATOM     61  C   UNL A   1      37.389  30.716  32.692  1.00  0.00     0.041 A 
ATOM     62  F   UNL A   1      39.520  29.747  32.745  1.00  0.00    -0.206 F 
ATOM     63  C   UNL A   1      36.399  31.419  32.013  1.00  0.00     0.022 A 
BRANCH  60  64
ATOM     64  S   UNL A   1      35.398  32.811  29.816  1.00  0.00     0.124 S 
ATOM     65  O   UNL A   1      36.266  33.813  29.202  1.00  0.00    -0.237 OA
ATOM     66  O   UNL A   1      34.757  31.875  28.899  1.00  0.00    -0.237 OA
ATOM     67  O   UNL A   1      34.548  33.310  30.895  1.00  0.00    -0.744 OA
ENDBRANCH  60  64
ENDBRANCH  43  57
BRANCH  44  68
ATOM     68  C   UNL A   1      46.953  27.645  25.681  1.00  0.00     0.023 A 
ATOM     69  C   UNL A   1      47.074  28.022  24.334  1.00  0.00     0.031 A 
ATOM     70  C   UNL A   1      47.943  26.800  26.218  1.00  0.00     0.131 A 
ATOM     71  C   UNL A   1      48.121  27.507  23.553  1.00  0.00     0.055 A 
ATOM     72  C   UNL A   1      49.017  26.341  25.452  1.00  0.00     0.041 A 
ATOM     73  F   UNL A   1      47.877  26.402  27.498  1.00  0.00    -0.206 F 
ATOM     74  C   UNL A   1      49.100  26.680  24.106  1.00  0.00     0.022 A 
BRANCH  71  75
ATOM     75  S   UNL A   1      48.109  27.829  21.768  1.00  0.00     0.124 S 
ATOM     76  O   UNL A   1      49.214  28.770  21.629  1.00  0.00    -0.237 OA
ATOM     77  O   UNL A   1      48.327  26.495  21.219  1.00  0.00    -0.237 OA
ATOM     78  O   UNL A   1      46.778  28.388  21.533  1.00  0.00    -0.744 OA
ENDBRANCH  71  75
ENDBRANCH  44  68
BRANCH  56  79
ATOM     79  C   UNL A   1      45.123  33.596  28.833  1.00  0.00     0.023 A 
ATOM     80  C   UNL A   1      45.878  33.860  29.988  1.00  0.00     0.031 A 
ATOM     81  C   UNL A   1      45.075  34.582  27.831  1.00  0.00     0.131 A 
ATOM     82  C   UNL A   1      46.524  35.097  30.129  1.00  0.00     0.055 A 
ATOM     83  C   UNL A   1      45.764  35.788  27.952  1.00  0.00     0.041 A 
ATOM     84  F   UNL A   1      44.369  34.378  26.707  1.00  0.00    -0.206 F 
ATOM     85  C   UNL A   1      46.487  36.055  29.112  1.00  0.00     0.022 A 
BRANCH  82  86
ATOM     86  S   UNL A   1      47.373  35.465  31.689  1.00  0.00     0.124 S 
ATOM     87  O   UNL A   1      47.637  34.130  32.215  1.00  0.00    -0.237 OA
ATOM     88  O   UNL A   1      48.542  36.216  31.241  1.00  0.00    -0.237 OA
ATOM     89  O   UNL A   1      46.390  36.245  32.440  1.00  0.00    -0.744 OA
ENDBRANCH  82  86
ENDBRANCH  56  79
ENDBRANCH  30  31
ENDBRANCH  23  25
ENDBRANCH  22  23
ENDBRANCH  21  22
ENDBRANCH   1  21
TORSDOF 20
ENDMDL
