MODEL 1
REMARK VINA RESULT:     -12.9      0.000      0.000
REMARK SMILES CC1=C(C)C[C@@H](C(=O)OCCOCCOC(=O)c2ccc(-c3c4nc(c(-c5cc(S(=O)(=O)[O-])ccc5F)c5ccc([nH]5)c(-c5cc(S(=O)(=O)[O-])ccc5F)c5nc(c(-c6cc(S(=O)(=O)[O-])ccc6F)c6ccc3[nH]6)C=C5)C=C4)cc2)[C@@H](C(=O)N2CCN(c3cccc(C(F)(F)F)c3)CC2)C1
REMARK SMILES IDX 12 1 11 2 10 3 9 4 7 5 8 6 6 7 1 8 2 9 3 10 100 11 4 12 5 13
REMARK SMILES IDX 81 14 82 15 83 16 84 17 85 18 99 19 86 20 98 21 87 22 88 23
REMARK SMILES IDX 89 24 97 25 90 26 92 27 91 28 93 29 94 30 95 31 96 32 13 33
REMARK SMILES IDX 14 34 15 35 16 36 17 37 18 38 19 39 80 40 20 41 79 42 21 43
REMARK SMILES IDX 22 44 23 45 73 46 24 47 78 48 72 49 74 50 25 51 77 52 71 53
REMARK SMILES IDX 70 54 26 56 58 57 38 58 57 59 39 60 42 61 56 62 75 63 40 64
REMARK SMILES IDX 41 65 55 67 76 68 43 69 27 70 28 71 36 72 29 73 35 74 37 75
REMARK SMILES IDX 34 76 30 77 31 78 32 79 33 80 59 81 60 82 68 83 61 84 67 85
REMARK SMILES IDX 69 86 66 87 62 88 63 89 64 90 65 91 44 92 45 93 53 94 46 95
REMARK SMILES IDX 52 96 54 97 51 98 47 99 48 100 49 101 50 102
REMARK H PARENT 74 55 42 66
REMARK Flexibility Score: inf
ROOT
ATOM      1  O   UNL A   1      31.314  31.656  26.780  1.00  0.00    -0.374 OA
ENDROOT
BRANCH   1   2
ATOM      2  C   UNL A   1      32.312  30.660  26.997  1.00  0.00     0.202 C 
BRANCH   2   3
ATOM      3  C   UNL A   1      32.787  29.835  25.789  1.00  0.00     0.261 C 
BRANCH   3   4
ATOM      4  O   UNL A   1      31.809  29.510  24.778  1.00  0.00    -0.463 OA
BRANCH   4   5
ATOM      5  C   UNL A   1      32.317  28.915  23.679  1.00  0.00     0.310 C 
ATOM      6  O   UNL A   1      33.507  28.960  23.362  1.00  0.00    -0.252 OA
BRANCH   5   7
ATOM      7  C   UNL A   1      31.321  28.260  22.738  1.00  0.00     0.116 C 
ATOM      8  C   UNL A   1      26.991  29.054  23.376  1.00  0.00     0.039 C 
ATOM      9  C   UNL A   1      28.429  28.833  22.971  1.00  0.00    -0.074 C 
ATOM     10  C   UNL A   1      29.233  29.750  22.403  1.00  0.00    -0.073 C 
ATOM     11  C   UNL A   1      28.892  27.425  23.243  1.00  0.00     0.045 C 
ATOM     12  C   UNL A   1      28.850  31.175  22.095  1.00  0.00     0.039 C 
ATOM     13  C   UNL A   1      30.628  29.388  21.957  1.00  0.00     0.046 C 
ATOM     14  C   UNL A   1      30.401  27.096  23.124  1.00  0.00     0.097 C 
BRANCH  14  15
ATOM     15  C   UNL A   1      30.778  26.272  24.355  1.00  0.00     0.227 C 
ATOM     16  O   UNL A   1      30.532  26.677  25.491  1.00  0.00    -0.275 OA
ATOM     17  N   UNL A   1      31.231  24.970  24.141  1.00  0.00    -0.339 N 
ATOM     18  C   UNL A   1      31.106  24.059  25.292  1.00  0.00     0.141 C 
ATOM     19  C   UNL A   1      32.286  24.652  23.163  1.00  0.00     0.141 C 
ATOM     20  C   UNL A   1      31.224  22.577  24.926  1.00  0.00     0.138 C 
ATOM     21  C   UNL A   1      32.541  23.144  22.913  1.00  0.00     0.138 C 
ATOM     22  N   UNL A   1      32.456  22.390  24.161  1.00  0.00    -0.368 N 
BRANCH  22  23
ATOM     23  C   UNL A   1      33.218  21.264  24.378  1.00  0.00     0.037 A 
ATOM     24  C   UNL A   1      34.476  21.320  24.986  1.00  0.00     0.026 A 
ATOM     25  C   UNL A   1      32.772  20.027  23.895  1.00  0.00     0.039 A 
ATOM     26  C   UNL A   1      35.275  20.179  25.099  1.00  0.00     0.003 A 
ATOM     27  C   UNL A   1      33.571  18.875  23.974  1.00  0.00     0.058 A 
ATOM     28  C   UNL A   1      34.828  18.962  24.588  1.00  0.00     0.013 A 
BRANCH  27  29
ATOM     29  C   UNL A   1      33.114  17.569  23.375  1.00  0.00     0.416 C 
ATOM     30  F   UNL A   1      32.621  16.707  24.308  1.00  0.00    -0.166 F 
ATOM     31  F   UNL A   1      32.110  17.743  22.467  1.00  0.00    -0.166 F 
ATOM     32  F   UNL A   1      34.093  16.890  22.714  1.00  0.00    -0.166 F 
ENDBRANCH  27  29
ENDBRANCH  22  23
ENDBRANCH  14  15
ENDBRANCH   5   7
ENDBRANCH   4   5
ENDBRANCH   3   4
ENDBRANCH   2   3
ENDBRANCH   1   2
BRANCH   1  33
ATOM     33  C   UNL A   1      31.745  33.011  26.654  1.00  0.00     0.202 C 
BRANCH  33  34
ATOM     34  C   UNL A   1      32.960  33.420  27.485  1.00  0.00     0.261 C 
BRANCH  34  35
ATOM     35  O   UNL A   1      32.542  34.318  28.517  1.00  0.00    -0.460 OA
BRANCH  35  36
ATOM     36  C   UNL A   1      33.521  35.082  29.041  1.00  0.00     0.338 C 
ATOM     37  O   UNL A   1      33.487  36.280  29.245  1.00  0.00    -0.246 OA
BRANCH  36  38
ATOM     38  C   UNL A   1      34.599  34.183  29.485  1.00  0.00     0.060 A 
ATOM     39  C   UNL A   1      34.292  33.188  30.421  1.00  0.00     0.016 A 
ATOM     40  C   UNL A   1      35.912  34.383  29.058  1.00  0.00     0.016 A 
ATOM     41  C   UNL A   1      35.318  32.429  30.983  1.00  0.00     0.010 A 
ATOM     42  C   UNL A   1      36.937  33.609  29.614  1.00  0.00     0.010 A 
ATOM     43  C   UNL A   1      36.651  32.661  30.613  1.00  0.00    -0.014 A 
BRANCH  43  44
ATOM     44  C   UNL A   1      37.739  32.020  31.396  1.00  0.00     0.031 A 
ATOM     45  C   UNL A   1      38.522  30.896  30.770  1.00  0.00     0.074 A 
ATOM     46  C   UNL A   1      38.062  32.468  32.622  1.00  0.00     0.049 A 
ATOM     47  N   UNL A   1      39.559  30.246  31.233  1.00  0.00    -0.248 NA
ATOM     48  C   UNL A   1      38.069  30.444  29.447  1.00  0.00     0.031 C 
ATOM     49  C   UNL A   1      37.379  33.549  33.330  1.00  0.00     0.029 A 
ATOM     50  N   UNL A   1      39.048  32.068  33.489  1.00  0.00    -0.354 N 
ATOM     51  C   UNL A   1      39.894  29.319  30.250  1.00  0.00     0.074 A 
ATOM     52  C   UNL A   1      38.911  29.454  29.196  1.00  0.00     0.031 C 
ATOM     53  C   UNL A   1      37.965  33.725  34.527  1.00  0.00     0.029 A 
ATOM     54  C   UNL A   1      39.052  32.759  34.677  1.00  0.00     0.049 A 
ATOM     55  H   UNL A   1      39.692  31.353  33.280  1.00  0.00     0.167 HD
ATOM     56  C   UNL A   1      40.935  28.449  30.220  1.00  0.00     0.034 A 
ATOM     57  C   UNL A   1      39.839  32.623  35.764  1.00  0.00     0.034 A 
ATOM     58  C   UNL A   1      41.889  28.302  31.294  1.00  0.00     0.049 A 
ATOM     59  C   UNL A   1      40.957  31.611  35.738  1.00  0.00     0.074 A 
ATOM     60  C   UNL A   1      42.988  27.465  31.367  1.00  0.00     0.029 A 
ATOM     61  N   UNL A   1      41.844  29.000  32.496  1.00  0.00    -0.354 N 
ATOM     62  N   UNL A   1      41.292  30.774  34.783  1.00  0.00    -0.248 NA
ATOM     63  C   UNL A   1      41.815  31.540  36.929  1.00  0.00     0.031 C 
ATOM     64  C   UNL A   1      43.565  27.606  32.635  1.00  0.00     0.029 A 
ATOM     65  C   UNL A   1      42.873  28.586  33.329  1.00  0.00     0.049 A 
ATOM     66  H   UNL A   1      41.177  29.688  32.723  1.00  0.00     0.167 HD
ATOM     67  C   UNL A   1      42.412  30.091  35.251  1.00  0.00     0.074 A 
ATOM     68  C   UNL A   1      42.704  30.628  36.565  1.00  0.00     0.031 C 
ATOM     69  C   UNL A   1      43.137  29.114  34.648  1.00  0.00     0.034 A 
BRANCH  56  70
ATOM     70  C   UNL A   1      41.054  27.565  29.001  1.00  0.00     0.023 A 
ATOM     71  C   UNL A   1      42.042  27.785  28.024  1.00  0.00     0.031 A 
ATOM     72  C   UNL A   1      40.134  26.525  28.782  1.00  0.00     0.131 A 
ATOM     73  C   UNL A   1      42.037  27.034  26.839  1.00  0.00     0.055 A 
ATOM     74  C   UNL A   1      40.184  25.726  27.636  1.00  0.00     0.041 A 
ATOM     75  F   UNL A   1      39.156  26.279  29.667  1.00  0.00    -0.206 F 
ATOM     76  C   UNL A   1      41.127  25.991  26.648  1.00  0.00     0.022 A 
BRANCH  73  77
ATOM     77  S   UNL A   1      43.133  27.541  25.484  1.00  0.00     0.124 S 
ATOM     78  O   UNL A   1      43.593  26.250  24.978  1.00  0.00    -0.237 OA
ATOM     79  O   UNL A   1      42.232  28.286  24.613  1.00  0.00    -0.237 OA
ATOM     80  O   UNL A   1      44.158  28.339  26.152  1.00  0.00    -0.744 OA
ENDBRANCH  73  77
ENDBRANCH  56  70
BRANCH  57  81
ATOM     81  C   UNL A   1      39.579  33.446  36.979  1.00  0.00     0.023 A 
ATOM     82  C   UNL A   1      38.876  32.932  38.081  1.00  0.00     0.031 A 
ATOM     83  C   UNL A   1      40.016  34.782  37.039  1.00  0.00     0.131 A 
ATOM     84  C   UNL A   1      38.605  33.760  39.183  1.00  0.00     0.055 A 
ATOM     85  C   UNL A   1      39.780  35.587  38.154  1.00  0.00     0.041 A 
ATOM     86  F   UNL A   1      40.693  35.320  36.013  1.00  0.00    -0.206 F 
ATOM     87  C   UNL A   1      39.062  35.080  39.231  1.00  0.00     0.022 A 
BRANCH  84  88
ATOM     88  S   UNL A   1      37.592  33.104  40.538  1.00  0.00     0.124 S 
ATOM     89  O   UNL A   1      38.277  31.854  40.846  1.00  0.00    -0.237 OA
ATOM     90  O   UNL A   1      37.702  34.160  41.538  1.00  0.00    -0.237 OA
ATOM     91  O   UNL A   1      36.269  32.958  39.934  1.00  0.00    -0.744 OA
ENDBRANCH  84  88
ENDBRANCH  57  81
BRANCH  69  92
ATOM     92  C   UNL A   1      44.333  28.584  35.403  1.00  0.00     0.023 A 
ATOM     93  C   UNL A   1      44.226  27.500  36.291  1.00  0.00     0.031 A 
ATOM     94  C   UNL A   1      45.595  29.184  35.241  1.00  0.00     0.131 A 
ATOM     95  C   UNL A   1      45.348  27.082  37.025  1.00  0.00     0.055 A 
ATOM     96  C   UNL A   1      46.719  28.728  35.931  1.00  0.00     0.041 A 
ATOM     97  F   UNL A   1      45.755  30.223  34.406  1.00  0.00    -0.206 F 
ATOM     98  C   UNL A   1      46.596  27.681  36.839  1.00  0.00     0.022 A 
BRANCH  95  99
ATOM     99  S   UNL A   1      45.135  25.803  38.293  1.00  0.00     0.124 S 
ATOM    100  O   UNL A   1      44.063  26.362  39.112  1.00  0.00    -0.237 OA
ATOM    101  O   UNL A   1      44.785  24.630  37.499  1.00  0.00    -0.237 OA
ATOM    102  O   UNL A   1      46.443  25.743  38.943  1.00  0.00    -0.744 OA
ENDBRANCH  95  99
ENDBRANCH  69  92
ENDBRANCH  43  44
ENDBRANCH  36  38
ENDBRANCH  35  36
ENDBRANCH  34  35
ENDBRANCH  33  34
ENDBRANCH   1  33
TORSDOF 20
ENDMDL
MODEL 2
REMARK VINA RESULT:     -12.6      1.867      2.184
REMARK SMILES CC1=C(C)C[C@@H](C(=O)OCCOCCOC(=O)c2ccc(-c3c4nc(c(-c5cc(S(=O)(=O)[O-])ccc5F)c5ccc([nH]5)c(-c5cc(S(=O)(=O)[O-])ccc5F)c5nc(c(-c6cc(S(=O)(=O)[O-])ccc6F)c6ccc3[nH]6)C=C5)C=C4)cc2)[C@@H](C(=O)N2CCN(c3cccc(C(F)(F)F)c3)CC2)C1
REMARK SMILES IDX 12 1 11 2 10 3 9 4 7 5 8 6 6 7 1 8 2 9 3 10 100 11 4 12 5 13
REMARK SMILES IDX 81 14 82 15 83 16 84 17 85 18 99 19 86 20 98 21 87 22 88 23
REMARK SMILES IDX 89 24 97 25 90 26 92 27 91 28 93 29 94 30 95 31 96 32 13 33
REMARK SMILES IDX 14 34 15 35 16 36 17 37 18 38 19 39 80 40 20 41 79 42 21 43
REMARK SMILES IDX 22 44 23 45 73 46 24 47 78 48 72 49 74 50 25 51 77 52 71 53
REMARK SMILES IDX 70 54 26 56 58 57 38 58 57 59 39 60 42 61 56 62 75 63 40 64
REMARK SMILES IDX 41 65 55 67 76 68 43 69 27 70 28 71 36 72 29 73 35 74 37 75
REMARK SMILES IDX 34 76 30 77 31 78 32 79 33 80 59 81 60 82 68 83 61 84 67 85
REMARK SMILES IDX 69 86 66 87 62 88 63 89 64 90 65 91 44 92 45 93 53 94 46 95
REMARK SMILES IDX 52 96 54 97 51 98 47 99 48 100 49 101 50 102
REMARK H PARENT 74 55 42 66
REMARK Flexibility Score: inf
ROOT
ATOM      1  O   UNL A   1      31.325  31.469  26.457  1.00  0.00    -0.374 OA
ENDROOT
BRANCH   1   2
ATOM      2  C   UNL A   1      32.358  30.599  26.917  1.00  0.00     0.202 C 
BRANCH   2   3
ATOM      3  C   UNL A   1      32.320  29.128  26.466  1.00  0.00     0.261 C 
BRANCH   3   4
ATOM      4  O   UNL A   1      31.390  28.776  25.421  1.00  0.00    -0.463 OA
BRANCH   4   5
ATOM      5  C   UNL A   1      31.968  28.401  24.261  1.00  0.00     0.310 C 
ATOM      6  O   UNL A   1      33.139  28.648  23.966  1.00  0.00    -0.252 OA
BRANCH   5   7
ATOM      7  C   UNL A   1      31.065  27.743  23.232  1.00  0.00     0.116 C 
ATOM      8  C   UNL A   1      26.665  28.188  23.705  1.00  0.00     0.039 C 
ATOM      9  C   UNL A   1      28.131  28.096  23.359  1.00  0.00    -0.074 C 
ATOM     10  C   UNL A   1      28.891  29.103  22.890  1.00  0.00    -0.073 C 
ATOM     11  C   UNL A   1      28.684  26.709  23.562  1.00  0.00     0.045 C 
ATOM     12  C   UNL A   1      28.419  30.515  22.656  1.00  0.00     0.039 C 
ATOM     13  C   UNL A   1      30.327  28.870  22.491  1.00  0.00     0.046 C 
ATOM     14  C   UNL A   1      30.216  26.494  23.497  1.00  0.00     0.097 C 
BRANCH  14  15
ATOM     15  C   UNL A   1      30.597  25.618  24.690  1.00  0.00     0.227 C 
ATOM     16  O   UNL A   1      30.125  25.825  25.808  1.00  0.00    -0.275 OA
ATOM     17  N   UNL A   1      31.341  24.467  24.428  1.00  0.00    -0.339 N 
ATOM     18  C   UNL A   1      31.264  23.417  25.458  1.00  0.00     0.141 C 
ATOM     19  C   UNL A   1      32.557  24.486  23.597  1.00  0.00     0.141 C 
ATOM     20  C   UNL A   1      31.743  22.043  24.979  1.00  0.00     0.138 C 
ATOM     21  C   UNL A   1      33.158  23.100  23.251  1.00  0.00     0.138 C 
ATOM     22  N   UNL A   1      33.075  22.197  24.397  1.00  0.00    -0.368 N 
BRANCH  22  23
ATOM     23  C   UNL A   1      34.024  21.226  24.622  1.00  0.00     0.037 A 
ATOM     24  C   UNL A   1      35.359  21.538  24.902  1.00  0.00     0.026 A 
ATOM     25  C   UNL A   1      33.677  19.877  24.478  1.00  0.00     0.039 A 
ATOM     26  C   UNL A   1      36.324  20.535  25.023  1.00  0.00     0.003 A 
ATOM     27  C   UNL A   1      34.638  18.856  24.567  1.00  0.00     0.058 A 
ATOM     28  C   UNL A   1      35.967  19.200  24.848  1.00  0.00     0.013 A 
BRANCH  27  29
ATOM     29  C   UNL A   1      34.266  17.416  24.327  1.00  0.00     0.416 C 
ATOM     30  F   UNL A   1      34.486  17.022  23.042  1.00  0.00    -0.166 F 
ATOM     31  F   UNL A   1      34.992  16.560  25.103  1.00  0.00    -0.166 F 
ATOM     32  F   UNL A   1      32.960  17.130  24.590  1.00  0.00    -0.166 F 
ENDBRANCH  27  29
ENDBRANCH  22  23
ENDBRANCH  14  15
ENDBRANCH   5   7
ENDBRANCH   4   5
ENDBRANCH   3   4
ENDBRANCH   2   3
ENDBRANCH   1   2
BRANCH   1  33
ATOM     33  C   UNL A   1      31.523  32.875  26.612  1.00  0.00     0.202 C 
BRANCH  33  34
ATOM     34  C   UNL A   1      32.827  33.310  27.279  1.00  0.00     0.261 C 
BRANCH  34  35
ATOM     35  O   UNL A   1      32.528  34.185  28.370  1.00  0.00    -0.460 OA
BRANCH  35  36
ATOM     36  C   UNL A   1      33.564  34.928  28.807  1.00  0.00     0.338 C 
ATOM     37  O   UNL A   1      33.575  36.129  29.000  1.00  0.00    -0.246 OA
BRANCH  36  38
ATOM     38  C   UNL A   1      34.651  34.006  29.174  1.00  0.00     0.060 A 
ATOM     39  C   UNL A   1      34.353  32.928  30.017  1.00  0.00     0.016 A 
ATOM     40  C   UNL A   1      35.963  34.259  28.774  1.00  0.00     0.016 A 
ATOM     41  C   UNL A   1      35.385  32.134  30.514  1.00  0.00     0.010 A 
ATOM     42  C   UNL A   1      36.996  33.451  29.265  1.00  0.00     0.010 A 
ATOM     43  C   UNL A   1      36.717  32.414  30.174  1.00  0.00    -0.014 A 
BRANCH  43  44
ATOM     44  C   UNL A   1      37.810  31.720  30.902  1.00  0.00     0.031 A 
ATOM     45  C   UNL A   1      38.584  30.638  30.195  1.00  0.00     0.074 A 
ATOM     46  C   UNL A   1      38.144  32.083  32.152  1.00  0.00     0.049 A 
ATOM     47  N   UNL A   1      39.623  29.956  30.604  1.00  0.00    -0.248 NA
ATOM     48  C   UNL A   1      38.118  30.278  28.849  1.00  0.00     0.031 C 
ATOM     49  C   UNL A   1      37.471  33.116  32.938  1.00  0.00     0.029 A 
ATOM     50  N   UNL A   1      39.137  31.623  32.982  1.00  0.00    -0.354 N 
ATOM     51  C   UNL A   1      39.947  29.096  29.558  1.00  0.00     0.074 A 
ATOM     52  C   UNL A   1      38.955  29.304  28.524  1.00  0.00     0.031 C 
ATOM     53  C   UNL A   1      38.068  33.209  34.138  1.00  0.00     0.029 A 
ATOM     54  C   UNL A   1      39.153  32.232  34.214  1.00  0.00     0.049 A 
ATOM     55  H   UNL A   1      39.777  30.922  32.719  1.00  0.00     0.167 HD
ATOM     56  C   UNL A   1      40.985  28.228  29.460  1.00  0.00     0.034 A 
ATOM     57  C   UNL A   1      39.949  32.022  35.282  1.00  0.00     0.034 A 
ATOM     58  C   UNL A   1      41.946  28.006  30.513  1.00  0.00     0.049 A 
ATOM     59  C   UNL A   1      41.064  31.011  35.178  1.00  0.00     0.074 A 
ATOM     60  C   UNL A   1      43.044  27.163  30.520  1.00  0.00     0.029 A 
ATOM     61  N   UNL A   1      41.915  28.622  31.760  1.00  0.00    -0.354 N 
ATOM     62  N   UNL A   1      41.388  30.239  34.166  1.00  0.00    -0.248 NA
ATOM     63  C   UNL A   1      41.931  30.858  36.354  1.00  0.00     0.031 C 
ATOM     64  C   UNL A   1      43.632  27.217  31.790  1.00  0.00     0.029 A 
ATOM     65  C   UNL A   1      42.949  28.150  32.554  1.00  0.00     0.049 A 
ATOM     66  H   UNL A   1      41.252  29.295  32.039  1.00  0.00     0.167 HD
ATOM     67  C   UNL A   1      42.510  29.523  34.577  1.00  0.00     0.074 A 
ATOM     68  C   UNL A   1      42.815  29.970  35.922  1.00  0.00     0.031 C 
ATOM     69  C   UNL A   1      43.226  28.587  33.904  1.00  0.00     0.034 A 
BRANCH  56  70
ATOM     70  C   UNL A   1      41.090  27.428  28.184  1.00  0.00     0.023 A 
ATOM     71  C   UNL A   1      40.759  26.060  28.141  1.00  0.00     0.031 A 
ATOM     72  C   UNL A   1      41.579  28.021  27.007  1.00  0.00     0.131 A 
ATOM     73  C   UNL A   1      41.000  25.315  26.977  1.00  0.00     0.055 A 
ATOM     74  C   UNL A   1      41.740  27.291  25.826  1.00  0.00     0.041 A 
ATOM     75  F   UNL A   1      41.931  29.316  26.989  1.00  0.00    -0.206 F 
ATOM     76  C   UNL A   1      41.468  25.927  25.811  1.00  0.00     0.022 A 
BRANCH  73  77
ATOM     77  S   UNL A   1      40.842  23.509  27.052  1.00  0.00     0.124 S 
ATOM     78  O   UNL A   1      41.409  23.218  28.367  1.00  0.00    -0.237 OA
ATOM     79  O   UNL A   1      39.404  23.312  26.917  1.00  0.00    -0.237 OA
ATOM     80  O   UNL A   1      41.646  23.047  25.922  1.00  0.00    -0.744 OA
ENDBRANCH  73  77
ENDBRANCH  56  70
BRANCH  57  81
ATOM     81  C   UNL A   1      39.702  32.762  36.552  1.00  0.00     0.023 A 
ATOM     82  C   UNL A   1      38.779  32.302  37.505  1.00  0.00     0.031 A 
ATOM     83  C   UNL A   1      40.379  33.967  36.815  1.00  0.00     0.131 A 
ATOM     84  C   UNL A   1      38.536  33.060  38.663  1.00  0.00     0.055 A 
ATOM     85  C   UNL A   1      40.165  34.694  37.987  1.00  0.00     0.041 A 
ATOM     86  F   UNL A   1      41.272  34.448  35.937  1.00  0.00    -0.206 F 
ATOM     87  C   UNL A   1      39.231  34.246  38.915  1.00  0.00     0.022 A 
BRANCH  84  88
ATOM     88  S   UNL A   1      37.251  32.503  39.817  1.00  0.00     0.124 S 
ATOM     89  O   UNL A   1      36.101  32.350  38.932  1.00  0.00    -0.237 OA
ATOM     90  O   UNL A   1      37.827  31.269  40.340  1.00  0.00    -0.237 OA
ATOM     91  O   UNL A   1      37.158  33.601  40.778  1.00  0.00    -0.744 OA
ENDBRANCH  84  88
ENDBRANCH  57  81
BRANCH  69  92
ATOM     92  C   UNL A   1      44.427  28.005  34.611  1.00  0.00     0.023 A 
ATOM     93  C   UNL A   1      45.697  28.602  34.524  1.00  0.00     0.031 A 
ATOM     94  C   UNL A   1      44.300  26.828  35.370  1.00  0.00     0.131 A 
ATOM     95  C   UNL A   1      46.801  27.991  35.140  1.00  0.00     0.055 A 
ATOM     96  C   UNL A   1      45.391  26.257  36.028  1.00  0.00     0.041 A 
ATOM     97  F   UNL A   1      43.111  26.215  35.487  1.00  0.00    -0.206 F 
ATOM     98  C   UNL A   1      46.652  26.831  35.903  1.00  0.00     0.022 A 
BRANCH  95  99
ATOM     99  S   UNL A   1      48.453  28.686  34.858  1.00  0.00     0.124 S 
ATOM    100  O   UNL A   1      48.180  29.728  33.871  1.00  0.00    -0.237 OA
ATOM    101  O   UNL A   1      48.828  29.151  36.189  1.00  0.00    -0.237 OA
ATOM    102  O   UNL A   1      49.223  27.548  34.359  1.00  0.00    -0.744 OA
ENDBRANCH  95  99
ENDBRANCH  69  92
ENDBRANCH  43  44
ENDBRANCH  36  38
ENDBRANCH  35  36
ENDBRANCH  34  35
ENDBRANCH  33  34
ENDBRANCH   1  33
TORSDOF 20
ENDMDL
MODEL 3
REMARK VINA RESULT:     -12.4      5.425      9.251
REMARK SMILES CC1=C(C)C[C@@H](C(=O)OCCOCCOC(=O)c2ccc(-c3c4nc(c(-c5cc(S(=O)(=O)[O-])ccc5F)c5ccc([nH]5)c(-c5cc(S(=O)(=O)[O-])ccc5F)c5nc(c(-c6cc(S(=O)(=O)[O-])ccc6F)c6ccc3[nH]6)C=C5)C=C4)cc2)[C@@H](C(=O)N2CCN(c3cccc(C(F)(F)F)c3)CC2)C1
REMARK SMILES IDX 12 1 11 2 10 3 9 4 7 5 8 6 6 7 1 8 2 9 3 10 100 11 4 12 5 13
REMARK SMILES IDX 81 14 82 15 83 16 84 17 85 18 99 19 86 20 98 21 87 22 88 23
REMARK SMILES IDX 89 24 97 25 90 26 92 27 91 28 93 29 94 30 95 31 96 32 13 33
REMARK SMILES IDX 14 34 15 35 16 36 17 37 18 38 19 39 80 40 20 41 79 42 21 43
REMARK SMILES IDX 22 44 23 45 73 46 24 47 78 48 72 49 74 50 25 51 77 52 71 53
REMARK SMILES IDX 70 54 26 56 58 57 38 58 57 59 39 60 42 61 56 62 75 63 40 64
REMARK SMILES IDX 41 65 55 67 76 68 43 69 27 70 28 71 36 72 29 73 35 74 37 75
REMARK SMILES IDX 34 76 30 77 31 78 32 79 33 80 59 81 60 82 68 83 61 84 67 85
REMARK SMILES IDX 69 86 66 87 62 88 63 89 64 90 65 91 44 92 45 93 53 94 46 95
REMARK SMILES IDX 52 96 54 97 51 98 47 99 48 100 49 101 50 102
REMARK H PARENT 74 55 42 66
REMARK Flexibility Score: inf
ROOT
ATOM      1  O   UNL A   1      35.437  22.129  26.016  1.00  0.00    -0.374 OA
ENDROOT
BRANCH   1   2
ATOM      2  C   UNL A   1      34.470  21.932  27.046  1.00  0.00     0.202 C 
BRANCH   2   3
ATOM      3  C   UNL A   1      33.528  23.100  27.387  1.00  0.00     0.261 C 
BRANCH   3   4
ATOM      4  O   UNL A   1      32.949  23.832  26.287  1.00  0.00    -0.463 OA
BRANCH   4   5
ATOM      5  C   UNL A   1      31.600  23.852  26.276  1.00  0.00     0.310 C 
ATOM      6  O   UNL A   1      30.905  23.834  27.294  1.00  0.00    -0.252 OA
BRANCH   5   7
ATOM      7  C   UNL A   1      30.928  23.772  24.916  1.00  0.00     0.116 C 
ATOM      8  C   UNL A   1      33.248  25.068  21.348  1.00  0.00     0.039 C 
ATOM      9  C   UNL A   1      32.421  24.464  22.458  1.00  0.00    -0.074 C 
ATOM     10  C   UNL A   1      32.652  23.278  23.051  1.00  0.00    -0.073 C 
ATOM     11  C   UNL A   1      31.247  25.329  22.836  1.00  0.00     0.045 C 
ATOM     12  C   UNL A   1      33.798  22.352  22.733  1.00  0.00     0.039 C 
ATOM     13  C   UNL A   1      31.703  22.733  24.089  1.00  0.00     0.046 C 
ATOM     14  C   UNL A   1      30.444  24.988  24.116  1.00  0.00     0.097 C 
BRANCH  14  15
ATOM     15  C   UNL A   1      30.233  26.298  24.875  1.00  0.00     0.227 C 
ATOM     16  O   UNL A   1      29.101  26.739  25.078  1.00  0.00    -0.275 OA
ATOM     17  N   UNL A   1      31.347  26.869  25.491  1.00  0.00    -0.339 N 
ATOM     18  C   UNL A   1      31.052  27.801  26.593  1.00  0.00     0.141 C 
ATOM     19  C   UNL A   1      32.624  27.068  24.785  1.00  0.00     0.141 C 
ATOM     20  C   UNL A   1      32.253  28.094  27.496  1.00  0.00     0.138 C 
ATOM     21  C   UNL A   1      33.812  27.540  25.661  1.00  0.00     0.138 C 
ATOM     22  N   UNL A   1      33.370  28.516  26.653  1.00  0.00    -0.368 N 
BRANCH  22  23
ATOM     23  C   UNL A   1      34.195  29.529  27.087  1.00  0.00     0.037 A 
ATOM     24  C   UNL A   1      35.526  29.303  27.454  1.00  0.00     0.026 A 
ATOM     25  C   UNL A   1      33.671  30.816  27.262  1.00  0.00     0.039 A 
ATOM     26  C   UNL A   1      36.311  30.326  27.991  1.00  0.00     0.003 A 
ATOM     27  C   UNL A   1      34.435  31.851  27.827  1.00  0.00     0.058 A 
ATOM     28  C   UNL A   1      35.765  31.593  28.185  1.00  0.00     0.013 A 
BRANCH  27  29
ATOM     29  C   UNL A   1      33.834  33.208  28.086  1.00  0.00     0.416 C 
ATOM     30  F   UNL A   1      33.762  33.507  29.414  1.00  0.00    -0.166 F 
ATOM     31  F   UNL A   1      34.565  34.212  27.522  1.00  0.00    -0.166 F 
ATOM     32  F   UNL A   1      32.570  33.356  27.598  1.00  0.00    -0.166 F 
ENDBRANCH  27  29
ENDBRANCH  22  23
ENDBRANCH  14  15
ENDBRANCH   5   7
ENDBRANCH   4   5
ENDBRANCH   3   4
ENDBRANCH   2   3
ENDBRANCH   1   2
BRANCH   1  33
ATOM     33  C   UNL A   1      35.932  20.973  25.340  1.00  0.00     0.202 C 
BRANCH  33  34
ATOM     34  C   UNL A   1      37.425  20.961  25.013  1.00  0.00     0.261 C 
BRANCH  34  35
ATOM     35  O   UNL A   1      38.059  22.062  25.669  1.00  0.00    -0.460 OA
BRANCH  35  36
ATOM     36  C   UNL A   1      39.241  21.778  26.251  1.00  0.00     0.338 C 
ATOM     37  O   UNL A   1      39.867  20.738  26.171  1.00  0.00    -0.246 OA
BRANCH  36  38
ATOM     38  C   UNL A   1      39.738  23.013  26.878  1.00  0.00     0.060 A 
ATOM     39  C   UNL A   1      39.240  24.239  26.419  1.00  0.00     0.016 A 
ATOM     40  C   UNL A   1      40.752  22.967  27.835  1.00  0.00     0.016 A 
ATOM     41  C   UNL A   1      39.807  25.429  26.875  1.00  0.00     0.010 A 
ATOM     42  C   UNL A   1      41.308  24.164  28.301  1.00  0.00     0.010 A 
ATOM     43  C   UNL A   1      40.871  25.398  27.788  1.00  0.00    -0.014 A 
BRANCH  43  44
ATOM     44  C   UNL A   1      41.617  26.652  28.070  1.00  0.00     0.031 A 
ATOM     45  C   UNL A   1      43.023  26.796  27.551  1.00  0.00     0.074 A 
ATOM     46  C   UNL A   1      41.033  27.667  28.730  1.00  0.00     0.049 A 
ATOM     47  N   UNL A   1      43.831  27.823  27.609  1.00  0.00    -0.248 NA
ATOM     48  C   UNL A   1      43.593  25.618  26.881  1.00  0.00     0.031 C 
ATOM     49  C   UNL A   1      39.678  27.647  29.279  1.00  0.00     0.029 A 
ATOM     50  N   UNL A   1      41.508  28.915  29.052  1.00  0.00    -0.354 N 
ATOM     51  C   UNL A   1      44.999  27.423  26.967  1.00  0.00     0.074 A 
ATOM     52  C   UNL A   1      44.813  26.039  26.585  1.00  0.00     0.031 C 
ATOM     53  C   UNL A   1      39.431  28.827  29.873  1.00  0.00     0.029 A 
ATOM     54  C   UNL A   1      40.613  29.679  29.762  1.00  0.00     0.049 A 
ATOM     55  H   UNL A   1      42.404  29.233  28.797  1.00  0.00     0.167 HD
ATOM     56  C   UNL A   1      46.117  28.147  26.705  1.00  0.00     0.034 A 
ATOM     57  C   UNL A   1      40.737  30.922  30.272  1.00  0.00     0.034 A 
ATOM     58  C   UNL A   1      46.302  29.516  27.122  1.00  0.00     0.049 A 
ATOM     59  C   UNL A   1      42.009  31.694  30.021  1.00  0.00     0.074 A 
ATOM     60  C   UNL A   1      47.385  30.350  26.902  1.00  0.00     0.029 A 
ATOM     61  N   UNL A   1      45.385  30.250  27.867  1.00  0.00    -0.354 N 
ATOM     62  N   UNL A   1      43.089  31.320  29.372  1.00  0.00    -0.248 NA
ATOM     63  C   UNL A   1      42.071  33.061  30.554  1.00  0.00     0.031 C 
ATOM     64  C   UNL A   1      47.152  31.559  27.568  1.00  0.00     0.029 A 
ATOM     65  C   UNL A   1      45.892  31.511  28.144  1.00  0.00     0.049 A 
ATOM     66  H   UNL A   1      44.503  29.921  28.156  1.00  0.00     0.167 HD
ATOM     67  C   UNL A   1      43.950  32.414  29.402  1.00  0.00     0.074 A 
ATOM     68  C   UNL A   1      43.255  33.466  30.118  1.00  0.00     0.031 C 
ATOM     69  C   UNL A   1      45.197  32.542  28.881  1.00  0.00     0.034 A 
BRANCH  56  70
ATOM     70  C   UNL A   1      47.233  27.441  25.972  1.00  0.00     0.023 A 
ATOM     71  C   UNL A   1      48.245  26.748  26.661  1.00  0.00     0.031 A 
ATOM     72  C   UNL A   1      47.321  27.507  24.571  1.00  0.00     0.131 A 
ATOM     73  C   UNL A   1      49.341  26.223  25.959  1.00  0.00     0.055 A 
ATOM     74  C   UNL A   1      48.373  26.911  23.869  1.00  0.00     0.041 A 
ATOM     75  F   UNL A   1      46.398  28.171  23.858  1.00  0.00    -0.206 F 
ATOM     76  C   UNL A   1      49.400  26.280  24.565  1.00  0.00     0.022 A 
BRANCH  73  77
ATOM     77  S   UNL A   1      50.762  25.602  26.903  1.00  0.00     0.124 S 
ATOM     78  O   UNL A   1      50.231  24.357  27.452  1.00  0.00    -0.237 OA
ATOM     79  O   UNL A   1      51.786  25.464  25.874  1.00  0.00    -0.237 OA
ATOM     80  O   UNL A   1      51.004  26.654  27.889  1.00  0.00    -0.744 OA
ENDBRANCH  73  77
ENDBRANCH  56  70
BRANCH  57  81
ATOM     81  C   UNL A   1      39.639  31.503  31.094  1.00  0.00     0.023 A 
ATOM     82  C   UNL A   1      39.565  31.293  32.480  1.00  0.00     0.031 A 
ATOM     83  C   UNL A   1      38.623  32.265  30.486  1.00  0.00     0.131 A 
ATOM     84  C   UNL A   1      38.482  31.812  33.208  1.00  0.00     0.055 A 
ATOM     85  C   UNL A   1      37.572  32.814  31.221  1.00  0.00     0.041 A 
ATOM     86  F   UNL A   1      38.649  32.496  29.164  1.00  0.00    -0.206 F 
ATOM     87  C   UNL A   1      37.492  32.581  32.589  1.00  0.00     0.022 A 
BRANCH  84  88
ATOM     88  S   UNL A   1      38.351  31.422  34.975  1.00  0.00     0.124 S 
ATOM     89  O   UNL A   1      37.120  32.114  35.343  1.00  0.00    -0.237 OA
ATOM     90  O   UNL A   1      38.288  29.965  34.960  1.00  0.00    -0.237 OA
ATOM     91  O   UNL A   1      39.576  31.984  35.540  1.00  0.00    -0.744 OA
ENDBRANCH  84  88
ENDBRANCH  57  81
BRANCH  69  92
ATOM     92  C   UNL A   1      45.876  33.880  29.050  1.00  0.00     0.023 A 
ATOM     93  C   UNL A   1      45.591  34.965  28.202  1.00  0.00     0.031 A 
ATOM     94  C   UNL A   1      46.831  34.066  30.065  1.00  0.00     0.131 A 
ATOM     95  C   UNL A   1      46.293  36.171  28.350  1.00  0.00     0.055 A 
ATOM     96  C   UNL A   1      47.486  35.287  30.242  1.00  0.00     0.041 A 
ATOM     97  F   UNL A   1      47.143  33.064  30.902  1.00  0.00    -0.206 F 
ATOM     98  C   UNL A   1      47.228  36.343  29.373  1.00  0.00     0.022 A 
BRANCH  95  99
ATOM     99  S   UNL A   1      46.034  37.488  27.129  1.00  0.00     0.124 S 
ATOM    100  O   UNL A   1      47.022  37.154  26.107  1.00  0.00    -0.237 OA
ATOM    101  O   UNL A   1      44.637  37.295  26.753  1.00  0.00    -0.237 OA
ATOM    102  O   UNL A   1      46.309  38.711  27.880  1.00  0.00    -0.744 OA
ENDBRANCH  95  99
ENDBRANCH  69  92
ENDBRANCH  43  44
ENDBRANCH  36  38
ENDBRANCH  35  36
ENDBRANCH  34  35
ENDBRANCH  33  34
ENDBRANCH   1  33
TORSDOF 20
ENDMDL
