MODEL 1
REMARK VINA RESULT:     -11.5      0.000      0.000
REMARK SMILES C[NH+]1CCN(C(=O)[C@H]2[C@H](C(=O)OCCOCCOC(=O)c3ccc(-c4c5nc(c(-c6cc(S(=O)(=O)[O-])ccc6F)c6ccc([nH]6)c(-c6cc(S(=O)(=O)[O-])ccc6F)c6nc(c(-c7cc(S(=O)(=O)[O-])ccc7F)c7ccc4[nH]7)C=C6)C=C5)cc3)[C@@H]3C=C[C@H]2C3)CC1
REMARK SMILES IDX 16 1 15 2 14 3 13 4 12 5 10 6 11 7 9 8 8 9 87 10 84 11 86 12
REMARK SMILES IDX 88 13 85 14 6 15 1 16 2 17 3 18 90 19 4 21 89 22 5 23 7 24
REMARK SMILES IDX 17 25 18 26 19 27 20 28 21 29 22 30 83 31 23 32 82 33 24 34
REMARK SMILES IDX 25 35 26 36 76 37 27 38 81 39 75 40 77 41 28 42 80 43 74 44
REMARK SMILES IDX 73 45 29 47 61 48 41 49 60 50 42 51 45 52 59 53 78 54 43 55
REMARK SMILES IDX 44 56 58 58 79 59 46 60 30 61 31 62 39 63 32 64 38 65 40 66
REMARK SMILES IDX 37 67 33 68 34 69 35 70 36 71 62 72 63 73 71 74 64 75 70 76
REMARK SMILES IDX 72 77 69 78 65 79 66 80 67 81 68 82 47 83 48 84 56 85 49 86
REMARK SMILES IDX 55 87 57 88 54 89 50 90 51 91 52 92 53 93
REMARK H PARENT 2 20 77 46 45 57
REMARK Flexibility Score: inf
ROOT
ATOM      1  C   UNL A   1      31.264  31.322  26.253  1.00  0.00     0.202 C 
ENDROOT
BRANCH   1   2
ATOM      2  O   UNL A   1      31.913  30.102  26.574  1.00  0.00    -0.374 OA
BRANCH   2   3
ATOM      3  C   UNL A   1      32.755  29.559  25.550  1.00  0.00     0.202 C 
BRANCH   3   4
ATOM      4  C   UNL A   1      33.692  28.417  25.980  1.00  0.00     0.261 C 
BRANCH   4   5
ATOM      5  O   UNL A   1      33.788  27.378  24.971  1.00  0.00    -0.463 OA
BRANCH   5   6
ATOM      6  C   UNL A   1      33.474  26.111  25.346  1.00  0.00     0.310 C 
ATOM      7  O   UNL A   1      34.140  25.436  26.124  1.00  0.00    -0.252 OA
BRANCH   6   8
ATOM      8  C   UNL A   1      32.187  25.570  24.729  1.00  0.00     0.119 C 
ATOM      9  C   UNL A   1      31.476  26.400  23.601  1.00  0.00     0.100 C 
ATOM     10  C   UNL A   1      31.391  25.333  22.459  1.00  0.00     0.025 C 
ATOM     11  C   UNL A   1      32.425  24.185  24.078  1.00  0.00     0.027 C 
ATOM     12  C   UNL A   1      32.785  25.017  21.966  1.00  0.00    -0.027 C 
ATOM     13  C   UNL A   1      31.140  24.044  23.262  1.00  0.00     0.017 C 
ATOM     14  C   UNL A   1      33.395  24.308  22.926  1.00  0.00    -0.027 C 
BRANCH   9  15
ATOM     15  C   UNL A   1      30.030  26.897  23.931  1.00  0.00     0.227 C 
ATOM     16  C   UNL A   1      27.912  31.403  21.118  1.00  0.00     0.332 C 
ATOM     17  N   UNL A   1      28.338  30.088  21.578  1.00  0.00    -0.334 N 
ATOM     18  C   UNL A   1      27.581  29.600  22.750  1.00  0.00     0.283 C 
ATOM     19  C   UNL A   1      29.760  30.116  21.935  1.00  0.00     0.283 C 
ATOM     20  H   UNL A   1      28.158  29.450  20.802  1.00  0.00     0.347 HD
ATOM     21  C   UNL A   1      28.043  28.188  23.218  1.00  0.00     0.181 C 
ATOM     22  C   UNL A   1      30.218  28.694  22.223  1.00  0.00     0.181 C 
ATOM     23  N   UNL A   1      29.507  28.002  23.266  1.00  0.00    -0.331 N 
ATOM     24  O   UNL A   1      29.322  26.273  24.727  1.00  0.00    -0.275 OA
ENDBRANCH   9  15
ENDBRANCH   6   8
ENDBRANCH   5   6
ENDBRANCH   4   5
ENDBRANCH   3   4
ENDBRANCH   2   3
ENDBRANCH   1   2
BRANCH   1  25
ATOM     25  C   UNL A   1      31.775  32.603  26.914  1.00  0.00     0.261 C 
BRANCH  25  26
ATOM     26  O   UNL A   1      33.185  32.640  26.893  1.00  0.00    -0.460 OA
BRANCH  26  27
ATOM     27  C   UNL A   1      33.697  33.295  27.955  1.00  0.00     0.338 C 
ATOM     28  O   UNL A   1      33.188  34.168  28.623  1.00  0.00    -0.246 OA
BRANCH  27  29
ATOM     29  C   UNL A   1      34.931  32.587  28.277  1.00  0.00     0.060 A 
ATOM     30  C   UNL A   1      34.850  31.200  28.396  1.00  0.00     0.016 A 
ATOM     31  C   UNL A   1      36.137  33.287  28.409  1.00  0.00     0.016 A 
ATOM     32  C   UNL A   1      35.985  30.496  28.745  1.00  0.00     0.010 A 
ATOM     33  C   UNL A   1      37.275  32.581  28.746  1.00  0.00     0.010 A 
ATOM     34  C   UNL A   1      37.173  31.201  28.974  1.00  0.00    -0.014 A 
BRANCH  34  35
ATOM     35  C   UNL A   1      38.249  30.545  29.723  1.00  0.00     0.031 A 
ATOM     36  C   UNL A   1      38.423  30.952  31.155  1.00  0.00     0.074 A 
ATOM     37  C   UNL A   1      39.017  29.632  29.117  1.00  0.00     0.049 A 
ATOM     38  N   UNL A   1      39.361  30.625  31.997  1.00  0.00    -0.248 NA
ATOM     39  C   UNL A   1      37.411  31.874  31.703  1.00  0.00     0.031 C 
ATOM     40  C   UNL A   1      38.848  29.170  27.740  1.00  0.00     0.029 A 
ATOM     41  N   UNL A   1      40.097  28.942  29.582  1.00  0.00    -0.354 N 
ATOM     42  C   UNL A   1      39.062  31.312  33.168  1.00  0.00     0.074 A 
ATOM     43  C   UNL A   1      37.889  32.114  32.912  1.00  0.00     0.031 C 
ATOM     44  C   UNL A   1      39.807  28.270  27.467  1.00  0.00     0.029 A 
ATOM     45  C   UNL A   1      40.679  28.142  28.632  1.00  0.00     0.049 A 
ATOM     46  H   UNL A   1      40.427  29.012  30.507  1.00  0.00     0.167 HD
ATOM     47  C   UNL A   1      39.713  31.257  34.352  1.00  0.00     0.034 A 
ATOM     48  C   UNL A   1      41.813  27.423  28.705  1.00  0.00     0.034 A 
ATOM     49  C   UNL A   1      40.889  30.450  34.544  1.00  0.00     0.049 A 
ATOM     50  C   UNL A   1      42.576  27.446  30.006  1.00  0.00     0.074 A 
ATOM     51  C   UNL A   1      41.657  30.296  35.680  1.00  0.00     0.029 A 
ATOM     52  N   UNL A   1      41.472  29.663  33.554  1.00  0.00    -0.354 N 
ATOM     53  N   UNL A   1      42.300  28.101  31.113  1.00  0.00    -0.248 NA
ATOM     54  C   UNL A   1      43.793  26.632  30.076  1.00  0.00     0.031 C 
ATOM     55  C   UNL A   1      42.746  29.481  35.356  1.00  0.00     0.029 A 
ATOM     56  C   UNL A   1      42.605  29.045  34.046  1.00  0.00     0.049 A 
ATOM     57  H   UNL A   1      41.127  29.563  32.637  1.00  0.00     0.167 HD
ATOM     58  C   UNL A   1      43.284  27.740  32.027  1.00  0.00     0.074 A 
ATOM     59  C   UNL A   1      44.163  26.815  31.336  1.00  0.00     0.031 C 
ATOM     60  C   UNL A   1      43.445  28.118  33.320  1.00  0.00     0.034 A 
BRANCH  47  61
ATOM     61  C   UNL A   1      39.201  32.129  35.471  1.00  0.00     0.023 A 
ATOM     62  C   UNL A   1      39.608  33.468  35.616  1.00  0.00     0.031 A 
ATOM     63  C   UNL A   1      38.335  31.599  36.444  1.00  0.00     0.131 A 
ATOM     64  C   UNL A   1      39.217  34.201  36.746  1.00  0.00     0.055 A 
ATOM     65  C   UNL A   1      37.877  32.363  37.518  1.00  0.00     0.041 A 
ATOM     66  F   UNL A   1      37.939  30.317  36.381  1.00  0.00    -0.206 F 
ATOM     67  C   UNL A   1      38.332  33.668  37.684  1.00  0.00     0.022 A 
BRANCH  64  68
ATOM     68  S   UNL A   1      40.016  35.800  37.059  1.00  0.00     0.124 S 
ATOM     69  O   UNL A   1      39.666  36.545  35.852  1.00  0.00    -0.237 OA
ATOM     70  O   UNL A   1      39.372  36.240  38.291  1.00  0.00    -0.237 OA
ATOM     71  O   UNL A   1      41.432  35.458  37.181  1.00  0.00    -0.744 OA
ENDBRANCH  64  68
ENDBRANCH  47  61
BRANCH  48  72
ATOM     72  C   UNL A   1      42.287  26.651  27.527  1.00  0.00     0.023 A 
ATOM     73  C   UNL A   1      41.950  25.299  27.372  1.00  0.00     0.031 A 
ATOM     74  C   UNL A   1      43.098  27.246  26.542  1.00  0.00     0.131 A 
ATOM     75  C   UNL A   1      42.461  24.571  26.288  1.00  0.00     0.055 A 
ATOM     76  C   UNL A   1      43.555  26.533  25.432  1.00  0.00     0.041 A 
ATOM     77  F   UNL A   1      43.445  28.540  26.635  1.00  0.00    -0.206 F 
ATOM     78  C   UNL A   1      43.248  25.181  25.309  1.00  0.00     0.022 A 
BRANCH  75  79
ATOM     79  S   UNL A   1      42.160  22.785  26.233  1.00  0.00     0.124 S 
ATOM     80  O   UNL A   1      42.695  22.436  24.922  1.00  0.00    -0.237 OA
ATOM     81  O   UNL A   1      42.921  22.315  27.386  1.00  0.00    -0.237 OA
ATOM     82  O   UNL A   1      40.708  22.682  26.363  1.00  0.00    -0.744 OA
ENDBRANCH  75  79
ENDBRANCH  48  72
BRANCH  60  83
ATOM     83  C   UNL A   1      44.561  27.470  34.095  1.00  0.00     0.023 A 
ATOM     84  C   UNL A   1      44.367  26.295  34.838  1.00  0.00     0.031 A 
ATOM     85  C   UNL A   1      45.855  28.019  34.034  1.00  0.00     0.131 A 
ATOM     86  C   UNL A   1      45.451  25.721  35.518  1.00  0.00     0.055 A 
ATOM     87  C   UNL A   1      46.939  27.408  34.659  1.00  0.00     0.041 A 
ATOM     88  F   UNL A   1      46.088  29.143  33.336  1.00  0.00    -0.206 F 
ATOM     89  C   UNL A   1      46.739  26.255  35.413  1.00  0.00     0.022 A 
BRANCH  86  90
ATOM     90  S   UNL A   1      45.146  24.296  36.594  1.00  0.00     0.124 S 
ATOM     91  O   UNL A   1      46.502  23.899  36.962  1.00  0.00    -0.237 OA
ATOM     92  O   UNL A   1      44.340  24.876  37.664  1.00  0.00    -0.237 OA
ATOM     93  O   UNL A   1      44.438  23.357  35.726  1.00  0.00    -0.744 OA
ENDBRANCH  86  90
ENDBRANCH  60  83
ENDBRANCH  34  35
ENDBRANCH  27  29
ENDBRANCH  26  27
ENDBRANCH  25  26
ENDBRANCH   1  25
TORSDOF 18
ENDMDL
MODEL 2
REMARK VINA RESULT:     -11.4      4.754      7.570
REMARK SMILES C[NH+]1CCN(C(=O)[C@H]2[C@H](C(=O)OCCOCCOC(=O)c3ccc(-c4c5nc(c(-c6cc(S(=O)(=O)[O-])ccc6F)c6ccc([nH]6)c(-c6cc(S(=O)(=O)[O-])ccc6F)c6nc(c(-c7cc(S(=O)(=O)[O-])ccc7F)c7ccc4[nH]7)C=C6)C=C5)cc3)[C@@H]3C=C[C@H]2C3)CC1
REMARK SMILES IDX 16 1 15 2 14 3 13 4 12 5 10 6 11 7 9 8 8 9 87 10 84 11 86 12
REMARK SMILES IDX 88 13 85 14 6 15 1 16 2 17 3 18 90 19 4 21 89 22 5 23 7 24
REMARK SMILES IDX 17 25 18 26 19 27 20 28 21 29 22 30 83 31 23 32 82 33 24 34
REMARK SMILES IDX 25 35 26 36 76 37 27 38 81 39 75 40 77 41 28 42 80 43 74 44
REMARK SMILES IDX 73 45 29 47 61 48 41 49 60 50 42 51 45 52 59 53 78 54 43 55
REMARK SMILES IDX 44 56 58 58 79 59 46 60 30 61 31 62 39 63 32 64 38 65 40 66
REMARK SMILES IDX 37 67 33 68 34 69 35 70 36 71 62 72 63 73 71 74 64 75 70 76
REMARK SMILES IDX 72 77 69 78 65 79 66 80 67 81 68 82 47 83 48 84 56 85 49 86
REMARK SMILES IDX 55 87 57 88 54 89 50 90 51 91 52 92 53 93
REMARK H PARENT 2 20 77 46 45 57
REMARK Flexibility Score: inf
ROOT
ATOM      1  C   UNL A   1      36.206  20.329  24.980  1.00  0.00     0.202 C 
ENDROOT
BRANCH   1   2
ATOM      2  O   UNL A   1      35.577  21.598  24.888  1.00  0.00    -0.374 OA
BRANCH   2   3
ATOM      3  C   UNL A   1      34.767  21.971  26.010  1.00  0.00     0.202 C 
BRANCH   3   4
ATOM      4  C   UNL A   1      34.850  23.444  26.444  1.00  0.00     0.261 C 
BRANCH   4   5
ATOM      5  O   UNL A   1      33.538  24.042  26.605  1.00  0.00    -0.463 OA
BRANCH   5   6
ATOM      6  C   UNL A   1      33.202  25.052  25.762  1.00  0.00     0.310 C 
ATOM      7  O   UNL A   1      33.851  26.085  25.629  1.00  0.00    -0.252 OA
BRANCH   6   8
ATOM      8  C   UNL A   1      31.934  24.804  24.952  1.00  0.00     0.119 C 
ATOM      9  C   UNL A   1      31.440  25.910  23.952  1.00  0.00     0.100 C 
ATOM     10  C   UNL A   1      31.355  25.088  22.622  1.00  0.00     0.025 C 
ATOM     11  C   UNL A   1      32.081  23.542  24.066  1.00  0.00     0.027 C 
ATOM     12  C   UNL A   1      32.748  24.690  22.191  1.00  0.00    -0.027 C 
ATOM     13  C   UNL A   1      30.880  23.718  23.138  1.00  0.00     0.017 C 
ATOM     14  C   UNL A   1      33.172  23.745  23.041  1.00  0.00    -0.027 C 
BRANCH   9  15
ATOM     15  C   UNL A   1      30.033  26.521  24.255  1.00  0.00     0.227 C 
ATOM     16  C   UNL A   1      28.248  31.051  21.254  1.00  0.00     0.332 C 
ATOM     17  N   UNL A   1      28.578  29.728  21.768  1.00  0.00    -0.334 N 
ATOM     18  C   UNL A   1      27.786  29.343  22.955  1.00  0.00     0.283 C 
ATOM     19  C   UNL A   1      29.998  29.669  22.131  1.00  0.00     0.283 C 
ATOM     20  H   UNL A   1      28.355  29.075  21.018  1.00  0.00     0.347 HD
ATOM     21  C   UNL A   1      28.145  27.921  23.481  1.00  0.00     0.181 C 
ATOM     22  C   UNL A   1      30.352  28.231  22.477  1.00  0.00     0.181 C 
ATOM     23  N   UNL A   1      29.592  27.634  23.543  1.00  0.00    -0.331 N 
ATOM     24  O   UNL A   1      29.280  25.982  25.071  1.00  0.00    -0.275 OA
ENDBRANCH   9  15
ENDBRANCH   6   8
ENDBRANCH   5   6
ENDBRANCH   4   5
ENDBRANCH   3   4
ENDBRANCH   2   3
ENDBRANCH   1   2
BRANCH   1  25
ATOM     25  C   UNL A   1      37.735  20.281  24.953  1.00  0.00     0.261 C 
BRANCH  25  26
ATOM     26  O   UNL A   1      38.275  21.387  25.643  1.00  0.00    -0.460 OA
BRANCH  26  27
ATOM     27  C   UNL A   1      39.488  21.121  26.168  1.00  0.00     0.338 C 
ATOM     28  O   UNL A   1      40.157  20.117  26.056  1.00  0.00    -0.246 OA
BRANCH  27  29
ATOM     29  C   UNL A   1      39.938  22.385  26.741  1.00  0.00     0.060 A 
ATOM     30  C   UNL A   1      39.391  23.551  26.204  1.00  0.00     0.016 A 
ATOM     31  C   UNL A   1      40.842  22.398  27.809  1.00  0.00     0.016 A 
ATOM     32  C   UNL A   1      39.823  24.769  26.685  1.00  0.00     0.010 A 
ATOM     33  C   UNL A   1      41.266  23.617  28.299  1.00  0.00     0.010 A 
ATOM     34  C   UNL A   1      40.801  24.792  27.688  1.00  0.00    -0.014 A 
BRANCH  34  35
ATOM     35  C   UNL A   1      41.551  26.030  27.914  1.00  0.00     0.031 A 
ATOM     36  C   UNL A   1      40.863  27.106  28.697  1.00  0.00     0.074 A 
ATOM     37  C   UNL A   1      42.791  26.153  27.425  1.00  0.00     0.049 A 
ATOM     38  N   UNL A   1      41.245  28.329  28.932  1.00  0.00    -0.248 NA
ATOM     39  C   UNL A   1      39.551  26.760  29.274  1.00  0.00     0.031 C 
ATOM     40  C   UNL A   1      43.518  25.110  26.701  1.00  0.00     0.029 A 
ATOM     41  N   UNL A   1      43.648  27.212  27.455  1.00  0.00    -0.354 N 
ATOM     42  C   UNL A   1      40.215  28.902  29.670  1.00  0.00     0.074 A 
ATOM     43  C   UNL A   1      39.171  27.913  29.796  1.00  0.00     0.031 C 
ATOM     44  C   UNL A   1      44.721  25.591  26.346  1.00  0.00     0.029 A 
ATOM     45  C   UNL A   1      44.815  26.985  26.771  1.00  0.00     0.049 A 
ATOM     46  H   UNL A   1      43.450  28.056  27.922  1.00  0.00     0.167 HD
ATOM     47  C   UNL A   1      40.166  30.145  30.200  1.00  0.00     0.034 A 
ATOM     48  C   UNL A   1      45.820  27.836  26.498  1.00  0.00     0.034 A 
ATOM     49  C   UNL A   1      41.234  31.095  30.027  1.00  0.00     0.049 A 
ATOM     50  C   UNL A   1      45.706  29.247  27.020  1.00  0.00     0.074 A 
ATOM     51  C   UNL A   1      41.326  32.388  30.499  1.00  0.00     0.029 A 
ATOM     52  N   UNL A   1      42.399  30.844  29.307  1.00  0.00    -0.354 N 
ATOM     53  N   UNL A   1      44.730  29.795  27.711  1.00  0.00    -0.248 NA
ATOM     54  C   UNL A   1      46.825  30.151  26.739  1.00  0.00     0.031 C 
ATOM     55  C   UNL A   1      42.507  32.945  30.000  1.00  0.00     0.029 A 
ATOM     56  C   UNL A   1      43.202  31.969  29.299  1.00  0.00     0.049 A 
ATOM     57  H   UNL A   1      42.618  29.991  28.867  1.00  0.00     0.167 HD
ATOM     58  C   UNL A   1      45.140  31.094  27.988  1.00  0.00     0.074 A 
ATOM     59  C   UNL A   1      46.448  31.248  27.381  1.00  0.00     0.031 C 
ATOM     60  C   UNL A   1      44.508  32.070  28.688  1.00  0.00     0.034 A 
BRANCH  47  61
ATOM     61  C   UNL A   1      38.913  30.539  30.941  1.00  0.00     0.023 A 
ATOM     62  C   UNL A   1      37.831  31.162  30.292  1.00  0.00     0.031 A 
ATOM     63  C   UNL A   1      38.818  30.341  32.329  1.00  0.00     0.131 A 
ATOM     64  C   UNL A   1      36.744  31.637  31.040  1.00  0.00     0.055 A 
ATOM     65  C   UNL A   1      37.692  30.735  33.055  1.00  0.00     0.041 A 
ATOM     66  F   UNL A   1      39.832  29.785  33.012  1.00  0.00    -0.206 F 
ATOM     67  C   UNL A   1      36.653  31.402  32.413  1.00  0.00     0.022 A 
BRANCH  64  68
ATOM     68  S   UNL A   1      35.533  32.710  30.220  1.00  0.00     0.124 S 
ATOM     69  O   UNL A   1      36.396  33.724  29.620  1.00  0.00    -0.237 OA
ATOM     70  O   UNL A   1      34.878  31.797  29.291  1.00  0.00    -0.237 OA
ATOM     71  O   UNL A   1      34.697  33.187  31.321  1.00  0.00    -0.744 OA
ENDBRANCH  64  68
ENDBRANCH  47  61
BRANCH  48  72
ATOM     72  C   UNL A   1      46.986  27.385  25.694  1.00  0.00     0.023 A 
ATOM     73  C   UNL A   1      47.151  27.812  24.370  1.00  0.00     0.031 A 
ATOM     74  C   UNL A   1      47.947  26.508  26.230  1.00  0.00     0.131 A 
ATOM     75  C   UNL A   1      48.222  27.324  23.606  1.00  0.00     0.055 A 
ATOM     76  C   UNL A   1      49.045  26.072  25.486  1.00  0.00     0.041 A 
ATOM     77  F   UNL A   1      47.843  26.073  27.497  1.00  0.00    -0.206 F 
ATOM     78  C   UNL A   1      49.179  26.470  24.159  1.00  0.00     0.022 A 
BRANCH  75  79
ATOM     79  S   UNL A   1      48.288  27.749  21.846  1.00  0.00     0.124 S 
ATOM     80  O   UNL A   1      49.414  28.676  21.808  1.00  0.00    -0.237 OA
ATOM     81  O   UNL A   1      48.506  26.445  21.229  1.00  0.00    -0.237 OA
ATOM     82  O   UNL A   1      46.978  28.346  21.593  1.00  0.00    -0.744 OA
ENDBRANCH  75  79
ENDBRANCH  48  72
BRANCH  60  83
ATOM     83  C   UNL A   1      45.259  33.356  28.909  1.00  0.00     0.023 A 
ATOM     84  C   UNL A   1      45.112  34.461  28.055  1.00  0.00     0.031 A 
ATOM     85  C   UNL A   1      46.093  33.485  30.034  1.00  0.00     0.131 A 
ATOM     86  C   UNL A   1      45.817  35.643  28.327  1.00  0.00     0.055 A 
ATOM     87  C   UNL A   1      46.739  34.682  30.333  1.00  0.00     0.041 A 
ATOM     88  F   UNL A   1      46.265  32.455  30.878  1.00  0.00    -0.206 F 
ATOM     89  C   UNL A   1      46.609  35.768  29.472  1.00  0.00     0.022 A 
BRANCH  86  90
ATOM     90  S   UNL A   1      45.733  37.000  27.129  1.00  0.00     0.124 S 
ATOM     91  O   UNL A   1      46.317  38.105  27.883  1.00  0.00    -0.237 OA
ATOM     92  O   UNL A   1      46.534  36.490  26.021  1.00  0.00    -0.237 OA
ATOM     93  O   UNL A   1      44.303  37.124  26.853  1.00  0.00    -0.744 OA
ENDBRANCH  86  90
ENDBRANCH  60  83
ENDBRANCH  34  35
ENDBRANCH  27  29
ENDBRANCH  26  27
ENDBRANCH  25  26
ENDBRANCH   1  25
TORSDOF 18
ENDMDL
MODEL 3
REMARK VINA RESULT:     -11.4      5.233      8.518
REMARK SMILES C[NH+]1CCN(C(=O)[C@H]2[C@H](C(=O)OCCOCCOC(=O)c3ccc(-c4c5nc(c(-c6cc(S(=O)(=O)[O-])ccc6F)c6ccc([nH]6)c(-c6cc(S(=O)(=O)[O-])ccc6F)c6nc(c(-c7cc(S(=O)(=O)[O-])ccc7F)c7ccc4[nH]7)C=C6)C=C5)cc3)[C@@H]3C=C[C@H]2C3)CC1
REMARK SMILES IDX 16 1 15 2 14 3 13 4 12 5 10 6 11 7 9 8 8 9 87 10 84 11 86 12
REMARK SMILES IDX 88 13 85 14 6 15 1 16 2 17 3 18 90 19 4 21 89 22 5 23 7 24
REMARK SMILES IDX 17 25 18 26 19 27 20 28 21 29 22 30 83 31 23 32 82 33 24 34
REMARK SMILES IDX 25 35 26 36 76 37 27 38 81 39 75 40 77 41 28 42 80 43 74 44
REMARK SMILES IDX 73 45 29 47 61 48 41 49 60 50 42 51 45 52 59 53 78 54 43 55
REMARK SMILES IDX 44 56 58 58 79 59 46 60 30 61 31 62 39 63 32 64 38 65 40 66
REMARK SMILES IDX 37 67 33 68 34 69 35 70 36 71 62 72 63 73 71 74 64 75 70 76
REMARK SMILES IDX 72 77 69 78 65 79 66 80 67 81 68 82 47 83 48 84 56 85 49 86
REMARK SMILES IDX 55 87 57 88 54 89 50 90 51 91 52 92 53 93
REMARK H PARENT 2 20 77 46 45 57
REMARK Flexibility Score: inf
ROOT
ATOM      1  C   UNL A   1      37.056  19.938  24.729  1.00  0.00     0.202 C 
ENDROOT
BRANCH   1   2
ATOM      2  O   UNL A   1      36.312  20.997  25.311  1.00  0.00    -0.374 OA
BRANCH   2   3
ATOM      3  C   UNL A   1      35.969  22.073  24.429  1.00  0.00     0.202 C 
BRANCH   3   4
ATOM      4  C   UNL A   1      36.085  23.491  25.014  1.00  0.00     0.261 C 
BRANCH   4   5
ATOM      5  O   UNL A   1      34.883  23.892  25.719  1.00  0.00    -0.463 OA
BRANCH   5   6
ATOM      6  C   UNL A   1      34.107  24.845  25.142  1.00  0.00     0.310 C 
ATOM      7  O   UNL A   1      34.301  26.052  25.250  1.00  0.00    -0.252 OA
BRANCH   6   8
ATOM      8  C   UNL A   1      32.952  24.301  24.307  1.00  0.00     0.119 C 
ATOM      9  C   UNL A   1      32.387  22.872  24.631  1.00  0.00     0.100 C 
ATOM     10  C   UNL A   1      30.871  23.197  24.851  1.00  0.00     0.025 C 
ATOM     11  C   UNL A   1      31.712  25.223  24.411  1.00  0.00     0.027 C 
ATOM     12  C   UNL A   1      30.716  24.029  26.104  1.00  0.00    -0.027 C 
ATOM     13  C   UNL A   1      30.643  24.309  23.812  1.00  0.00     0.017 C 
ATOM     14  C   UNL A   1      31.197  25.250  25.831  1.00  0.00    -0.027 C 
BRANCH   9  15
ATOM     15  C   UNL A   1      32.511  21.816  23.484  1.00  0.00     0.227 C 
ATOM     16  C   UNL A   1      32.738  16.258  24.814  1.00  0.00     0.332 C 
ATOM     17  N   UNL A   1      32.357  17.626  24.487  1.00  0.00    -0.334 N 
ATOM     18  C   UNL A   1      32.661  18.004  23.091  1.00  0.00     0.283 C 
ATOM     19  C   UNL A   1      33.050  18.566  25.374  1.00  0.00     0.283 C 
ATOM     20  H   UNL A   1      31.346  17.670  24.610  1.00  0.00     0.347 HD
ATOM     21  C   UNL A   1      32.236  19.466  22.759  1.00  0.00     0.181 C 
ATOM     22  C   UNL A   1      32.488  19.960  25.140  1.00  0.00     0.181 C 
ATOM     23  N   UNL A   1      32.583  20.460  23.793  1.00  0.00    -0.331 N 
ATOM     24  O   UNL A   1      32.475  22.170  22.302  1.00  0.00    -0.275 OA
ENDBRANCH   9  15
ENDBRANCH   6   8
ENDBRANCH   5   6
ENDBRANCH   4   5
ENDBRANCH   3   4
ENDBRANCH   2   3
ENDBRANCH   1   2
BRANCH   1  25
ATOM     25  C   UNL A   1      38.494  19.725  25.203  1.00  0.00     0.261 C 
BRANCH  25  26
ATOM     26  O   UNL A   1      39.049  20.941  25.655  1.00  0.00    -0.460 OA
BRANCH  26  27
ATOM     27  C   UNL A   1      40.171  20.755  26.380  1.00  0.00     0.338 C 
ATOM     28  O   UNL A   1      40.873  19.770  26.446  1.00  0.00    -0.246 OA
BRANCH  27  29
ATOM     29  C   UNL A   1      40.492  22.069  26.924  1.00  0.00     0.060 A 
ATOM     30  C   UNL A   1      39.950  23.173  26.267  1.00  0.00     0.016 A 
ATOM     31  C   UNL A   1      41.274  22.188  28.080  1.00  0.00     0.016 A 
ATOM     32  C   UNL A   1      40.267  24.438  26.720  1.00  0.00     0.010 A 
ATOM     33  C   UNL A   1      41.581  23.452  28.541  1.00  0.00     0.010 A 
ATOM     34  C   UNL A   1      41.128  24.565  27.818  1.00  0.00    -0.014 A 
BRANCH  34  35
ATOM     35  C   UNL A   1      41.787  25.853  28.050  1.00  0.00     0.031 A 
ATOM     36  C   UNL A   1      40.997  26.897  28.780  1.00  0.00     0.074 A 
ATOM     37  C   UNL A   1      43.037  26.047  27.613  1.00  0.00     0.049 A 
ATOM     38  N   UNL A   1      41.289  28.146  29.006  1.00  0.00    -0.248 NA
ATOM     39  C   UNL A   1      39.685  26.477  29.306  1.00  0.00     0.031 C 
ATOM     40  C   UNL A   1      43.860  25.040  26.944  1.00  0.00     0.029 A 
ATOM     41  N   UNL A   1      43.823  27.160  27.659  1.00  0.00    -0.354 N 
ATOM     42  C   UNL A   1      40.194  28.664  29.686  1.00  0.00     0.074 A 
ATOM     43  C   UNL A   1      39.210  27.613  29.787  1.00  0.00     0.031 C 
ATOM     44  C   UNL A   1      45.045  25.591  26.631  1.00  0.00     0.029 A 
ATOM     45  C   UNL A   1      45.031  26.996  27.031  1.00  0.00     0.049 A 
ATOM     46  H   UNL A   1      43.551  27.997  28.098  1.00  0.00     0.167 HD
ATOM     47  C   UNL A   1      40.042  29.911  30.187  1.00  0.00     0.034 A 
ATOM     48  C   UNL A   1      45.992  27.905  26.784  1.00  0.00     0.034 A 
ATOM     49  C   UNL A   1      41.054  30.925  30.041  1.00  0.00     0.049 A 
ATOM     50  C   UNL A   1      45.765  29.315  27.272  1.00  0.00     0.074 A 
ATOM     51  C   UNL A   1      41.042  32.229  30.490  1.00  0.00     0.029 A 
ATOM     52  N   UNL A   1      42.264  30.737  29.378  1.00  0.00    -0.354 N 
ATOM     53  N   UNL A   1      44.726  29.811  27.907  1.00  0.00    -0.248 NA
ATOM     54  C   UNL A   1      46.836  30.284  27.020  1.00  0.00     0.031 C 
ATOM     55  C   UNL A   1      42.206  32.853  30.031  1.00  0.00     0.029 A 
ATOM     56  C   UNL A   1      42.993  31.911  29.381  1.00  0.00     0.049 A 
ATOM     57  H   UNL A   1      42.556  29.892  28.966  1.00  0.00     0.167 HD
ATOM     58  C   UNL A   1      45.039  31.139  28.174  1.00  0.00     0.074 A 
ATOM     59  C   UNL A   1      46.361  31.366  27.622  1.00  0.00     0.031 C 
ATOM     60  C   UNL A   1      44.316  32.085  28.826  1.00  0.00     0.034 A 
BRANCH  47  61
ATOM     61  C   UNL A   1      38.735  30.237  30.864  1.00  0.00     0.023 A 
ATOM     62  C   UNL A   1      37.687  30.885  30.184  1.00  0.00     0.031 A 
ATOM     63  C   UNL A   1      38.550  29.947  32.227  1.00  0.00     0.131 A 
ATOM     64  C   UNL A   1      36.543  31.294  30.885  1.00  0.00     0.055 A 
ATOM     65  C   UNL A   1      37.370  30.275  32.898  1.00  0.00     0.041 A 
ATOM     66  F   UNL A   1      39.526  29.362  32.940  1.00  0.00    -0.206 F 
ATOM     67  C   UNL A   1      36.364  30.968  32.231  1.00  0.00     0.022 A 
BRANCH  64  68
ATOM     68  S   UNL A   1      35.369  32.401  30.056  1.00  0.00     0.124 S 
ATOM     69  O   UNL A   1      34.356  32.587  31.092  1.00  0.00    -0.237 OA
ATOM     70  O   UNL A   1      36.194  33.566  29.752  1.00  0.00    -0.237 OA
ATOM     71  O   UNL A   1      34.929  31.628  28.896  1.00  0.00    -0.744 OA
ENDBRANCH  64  68
ENDBRANCH  47  61
BRANCH  48  72
ATOM     72  C   UNL A   1      47.219  27.516  26.041  1.00  0.00     0.023 A 
ATOM     73  C   UNL A   1      47.340  27.779  24.670  1.00  0.00     0.031 A 
ATOM     74  C   UNL A   1      48.285  26.861  26.685  1.00  0.00     0.131 A 
ATOM     75  C   UNL A   1      48.478  27.346  23.974  1.00  0.00     0.055 A 
ATOM     76  C   UNL A   1      49.442  26.485  26.000  1.00  0.00     0.041 A 
ATOM     77  F   UNL A   1      48.226  26.590  28.000  1.00  0.00    -0.206 F 
ATOM     78  C   UNL A   1      49.536  26.714  24.631  1.00  0.00     0.022 A 
BRANCH  75  79
ATOM     79  S   UNL A   1      48.507  27.535  22.172  1.00  0.00     0.124 S 
ATOM     80  O   UNL A   1      49.669  28.395  21.984  1.00  0.00    -0.237 OA
ATOM     81  O   UNL A   1      48.649  26.153  21.726  1.00  0.00    -0.237 OA
ATOM     82  O   UNL A   1      47.216  28.154  21.876  1.00  0.00    -0.744 OA
ENDBRANCH  75  79
ENDBRANCH  48  72
BRANCH  60  83
ATOM     83  C   UNL A   1      44.973  33.420  29.052  1.00  0.00     0.023 A 
ATOM     84  C   UNL A   1      44.941  34.440  28.088  1.00  0.00     0.031 A 
ATOM     85  C   UNL A   1      45.592  33.686  30.288  1.00  0.00     0.131 A 
ATOM     86  C   UNL A   1      45.547  35.673  28.366  1.00  0.00     0.055 A 
ATOM     87  C   UNL A   1      46.135  34.934  30.581  1.00  0.00     0.041 A 
ATOM     88  F   UNL A   1      45.648  32.741  31.240  1.00  0.00    -0.206 F 
ATOM     89  C   UNL A   1      46.121  35.935  29.613  1.00  0.00     0.022 A 
BRANCH  86  90
ATOM     90  S   UNL A   1      45.629  36.917  27.051  1.00  0.00     0.124 S 
ATOM     91  O   UNL A   1      46.573  37.883  27.607  1.00  0.00    -0.237 OA
ATOM     92  O   UNL A   1      46.109  36.140  25.913  1.00  0.00    -0.237 OA
ATOM     93  O   UNL A   1      44.251  37.390  26.941  1.00  0.00    -0.744 OA
ENDBRANCH  86  90
ENDBRANCH  60  83
ENDBRANCH  34  35
ENDBRANCH  27  29
ENDBRANCH  26  27
ENDBRANCH  25  26
ENDBRANCH   1  25
TORSDOF 18
ENDMDL
