MODEL 1
REMARK VINA RESULT:     -10.2      0.000      0.000
REMARK SMILES C[C@H](O)[C@@H](NC(=O)c1ccc(Cl)c(S(C)(=O)=O)c1)C(=O)OCCOCCOC(=O)c1ccc(-c2c3nc(c(-c4cc(S(=O)(=O)[O-])ccc4F)c4ccc([nH]4)c(-c4cc(S(=O)(=O)[O-])ccc4F)c4nc(c(-c5cc(S(=O)(=O)[O-])ccc5F)c5ccc2[nH]5)C=C4)C=C3)cc1
REMARK SMILES IDX 24 1 23 2 22 3 21 4 19 5 20 6 4 7 2 8 1 9 3 10 5 12 6 13
REMARK SMILES IDX 7 15 8 16 9 17 18 18 10 19 13 20 11 21 12 22 14 23 15 24
REMARK SMILES IDX 16 25 17 26 25 27 26 28 27 29 28 30 29 31 30 32 31 33 92 34
REMARK SMILES IDX 32 35 91 36 33 37 34 38 35 39 85 40 36 41 90 42 84 43 86 44
REMARK SMILES IDX 37 45 89 46 83 47 82 48 38 50 70 51 50 52 69 53 51 54 54 55
REMARK SMILES IDX 68 56 87 57 52 58 53 59 67 61 88 62 55 63 39 64 40 65 48 66
REMARK SMILES IDX 41 67 47 68 49 69 46 70 42 71 43 72 44 73 45 74 71 75 72 76
REMARK SMILES IDX 80 77 73 78 79 79 81 80 78 81 74 82 75 83 76 84 77 85 56 86
REMARK SMILES IDX 57 87 65 88 58 89 64 90 66 91 63 92 59 93 60 94 61 95 62 96
REMARK H PARENT 3 11 5 14 86 49 54 60
REMARK Flexibility Score: inf
ROOT
ATOM      1  O   UNL A   1      32.262  30.184  26.931  1.00  0.00    -0.374 OA
ENDROOT
BRANCH   1   2
ATOM      2  C   UNL A   1      33.649  29.944  26.776  1.00  0.00     0.202 C 
BRANCH   2   3
ATOM      3  C   UNL A   1      34.132  28.565  26.310  1.00  0.00     0.261 C 
BRANCH   3   4
ATOM      4  O   UNL A   1      33.603  27.966  25.121  1.00  0.00    -0.462 OA
BRANCH   4   5
ATOM      5  C   UNL A   1      32.683  26.996  25.357  1.00  0.00     0.331 C 
ATOM      6  O   UNL A   1      32.576  26.382  26.416  1.00  0.00    -0.250 OA
BRANCH   5   7
ATOM      7  C   UNL A   1      31.870  26.611  24.128  1.00  0.00     0.221 C 
BRANCH   7   8
ATOM      8  C   UNL A   1      30.645  27.517  23.836  1.00  0.00     0.145 C 
ATOM      9  C   UNL A   1      30.553  28.086  22.425  1.00  0.00     0.041 C 
BRANCH   8  10
ATOM     10  O   UNL A   1      30.723  28.625  24.759  1.00  0.00    -0.391 OA
ATOM     11  H   UNL A   1      31.581  28.609  25.212  1.00  0.00     0.211 HD
ENDBRANCH   8  10
ENDBRANCH   7   8
BRANCH   7  12
ATOM     12  N   UNL A   1      32.618  26.398  22.861  1.00  0.00    -0.336 N 
ATOM     13  C   UNL A   1      33.035  25.303  22.156  1.00  0.00     0.252 C 
ATOM     14  H   UNL A   1      32.873  27.244  22.427  1.00  0.00     0.164 HD
ATOM     15  O   UNL A   1      33.369  25.419  20.979  1.00  0.00    -0.269 OA
BRANCH  13  16
ATOM     16  C   UNL A   1      33.249  23.996  22.794  1.00  0.00     0.041 A 
ATOM     17  C   UNL A   1      32.391  22.922  22.577  1.00  0.00     0.015 A 
ATOM     18  C   UNL A   1      34.389  23.829  23.584  1.00  0.00     0.035 A 
ATOM     19  C   UNL A   1      32.636  21.704  23.224  1.00  0.00     0.023 A 
ATOM     20  C   UNL A   1      34.640  22.600  24.229  1.00  0.00     0.086 A 
ATOM     21  C   UNL A   1      33.756  21.532  24.056  1.00  0.00     0.059 A 
ATOM     22  Cl  UNL A   1      33.904  19.992  24.813  1.00  0.00    -0.083 Cl
BRANCH  20  23
ATOM     23  S   UNL A   1      35.973  22.596  25.406  1.00  0.00     0.177 S 
ATOM     24  C   UNL A   1      37.180  21.507  24.699  1.00  0.00     0.164 C 
ATOM     25  O   UNL A   1      36.503  23.949  25.364  1.00  0.00    -0.224 OA
ATOM     26  O   UNL A   1      35.507  22.062  26.663  1.00  0.00    -0.224 OA
ENDBRANCH  20  23
ENDBRANCH  13  16
ENDBRANCH   7  12
ENDBRANCH   5   7
ENDBRANCH   4   5
ENDBRANCH   3   4
ENDBRANCH   2   3
ENDBRANCH   1   2
BRANCH   1  27
ATOM     27  C   UNL A   1      31.721  31.375  26.377  1.00  0.00     0.202 C 
BRANCH  27  28
ATOM     28  C   UNL A   1      31.651  32.631  27.255  1.00  0.00     0.261 C 
BRANCH  28  29
ATOM     29  O   UNL A   1      32.824  33.469  27.157  1.00  0.00    -0.460 OA
BRANCH  29  30
ATOM     30  C   UNL A   1      33.340  33.863  28.353  1.00  0.00     0.338 C 
ATOM     31  O   UNL A   1      32.832  34.644  29.139  1.00  0.00    -0.246 OA
BRANCH  30  32
ATOM     32  C   UNL A   1      34.557  33.097  28.684  1.00  0.00     0.060 A 
ATOM     33  C   UNL A   1      34.440  31.977  29.518  1.00  0.00     0.016 A 
ATOM     34  C   UNL A   1      35.816  33.568  28.309  1.00  0.00     0.016 A 
ATOM     35  C   UNL A   1      35.584  31.342  30.007  1.00  0.00     0.010 A 
ATOM     36  C   UNL A   1      36.961  32.941  28.817  1.00  0.00     0.010 A 
ATOM     37  C   UNL A   1      36.853  31.846  29.695  1.00  0.00    -0.014 A 
BRANCH  37  38
ATOM     38  C   UNL A   1      38.060  31.321  30.390  1.00  0.00     0.031 A 
ATOM     39  C   UNL A   1      38.919  30.304  29.698  1.00  0.00     0.074 A 
ATOM     40  C   UNL A   1      38.401  31.755  31.616  1.00  0.00     0.049 A 
ATOM     41  N   UNL A   1      39.945  29.636  30.157  1.00  0.00    -0.248 NA
ATOM     42  C   UNL A   1      38.560  29.987  28.310  1.00  0.00     0.031 C 
ATOM     43  C   UNL A   1      37.670  32.769  32.360  1.00  0.00     0.029 A 
ATOM     44  N   UNL A   1      39.434  31.409  32.451  1.00  0.00    -0.354 N 
ATOM     45  C   UNL A   1      40.348  28.803  29.120  1.00  0.00     0.074 A 
ATOM     46  C   UNL A   1      39.432  29.033  28.021  1.00  0.00     0.031 C 
ATOM     47  C   UNL A   1      38.290  32.996  33.528  1.00  0.00     0.029 A 
ATOM     48  C   UNL A   1      39.417  32.076  33.655  1.00  0.00     0.049 A 
ATOM     49  H   UNL A   1      40.122  30.747  32.211  1.00  0.00     0.167 HD
ATOM     50  C   UNL A   1      41.385  27.929  29.094  1.00  0.00     0.034 A 
ATOM     51  C   UNL A   1      40.191  31.930  34.750  1.00  0.00     0.034 A 
ATOM     52  C   UNL A   1      42.272  27.703  30.211  1.00  0.00     0.049 A 
ATOM     53  C   UNL A   1      41.262  30.866  34.740  1.00  0.00     0.074 A 
ATOM     54  C   UNL A   1      43.348  26.836  30.296  1.00  0.00     0.029 A 
ATOM     55  N   UNL A   1      42.179  28.337  31.445  1.00  0.00    -0.354 N 
ATOM     56  N   UNL A   1      41.616  30.059  33.766  1.00  0.00    -0.248 NA
ATOM     57  C   UNL A   1      42.020  30.675  35.984  1.00  0.00     0.031 C 
ATOM     58  C   UNL A   1      43.851  26.884  31.601  1.00  0.00     0.029 A 
ATOM     59  C   UNL A   1      43.150  27.847  32.308  1.00  0.00     0.049 A 
ATOM     60  H   UNL A   1      41.522  29.032  31.674  1.00  0.00     0.167 HD
ATOM     61  C   UNL A   1      42.653  29.280  34.274  1.00  0.00     0.074 A 
ATOM     62  C   UNL A   1      42.877  29.726  35.634  1.00  0.00     0.031 C 
ATOM     63  C   UNL A   1      43.355  28.288  33.670  1.00  0.00     0.034 A 
BRANCH  50  64
ATOM     64  C   UNL A   1      41.558  27.105  27.840  1.00  0.00     0.023 A 
ATOM     65  C   UNL A   1      41.187  25.751  27.787  1.00  0.00     0.031 A 
ATOM     66  C   UNL A   1      42.151  27.670  26.697  1.00  0.00     0.131 A 
ATOM     67  C   UNL A   1      41.494  24.985  26.653  1.00  0.00     0.055 A 
ATOM     68  C   UNL A   1      42.370  26.925  25.536  1.00  0.00     0.041 A 
ATOM     69  F   UNL A   1      42.550  28.951  26.694  1.00  0.00    -0.206 F 
ATOM     70  C   UNL A   1      42.058  25.569  25.516  1.00  0.00     0.022 A 
BRANCH  67  71
ATOM     71  S   UNL A   1      41.308  23.183  26.749  1.00  0.00     0.124 S 
ATOM     72  O   UNL A   1      39.932  23.004  26.292  1.00  0.00    -0.237 OA
ATOM     73  O   UNL A   1      42.350  22.710  25.847  1.00  0.00    -0.237 OA
ATOM     74  O   UNL A   1      41.527  22.891  28.165  1.00  0.00    -0.744 OA
ENDBRANCH  67  71
ENDBRANCH  50  64
BRANCH  51  75
ATOM     75  C   UNL A   1      39.949  32.753  35.972  1.00  0.00     0.023 A 
ATOM     76  C   UNL A   1      39.035  32.339  36.955  1.00  0.00     0.031 A 
ATOM     77  C   UNL A   1      40.589  33.993  36.155  1.00  0.00     0.131 A 
ATOM     78  C   UNL A   1      38.760  33.171  38.053  1.00  0.00     0.055 A 
ATOM     79  C   UNL A   1      40.358  34.788  37.279  1.00  0.00     0.041 A 
ATOM     80  F   UNL A   1      41.462  34.449  35.242  1.00  0.00    -0.206 F 
ATOM     81  C   UNL A   1      39.430  34.383  38.230  1.00  0.00     0.022 A 
BRANCH  78  82
ATOM     82  S   UNL A   1      37.447  32.684  39.205  1.00  0.00     0.124 S 
ATOM     83  O   UNL A   1      36.260  32.784  38.363  1.00  0.00    -0.237 OA
ATOM     84  O   UNL A   1      37.859  31.336  39.580  1.00  0.00    -0.237 OA
ATOM     85  O   UNL A   1      37.544  33.680  40.271  1.00  0.00    -0.744 OA
ENDBRANCH  78  82
ENDBRANCH  51  75
BRANCH  63  86
ATOM     86  C   UNL A   1      44.461  27.640  34.468  1.00  0.00     0.023 A 
ATOM     87  C   UNL A   1      44.284  26.405  35.116  1.00  0.00     0.031 A 
ATOM     88  C   UNL A   1      45.716  28.267  34.574  1.00  0.00     0.131 A 
ATOM     89  C   UNL A   1      45.331  25.857  35.875  1.00  0.00     0.055 A 
ATOM     90  C   UNL A   1      46.771  27.688  35.278  1.00  0.00     0.041 A 
ATOM     91  F   UNL A   1      45.940  29.451  33.981  1.00  0.00    -0.206 F 
ATOM     92  C   UNL A   1      46.579  26.481  35.942  1.00  0.00     0.022 A 
BRANCH  89  93
ATOM     93  S   UNL A   1      45.017  24.352  36.838  1.00  0.00     0.124 S 
ATOM     94  O   UNL A   1      46.348  23.757  36.913  1.00  0.00    -0.237 OA
ATOM     95  O   UNL A   1      44.487  24.885  38.090  1.00  0.00    -0.237 OA
ATOM     96  O   UNL A   1      44.054  23.615  36.022  1.00  0.00    -0.744 OA
ENDBRANCH  89  93
ENDBRANCH  63  86
ENDBRANCH  37  38
ENDBRANCH  30  32
ENDBRANCH  29  30
ENDBRANCH  28  29
ENDBRANCH  27  28
ENDBRANCH   1  27
TORSDOF 22
ENDMDL
MODEL 2
REMARK VINA RESULT:      -9.8      1.791      7.684
REMARK SMILES C[C@H](O)[C@@H](NC(=O)c1ccc(Cl)c(S(C)(=O)=O)c1)C(=O)OCCOCCOC(=O)c1ccc(-c2c3nc(c(-c4cc(S(=O)(=O)[O-])ccc4F)c4ccc([nH]4)c(-c4cc(S(=O)(=O)[O-])ccc4F)c4nc(c(-c5cc(S(=O)(=O)[O-])ccc5F)c5ccc2[nH]5)C=C4)C=C3)cc1
REMARK SMILES IDX 24 1 23 2 22 3 21 4 19 5 20 6 4 7 2 8 1 9 3 10 5 12 6 13
REMARK SMILES IDX 7 15 8 16 9 17 18 18 10 19 13 20 11 21 12 22 14 23 15 24
REMARK SMILES IDX 16 25 17 26 25 27 26 28 27 29 28 30 29 31 30 32 31 33 92 34
REMARK SMILES IDX 32 35 91 36 33 37 34 38 35 39 85 40 36 41 90 42 84 43 86 44
REMARK SMILES IDX 37 45 89 46 83 47 82 48 38 50 70 51 50 52 69 53 51 54 54 55
REMARK SMILES IDX 68 56 87 57 52 58 53 59 67 61 88 62 55 63 39 64 40 65 48 66
REMARK SMILES IDX 41 67 47 68 49 69 46 70 42 71 43 72 44 73 45 74 71 75 72 76
REMARK SMILES IDX 80 77 73 78 79 79 81 80 78 81 74 82 75 83 76 84 77 85 56 86
REMARK SMILES IDX 57 87 65 88 58 89 64 90 66 91 63 92 59 93 60 94 61 95 62 96
REMARK H PARENT 3 11 5 14 86 49 54 60
REMARK Flexibility Score: inf
ROOT
ATOM      1  O   UNL A   1      33.947  30.666  26.897  1.00  0.00    -0.374 OA
ENDROOT
BRANCH   1   2
ATOM      2  C   UNL A   1      34.447  29.403  27.295  1.00  0.00     0.202 C 
BRANCH   2   3
ATOM      3  C   UNL A   1      33.934  28.133  26.603  1.00  0.00     0.261 C 
BRANCH   3   4
ATOM      4  O   UNL A   1      33.951  28.018  25.176  1.00  0.00    -0.462 OA
BRANCH   4   5
ATOM      5  C   UNL A   1      32.755  27.667  24.638  1.00  0.00     0.331 C 
ATOM      6  O   UNL A   1      31.801  28.430  24.504  1.00  0.00    -0.250 OA
BRANCH   5   7
ATOM      7  C   UNL A   1      32.630  26.179  24.343  1.00  0.00     0.221 C 
BRANCH   7   8
ATOM      8  C   UNL A   1      31.324  25.511  24.850  1.00  0.00     0.145 C 
ATOM      9  C   UNL A   1      30.190  25.400  23.837  1.00  0.00     0.041 C 
BRANCH   8  10
ATOM     10  O   UNL A   1      30.855  26.314  25.956  1.00  0.00    -0.391 OA
ATOM     11  H   UNL A   1      31.228  25.973  26.784  1.00  0.00     0.211 HD
ENDBRANCH   8  10
ENDBRANCH   7   8
BRANCH   7  12
ATOM     12  N   UNL A   1      32.874  25.743  22.942  1.00  0.00    -0.336 N 
ATOM     13  C   UNL A   1      33.287  24.582  22.349  1.00  0.00     0.252 C 
ATOM     14  H   UNL A   1      32.698  26.457  22.289  1.00  0.00     0.164 HD
ATOM     15  O   UNL A   1      33.107  24.408  21.146  1.00  0.00    -0.269 OA
BRANCH  13  16
ATOM     16  C   UNL A   1      34.084  23.577  23.066  1.00  0.00     0.041 A 
ATOM     17  C   UNL A   1      35.475  23.571  23.018  1.00  0.00     0.015 A 
ATOM     18  C   UNL A   1      33.410  22.651  23.866  1.00  0.00     0.035 A 
ATOM     19  C   UNL A   1      36.183  22.579  23.710  1.00  0.00     0.023 A 
ATOM     20  C   UNL A   1      34.124  21.658  24.568  1.00  0.00     0.086 A 
ATOM     21  C   UNL A   1      35.518  21.615  24.486  1.00  0.00     0.059 A 
ATOM     22  Cl  UNL A   1      36.519  20.437  25.246  1.00  0.00    -0.083 Cl
BRANCH  20  23
ATOM     23  S   UNL A   1      33.142  20.389  25.336  1.00  0.00     0.177 S 
ATOM     24  C   UNL A   1      33.690  18.886  24.572  1.00  0.00     0.164 C 
ATOM     25  O   UNL A   1      33.576  20.378  26.723  1.00  0.00    -0.224 OA
ATOM     26  O   UNL A   1      31.747  20.611  25.037  1.00  0.00    -0.224 OA
ENDBRANCH  20  23
ENDBRANCH  13  16
ENDBRANCH   7  12
ENDBRANCH   5   7
ENDBRANCH   4   5
ENDBRANCH   3   4
ENDBRANCH   2   3
ENDBRANCH   1   2
BRANCH   1  27
ATOM     27  C   UNL A   1      32.566  30.934  27.097  1.00  0.00     0.202 C 
BRANCH  27  28
ATOM     28  C   UNL A   1      32.090  32.392  27.093  1.00  0.00     0.261 C 
BRANCH  28  29
ATOM     29  O   UNL A   1      33.169  33.351  27.058  1.00  0.00    -0.460 OA
BRANCH  29  30
ATOM     30  C   UNL A   1      33.277  34.125  28.172  1.00  0.00     0.338 C 
ATOM     31  O   UNL A   1      32.515  35.013  28.513  1.00  0.00    -0.246 OA
BRANCH  30  32
ATOM     32  C   UNL A   1      34.374  33.656  29.040  1.00  0.00     0.060 A 
ATOM     33  C   UNL A   1      35.690  33.999  28.702  1.00  0.00     0.016 A 
ATOM     34  C   UNL A   1      34.124  32.759  30.078  1.00  0.00     0.016 A 
ATOM     35  C   UNL A   1      36.764  33.421  29.383  1.00  0.00     0.010 A 
ATOM     36  C   UNL A   1      35.203  32.166  30.746  1.00  0.00     0.010 A 
ATOM     37  C   UNL A   1      36.529  32.467  30.381  1.00  0.00    -0.014 A 
BRANCH  37  38
ATOM     38  C   UNL A   1      37.659  31.682  30.949  1.00  0.00     0.031 A 
ATOM     39  C   UNL A   1      38.103  31.951  32.357  1.00  0.00     0.074 A 
ATOM     40  C   UNL A   1      38.275  30.729  30.229  1.00  0.00     0.049 A 
ATOM     41  N   UNL A   1      39.127  31.466  33.010  1.00  0.00    -0.248 NA
ATOM     42  C   UNL A   1      37.291  32.905  33.123  1.00  0.00     0.031 C 
ATOM     43  C   UNL A   1      37.901  30.352  28.874  1.00  0.00     0.029 A 
ATOM     44  N   UNL A   1      39.334  29.905  30.523  1.00  0.00    -0.354 N 
ATOM     45  C   UNL A   1      39.097  32.070  34.261  1.00  0.00     0.074 A 
ATOM     46  C   UNL A   1      37.968  32.979  34.259  1.00  0.00     0.031 C 
ATOM     47  C   UNL A   1      38.689  29.349  28.458  1.00  0.00     0.029 A 
ATOM     48  C   UNL A   1      39.686  29.070  29.487  1.00  0.00     0.049 A 
ATOM     49  H   UNL A   1      39.797  29.912  31.391  1.00  0.00     0.167 HD
ATOM     50  C   UNL A   1      39.938  31.883  35.309  1.00  0.00     0.034 A 
ATOM     51  C   UNL A   1      40.721  28.212  29.365  1.00  0.00     0.034 A 
ATOM     52  C   UNL A   1      41.070  30.986  35.279  1.00  0.00     0.049 A 
ATOM     53  C   UNL A   1      41.712  28.110  30.499  1.00  0.00     0.074 A 
ATOM     54  C   UNL A   1      41.990  30.726  36.281  1.00  0.00     0.029 A 
ATOM     55  N   UNL A   1      41.447  30.213  34.187  1.00  0.00    -0.354 N 
ATOM     56  N   UNL A   1      41.694  28.709  31.668  1.00  0.00    -0.248 NA
ATOM     57  C   UNL A   1      42.874  27.236  30.290  1.00  0.00     0.031 C 
ATOM     58  C   UNL A   1      42.965  29.864  35.769  1.00  0.00     0.029 A 
ATOM     59  C   UNL A   1      42.609  29.511  34.477  1.00  0.00     0.049 A 
ATOM     60  H   UNL A   1      40.961  30.169  33.333  1.00  0.00     0.167 HD
ATOM     61  C   UNL A   1      42.832  28.268  32.340  1.00  0.00     0.074 A 
ATOM     62  C   UNL A   1      43.502  27.339  31.453  1.00  0.00     0.031 C 
ATOM     63  C   UNL A   1      43.279  28.599  33.577  1.00  0.00     0.034 A 
BRANCH  50  64
ATOM     64  C   UNL A   1      39.697  32.723  36.541  1.00  0.00     0.023 A 
ATOM     65  C   UNL A   1      38.885  32.274  37.596  1.00  0.00     0.031 A 
ATOM     66  C   UNL A   1      40.247  34.014  36.638  1.00  0.00     0.131 A 
ATOM     67  C   UNL A   1      38.573  33.139  38.655  1.00  0.00     0.055 A 
ATOM     68  C   UNL A   1      40.006  34.836  37.741  1.00  0.00     0.041 A 
ATOM     69  F   UNL A   1      41.010  34.509  35.651  1.00  0.00    -0.206 F 
ATOM     70  C   UNL A   1      39.149  34.407  38.749  1.00  0.00     0.022 A 
BRANCH  67  71
ATOM     71  S   UNL A   1      37.266  32.649  39.815  1.00  0.00     0.124 S 
ATOM     72  O   UNL A   1      37.255  33.779  40.740  1.00  0.00    -0.237 OA
ATOM     73  O   UNL A   1      36.103  32.523  38.944  1.00  0.00    -0.237 OA
ATOM     74  O   UNL A   1      37.761  31.396  40.380  1.00  0.00    -0.744 OA
ENDBRANCH  67  71
ENDBRANCH  50  64
BRANCH  51  75
ATOM     75  C   UNL A   1      40.923  27.433  28.107  1.00  0.00     0.023 A 
ATOM     76  C   UNL A   1      40.697  26.047  28.070  1.00  0.00     0.031 A 
ATOM     77  C   UNL A   1      41.392  28.052  26.934  1.00  0.00     0.131 A 
ATOM     78  C   UNL A   1      40.977  25.323  26.900  1.00  0.00     0.055 A 
ATOM     79  C   UNL A   1      41.610  27.336  25.755  1.00  0.00     0.041 A 
ATOM     80  F   UNL A   1      41.640  29.371  26.912  1.00  0.00    -0.206 F 
ATOM     81  C   UNL A   1      41.413  25.960  25.737  1.00  0.00     0.022 A 
BRANCH  78  82
ATOM     82  S   UNL A   1      40.843  23.514  26.945  1.00  0.00     0.124 S 
ATOM     83  O   UNL A   1      41.749  23.122  25.871  1.00  0.00    -0.237 OA
ATOM     84  O   UNL A   1      41.285  23.213  28.302  1.00  0.00    -0.237 OA
ATOM     85  O   UNL A   1      39.425  23.272  26.688  1.00  0.00    -0.744 OA
ENDBRANCH  78  82
ENDBRANCH  51  75
BRANCH  63  86
ATOM     86  C   UNL A   1      44.540  27.922  34.060  1.00  0.00     0.023 A 
ATOM     87  C   UNL A   1      45.809  28.502  33.882  1.00  0.00     0.031 A 
ATOM     88  C   UNL A   1      44.467  26.681  34.717  1.00  0.00     0.131 A 
ATOM     89  C   UNL A   1      46.956  27.819  34.319  1.00  0.00     0.055 A 
ATOM     90  C   UNL A   1      45.605  26.036  35.203  1.00  0.00     0.041 A 
ATOM     91  F   UNL A   1      43.283  26.078  34.909  1.00  0.00    -0.206 F 
ATOM     92  C   UNL A   1      46.860  26.601  34.996  1.00  0.00     0.022 A 
BRANCH  89  93
ATOM     93  S   UNL A   1      48.586  28.508  33.922  1.00  0.00     0.124 S 
ATOM     94  O   UNL A   1      49.135  28.773  35.248  1.00  0.00    -0.237 OA
ATOM     95  O   UNL A   1      49.215  27.421  33.178  1.00  0.00    -0.237 OA
ATOM     96  O   UNL A   1      48.274  29.698  33.131  1.00  0.00    -0.744 OA
ENDBRANCH  89  93
ENDBRANCH  63  86
ENDBRANCH  37  38
ENDBRANCH  30  32
ENDBRANCH  29  30
ENDBRANCH  28  29
ENDBRANCH  27  28
ENDBRANCH   1  27
TORSDOF 22
ENDMDL
MODEL 3
REMARK VINA RESULT:      -9.7      2.025      7.675
REMARK SMILES C[C@H](O)[C@@H](NC(=O)c1ccc(Cl)c(S(C)(=O)=O)c1)C(=O)OCCOCCOC(=O)c1ccc(-c2c3nc(c(-c4cc(S(=O)(=O)[O-])ccc4F)c4ccc([nH]4)c(-c4cc(S(=O)(=O)[O-])ccc4F)c4nc(c(-c5cc(S(=O)(=O)[O-])ccc5F)c5ccc2[nH]5)C=C4)C=C3)cc1
REMARK SMILES IDX 24 1 23 2 22 3 21 4 19 5 20 6 4 7 2 8 1 9 3 10 5 12 6 13
REMARK SMILES IDX 7 15 8 16 9 17 18 18 10 19 13 20 11 21 12 22 14 23 15 24
REMARK SMILES IDX 16 25 17 26 25 27 26 28 27 29 28 30 29 31 30 32 31 33 92 34
REMARK SMILES IDX 32 35 91 36 33 37 34 38 35 39 85 40 36 41 90 42 84 43 86 44
REMARK SMILES IDX 37 45 89 46 83 47 82 48 38 50 70 51 50 52 69 53 51 54 54 55
REMARK SMILES IDX 68 56 87 57 52 58 53 59 67 61 88 62 55 63 39 64 40 65 48 66
REMARK SMILES IDX 41 67 47 68 49 69 46 70 42 71 43 72 44 73 45 74 71 75 72 76
REMARK SMILES IDX 80 77 73 78 79 79 81 80 78 81 74 82 75 83 76 84 77 85 56 86
REMARK SMILES IDX 57 87 65 88 58 89 64 90 66 91 63 92 59 93 60 94 61 95 62 96
REMARK H PARENT 3 11 5 14 86 49 54 60
REMARK Flexibility Score: inf
ROOT
ATOM      1  O   UNL A   1      32.144  30.299  27.024  1.00  0.00    -0.374 OA
ENDROOT
BRANCH   1   2
ATOM      2  C   UNL A   1      33.510  29.967  26.852  1.00  0.00     0.202 C 
BRANCH   2   3
ATOM      3  C   UNL A   1      33.916  28.497  26.677  1.00  0.00     0.261 C 
BRANCH   3   4
ATOM      4  O   UNL A   1      33.566  27.777  25.490  1.00  0.00    -0.462 OA
BRANCH   4   5
ATOM      5  C   UNL A   1      32.437  27.034  25.610  1.00  0.00     0.331 C 
ATOM      6  O   UNL A   1      32.018  26.570  26.667  1.00  0.00    -0.250 OA
BRANCH   5   7
ATOM      7  C   UNL A   1      31.791  26.682  24.276  1.00  0.00     0.221 C 
BRANCH   7   8
ATOM      8  C   UNL A   1      30.583  27.569  23.872  1.00  0.00     0.145 C 
ATOM      9  C   UNL A   1      30.483  27.934  22.395  1.00  0.00     0.041 C 
BRANCH   8  10
ATOM     10  O   UNL A   1      30.704  28.796  24.626  1.00  0.00    -0.391 OA
ATOM     11  H   UNL A   1      31.552  28.805  25.096  1.00  0.00     0.211 HD
ENDBRANCH   8  10
ENDBRANCH   7   8
BRANCH   7  12
ATOM     12  N   UNL A   1      32.693  26.543  23.102  1.00  0.00    -0.336 N 
ATOM     13  C   UNL A   1      33.162  25.493  22.362  1.00  0.00     0.252 C 
ATOM     14  H   UNL A   1      33.032  27.410  22.782  1.00  0.00     0.164 HD
ATOM     15  O   UNL A   1      33.653  25.691  21.254  1.00  0.00    -0.269 OA
BRANCH  13  16
ATOM     16  C   UNL A   1      33.245  24.129  22.904  1.00  0.00     0.041 A 
ATOM     17  C   UNL A   1      32.415  23.107  22.454  1.00  0.00     0.015 A 
ATOM     18  C   UNL A   1      34.237  23.856  23.849  1.00  0.00     0.035 A 
ATOM     19  C   UNL A   1      32.528  21.829  23.018  1.00  0.00     0.023 A 
ATOM     20  C   UNL A   1      34.357  22.567  24.410  1.00  0.00     0.086 A 
ATOM     21  C   UNL A   1      33.494  21.548  23.999  1.00  0.00     0.059 A 
ATOM     22  Cl  UNL A   1      33.487  19.943  24.626  1.00  0.00    -0.083 Cl
BRANCH  20  23
ATOM     23  S   UNL A   1      35.480  22.416  25.781  1.00  0.00     0.177 S 
ATOM     24  C   UNL A   1      36.738  21.311  25.198  1.00  0.00     0.164 C 
ATOM     25  O   UNL A   1      36.066  23.738  25.922  1.00  0.00    -0.224 OA
ATOM     26  O   UNL A   1      34.793  21.828  26.905  1.00  0.00    -0.224 OA
ENDBRANCH  20  23
ENDBRANCH  13  16
ENDBRANCH   7  12
ENDBRANCH   5   7
ENDBRANCH   4   5
ENDBRANCH   3   4
ENDBRANCH   2   3
ENDBRANCH   1   2
BRANCH   1  27
ATOM     27  C   UNL A   1      31.658  31.478  26.398  1.00  0.00     0.202 C 
BRANCH  27  28
ATOM     28  C   UNL A   1      31.734  32.805  27.165  1.00  0.00     0.261 C 
BRANCH  28  29
ATOM     29  O   UNL A   1      33.055  33.388  27.178  1.00  0.00    -0.460 OA
BRANCH  29  30
ATOM     30  C   UNL A   1      33.280  34.260  28.198  1.00  0.00     0.338 C 
ATOM     31  O   UNL A   1      32.617  35.248  28.465  1.00  0.00    -0.246 OA
BRANCH  30  32
ATOM     32  C   UNL A   1      34.364  33.782  29.077  1.00  0.00     0.060 A 
ATOM     33  C   UNL A   1      35.684  34.143  28.771  1.00  0.00     0.016 A 
ATOM     34  C   UNL A   1      34.103  32.861  30.092  1.00  0.00     0.016 A 
ATOM     35  C   UNL A   1      36.749  33.559  29.460  1.00  0.00     0.010 A 
ATOM     36  C   UNL A   1      35.174  32.263  30.767  1.00  0.00     0.010 A 
ATOM     37  C   UNL A   1      36.504  32.582  30.433  1.00  0.00    -0.014 A 
BRANCH  37  38
ATOM     38  C   UNL A   1      37.630  31.795  31.007  1.00  0.00     0.031 A 
ATOM     39  C   UNL A   1      38.083  32.078  32.409  1.00  0.00     0.074 A 
ATOM     40  C   UNL A   1      38.234  30.827  30.296  1.00  0.00     0.049 A 
ATOM     41  N   UNL A   1      39.106  31.593  33.063  1.00  0.00    -0.248 NA
ATOM     42  C   UNL A   1      37.283  33.050  33.166  1.00  0.00     0.031 C 
ATOM     43  C   UNL A   1      37.850  30.437  28.948  1.00  0.00     0.029 A 
ATOM     44  N   UNL A   1      39.287  29.999  30.596  1.00  0.00    -0.354 N 
ATOM     45  C   UNL A   1      39.087  32.214  34.307  1.00  0.00     0.074 A 
ATOM     46  C   UNL A   1      37.965  33.132  34.298  1.00  0.00     0.031 C 
ATOM     47  C   UNL A   1      38.627  29.421  28.541  1.00  0.00     0.029 A 
ATOM     48  C   UNL A   1      39.627  29.147  29.569  1.00  0.00     0.049 A 
ATOM     49  H   UNL A   1      39.754  30.013  31.462  1.00  0.00     0.167 HD
ATOM     50  C   UNL A   1      39.931  32.032  35.353  1.00  0.00     0.034 A 
ATOM     51  C   UNL A   1      40.654  28.279  29.453  1.00  0.00     0.034 A 
ATOM     52  C   UNL A   1      41.055  31.126  35.330  1.00  0.00     0.049 A 
ATOM     53  C   UNL A   1      41.649  28.182  30.584  1.00  0.00     0.074 A 
ATOM     54  C   UNL A   1      41.977  30.870  36.330  1.00  0.00     0.029 A 
ATOM     55  N   UNL A   1      41.420  30.335  34.246  1.00  0.00    -0.354 N 
ATOM     56  N   UNL A   1      41.642  28.797  31.745  1.00  0.00    -0.248 NA
ATOM     57  C   UNL A   1      42.803  27.296  30.381  1.00  0.00     0.031 C 
ATOM     58  C   UNL A   1      42.943  29.993  35.825  1.00  0.00     0.029 A 
ATOM     59  C   UNL A   1      42.577  29.627  34.540  1.00  0.00     0.049 A 
ATOM     60  H   UNL A   1      40.929  30.284  33.395  1.00  0.00     0.167 HD
ATOM     61  C   UNL A   1      42.779  28.354  32.417  1.00  0.00     0.074 A 
ATOM     62  C   UNL A   1      43.437  27.408  31.539  1.00  0.00     0.031 C 
ATOM     63  C   UNL A   1      43.235  28.698  33.648  1.00  0.00     0.034 A 
BRANCH  50  64
ATOM     64  C   UNL A   1      39.704  32.890  36.575  1.00  0.00     0.023 A 
ATOM     65  C   UNL A   1      40.443  34.063  36.804  1.00  0.00     0.031 A 
ATOM     66  C   UNL A   1      38.770  32.501  37.552  1.00  0.00     0.131 A 
ATOM     67  C   UNL A   1      40.303  34.753  38.017  1.00  0.00     0.055 A 
ATOM     68  C   UNL A   1      38.568  33.244  38.717  1.00  0.00     0.041 A 
ATOM     69  F   UNL A   1      38.052  31.377  37.403  1.00  0.00    -0.206 F 
ATOM     70  C   UNL A   1      39.351  34.368  38.964  1.00  0.00     0.022 A 
BRANCH  67  71
ATOM     71  S   UNL A   1      41.503  36.054  38.416  1.00  0.00     0.124 S 
ATOM     72  O   UNL A   1      42.292  36.113  37.188  1.00  0.00    -0.237 OA
ATOM     73  O   UNL A   1      40.646  37.203  38.682  1.00  0.00    -0.237 OA
ATOM     74  O   UNL A   1      42.212  35.522  39.578  1.00  0.00    -0.744 OA
ENDBRANCH  67  71
ENDBRANCH  50  64
BRANCH  51  75
ATOM     75  C   UNL A   1      40.843  27.481  28.205  1.00  0.00     0.023 A 
ATOM     76  C   UNL A   1      40.593  26.100  28.183  1.00  0.00     0.031 A 
ATOM     77  C   UNL A   1      41.324  28.078  27.025  1.00  0.00     0.131 A 
ATOM     78  C   UNL A   1      40.860  25.357  27.022  1.00  0.00     0.055 A 
ATOM     79  C   UNL A   1      41.530  27.345  25.854  1.00  0.00     0.041 A 
ATOM     80  F   UNL A   1      41.595  29.393  26.988  1.00  0.00    -0.206 F 
ATOM     81  C   UNL A   1      41.309  25.973  25.852  1.00  0.00     0.022 A 
BRANCH  78  82
ATOM     82  S   UNL A   1      40.695  23.551  27.088  1.00  0.00     0.124 S 
ATOM     83  O   UNL A   1      39.263  23.376  26.875  1.00  0.00    -0.237 OA
ATOM     84  O   UNL A   1      41.565  23.129  25.996  1.00  0.00    -0.237 OA
ATOM     85  O   UNL A   1      41.174  23.215  28.427  1.00  0.00    -0.744 OA
ENDBRANCH  78  82
ENDBRANCH  51  75
BRANCH  63  86
ATOM     86  C   UNL A   1      44.492  28.016  34.134  1.00  0.00     0.023 A 
ATOM     87  C   UNL A   1      45.766  28.580  33.939  1.00  0.00     0.031 A 
ATOM     88  C   UNL A   1      44.411  26.786  34.812  1.00  0.00     0.131 A 
ATOM     89  C   UNL A   1      46.909  27.893  34.379  1.00  0.00     0.055 A 
ATOM     90  C   UNL A   1      45.546  26.138  35.300  1.00  0.00     0.041 A 
ATOM     91  F   UNL A   1      43.222  26.198  35.020  1.00  0.00    -0.206 F 
ATOM     92  C   UNL A   1      46.805  26.686  35.076  1.00  0.00     0.022 A 
BRANCH  89  93
ATOM     93  S   UNL A   1      48.543  28.559  33.961  1.00  0.00     0.124 S 
ATOM     94  O   UNL A   1      48.267  29.287  32.726  1.00  0.00    -0.237 OA
ATOM     95  O   UNL A   1      48.857  29.379  35.127  1.00  0.00    -0.237 OA
ATOM     96  O   UNL A   1      49.372  27.364  33.805  1.00  0.00    -0.744 OA
ENDBRANCH  89  93
ENDBRANCH  63  86
ENDBRANCH  37  38
ENDBRANCH  30  32
ENDBRANCH  29  30
ENDBRANCH  28  29
ENDBRANCH  27  28
ENDBRANCH   1  27
TORSDOF 22
ENDMDL
