MODEL 1
REMARK VINA RESULT:     -10.1      0.000      0.000
REMARK SMILES O=C(OCCOCCOC(=O)c1cc(=O)[nH]c2c(Br)cccc12)c1ccc(-c2c3nc(c(-c4cc(S(=O)(=O)[O-])ccc4F)c4ccc([nH]4)c(-c4cc(S(=O)(=O)[O-])ccc4F)c4nc(c(-c5cc(S(=O)(=O)[O-])ccc5F)c5ccc2[nH]5)C=C4)C=C3)cc1
REMARK SMILES IDX 4 1 3 2 2 3 1 4 24 5 25 6 86 7 26 8 85 9 27 10 28 11 29 12
REMARK SMILES IDX 79 13 30 14 84 15 78 16 80 17 31 18 83 19 77 20 76 21 32 23
REMARK SMILES IDX 64 24 44 25 63 26 45 27 48 28 62 29 81 30 46 31 47 32 61 34
REMARK SMILES IDX 82 35 49 36 33 37 34 38 42 39 35 40 41 41 43 42 40 43 36 44
REMARK SMILES IDX 37 45 38 46 39 47 65 48 66 49 74 50 67 51 73 52 75 53 72 54
REMARK SMILES IDX 68 55 69 56 70 57 71 58 50 59 51 60 59 61 52 62 58 63 60 64
REMARK SMILES IDX 57 65 53 66 54 67 55 68 56 69 5 70 6 71 7 72 8 73 9 74 10 75
REMARK SMILES IDX 11 76 12 77 13 78 23 79 14 80 17 81 22 82 15 83 16 84 18 85
REMARK SMILES IDX 21 86 19 88 20 89
REMARK H PARENT 80 22 48 33 16 87
REMARK Flexibility Score: inf
ROOT
ATOM      1  C   UNL A   1      33.617  33.907  28.232  1.00  0.00     0.261 C 
ENDROOT
BRANCH   1   2
ATOM      2  O   UNL A   1      34.070  32.704  28.863  1.00  0.00    -0.460 OA
BRANCH   2   3
ATOM      3  C   UNL A   1      34.715  31.648  28.318  1.00  0.00     0.338 C 
ATOM      4  O   UNL A   1      34.254  31.198  27.267  1.00  0.00    -0.246 OA
BRANCH   3   5
ATOM      5  C   UNL A   1      35.938  30.971  28.882  1.00  0.00     0.060 A 
ATOM      6  C   UNL A   1      37.176  31.422  28.378  1.00  0.00     0.016 A 
ATOM      7  C   UNL A   1      35.972  29.912  29.794  1.00  0.00     0.016 A 
ATOM      8  C   UNL A   1      38.383  30.817  28.744  1.00  0.00     0.010 A 
ATOM      9  C   UNL A   1      37.168  29.300  30.164  1.00  0.00     0.010 A 
ATOM     10  C   UNL A   1      38.377  29.743  29.634  1.00  0.00    -0.014 A 
BRANCH  10  11
ATOM     11  C   UNL A   1      39.624  29.136  30.133  1.00  0.00     0.031 A 
ATOM     12  C   UNL A   1      40.356  29.730  31.294  1.00  0.00     0.074 A 
ATOM     13  C   UNL A   1      40.139  28.121  29.418  1.00  0.00     0.049 A 
ATOM     14  N   UNL A   1      41.448  29.309  31.872  1.00  0.00    -0.248 NA
ATOM     15  C   UNL A   1      39.804  30.966  31.872  1.00  0.00     0.031 C 
ATOM     16  C   UNL A   1      39.529  27.571  28.205  1.00  0.00     0.029 A 
ATOM     17  N   UNL A   1      41.294  27.405  29.570  1.00  0.00    -0.354 N 
ATOM     18  C   UNL A   1      41.705  30.208  32.900  1.00  0.00     0.074 A 
ATOM     19  C   UNL A   1      40.687  31.234  32.827  1.00  0.00     0.031 C 
ATOM     20  C   UNL A   1      40.326  26.612  27.715  1.00  0.00     0.029 A 
ATOM     21  C   UNL A   1      41.497  26.481  28.574  1.00  0.00     0.049 A 
ATOM     22  H   UNL A   1      41.918  27.538  30.321  1.00  0.00     0.167 HD
ATOM     23  C   UNL A   1      42.692  30.153  33.825  1.00  0.00     0.034 A 
ATOM     24  C   UNL A   1      42.512  25.615  28.384  1.00  0.00     0.034 A 
ATOM     25  C   UNL A   1      43.700  29.120  33.830  1.00  0.00     0.049 A 
ATOM     26  C   UNL A   1      43.578  25.541  29.442  1.00  0.00     0.074 A 
ATOM     27  C   UNL A   1      44.698  28.900  34.761  1.00  0.00     0.029 A 
ATOM     28  N   UNL A   1      43.847  28.146  32.848  1.00  0.00    -0.354 N 
ATOM     29  N   UNL A   1      43.721  26.290  30.513  1.00  0.00    -0.248 NA
ATOM     30  C   UNL A   1      44.594  24.492  29.303  1.00  0.00     0.031 C 
ATOM     31  C   UNL A   1      45.486  27.839  34.309  1.00  0.00     0.029 A 
ATOM     32  C   UNL A   1      44.938  27.344  33.134  1.00  0.00     0.049 A 
ATOM     33  H   UNL A   1      43.261  28.044  32.063  1.00  0.00     0.167 HD
ATOM     34  C   UNL A   1      44.827  25.790  31.188  1.00  0.00     0.074 A 
ATOM     35  C   UNL A   1      45.304  24.660  30.413  1.00  0.00     0.031 C 
ATOM     36  C   UNL A   1      45.395  26.224  32.342  1.00  0.00     0.034 A 
BRANCH  23  37
ATOM     37  C   UNL A   1      42.725  31.183  34.930  1.00  0.00     0.023 A 
ATOM     38  C   UNL A   1      41.647  31.306  35.828  1.00  0.00     0.031 A 
ATOM     39  C   UNL A   1      43.754  32.142  35.000  1.00  0.00     0.131 A 
ATOM     40  C   UNL A   1      41.607  32.379  36.730  1.00  0.00     0.055 A 
ATOM     41  C   UNL A   1      43.729  33.185  35.928  1.00  0.00     0.041 A 
ATOM     42  F   UNL A   1      44.802  32.080  34.162  1.00  0.00    -0.206 F 
ATOM     43  C   UNL A   1      42.646  33.314  36.789  1.00  0.00     0.022 A 
BRANCH  40  44
ATOM     44  S   UNL A   1      40.180  32.645  37.819  1.00  0.00     0.124 S 
ATOM     45  O   UNL A   1      40.758  32.400  39.138  1.00  0.00    -0.237 OA
ATOM     46  O   UNL A   1      39.838  34.037  37.538  1.00  0.00    -0.237 OA
ATOM     47  O   UNL A   1      39.208  31.653  37.373  1.00  0.00    -0.744 OA
ENDBRANCH  40  44
ENDBRANCH  23  37
BRANCH  24  48
ATOM     48  C   UNL A   1      42.445  24.697  27.212  1.00  0.00     0.023 A 
ATOM     49  C   UNL A   1      41.841  23.430  27.322  1.00  0.00     0.031 A 
ATOM     50  C   UNL A   1      43.161  24.990  26.041  1.00  0.00     0.131 A 
ATOM     51  C   UNL A   1      42.034  22.476  26.314  1.00  0.00     0.055 A 
ATOM     52  C   UNL A   1      43.296  24.059  25.009  1.00  0.00     0.041 A 
ATOM     53  F   UNL A   1      43.778  26.174  25.904  1.00  0.00    -0.206 F 
ATOM     54  C   UNL A   1      42.749  22.788  25.153  1.00  0.00     0.022 A 
BRANCH  51  55
ATOM     55  S   UNL A   1      41.517  20.752  26.550  1.00  0.00     0.124 S 
ATOM     56  O   UNL A   1      42.304  20.056  25.537  1.00  0.00    -0.237 OA
ATOM     57  O   UNL A   1      41.914  20.506  27.935  1.00  0.00    -0.237 OA
ATOM     58  O   UNL A   1      40.077  20.788  26.319  1.00  0.00    -0.744 OA
ENDBRANCH  51  55
ENDBRANCH  24  48
BRANCH  36  59
ATOM     59  C   UNL A   1      46.615  25.498  32.851  1.00  0.00     0.023 A 
ATOM     60  C   UNL A   1      46.475  24.480  33.814  1.00  0.00     0.031 A 
ATOM     61  C   UNL A   1      47.909  25.928  32.515  1.00  0.00     0.131 A 
ATOM     62  C   UNL A   1      47.610  23.958  34.443  1.00  0.00     0.055 A 
ATOM     63  C   UNL A   1      49.041  25.370  33.110  1.00  0.00     0.041 A 
ATOM     64  F   UNL A   1      48.090  26.903  31.609  1.00  0.00    -0.206 F 
ATOM     65  C   UNL A   1      48.893  24.393  34.090  1.00  0.00     0.022 A 
BRANCH  62  66
ATOM     66  S   UNL A   1      47.463  22.769  35.804  1.00  0.00     0.124 S 
ATOM     67  O   UNL A   1      46.016  22.581  35.883  1.00  0.00    -0.237 OA
ATOM     68  O   UNL A   1      48.213  21.625  35.294  1.00  0.00    -0.237 OA
ATOM     69  O   UNL A   1      48.063  23.458  36.941  1.00  0.00    -0.744 OA
ENDBRANCH  62  66
ENDBRANCH  36  59
ENDBRANCH  10  11
ENDBRANCH   3   5
ENDBRANCH   2   3
ENDBRANCH   1   2
BRANCH   1  70
ATOM     70  C   UNL A   1      33.648  35.085  29.206  1.00  0.00     0.202 C 
BRANCH  70  71
ATOM     71  O   UNL A   1      32.407  35.291  29.874  1.00  0.00    -0.374 OA
BRANCH  71  72
ATOM     72  C   UNL A   1      32.488  35.972  31.127  1.00  0.00     0.202 C 
BRANCH  72  73
ATOM     73  C   UNL A   1      33.850  35.709  31.772  1.00  0.00     0.261 C 
BRANCH  73  74
ATOM     74  O   UNL A   1      33.695  34.745  32.829  1.00  0.00    -0.460 OA
BRANCH  74  75
ATOM     75  C   UNL A   1      34.326  33.552  32.659  1.00  0.00     0.339 C 
ATOM     76  O   UNL A   1      33.964  32.628  31.953  1.00  0.00    -0.246 OA
BRANCH  75  77
ATOM     77  C   UNL A   1      35.631  33.603  33.370  1.00  0.00     0.074 A 
ATOM     78  C   UNL A   1      35.584  33.521  34.710  1.00  0.00     0.088 A 
ATOM     79  C   UNL A   1      36.923  33.833  32.687  1.00  0.00     0.014 A 
ATOM     80  C   UNL A   1      36.789  33.713  35.534  1.00  0.00     0.249 A 
ATOM     81  C   UNL A   1      38.050  34.115  33.477  1.00  0.00     0.063 A 
ATOM     82  C   UNL A   1      37.070  33.844  31.293  1.00  0.00     0.011 A 
ATOM     83  O   UNL A   1      36.737  33.621  36.755  1.00  0.00    -0.270 OA
ATOM     84  N   UNL A   1      37.937  34.037  34.875  1.00  0.00    -0.321 N 
ATOM     85  C   UNL A   1      39.271  34.464  32.880  1.00  0.00     0.042 A 
ATOM     86  C   UNL A   1      38.284  34.204  30.698  1.00  0.00     0.002 A 
ATOM     87  H   UNL A   1      38.739  34.228  35.412  1.00  0.00     0.170 HD
ATOM     88  Br  UNL A   1      40.802  34.883  33.923  1.00  0.00    -0.049 Br
ATOM     89  C   UNL A   1      39.383  34.527  31.492  1.00  0.00     0.018 A 
ENDBRANCH  75  77
ENDBRANCH  74  75
ENDBRANCH  73  74
ENDBRANCH  72  73
ENDBRANCH  71  72
ENDBRANCH  70  71
ENDBRANCH   1  70
TORSDOF 17
ENDMDL
MODEL 2
REMARK VINA RESULT:      -9.9      4.916     12.181
REMARK SMILES O=C(OCCOCCOC(=O)c1cc(=O)[nH]c2c(Br)cccc12)c1ccc(-c2c3nc(c(-c4cc(S(=O)(=O)[O-])ccc4F)c4ccc([nH]4)c(-c4cc(S(=O)(=O)[O-])ccc4F)c4nc(c(-c5cc(S(=O)(=O)[O-])ccc5F)c5ccc2[nH]5)C=C4)C=C3)cc1
REMARK SMILES IDX 4 1 3 2 2 3 1 4 24 5 25 6 86 7 26 8 85 9 27 10 28 11 29 12
REMARK SMILES IDX 79 13 30 14 84 15 78 16 80 17 31 18 83 19 77 20 76 21 32 23
REMARK SMILES IDX 64 24 44 25 63 26 45 27 48 28 62 29 81 30 46 31 47 32 61 34
REMARK SMILES IDX 82 35 49 36 33 37 34 38 42 39 35 40 41 41 43 42 40 43 36 44
REMARK SMILES IDX 37 45 38 46 39 47 65 48 66 49 74 50 67 51 73 52 75 53 72 54
REMARK SMILES IDX 68 55 69 56 70 57 71 58 50 59 51 60 59 61 52 62 58 63 60 64
REMARK SMILES IDX 57 65 53 66 54 67 55 68 56 69 5 70 6 71 7 72 8 73 9 74 10 75
REMARK SMILES IDX 11 76 12 77 13 78 23 79 14 80 17 81 22 82 15 83 16 84 18 85
REMARK SMILES IDX 21 86 19 88 20 89
REMARK H PARENT 80 22 48 33 16 87
REMARK Flexibility Score: inf
ROOT
ATOM      1  C   UNL A   1      40.078  20.281  26.070  1.00  0.00     0.261 C 
ENDROOT
BRANCH   1   2
ATOM      2  O   UNL A   1      39.716  21.418  26.862  1.00  0.00    -0.460 OA
BRANCH   2   3
ATOM      3  C   UNL A   1      39.197  22.602  26.464  1.00  0.00     0.338 C 
ATOM      4  O   UNL A   1      38.239  22.555  25.689  1.00  0.00    -0.246 OA
BRANCH   3   5
ATOM      5  C   UNL A   1      39.688  23.966  26.875  1.00  0.00     0.060 A 
ATOM      6  C   UNL A   1      39.409  24.343  28.205  1.00  0.00     0.016 A 
ATOM      7  C   UNL A   1      40.326  24.912  26.068  1.00  0.00     0.016 A 
ATOM      8  C   UNL A   1      39.724  25.617  28.689  1.00  0.00     0.010 A 
ATOM      9  C   UNL A   1      40.643  26.186  26.538  1.00  0.00     0.010 A 
ATOM     10  C   UNL A   1      40.334  26.547  27.847  1.00  0.00    -0.014 A 
BRANCH  10  11
ATOM     11  C   UNL A   1      40.781  27.865  28.332  1.00  0.00     0.031 A 
ATOM     12  C   UNL A   1      42.231  28.148  28.563  1.00  0.00     0.074 A 
ATOM     13  C   UNL A   1      39.826  28.742  28.686  1.00  0.00     0.049 A 
ATOM     14  N   UNL A   1      42.792  29.256  28.962  1.00  0.00    -0.248 NA
ATOM     15  C   UNL A   1      43.173  27.040  28.335  1.00  0.00     0.031 C 
ATOM     16  C   UNL A   1      38.387  28.480  28.593  1.00  0.00     0.029 A 
ATOM     17  N   UNL A   1      39.907  29.995  29.227  1.00  0.00    -0.354 N 
ATOM     18  C   UNL A   1      44.157  28.995  29.009  1.00  0.00     0.074 A 
ATOM     19  C   UNL A   1      44.332  27.603  28.656  1.00  0.00     0.031 C 
ATOM     20  C   UNL A   1      37.721  29.537  29.077  1.00  0.00     0.029 A 
ATOM     21  C   UNL A   1      38.681  30.546  29.513  1.00  0.00     0.049 A 
ATOM     22  H   UNL A   1      40.760  30.458  29.396  1.00  0.00     0.167 HD
ATOM     23  C   UNL A   1      45.159  29.859  29.299  1.00  0.00     0.034 A 
ATOM     24  C   UNL A   1      38.368  31.738  30.055  1.00  0.00     0.034 A 
ATOM     25  C   UNL A   1      44.922  31.232  29.675  1.00  0.00     0.049 A 
ATOM     26  C   UNL A   1      39.491  32.699  30.334  1.00  0.00     0.074 A 
ATOM     27  C   UNL A   1      45.849  32.231  29.906  1.00  0.00     0.029 A 
ATOM     28  N   UNL A   1      43.667  31.793  29.890  1.00  0.00    -0.354 N 
ATOM     29  N   UNL A   1      40.785  32.502  30.212  1.00  0.00    -0.248 NA
ATOM     30  C   UNL A   1      39.129  34.049  30.781  1.00  0.00     0.031 C 
ATOM     31  C   UNL A   1      45.161  33.372  30.324  1.00  0.00     0.029 A 
ATOM     32  C   UNL A   1      43.799  33.114  30.282  1.00  0.00     0.049 A 
ATOM     33  H   UNL A   1      42.811  31.319  29.781  1.00  0.00     0.167 HD
ATOM     34  C   UNL A   1      41.391  33.707  30.543  1.00  0.00     0.074 A 
ATOM     35  C   UNL A   1      40.320  34.634  30.852  1.00  0.00     0.031 C 
ATOM     36  C   UNL A   1      42.712  34.017  30.588  1.00  0.00     0.034 A 
BRANCH  23  37
ATOM     37  C   UNL A   1      46.591  29.391  29.186  1.00  0.00     0.023 A 
ATOM     38  C   UNL A   1      47.227  29.326  27.931  1.00  0.00     0.031 A 
ATOM     39  C   UNL A   1      47.275  28.866  30.299  1.00  0.00     0.131 A 
ATOM     40  C   UNL A   1      48.487  28.722  27.815  1.00  0.00     0.055 A 
ATOM     41  C   UNL A   1      48.548  28.301  30.185  1.00  0.00     0.041 A 
ATOM     42  F   UNL A   1      46.713  28.891  31.519  1.00  0.00    -0.206 F 
ATOM     43  C   UNL A   1      49.153  28.217  28.936  1.00  0.00     0.022 A 
BRANCH  40  44
ATOM     44  S   UNL A   1      49.287  28.507  26.200  1.00  0.00     0.124 S 
ATOM     45  O   UNL A   1      50.008  29.770  26.051  1.00  0.00    -0.237 OA
ATOM     46  O   UNL A   1      50.127  27.335  26.430  1.00  0.00    -0.237 OA
ATOM     47  O   UNL A   1      48.173  28.316  25.278  1.00  0.00    -0.744 OA
ENDBRANCH  40  44
ENDBRANCH  23  37
BRANCH  24  48
ATOM     48  C   UNL A   1      36.927  32.081  30.220  1.00  0.00     0.023 A 
ATOM     49  C   UNL A   1      36.212  32.709  29.181  1.00  0.00     0.031 A 
ATOM     50  C   UNL A   1      36.312  31.976  31.477  1.00  0.00     0.131 A 
ATOM     51  C   UNL A   1      34.959  33.278  29.444  1.00  0.00     0.055 A 
ATOM     52  C   UNL A   1      35.035  32.486  31.717  1.00  0.00     0.041 A 
ATOM     53  F   UNL A   1      36.966  31.412  32.504  1.00  0.00    -0.206 F 
ATOM     54  C   UNL A   1      34.361  33.160  30.703  1.00  0.00     0.022 A 
BRANCH  51  55
ATOM     55  S   UNL A   1      34.140  34.337  28.216  1.00  0.00     0.124 S 
ATOM     56  O   UNL A   1      32.982  33.531  27.843  1.00  0.00    -0.237 OA
ATOM     57  O   UNL A   1      33.849  35.536  28.999  1.00  0.00    -0.237 OA
ATOM     58  O   UNL A   1      35.151  34.509  27.179  1.00  0.00    -0.744 OA
ENDBRANCH  51  55
ENDBRANCH  24  48
BRANCH  36  59
ATOM     59  C   UNL A   1      43.100  35.415  31.000  1.00  0.00     0.023 A 
ATOM     60  C   UNL A   1      43.411  36.376  30.019  1.00  0.00     0.031 A 
ATOM     61  C   UNL A   1      43.326  35.738  32.348  1.00  0.00     0.131 A 
ATOM     62  C   UNL A   1      43.976  37.598  30.398  1.00  0.00     0.055 A 
ATOM     63  C   UNL A   1      43.844  36.977  32.725  1.00  0.00     0.041 A 
ATOM     64  F   UNL A   1      43.053  34.849  33.317  1.00  0.00    -0.206 F 
ATOM     65  C   UNL A   1      44.187  37.907  31.747  1.00  0.00     0.022 A 
BRANCH  62  66
ATOM     66  S   UNL A   1      44.543  38.792  29.156  1.00  0.00     0.124 S 
ATOM     67  O   UNL A   1      43.709  38.450  28.007  1.00  0.00    -0.237 OA
ATOM     68  O   UNL A   1      44.234  40.068  29.795  1.00  0.00    -0.237 OA
ATOM     69  O   UNL A   1      45.963  38.493  29.004  1.00  0.00    -0.744 OA
ENDBRANCH  62  66
ENDBRANCH  36  59
ENDBRANCH  10  11
ENDBRANCH   3   5
ENDBRANCH   2   3
ENDBRANCH   1   2
BRANCH   1  70
ATOM     70  C   UNL A   1      41.504  19.826  26.381  1.00  0.00     0.202 C 
BRANCH  70  71
ATOM     71  O   UNL A   1      42.192  19.322  25.240  1.00  0.00    -0.374 OA
BRANCH  71  72
ATOM     72  C   UNL A   1      43.525  18.866  25.478  1.00  0.00     0.202 C 
BRANCH  72  73
ATOM     73  C   UNL A   1      44.501  19.636  24.587  1.00  0.00     0.261 C 
BRANCH  73  74
ATOM     74  O   UNL A   1      45.075  20.721  25.340  1.00  0.00    -0.460 OA
BRANCH  74  75
ATOM     75  C   UNL A   1      44.575  21.961  25.091  1.00  0.00     0.339 C 
ATOM     76  O   UNL A   1      43.741  22.259  24.255  1.00  0.00    -0.246 OA
BRANCH  75  77
ATOM     77  C   UNL A   1      45.108  22.898  26.116  1.00  0.00     0.074 A 
ATOM     78  C   UNL A   1      46.321  23.422  25.873  1.00  0.00     0.088 A 
ATOM     79  C   UNL A   1      44.419  23.186  27.393  1.00  0.00     0.014 A 
ATOM     80  C   UNL A   1      47.020  24.239  26.880  1.00  0.00     0.249 A 
ATOM     81  C   UNL A   1      45.128  23.880  28.388  1.00  0.00     0.063 A 
ATOM     82  C   UNL A   1      43.119  22.751  27.687  1.00  0.00     0.011 A 
ATOM     83  O   UNL A   1      48.119  24.724  26.641  1.00  0.00    -0.270 OA
ATOM     84  N   UNL A   1      46.403  24.385  28.085  1.00  0.00    -0.321 N 
ATOM     85  C   UNL A   1      44.570  24.070  29.662  1.00  0.00     0.042 A 
ATOM     86  C   UNL A   1      42.568  22.930  28.960  1.00  0.00     0.002 A 
ATOM     87  H   UNL A   1      46.882  24.878  28.792  1.00  0.00     0.170 HD
ATOM     88  Br  UNL A   1      45.519  24.975  31.035  1.00  0.00    -0.049 Br
ATOM     89  C   UNL A   1      43.299  23.579  29.953  1.00  0.00     0.018 A 
ENDBRANCH  75  77
ENDBRANCH  74  75
ENDBRANCH  73  74
ENDBRANCH  72  73
ENDBRANCH  71  72
ENDBRANCH  70  71
ENDBRANCH   1  70
TORSDOF 17
ENDMDL
MODEL 3
REMARK VINA RESULT:      -9.9      1.848      2.136
REMARK SMILES O=C(OCCOCCOC(=O)c1cc(=O)[nH]c2c(Br)cccc12)c1ccc(-c2c3nc(c(-c4cc(S(=O)(=O)[O-])ccc4F)c4ccc([nH]4)c(-c4cc(S(=O)(=O)[O-])ccc4F)c4nc(c(-c5cc(S(=O)(=O)[O-])ccc5F)c5ccc2[nH]5)C=C4)C=C3)cc1
REMARK SMILES IDX 4 1 3 2 2 3 1 4 24 5 25 6 86 7 26 8 85 9 27 10 28 11 29 12
REMARK SMILES IDX 79 13 30 14 84 15 78 16 80 17 31 18 83 19 77 20 76 21 32 23
REMARK SMILES IDX 64 24 44 25 63 26 45 27 48 28 62 29 81 30 46 31 47 32 61 34
REMARK SMILES IDX 82 35 49 36 33 37 34 38 42 39 35 40 41 41 43 42 40 43 36 44
REMARK SMILES IDX 37 45 38 46 39 47 65 48 66 49 74 50 67 51 73 52 75 53 72 54
REMARK SMILES IDX 68 55 69 56 70 57 71 58 50 59 51 60 59 61 52 62 58 63 60 64
REMARK SMILES IDX 57 65 53 66 54 67 55 68 56 69 5 70 6 71 7 72 8 73 9 74 10 75
REMARK SMILES IDX 11 76 12 77 13 78 23 79 14 80 17 81 22 82 15 83 16 84 18 85
REMARK SMILES IDX 21 86 19 88 20 89
REMARK H PARENT 80 22 48 33 16 87
REMARK Flexibility Score: inf
ROOT
ATOM      1  C   UNL A   1      33.678  33.782  28.000  1.00  0.00     0.261 C 
ENDROOT
BRANCH   1   2
ATOM      2  O   UNL A   1      33.978  32.541  28.650  1.00  0.00    -0.460 OA
BRANCH   2   3
ATOM      3  C   UNL A   1      34.626  31.459  28.161  1.00  0.00     0.338 C 
ATOM      4  O   UNL A   1      34.162  30.951  27.137  1.00  0.00    -0.246 OA
BRANCH   3   5
ATOM      5  C   UNL A   1      35.854  30.819  28.755  1.00  0.00     0.060 A 
ATOM      6  C   UNL A   1      37.089  31.281  28.257  1.00  0.00     0.016 A 
ATOM      7  C   UNL A   1      35.894  29.782  29.692  1.00  0.00     0.016 A 
ATOM      8  C   UNL A   1      38.302  30.708  28.653  1.00  0.00     0.010 A 
ATOM      9  C   UNL A   1      37.097  29.201  30.092  1.00  0.00     0.010 A 
ATOM     10  C   UNL A   1      38.305  29.654  29.567  1.00  0.00    -0.014 A 
BRANCH  10  11
ATOM     11  C   UNL A   1      39.555  29.082  30.096  1.00  0.00     0.031 A 
ATOM     12  C   UNL A   1      40.239  29.691  31.279  1.00  0.00     0.074 A 
ATOM     13  C   UNL A   1      40.119  28.087  29.391  1.00  0.00     0.049 A 
ATOM     14  N   UNL A   1      41.328  29.300  31.883  1.00  0.00    -0.248 NA
ATOM     15  C   UNL A   1      39.635  30.908  31.847  1.00  0.00     0.031 C 
ATOM     16  C   UNL A   1      39.558  27.524  28.161  1.00  0.00     0.029 A 
ATOM     17  N   UNL A   1      41.290  27.404  29.571  1.00  0.00    -0.354 N 
ATOM     18  C   UNL A   1      41.530  30.202  32.921  1.00  0.00     0.074 A 
ATOM     19  C   UNL A   1      40.484  31.198  32.826  1.00  0.00     0.031 C 
ATOM     20  C   UNL A   1      40.395  26.592  27.687  1.00  0.00     0.029 A 
ATOM     21  C   UNL A   1      41.547  26.492  28.577  1.00  0.00     0.049 A 
ATOM     22  H   UNL A   1      41.891  27.552  30.338  1.00  0.00     0.167 HD
ATOM     23  C   UNL A   1      42.495  30.172  33.872  1.00  0.00     0.034 A 
ATOM     24  C   UNL A   1      42.592  25.658  28.410  1.00  0.00     0.034 A 
ATOM     25  C   UNL A   1      43.533  29.170  33.899  1.00  0.00     0.049 A 
ATOM     26  C   UNL A   1      43.632  25.610  29.495  1.00  0.00     0.074 A 
ATOM     27  C   UNL A   1      44.512  28.974  34.855  1.00  0.00     0.029 A 
ATOM     28  N   UNL A   1      43.734  28.206  32.917  1.00  0.00    -0.354 N 
ATOM     29  N   UNL A   1      43.725  26.357  30.573  1.00  0.00    -0.248 NA
ATOM     30  C   UNL A   1      44.683  24.592  29.378  1.00  0.00     0.031 C 
ATOM     31  C   UNL A   1      45.342  27.940  34.420  1.00  0.00     0.029 A 
ATOM     32  C   UNL A   1      44.840  27.434  33.229  1.00  0.00     0.049 A 
ATOM     33  H   UNL A   1      43.172  28.090  32.117  1.00  0.00     0.167 HD
ATOM     34  C   UNL A   1      44.827  25.887  31.274  1.00  0.00     0.074 A 
ATOM     35  C   UNL A   1      45.358  24.776  30.507  1.00  0.00     0.031 C 
ATOM     36  C   UNL A   1      45.352  26.333  32.444  1.00  0.00     0.034 A 
BRANCH  23  37
ATOM     37  C   UNL A   1      42.468  31.197  34.981  1.00  0.00     0.023 A 
ATOM     38  C   UNL A   1      43.221  32.383  34.880  1.00  0.00     0.031 A 
ATOM     39  C   UNL A   1      41.818  30.931  36.202  1.00  0.00     0.131 A 
ATOM     40  C   UNL A   1      43.332  33.238  35.986  1.00  0.00     0.055 A 
ATOM     41  C   UNL A   1      41.899  31.806  37.288  1.00  0.00     0.041 A 
ATOM     42  F   UNL A   1      41.095  29.810  36.360  1.00  0.00    -0.206 F 
ATOM     43  C   UNL A   1      42.669  32.959  37.186  1.00  0.00     0.022 A 
BRANCH  40  44
ATOM     44  S   UNL A   1      44.390  34.712  35.939  1.00  0.00     0.124 S 
ATOM     45  O   UNL A   1      45.599  34.235  36.608  1.00  0.00    -0.237 OA
ATOM     46  O   UNL A   1      44.524  34.944  34.503  1.00  0.00    -0.237 OA
ATOM     47  O   UNL A   1      43.628  35.715  36.674  1.00  0.00    -0.744 OA
ENDBRANCH  40  44
ENDBRANCH  23  37
BRANCH  24  48
ATOM     48  C   UNL A   1      42.583  24.744  27.232  1.00  0.00     0.023 A 
ATOM     49  C   UNL A   1      41.950  23.488  27.300  1.00  0.00     0.031 A 
ATOM     50  C   UNL A   1      43.378  25.025  26.110  1.00  0.00     0.131 A 
ATOM     51  C   UNL A   1      42.190  22.533  26.303  1.00  0.00     0.055 A 
ATOM     52  C   UNL A   1      43.561  24.095  25.086  1.00  0.00     0.041 A 
ATOM     53  F   UNL A   1      44.024  26.198  26.017  1.00  0.00    -0.206 F 
ATOM     54  C   UNL A   1      42.983  22.834  25.190  1.00  0.00     0.022 A 
BRANCH  51  55
ATOM     55  S   UNL A   1      41.626  20.818  26.499  1.00  0.00     0.124 S 
ATOM     56  O   UNL A   1      42.040  20.516  27.866  1.00  0.00    -0.237 OA
ATOM     57  O   UNL A   1      40.186  20.948  26.291  1.00  0.00    -0.237 OA
ATOM     58  O   UNL A   1      42.338  20.097  25.449  1.00  0.00    -0.744 OA
ENDBRANCH  51  55
ENDBRANCH  24  48
BRANCH  36  59
ATOM     59  C   UNL A   1      46.579  25.641  32.982  1.00  0.00     0.023 A 
ATOM     60  C   UNL A   1      47.829  25.851  32.368  1.00  0.00     0.031 A 
ATOM     61  C   UNL A   1      46.479  24.655  33.978  1.00  0.00     0.131 A 
ATOM     62  C   UNL A   1      48.920  25.051  32.724  1.00  0.00     0.055 A 
ATOM     63  C   UNL A   1      47.582  23.893  34.363  1.00  0.00     0.041 A 
ATOM     64  F   UNL A   1      45.305  24.414  34.583  1.00  0.00    -0.206 F 
ATOM     65  C   UNL A   1      48.805  24.078  33.724  1.00  0.00     0.022 A 
BRANCH  62  66
ATOM     66  S   UNL A   1      50.499  25.177  31.841  1.00  0.00     0.124 S 
ATOM     67  O   UNL A   1      50.932  23.782  31.798  1.00  0.00    -0.237 OA
ATOM     68  O   UNL A   1      50.089  25.743  30.559  1.00  0.00    -0.237 OA
ATOM     69  O   UNL A   1      51.306  26.051  32.685  1.00  0.00    -0.744 OA
ENDBRANCH  62  66
ENDBRANCH  36  59
ENDBRANCH  10  11
ENDBRANCH   3   5
ENDBRANCH   2   3
ENDBRANCH   1   2
BRANCH   1  70
ATOM     70  C   UNL A   1      33.753  34.949  28.984  1.00  0.00     0.202 C 
BRANCH  70  71
ATOM     71  O   UNL A   1      32.697  34.943  29.941  1.00  0.00    -0.374 OA
BRANCH  71  72
ATOM     72  C   UNL A   1      32.789  35.933  30.966  1.00  0.00     0.202 C 
BRANCH  72  73
ATOM     73  C   UNL A   1      33.930  35.583  31.922  1.00  0.00     0.261 C 
BRANCH  73  74
ATOM     74  O   UNL A   1      33.590  34.387  32.648  1.00  0.00    -0.460 OA
BRANCH  74  75
ATOM     75  C   UNL A   1      34.357  33.291  32.402  1.00  0.00     0.339 C 
ATOM     76  O   UNL A   1      34.116  32.391  31.618  1.00  0.00    -0.246 OA
BRANCH  75  77
ATOM     77  C   UNL A   1      35.636  33.434  33.149  1.00  0.00     0.074 A 
ATOM     78  C   UNL A   1      35.553  33.385  34.489  1.00  0.00     0.088 A 
ATOM     79  C   UNL A   1      36.933  33.716  32.497  1.00  0.00     0.014 A 
ATOM     80  C   UNL A   1      36.721  33.666  35.341  1.00  0.00     0.249 A 
ATOM     81  C   UNL A   1      38.019  34.081  33.310  1.00  0.00     0.063 A 
ATOM     82  C   UNL A   1      37.122  33.698  31.107  1.00  0.00     0.011 A 
ATOM     83  O   UNL A   1      36.637  33.604  36.561  1.00  0.00    -0.270 OA
ATOM     84  N   UNL A   1      37.868  34.035  34.705  1.00  0.00    -0.321 N 
ATOM     85  C   UNL A   1      39.237  34.482  32.738  1.00  0.00     0.042 A 
ATOM     86  C   UNL A   1      38.331  34.108  30.537  1.00  0.00     0.002 A 
ATOM     87  H   UNL A   1      38.643  34.285  35.260  1.00  0.00     0.170 HD
ATOM     88  Br  UNL A   1      40.710  35.012  33.812  1.00  0.00    -0.049 Br
ATOM     89  C   UNL A   1      39.386  34.513  31.352  1.00  0.00     0.018 A 
ENDBRANCH  75  77
ENDBRANCH  74  75
ENDBRANCH  73  74
ENDBRANCH  72  73
ENDBRANCH  71  72
ENDBRANCH  70  71
ENDBRANCH   1  70
TORSDOF 17
ENDMDL
