MODEL 1
REMARK VINA RESULT:     -11.4      0.000      0.000
REMARK SMILES CCCc1cc2c(cc1Cl)C=C(C(=O)OCCOCCOC(=O)c1ccc(-c3c4nc(c(-c5cc(S(=O)(=O)[O-])ccc5F)c5ccc([nH]5)c(-c5cc(S(=O)(=O)[O-])ccc5F)c5nc(c(-c6cc(S(=O)(=O)[O-])ccc6F)c6ccc3[nH]6)C=C5)C=C4)cc1)[C@@H](C(F)(F)F)O2
REMARK SMILES IDX 19 1 18 2 17 3 16 4 15 5 13 6 14 7 12 8 4 9 5 10 9 11 6 12
REMARK SMILES IDX 8 13 10 14 7 15 92 16 11 17 87 18 3 19 2 20 1 21 88 22 89 23
REMARK SMILES IDX 90 24 91 25 20 26 21 27 22 28 23 29 24 30 25 31 86 32 26 33
REMARK SMILES IDX 85 34 27 35 28 36 29 37 79 38 30 39 84 40 78 41 80 42 31 43
REMARK SMILES IDX 83 44 77 45 76 46 32 48 64 49 44 50 63 51 45 52 48 53 62 54
REMARK SMILES IDX 81 55 46 56 47 57 61 59 82 60 49 61 33 62 34 63 42 64 35 65
REMARK SMILES IDX 41 66 43 67 40 68 36 69 37 70 38 71 39 72 65 73 66 74 74 75
REMARK SMILES IDX 67 76 73 77 75 78 72 79 68 80 69 81 70 82 71 83 50 84 51 85
REMARK SMILES IDX 59 86 52 87 58 88 60 89 57 90 53 91 54 92 55 93 56 94
REMARK H PARENT 80 47 48 58
REMARK Flexibility Score: inf
ROOT
ATOM      1  C   UNL A   1      35.736  20.087  24.977  1.00  0.00     0.202 C 
ENDROOT
BRANCH   1   2
ATOM      2  O   UNL A   1      35.296  21.423  24.734  1.00  0.00    -0.374 OA
BRANCH   2   3
ATOM      3  C   UNL A   1      34.697  22.148  25.804  1.00  0.00     0.202 C 
BRANCH   3   4
ATOM      4  C   UNL A   1      33.227  21.862  26.127  1.00  0.00     0.261 C 
BRANCH   4   5
ATOM      5  O   UNL A   1      32.391  23.001  25.884  1.00  0.00    -0.460 OA
BRANCH   5   6
ATOM      6  C   UNL A   1      31.975  23.126  24.603  1.00  0.00     0.338 C 
ATOM      7  O   UNL A   1      31.772  22.228  23.802  1.00  0.00    -0.246 OA
BRANCH   6   8
ATOM      8  C   UNL A   1      31.661  24.540  24.325  1.00  0.00     0.087 C 
ATOM      9  C   UNL A   1      29.249  28.680  22.853  1.00  0.00    -0.026 A 
ATOM     10  C   UNL A   1      30.593  28.280  22.941  1.00  0.00     0.052 A 
ATOM     11  C   UNL A   1      28.280  27.835  23.422  1.00  0.00     0.045 A 
ATOM     12  C   UNL A   1      30.962  27.081  23.542  1.00  0.00     0.128 A 
ATOM     13  C   UNL A   1      28.648  26.608  23.993  1.00  0.00     0.032 A 
ATOM     14  Cl  UNL A   1      26.594  28.214  23.410  1.00  0.00    -0.084 Cl
ATOM     15  C   UNL A   1      29.988  26.215  24.021  1.00  0.00     0.019 A 
ATOM     16  O   UNL A   1      32.301  26.834  23.600  1.00  0.00    -0.475 OA
ATOM     17  C   UNL A   1      30.368  24.879  24.434  1.00  0.00     0.027 C 
ATOM     18  C   UNL A   1      32.756  25.493  23.930  1.00  0.00     0.316 C 
BRANCH   9  19
ATOM     19  C   UNL A   1      28.914  29.931  22.071  1.00  0.00     0.037 C 
BRANCH  19  20
ATOM     20  C   UNL A   1      28.954  31.252  22.850  1.00  0.00     0.001 C 
ATOM     21  C   UNL A   1      27.630  31.665  23.480  1.00  0.00     0.004 C 
ENDBRANCH  19  20
ENDBRANCH   9  19
BRANCH  18  22
ATOM     22  C   UNL A   1      33.603  24.996  22.749  1.00  0.00     0.430 C 
ATOM     23  F   UNL A   1      32.859  24.244  21.902  1.00  0.00    -0.167 F 
ATOM     24  F   UNL A   1      34.114  26.014  22.023  1.00  0.00    -0.167 F 
ATOM     25  F   UNL A   1      34.637  24.231  23.166  1.00  0.00    -0.167 F 
ENDBRANCH  18  22
ENDBRANCH   6   8
ENDBRANCH   5   6
ENDBRANCH   4   5
ENDBRANCH   3   4
ENDBRANCH   2   3
ENDBRANCH   1   2
BRANCH   1  26
ATOM     26  C   UNL A   1      37.240  19.782  24.939  1.00  0.00     0.261 C 
BRANCH  26  27
ATOM     27  O   UNL A   1      38.051  20.927  25.249  1.00  0.00    -0.460 OA
BRANCH  27  28
ATOM     28  C   UNL A   1      39.169  20.652  25.969  1.00  0.00     0.338 C 
ATOM     29  O   UNL A   1      39.772  19.590  26.009  1.00  0.00    -0.246 OA
BRANCH  28  30
ATOM     30  C   UNL A   1      39.694  21.904  26.545  1.00  0.00     0.060 A 
ATOM     31  C   UNL A   1      40.716  21.890  27.494  1.00  0.00     0.016 A 
ATOM     32  C   UNL A   1      39.163  23.116  26.084  1.00  0.00     0.016 A 
ATOM     33  C   UNL A   1      41.228  23.104  27.960  1.00  0.00     0.010 A 
ATOM     34  C   UNL A   1      39.676  24.326  26.552  1.00  0.00     0.010 A 
ATOM     35  C   UNL A   1      40.729  24.330  27.476  1.00  0.00    -0.014 A 
BRANCH  35  36
ATOM     36  C   UNL A   1      41.426  25.598  27.810  1.00  0.00     0.031 A 
ATOM     37  C   UNL A   1      42.840  25.861  27.391  1.00  0.00     0.074 A 
ATOM     38  C   UNL A   1      40.756  26.513  28.536  1.00  0.00     0.049 A 
ATOM     39  N   UNL A   1      43.540  26.957  27.526  1.00  0.00    -0.248 NA
ATOM     40  C   UNL A   1      43.567  24.757  26.748  1.00  0.00     0.031 C 
ATOM     41  C   UNL A   1      39.400  26.329  29.053  1.00  0.00     0.029 A 
ATOM     42  N   UNL A   1      41.107  27.771  28.957  1.00  0.00    -0.354 N 
ATOM     43  C   UNL A   1      44.785  26.689  26.971  1.00  0.00     0.074 A 
ATOM     44  C   UNL A   1      44.760  25.305  26.545  1.00  0.00     0.031 C 
ATOM     45  C   UNL A   1      39.018  27.446  29.688  1.00  0.00     0.029 A 
ATOM     46  C   UNL A   1      40.114  28.413  29.659  1.00  0.00     0.049 A 
ATOM     47  H   UNL A   1      41.986  28.175  28.774  1.00  0.00     0.167 HD
ATOM     48  C   UNL A   1      45.834  27.531  26.814  1.00  0.00     0.034 A 
ATOM     49  C   UNL A   1      40.079  29.641  30.216  1.00  0.00     0.034 A 
ATOM     50  C   UNL A   1      45.837  28.906  27.259  1.00  0.00     0.049 A 
ATOM     51  C   UNL A   1      41.265  30.553  30.037  1.00  0.00     0.074 A 
ATOM     52  C   UNL A   1      46.829  29.855  27.083  1.00  0.00     0.029 A 
ATOM     53  N   UNL A   1      44.821  29.524  27.974  1.00  0.00    -0.354 N 
ATOM     54  N   UNL A   1      42.382  30.333  29.385  1.00  0.00    -0.248 NA
ATOM     55  C   UNL A   1      41.184  31.886  30.651  1.00  0.00     0.031 C 
ATOM     56  C   UNL A   1      46.453  31.014  27.763  1.00  0.00     0.029 A 
ATOM     57  C   UNL A   1      45.183  30.826  28.286  1.00  0.00     0.049 A 
ATOM     58  H   UNL A   1      43.968  29.100  28.224  1.00  0.00     0.167 HD
ATOM     59  C   UNL A   1      43.129  31.503  29.496  1.00  0.00     0.074 A 
ATOM     60  C   UNL A   1      42.318  32.441  30.244  1.00  0.00     0.031 C 
ATOM     61  C   UNL A   1      44.376  31.767  29.030  1.00  0.00     0.034 A 
BRANCH  48  62
ATOM     62  C   UNL A   1      47.073  27.033  26.106  1.00  0.00     0.023 A 
ATOM     63  C   UNL A   1      48.076  26.357  26.827  1.00  0.00     0.031 A 
ATOM     64  C   UNL A   1      47.338  27.380  24.769  1.00  0.00     0.131 A 
ATOM     65  C   UNL A   1      49.314  26.095  26.224  1.00  0.00     0.055 A 
ATOM     66  C   UNL A   1      48.555  27.074  24.157  1.00  0.00     0.041 A 
ATOM     67  F   UNL A   1      46.420  28.034  24.039  1.00  0.00    -0.206 F 
ATOM     68  C   UNL A   1      49.555  26.443  24.890  1.00  0.00     0.022 A 
BRANCH  65  69
ATOM     69  S   UNL A   1      50.687  25.380  27.169  1.00  0.00     0.124 S 
ATOM     70  O   UNL A   1      50.024  24.291  27.883  1.00  0.00    -0.237 OA
ATOM     71  O   UNL A   1      51.601  24.965  26.108  1.00  0.00    -0.237 OA
ATOM     72  O   UNL A   1      51.148  26.481  28.006  1.00  0.00    -0.744 OA
ENDBRANCH  65  69
ENDBRANCH  48  62
BRANCH  49  73
ATOM     73  C   UNL A   1      38.842  30.078  30.927  1.00  0.00     0.023 A 
ATOM     74  C   UNL A   1      37.869  30.853  30.270  1.00  0.00     0.031 A 
ATOM     75  C   UNL A   1      38.672  29.832  32.300  1.00  0.00     0.131 A 
ATOM     76  C   UNL A   1      36.819  31.421  31.001  1.00  0.00     0.055 A 
ATOM     77  C   UNL A   1      37.578  30.331  33.008  1.00  0.00     0.041 A 
ATOM     78  F   UNL A   1      39.581  29.112  32.975  1.00  0.00    -0.206 F 
ATOM     79  C   UNL A   1      36.654  31.147  32.362  1.00  0.00     0.022 A 
BRANCH  76  80
ATOM     80  S   UNL A   1      35.722  32.652  30.244  1.00  0.00     0.124 S 
ATOM     81  O   UNL A   1      35.752  32.265  28.837  1.00  0.00    -0.237 OA
ATOM     82  O   UNL A   1      34.463  32.395  30.943  1.00  0.00    -0.237 OA
ATOM     83  O   UNL A   1      36.358  33.925  30.565  1.00  0.00    -0.744 OA
ENDBRANCH  76  80
ENDBRANCH  49  73
BRANCH  61  84
ATOM     84  C   UNL A   1      44.983  33.124  29.312  1.00  0.00     0.023 A 
ATOM     85  C   UNL A   1      44.943  34.137  28.331  1.00  0.00     0.031 A 
ATOM     86  C   UNL A   1      45.728  33.367  30.480  1.00  0.00     0.131 A 
ATOM     87  C   UNL A   1      45.673  35.319  28.517  1.00  0.00     0.055 A 
ATOM     88  C   UNL A   1      46.403  34.571  30.687  1.00  0.00     0.041 A 
ATOM     89  F   UNL A   1      45.812  32.432  31.441  1.00  0.00    -0.206 F 
ATOM     90  C   UNL A   1      46.390  35.548  29.694  1.00  0.00     0.022 A 
BRANCH  87  91
ATOM     91  S   UNL A   1      45.798  36.560  27.199  1.00  0.00     0.124 S 
ATOM     92  O   UNL A   1      46.989  37.307  27.599  1.00  0.00    -0.237 OA
ATOM     93  O   UNL A   1      45.954  35.729  26.009  1.00  0.00    -0.237 OA
ATOM     94  O   UNL A   1      44.544  37.299  27.290  1.00  0.00    -0.744 OA
ENDBRANCH  87  91
ENDBRANCH  61  84
ENDBRANCH  35  36
ENDBRANCH  28  30
ENDBRANCH  27  28
ENDBRANCH  26  27
ENDBRANCH   1  26
TORSDOF 20
ENDMDL
MODEL 2
REMARK VINA RESULT:     -11.3      5.063     10.297
REMARK SMILES CCCc1cc2c(cc1Cl)C=C(C(=O)OCCOCCOC(=O)c1ccc(-c3c4nc(c(-c5cc(S(=O)(=O)[O-])ccc5F)c5ccc([nH]5)c(-c5cc(S(=O)(=O)[O-])ccc5F)c5nc(c(-c6cc(S(=O)(=O)[O-])ccc6F)c6ccc3[nH]6)C=C5)C=C4)cc1)[C@@H](C(F)(F)F)O2
REMARK SMILES IDX 19 1 18 2 17 3 16 4 15 5 13 6 14 7 12 8 4 9 5 10 9 11 6 12
REMARK SMILES IDX 8 13 10 14 7 15 92 16 11 17 87 18 3 19 2 20 1 21 88 22 89 23
REMARK SMILES IDX 90 24 91 25 20 26 21 27 22 28 23 29 24 30 25 31 86 32 26 33
REMARK SMILES IDX 85 34 27 35 28 36 29 37 79 38 30 39 84 40 78 41 80 42 31 43
REMARK SMILES IDX 83 44 77 45 76 46 32 48 64 49 44 50 63 51 45 52 48 53 62 54
REMARK SMILES IDX 81 55 46 56 47 57 61 59 82 60 49 61 33 62 34 63 42 64 35 65
REMARK SMILES IDX 41 66 43 67 40 68 36 69 37 70 38 71 39 72 65 73 66 74 74 75
REMARK SMILES IDX 67 76 73 77 75 78 72 79 68 80 69 81 70 82 71 83 50 84 51 85
REMARK SMILES IDX 59 86 52 87 58 88 60 89 57 90 53 91 54 92 55 93 56 94
REMARK H PARENT 80 47 48 58
REMARK Flexibility Score: inf
ROOT
ATOM      1  C   UNL A   1      31.106  30.771  25.124  1.00  0.00     0.202 C 
ENDROOT
BRANCH   1   2
ATOM      2  O   UNL A   1      31.006  29.407  24.713  1.00  0.00    -0.374 OA
BRANCH   2   3
ATOM      3  C   UNL A   1      31.953  28.909  23.771  1.00  0.00     0.202 C 
BRANCH   3   4
ATOM      4  C   UNL A   1      33.391  28.687  24.251  1.00  0.00     0.261 C 
BRANCH   4   5
ATOM      5  O   UNL A   1      33.669  27.303  24.498  1.00  0.00    -0.460 OA
BRANCH   5   6
ATOM      6  C   UNL A   1      33.586  26.939  25.798  1.00  0.00     0.338 C 
ATOM      7  O   UNL A   1      33.443  27.673  26.762  1.00  0.00    -0.246 OA
BRANCH   6   8
ATOM      8  C   UNL A   1      33.562  25.468  25.895  1.00  0.00     0.087 C 
ATOM      9  C   UNL A   1      34.568  20.626  25.074  1.00  0.00    -0.026 A 
ATOM     10  C   UNL A   1      33.445  21.360  25.494  1.00  0.00     0.052 A 
ATOM     11  C   UNL A   1      35.790  21.311  24.967  1.00  0.00     0.045 A 
ATOM     12  C   UNL A   1      33.522  22.722  25.770  1.00  0.00     0.128 A 
ATOM     13  C   UNL A   1      35.860  22.691  25.207  1.00  0.00     0.032 A 
ATOM     14  Cl  UNL A   1      37.255  20.529  24.488  1.00  0.00    -0.084 Cl
ATOM     15  C   UNL A   1      34.717  23.403  25.575  1.00  0.00     0.019 A 
ATOM     16  O   UNL A   1      32.372  23.303  26.211  1.00  0.00    -0.475 OA
ATOM     17  C   UNL A   1      34.726  24.850  25.647  1.00  0.00     0.027 C 
ATOM     18  C   UNL A   1      32.281  24.754  26.233  1.00  0.00     0.316 C 
BRANCH   9  19
ATOM     19  C   UNL A   1      34.378  19.181  24.667  1.00  0.00     0.037 C 
BRANCH  19  20
ATOM     20  C   UNL A   1      32.928  18.695  24.541  1.00  0.00     0.001 C 
ATOM     21  C   UNL A   1      32.580  17.486  25.400  1.00  0.00     0.004 C 
ENDBRANCH  19  20
ENDBRANCH   9  19
BRANCH  18  22
ATOM     22  C   UNL A   1      31.103  25.150  25.330  1.00  0.00     0.430 C 
ATOM     23  F   UNL A   1      31.528  25.433  24.075  1.00  0.00    -0.167 F 
ATOM     24  F   UNL A   1      30.189  24.162  25.220  1.00  0.00    -0.167 F 
ATOM     25  F   UNL A   1      30.465  26.248  25.798  1.00  0.00    -0.167 F 
ENDBRANCH  18  22
ENDBRANCH   6   8
ENDBRANCH   5   6
ENDBRANCH   4   5
ENDBRANCH   3   4
ENDBRANCH   2   3
ENDBRANCH   1   2
BRANCH   1  26
ATOM     26  C   UNL A   1      31.567  31.083  26.554  1.00  0.00     0.261 C 
BRANCH  26  27
ATOM     27  O   UNL A   1      32.982  30.913  26.736  1.00  0.00    -0.460 OA
BRANCH  27  28
ATOM     28  C   UNL A   1      33.591  31.919  27.416  1.00  0.00     0.338 C 
ATOM     29  O   UNL A   1      33.087  32.972  27.775  1.00  0.00    -0.246 OA
BRANCH  28  30
ATOM     30  C   UNL A   1      34.921  31.464  27.863  1.00  0.00     0.060 A 
ATOM     31  C   UNL A   1      35.986  32.356  27.988  1.00  0.00     0.016 A 
ATOM     32  C   UNL A   1      35.079  30.112  28.198  1.00  0.00     0.016 A 
ATOM     33  C   UNL A   1      37.208  31.891  28.481  1.00  0.00     0.010 A 
ATOM     34  C   UNL A   1      36.301  29.652  28.689  1.00  0.00     0.010 A 
ATOM     35  C   UNL A   1      37.368  30.543  28.857  1.00  0.00    -0.014 A 
BRANCH  35  36
ATOM     36  C   UNL A   1      38.592  30.115  29.581  1.00  0.00     0.031 A 
ATOM     37  C   UNL A   1      38.931  30.635  30.944  1.00  0.00     0.074 A 
ATOM     38  C   UNL A   1      39.422  29.253  28.962  1.00  0.00     0.049 A 
ATOM     39  N   UNL A   1      39.911  30.278  31.733  1.00  0.00    -0.248 NA
ATOM     40  C   UNL A   1      38.074  31.696  31.491  1.00  0.00     0.031 C 
ATOM     41  C   UNL A   1      39.220  28.738  27.607  1.00  0.00     0.029 A 
ATOM     42  N   UNL A   1      40.583  28.653  29.379  1.00  0.00    -0.354 N 
ATOM     43  C   UNL A   1      39.783  31.051  32.880  1.00  0.00     0.074 A 
ATOM     44  C   UNL A   1      38.660  31.938  32.659  1.00  0.00     0.031 C 
ATOM     45  C   UNL A   1      40.200  27.871  27.319  1.00  0.00     0.029 A 
ATOM     46  C   UNL A   1      41.123  27.796  28.450  1.00  0.00     0.049 A 
ATOM     47  H   UNL A   1      40.990  28.821  30.260  1.00  0.00     0.167 HD
ATOM     48  C   UNL A   1      40.523  31.002  34.013  1.00  0.00     0.034 A 
ATOM     49  C   UNL A   1      42.232  27.028  28.497  1.00  0.00     0.034 A 
ATOM     50  C   UNL A   1      41.647  30.115  34.204  1.00  0.00     0.049 A 
ATOM     51  C   UNL A   1      43.044  27.002  29.765  1.00  0.00     0.074 A 
ATOM     52  C   UNL A   1      42.414  29.946  35.344  1.00  0.00     0.029 A 
ATOM     53  N   UNL A   1      42.175  29.265  33.242  1.00  0.00    -0.354 N 
ATOM     54  N   UNL A   1      42.828  27.635  30.895  1.00  0.00    -0.248 NA
ATOM     55  C   UNL A   1      44.239  26.147  29.780  1.00  0.00     0.031 C 
ATOM     56  C   UNL A   1      43.454  29.065  35.046  1.00  0.00     0.029 A 
ATOM     57  C   UNL A   1      43.285  28.605  33.749  1.00  0.00     0.049 A 
ATOM     58  H   UNL A   1      41.815  29.147  32.334  1.00  0.00     0.167 HD
ATOM     59  C   UNL A   1      43.849  27.243  31.757  1.00  0.00     0.074 A 
ATOM     60  C   UNL A   1      44.658  26.287  31.031  1.00  0.00     0.031 C 
ATOM     61  C   UNL A   1      44.095  27.648  33.029  1.00  0.00     0.034 A 
BRANCH  48  62
ATOM     62  C   UNL A   1      40.147  31.897  35.172  1.00  0.00     0.023 A 
ATOM     63  C   UNL A   1      39.254  31.438  36.160  1.00  0.00     0.031 A 
ATOM     64  C   UNL A   1      40.530  33.250  35.202  1.00  0.00     0.131 A 
ATOM     65  C   UNL A   1      38.736  32.335  37.103  1.00  0.00     0.055 A 
ATOM     66  C   UNL A   1      40.049  34.129  36.174  1.00  0.00     0.041 A 
ATOM     67  F   UNL A   1      41.372  33.742  34.279  1.00  0.00    -0.206 F 
ATOM     68  C   UNL A   1      39.135  33.676  37.121  1.00  0.00     0.022 A 
BRANCH  65  69
ATOM     69  S   UNL A   1      37.457  31.823  38.284  1.00  0.00     0.124 S 
ATOM     70  O   UNL A   1      38.161  31.945  39.558  1.00  0.00    -0.237 OA
ATOM     71  O   UNL A   1      36.413  32.816  38.050  1.00  0.00    -0.237 OA
ATOM     72  O   UNL A   1      37.135  30.459  37.881  1.00  0.00    -0.744 OA
ENDBRANCH  65  69
ENDBRANCH  48  62
BRANCH  49  73
ATOM     73  C   UNL A   1      42.574  26.181  27.318  1.00  0.00     0.023 A 
ATOM     74  C   UNL A   1      42.119  24.853  27.228  1.00  0.00     0.031 A 
ATOM     75  C   UNL A   1      43.458  26.643  26.328  1.00  0.00     0.131 A 
ATOM     76  C   UNL A   1      42.612  24.012  26.222  1.00  0.00     0.055 A 
ATOM     77  C   UNL A   1      43.881  25.825  25.278  1.00  0.00     0.041 A 
ATOM     78  F   UNL A   1      43.934  27.896  26.378  1.00  0.00    -0.206 F 
ATOM     79  C   UNL A   1      43.473  24.496  25.234  1.00  0.00     0.022 A 
BRANCH  76  80
ATOM     80  S   UNL A   1      42.269  22.230  26.253  1.00  0.00     0.124 S 
ATOM     81  O   UNL A   1      40.827  22.192  26.036  1.00  0.00    -0.237 OA
ATOM     82  O   UNL A   1      43.089  21.753  25.141  1.00  0.00    -0.237 OA
ATOM     83  O   UNL A   1      42.721  21.815  27.577  1.00  0.00    -0.744 OA
ENDBRANCH  76  80
ENDBRANCH  49  73
BRANCH  61  84
ATOM     84  C   UNL A   1      45.301  27.085  33.749  1.00  0.00     0.023 A 
ATOM     85  C   UNL A   1      45.179  25.918  34.530  1.00  0.00     0.031 A 
ATOM     86  C   UNL A   1      46.524  27.778  33.786  1.00  0.00     0.131 A 
ATOM     87  C   UNL A   1      46.241  25.510  35.349  1.00  0.00     0.055 A 
ATOM     88  C   UNL A   1      47.600  27.334  34.556  1.00  0.00     0.041 A 
ATOM     89  F   UNL A   1      46.691  28.904  33.072  1.00  0.00    -0.206 F 
ATOM     90  C   UNL A   1      47.455  26.204  35.356  1.00  0.00     0.022 A 
BRANCH  87  91
ATOM     91  S   UNL A   1      46.054  24.126  36.508  1.00  0.00     0.124 S 
ATOM     92  O   UNL A   1      45.596  23.054  35.627  1.00  0.00    -0.237 OA
ATOM     93  O   UNL A   1      47.412  23.972  37.022  1.00  0.00    -0.237 OA
ATOM     94  O   UNL A   1      45.067  24.603  37.470  1.00  0.00    -0.744 OA
ENDBRANCH  87  91
ENDBRANCH  61  84
ENDBRANCH  35  36
ENDBRANCH  28  30
ENDBRANCH  27  28
ENDBRANCH  26  27
ENDBRANCH   1  26
TORSDOF 20
ENDMDL
MODEL 3
REMARK VINA RESULT:     -11.0      5.108      8.501
REMARK SMILES CCCc1cc2c(cc1Cl)C=C(C(=O)OCCOCCOC(=O)c1ccc(-c3c4nc(c(-c5cc(S(=O)(=O)[O-])ccc5F)c5ccc([nH]5)c(-c5cc(S(=O)(=O)[O-])ccc5F)c5nc(c(-c6cc(S(=O)(=O)[O-])ccc6F)c6ccc3[nH]6)C=C5)C=C4)cc1)[C@@H](C(F)(F)F)O2
REMARK SMILES IDX 19 1 18 2 17 3 16 4 15 5 13 6 14 7 12 8 4 9 5 10 9 11 6 12
REMARK SMILES IDX 8 13 10 14 7 15 92 16 11 17 87 18 3 19 2 20 1 21 88 22 89 23
REMARK SMILES IDX 90 24 91 25 20 26 21 27 22 28 23 29 24 30 25 31 86 32 26 33
REMARK SMILES IDX 85 34 27 35 28 36 29 37 79 38 30 39 84 40 78 41 80 42 31 43
REMARK SMILES IDX 83 44 77 45 76 46 32 48 64 49 44 50 63 51 45 52 48 53 62 54
REMARK SMILES IDX 81 55 46 56 47 57 61 59 82 60 49 61 33 62 34 63 42 64 35 65
REMARK SMILES IDX 41 66 43 67 40 68 36 69 37 70 38 71 39 72 65 73 66 74 74 75
REMARK SMILES IDX 67 76 73 77 75 78 72 79 68 80 69 81 70 82 71 83 50 84 51 85
REMARK SMILES IDX 59 86 52 87 58 88 60 89 57 90 53 91 54 92 55 93 56 94
REMARK H PARENT 80 47 48 58
REMARK Flexibility Score: inf
ROOT
ATOM      1  C   UNL A   1      31.535  32.073  26.530  1.00  0.00     0.202 C 
ENDROOT
BRANCH   1   2
ATOM      2  O   UNL A   1      32.265  30.881  26.822  1.00  0.00    -0.374 OA
BRANCH   2   3
ATOM      3  C   UNL A   1      31.978  29.705  26.070  1.00  0.00     0.202 C 
BRANCH   3   4
ATOM      4  C   UNL A   1      32.851  29.408  24.846  1.00  0.00     0.261 C 
BRANCH   4   5
ATOM      5  O   UNL A   1      33.694  28.266  25.051  1.00  0.00    -0.460 OA
BRANCH   5   6
ATOM      6  C   UNL A   1      33.678  27.371  24.037  1.00  0.00     0.338 C 
ATOM      7  O   UNL A   1      33.991  27.567  22.874  1.00  0.00    -0.246 OA
BRANCH   6   8
ATOM      8  C   UNL A   1      33.341  26.037  24.568  1.00  0.00     0.087 C 
ATOM      9  C   UNL A   1      33.285  21.077  25.289  1.00  0.00    -0.026 A 
ATOM     10  C   UNL A   1      32.349  22.118  25.407  1.00  0.00     0.052 A 
ATOM     11  C   UNL A   1      34.624  21.430  25.050  1.00  0.00     0.045 A 
ATOM     12  C   UNL A   1      32.717  23.453  25.267  1.00  0.00     0.128 A 
ATOM     13  C   UNL A   1      34.989  22.772  24.870  1.00  0.00     0.032 A 
ATOM     14  Cl  UNL A   1      35.884  20.255  24.909  1.00  0.00    -0.084 Cl
ATOM     15  C   UNL A   1      34.027  23.782  24.944  1.00  0.00     0.019 A 
ATOM     16  O   UNL A   1      31.721  24.365  25.450  1.00  0.00    -0.475 OA
ATOM     17  C   UNL A   1      34.345  25.148  24.580  1.00  0.00     0.027 C 
ATOM     18  C   UNL A   1      31.941  25.740  25.032  1.00  0.00     0.316 C 
BRANCH   9  19
ATOM     19  C   UNL A   1      32.788  19.648  25.322  1.00  0.00     0.037 C 
BRANCH  19  20
ATOM     20  C   UNL A   1      32.563  18.975  23.962  1.00  0.00     0.001 C 
ATOM     21  C   UNL A   1      32.250  19.931  22.817  1.00  0.00     0.004 C 
ENDBRANCH  19  20
ENDBRANCH   9  19
BRANCH  18  22
ATOM     22  C   UNL A   1      30.866  26.077  23.988  1.00  0.00     0.430 C 
ATOM     23  F   UNL A   1      30.437  27.354  24.130  1.00  0.00    -0.167 F 
ATOM     24  F   UNL A   1      31.326  25.957  22.724  1.00  0.00    -0.167 F 
ATOM     25  F   UNL A   1      29.786  25.271  24.109  1.00  0.00    -0.167 F 
ENDBRANCH  18  22
ENDBRANCH   6   8
ENDBRANCH   5   6
ENDBRANCH   4   5
ENDBRANCH   3   4
ENDBRANCH   2   3
ENDBRANCH   1   2
BRANCH   1  26
ATOM     26  C   UNL A   1      32.076  33.417  27.036  1.00  0.00     0.261 C 
BRANCH  26  27
ATOM     27  O   UNL A   1      32.991  33.274  28.135  1.00  0.00    -0.460 OA
BRANCH  27  28
ATOM     28  C   UNL A   1      34.138  33.992  28.015  1.00  0.00     0.338 C 
ATOM     29  O   UNL A   1      34.234  35.186  27.777  1.00  0.00    -0.246 OA
BRANCH  28  30
ATOM     30  C   UNL A   1      35.278  33.155  28.433  1.00  0.00     0.060 A 
ATOM     31  C   UNL A   1      36.589  33.623  28.349  1.00  0.00     0.016 A 
ATOM     32  C   UNL A   1      35.007  31.884  28.958  1.00  0.00     0.016 A 
ATOM     33  C   UNL A   1      37.630  32.821  28.821  1.00  0.00     0.010 A 
ATOM     34  C   UNL A   1      36.049  31.085  29.429  1.00  0.00     0.010 A 
ATOM     35  C   UNL A   1      37.367  31.556  29.385  1.00  0.00    -0.014 A 
BRANCH  35  36
ATOM     36  C   UNL A   1      38.450  30.815  30.081  1.00  0.00     0.031 A 
ATOM     37  C   UNL A   1      39.198  29.698  29.422  1.00  0.00     0.074 A 
ATOM     38  C   UNL A   1      38.731  31.158  31.353  1.00  0.00     0.049 A 
ATOM     39  N   UNL A   1      40.229  29.030  29.871  1.00  0.00    -0.248 NA
ATOM     40  C   UNL A   1      38.731  29.265  28.097  1.00  0.00     0.031 C 
ATOM     41  C   UNL A   1      38.016  32.185  32.111  1.00  0.00     0.029 A 
ATOM     42  N   UNL A   1      39.683  30.698  32.227  1.00  0.00    -0.354 N 
ATOM     43  C   UNL A   1      40.551  28.109  28.881  1.00  0.00     0.074 A 
ATOM     44  C   UNL A   1      39.569  28.270  27.829  1.00  0.00     0.031 C 
ATOM     45  C   UNL A   1      38.578  32.306  33.321  1.00  0.00     0.029 A 
ATOM     46  C   UNL A   1      39.668  31.339  33.444  1.00  0.00     0.049 A 
ATOM     47  H   UNL A   1      40.317  29.979  32.004  1.00  0.00     0.167 HD
ATOM     48  C   UNL A   1      41.584  27.234  28.853  1.00  0.00     0.034 A 
ATOM     49  C   UNL A   1      40.443  31.177  34.536  1.00  0.00     0.034 A 
ATOM     50  C   UNL A   1      42.545  27.086  29.922  1.00  0.00     0.049 A 
ATOM     51  C   UNL A   1      41.577  30.187  34.482  1.00  0.00     0.074 A 
ATOM     52  C   UNL A   1      43.665  26.273  29.953  1.00  0.00     0.029 A 
ATOM     53  N   UNL A   1      42.498  27.742  31.145  1.00  0.00    -0.354 N 
ATOM     54  N   UNL A   1      41.956  29.422  33.484  1.00  0.00    -0.248 NA
ATOM     55  C   UNL A   1      42.403  30.046  35.689  1.00  0.00     0.031 C 
ATOM     56  C   UNL A   1      44.243  26.371  31.219  1.00  0.00     0.029 A 
ATOM     57  C   UNL A   1      43.543  27.317  31.952  1.00  0.00     0.049 A 
ATOM     58  H   UNL A   1      41.823  28.411  31.401  1.00  0.00     0.167 HD
ATOM     59  C   UNL A   1      43.072  28.724  33.937  1.00  0.00     0.074 A 
ATOM     60  C   UNL A   1      43.330  29.187  35.285  1.00  0.00     0.031 C 
ATOM     61  C   UNL A   1      43.806  27.778  33.297  1.00  0.00     0.034 A 
BRANCH  48  62
ATOM     62  C   UNL A   1      41.782  26.375  27.625  1.00  0.00     0.023 A 
ATOM     63  C   UNL A   1      41.321  25.043  27.613  1.00  0.00     0.031 A 
ATOM     64  C   UNL A   1      42.572  26.812  26.548  1.00  0.00     0.131 A 
ATOM     65  C   UNL A   1      41.699  24.185  26.572  1.00  0.00     0.055 A 
ATOM     66  C   UNL A   1      42.904  25.967  25.488  1.00  0.00     0.041 A 
ATOM     67  F   UNL A   1      43.044  28.069  26.514  1.00  0.00    -0.206 F 
ATOM     68  C   UNL A   1      42.480  24.642  25.505  1.00  0.00     0.022 A 
BRANCH  65  69
ATOM     69  S   UNL A   1      41.269  22.422  26.605  1.00  0.00     0.124 S 
ATOM     70  O   UNL A   1      41.630  22.052  27.972  1.00  0.00    -0.237 OA
ATOM     71  O   UNL A   1      39.836  22.454  26.326  1.00  0.00    -0.237 OA
ATOM     72  O   UNL A   1      42.105  21.838  25.563  1.00  0.00    -0.744 OA
ENDBRANCH  65  69
ENDBRANCH  48  62
BRANCH  49  73
ATOM     73  C   UNL A   1      40.192  32.032  35.733  1.00  0.00     0.023 A 
ATOM     74  C   UNL A   1      39.168  31.715  36.644  1.00  0.00     0.031 A 
ATOM     75  C   UNL A   1      40.888  33.240  35.916  1.00  0.00     0.131 A 
ATOM     76  C   UNL A   1      38.816  32.629  37.644  1.00  0.00     0.055 A 
ATOM     77  C   UNL A   1      40.588  34.110  36.965  1.00  0.00     0.041 A 
ATOM     78  F   UNL A   1      41.861  33.595  35.064  1.00  0.00    -0.206 F 
ATOM     79  C   UNL A   1      39.533  33.815  37.825  1.00  0.00     0.022 A 
BRANCH  76  80
ATOM     80  S   UNL A   1      37.323  32.380  38.644  1.00  0.00     0.124 S 
ATOM     81  O   UNL A   1      37.306  30.930  38.813  1.00  0.00    -0.237 OA
ATOM     82  O   UNL A   1      37.638  33.152  39.844  1.00  0.00    -0.237 OA
ATOM     83  O   UNL A   1      36.256  32.932  37.815  1.00  0.00    -0.744 OA
ENDBRANCH  76  80
ENDBRANCH  49  73
BRANCH  61  84
ATOM     84  C   UNL A   1      44.968  27.143  34.029  1.00  0.00     0.023 A 
ATOM     85  C   UNL A   1      44.755  26.026  34.863  1.00  0.00     0.031 A 
ATOM     86  C   UNL A   1      46.247  27.727  34.023  1.00  0.00     0.131 A 
ATOM     87  C   UNL A   1      45.789  25.563  35.689  1.00  0.00     0.055 A 
ATOM     88  C   UNL A   1      47.291  27.224  34.801  1.00  0.00     0.041 A 
ATOM     89  F   UNL A   1      46.502  28.801  33.258  1.00  0.00    -0.206 F 
ATOM     90  C   UNL A   1      47.058  26.147  35.652  1.00  0.00     0.022 A 
BRANCH  87  91
ATOM     91  S   UNL A   1      45.498  24.254  36.910  1.00  0.00     0.124 S 
ATOM     92  O   UNL A   1      46.810  24.132  37.543  1.00  0.00    -0.237 OA
ATOM     93  O   UNL A   1      44.455  24.840  37.747  1.00  0.00    -0.237 OA
ATOM     94  O   UNL A   1      45.088  23.107  36.107  1.00  0.00    -0.744 OA
ENDBRANCH  87  91
ENDBRANCH  61  84
ENDBRANCH  35  36
ENDBRANCH  28  30
ENDBRANCH  27  28
ENDBRANCH  26  27
ENDBRANCH   1  26
TORSDOF 20
ENDMDL
