MODEL 1
REMARK VINA RESULT:     -10.7      0.000      0.000
REMARK SMILES C[C@@]([NH2+]Cc1ccccc1Br)(C(=O)OCCOCCOC(=O)c1ccc(-c2c3nc(c(-c4cc(S(=O)(=O)[O-])ccc4F)c4ccc([nH]4)c(-c4cc(S(=O)(=O)[O-])ccc4F)c4nc(c(-c5cc(S(=O)(=O)[O-])ccc5F)c5ccc2[nH]5)C=C4)C=C3)cc1)C(F)(F)F
REMARK SMILES IDX 17 1 16 2 15 3 14 4 12 5 13 6 2 7 1 8 3 9 4 12 5 13 6 14
REMARK SMILES IDX 10 15 7 16 9 17 11 18 8 19 86 20 87 21 88 22 89 23 18 24
REMARK SMILES IDX 19 25 20 26 21 27 22 28 23 29 24 30 85 31 25 32 84 33 26 34
REMARK SMILES IDX 27 35 28 36 78 37 29 38 83 39 77 40 79 41 30 42 82 43 76 44
REMARK SMILES IDX 75 45 31 47 63 48 43 49 62 50 44 51 47 52 61 53 80 54 45 55
REMARK SMILES IDX 46 56 60 58 81 59 48 60 32 61 33 62 41 63 34 64 40 65 42 66
REMARK SMILES IDX 39 67 35 68 36 69 37 70 38 71 64 72 65 73 73 74 66 75 72 76
REMARK SMILES IDX 74 77 71 78 67 79 68 80 69 81 70 82 49 83 50 84 58 85 51 86
REMARK SMILES IDX 57 87 59 88 56 89 52 90 53 91 54 92 55 93
REMARK H PARENT 3 10 3 11 79 46 47 57
REMARK Flexibility Score: inf
ROOT
ATOM      1  O   UNL A   1      31.420  29.406  23.878  1.00  0.00    -0.374 OA
ENDROOT
BRANCH   1   2
ATOM      2  C   UNL A   1      30.159  29.008  23.337  1.00  0.00     0.202 C 
BRANCH   2   3
ATOM      3  C   UNL A   1      29.953  27.510  23.083  1.00  0.00     0.261 C 
BRANCH   3   4
ATOM      4  O   UNL A   1      31.139  26.751  23.396  1.00  0.00    -0.458 OA
BRANCH   4   5
ATOM      5  C   UNL A   1      31.139  26.091  24.590  1.00  0.00     0.377 C 
ATOM      6  O   UNL A   1      30.222  26.176  25.400  1.00  0.00    -0.244 OA
BRANCH   5   7
ATOM      7  C   UNL A   1      32.390  25.223  24.800  1.00  0.00     0.287 C 
ATOM      8  C   UNL A   1      32.191  24.156  25.905  1.00  0.00     0.103 C 
BRANCH   7   9
ATOM      9  N   UNL A   1      32.701  24.378  23.585  1.00  0.00    -0.321 N 
ATOM     10  H   UNL A   1      33.563  24.742  23.180  1.00  0.00     0.347 HD
ATOM     11  H   UNL A   1      31.861  24.455  23.011  1.00  0.00     0.347 HD
BRANCH   9  12
ATOM     12  C   UNL A   1      32.880  22.934  23.751  1.00  0.00     0.299 C 
BRANCH  12  13
ATOM     13  C   UNL A   1      34.299  22.449  23.926  1.00  0.00     0.020 A 
ATOM     14  C   UNL A   1      35.325  23.175  23.290  1.00  0.00     0.011 A 
ATOM     15  C   UNL A   1      34.664  21.325  24.685  1.00  0.00     0.026 A 
ATOM     16  C   UNL A   1      36.669  22.849  23.478  1.00  0.00     0.001 A 
ATOM     17  C   UNL A   1      36.014  21.022  24.903  1.00  0.00     0.016 A 
ATOM     18  Br  UNL A   1      33.384  20.145  25.453  1.00  0.00    -0.050 Br
ATOM     19  C   UNL A   1      37.014  21.790  24.309  1.00  0.00     0.001 A 
ENDBRANCH  12  13
ENDBRANCH   9  12
ENDBRANCH   7   9
BRANCH   7  20
ATOM     20  C   UNL A   1      33.485  26.193  25.325  1.00  0.00     0.455 C 
ATOM     21  F   UNL A   1      33.156  26.740  26.521  1.00  0.00    -0.164 F 
ATOM     22  F   UNL A   1      34.643  25.515  25.548  1.00  0.00    -0.164 F 
ATOM     23  F   UNL A   1      33.778  27.217  24.505  1.00  0.00    -0.164 F 
ENDBRANCH   7  20
ENDBRANCH   5   7
ENDBRANCH   4   5
ENDBRANCH   3   4
ENDBRANCH   2   3
ENDBRANCH   1   2
BRANCH   1  24
ATOM     24  C   UNL A   1      31.467  29.717  25.266  1.00  0.00     0.202 C 
BRANCH  24  25
ATOM     25  C   UNL A   1      32.780  30.271  25.832  1.00  0.00     0.261 C 
BRANCH  25  26
ATOM     26  O   UNL A   1      32.637  30.770  27.172  1.00  0.00    -0.460 OA
BRANCH  26  27
ATOM     27  C   UNL A   1      33.384  31.874  27.435  1.00  0.00     0.338 C 
ATOM     28  O   UNL A   1      32.999  33.030  27.464  1.00  0.00    -0.246 OA
BRANCH  27  29
ATOM     29  C   UNL A   1      34.729  31.475  27.886  1.00  0.00     0.060 A 
ATOM     30  C   UNL A   1      34.901  30.143  28.283  1.00  0.00     0.016 A 
ATOM     31  C   UNL A   1      35.775  32.393  27.996  1.00  0.00     0.016 A 
ATOM     32  C   UNL A   1      36.109  29.730  28.835  1.00  0.00     0.010 A 
ATOM     33  C   UNL A   1      36.983  31.981  28.569  1.00  0.00     0.010 A 
ATOM     34  C   UNL A   1      37.141  30.658  29.023  1.00  0.00    -0.014 A 
BRANCH  34  35
ATOM     35  C   UNL A   1      38.303  30.283  29.864  1.00  0.00     0.031 A 
ATOM     36  C   UNL A   1      39.290  29.289  29.319  1.00  0.00     0.074 A 
ATOM     37  C   UNL A   1      38.492  30.845  31.071  1.00  0.00     0.049 A 
ATOM     38  N   UNL A   1      40.355  28.778  29.882  1.00  0.00    -0.248 NA
ATOM     39  C   UNL A   1      39.037  28.803  27.954  1.00  0.00     0.031 C 
ATOM     40  C   UNL A   1      37.627  31.856  31.673  1.00  0.00     0.029 A 
ATOM     41  N   UNL A   1      39.471  30.634  32.009  1.00  0.00    -0.354 N 
ATOM     42  C   UNL A   1      40.896  27.906  28.944  1.00  0.00     0.074 A 
ATOM     43  C   UNL A   1      40.021  27.933  27.790  1.00  0.00     0.031 C 
ATOM     44  C   UNL A   1      38.100  32.162  32.894  1.00  0.00     0.029 A 
ATOM     45  C   UNL A   1      39.278  31.341  33.172  1.00  0.00     0.049 A 
ATOM     46  H   UNL A   1      40.237  30.034  31.863  1.00  0.00     0.167 HD
ATOM     47  C   UNL A   1      42.022  27.156  29.035  1.00  0.00     0.034 A 
ATOM     48  C   UNL A   1      39.955  31.302  34.337  1.00  0.00     0.034 A 
ATOM     49  C   UNL A   1      42.870  27.133  30.201  1.00  0.00     0.049 A 
ATOM     50  C   UNL A   1      41.156  30.395  34.454  1.00  0.00     0.074 A 
ATOM     51  C   UNL A   1      44.046  26.430  30.401  1.00  0.00     0.029 A 
ATOM     52  N   UNL A   1      42.622  27.832  31.377  1.00  0.00    -0.354 N 
ATOM     53  N   UNL A   1      41.669  29.586  33.555  1.00  0.00    -0.248 NA
ATOM     54  C   UNL A   1      41.872  30.400  35.736  1.00  0.00     0.031 C 
ATOM     55  C   UNL A   1      44.465  26.644  31.718  1.00  0.00     0.029 A 
ATOM     56  C   UNL A   1      43.598  27.543  32.319  1.00  0.00     0.049 A 
ATOM     57  H   UNL A   1      41.863  28.442  31.520  1.00  0.00     0.167 HD
ATOM     58  C   UNL A   1      42.784  29.006  34.156  1.00  0.00     0.074 A 
ATOM     59  C   UNL A   1      42.871  29.565  35.491  1.00  0.00     0.031 C 
ATOM     60  C   UNL A   1      43.660  28.101  33.651  1.00  0.00     0.034 A 
BRANCH  47  61
ATOM     61  C   UNL A   1      42.351  26.258  27.867  1.00  0.00     0.023 A 
ATOM     62  C   UNL A   1      41.825  24.958  27.757  1.00  0.00     0.031 A 
ATOM     63  C   UNL A   1      43.246  26.691  26.873  1.00  0.00     0.131 A 
ATOM     64  C   UNL A   1      42.259  24.112  26.724  1.00  0.00     0.055 A 
ATOM     65  C   UNL A   1      43.612  25.872  25.803  1.00  0.00     0.041 A 
ATOM     66  F   UNL A   1      43.800  27.912  26.937  1.00  0.00    -0.206 F 
ATOM     67  C   UNL A   1      43.131  24.568  25.733  1.00  0.00     0.022 A 
BRANCH  64  68
ATOM     68  S   UNL A   1      41.793  22.360  26.785  1.00  0.00     0.124 S 
ATOM     69  O   UNL A   1      42.594  21.879  27.907  1.00  0.00    -0.237 OA
ATOM     70  O   UNL A   1      40.353  22.425  27.007  1.00  0.00    -0.237 OA
ATOM     71  O   UNL A   1      42.200  21.851  25.476  1.00  0.00    -0.744 OA
ENDBRANCH  64  68
ENDBRANCH  47  61
BRANCH  48  72
ATOM     72  C   UNL A   1      39.478  32.096  35.506  1.00  0.00     0.023 A 
ATOM     73  C   UNL A   1      38.700  31.518  36.520  1.00  0.00     0.031 A 
ATOM     74  C   UNL A   1      39.775  33.469  35.603  1.00  0.00     0.131 A 
ATOM     75  C   UNL A   1      38.218  32.315  37.570  1.00  0.00     0.055 A 
ATOM     76  C   UNL A   1      39.332  34.247  36.673  1.00  0.00     0.041 A 
ATOM     77  F   UNL A   1      40.515  34.072  34.659  1.00  0.00    -0.206 F 
ATOM     78  C   UNL A   1      38.540  33.672  37.661  1.00  0.00     0.022 A 
BRANCH  75  79
ATOM     79  S   UNL A   1      37.104  31.568  38.792  1.00  0.00     0.124 S 
ATOM     80  O   UNL A   1      37.900  31.651  40.010  1.00  0.00    -0.237 OA
ATOM     81  O   UNL A   1      35.942  32.448  38.722  1.00  0.00    -0.237 OA
ATOM     82  O   UNL A   1      36.891  30.217  38.277  1.00  0.00    -0.744 OA
ENDBRANCH  75  79
ENDBRANCH  48  72
BRANCH  60  83
ATOM     83  C   UNL A   1      44.816  27.693  34.532  1.00  0.00     0.023 A 
ATOM     84  C   UNL A   1      44.715  26.624  35.439  1.00  0.00     0.031 A 
ATOM     85  C   UNL A   1      46.040  28.380  34.450  1.00  0.00     0.131 A 
ATOM     86  C   UNL A   1      45.807  26.300  36.259  1.00  0.00     0.055 A 
ATOM     87  C   UNL A   1      47.140  28.017  35.228  1.00  0.00     0.041 A 
ATOM     88  F   UNL A   1      46.190  29.409  33.599  1.00  0.00    -0.206 F 
ATOM     89  C   UNL A   1      47.025  26.979  36.146  1.00  0.00     0.022 A 
BRANCH  86  90
ATOM     90  S   UNL A   1      45.598  25.021  37.528  1.00  0.00     0.124 S 
ATOM     91  O   UNL A   1      45.172  23.874  36.734  1.00  0.00    -0.237 OA
ATOM     92  O   UNL A   1      46.934  24.934  38.107  1.00  0.00    -0.237 OA
ATOM     93  O   UNL A   1      44.576  25.577  38.412  1.00  0.00    -0.744 OA
ENDBRANCH  86  90
ENDBRANCH  60  83
ENDBRANCH  34  35
ENDBRANCH  27  29
ENDBRANCH  26  27
ENDBRANCH  25  26
ENDBRANCH  24  25
ENDBRANCH   1  24
TORSDOF 21
ENDMDL
MODEL 2
REMARK VINA RESULT:     -10.4      1.870      2.339
REMARK SMILES C[C@@]([NH2+]Cc1ccccc1Br)(C(=O)OCCOCCOC(=O)c1ccc(-c2c3nc(c(-c4cc(S(=O)(=O)[O-])ccc4F)c4ccc([nH]4)c(-c4cc(S(=O)(=O)[O-])ccc4F)c4nc(c(-c5cc(S(=O)(=O)[O-])ccc5F)c5ccc2[nH]5)C=C4)C=C3)cc1)C(F)(F)F
REMARK SMILES IDX 17 1 16 2 15 3 14 4 12 5 13 6 2 7 1 8 3 9 4 12 5 13 6 14
REMARK SMILES IDX 10 15 7 16 9 17 11 18 8 19 86 20 87 21 88 22 89 23 18 24
REMARK SMILES IDX 19 25 20 26 21 27 22 28 23 29 24 30 85 31 25 32 84 33 26 34
REMARK SMILES IDX 27 35 28 36 78 37 29 38 83 39 77 40 79 41 30 42 82 43 76 44
REMARK SMILES IDX 75 45 31 47 63 48 43 49 62 50 44 51 47 52 61 53 80 54 45 55
REMARK SMILES IDX 46 56 60 58 81 59 48 60 32 61 33 62 41 63 34 64 40 65 42 66
REMARK SMILES IDX 39 67 35 68 36 69 37 70 38 71 64 72 65 73 73 74 66 75 72 76
REMARK SMILES IDX 74 77 71 78 67 79 68 80 69 81 70 82 49 83 50 84 58 85 51 86
REMARK SMILES IDX 57 87 59 88 56 89 52 90 53 91 54 92 55 93
REMARK H PARENT 3 10 3 11 79 46 47 57
REMARK Flexibility Score: inf
ROOT
ATOM      1  O   UNL A   1      32.637  28.230  24.960  1.00  0.00    -0.374 OA
ENDROOT
BRANCH   1   2
ATOM      2  C   UNL A   1      32.310  27.417  23.833  1.00  0.00     0.202 C 
BRANCH   2   3
ATOM      3  C   UNL A   1      31.130  26.450  23.992  1.00  0.00     0.261 C 
BRANCH   3   4
ATOM      4  O   UNL A   1      31.526  25.238  24.668  1.00  0.00    -0.458 OA
BRANCH   4   5
ATOM      5  C   UNL A   1      31.493  24.093  23.927  1.00  0.00     0.377 C 
ATOM      6  O   UNL A   1      30.556  23.797  23.193  1.00  0.00    -0.244 OA
BRANCH   5   7
ATOM      7  C   UNL A   1      32.755  23.231  24.092  1.00  0.00     0.287 C 
ATOM      8  C   UNL A   1      33.282  23.225  25.548  1.00  0.00     0.103 C 
BRANCH   7   9
ATOM      9  N   UNL A   1      32.474  21.766  23.842  1.00  0.00    -0.321 N 
ATOM     10  H   UNL A   1      33.151  21.445  23.149  1.00  0.00     0.347 HD
ATOM     11  H   UNL A   1      31.493  21.749  23.562  1.00  0.00     0.347 HD
BRANCH   9  12
ATOM     12  C   UNL A   1      32.535  20.829  24.967  1.00  0.00     0.299 C 
BRANCH  12  13
ATOM     13  C   UNL A   1      33.203  19.502  24.701  1.00  0.00     0.020 A 
ATOM     14  C   UNL A   1      32.378  18.379  24.501  1.00  0.00     0.011 A 
ATOM     15  C   UNL A   1      34.594  19.315  24.635  1.00  0.00     0.026 A 
ATOM     16  C   UNL A   1      32.913  17.137  24.158  1.00  0.00     0.001 A 
ATOM     17  C   UNL A   1      35.127  18.077  24.253  1.00  0.00     0.016 A 
ATOM     18  Br  UNL A   1      35.836  20.692  25.058  1.00  0.00    -0.050 Br
ATOM     19  C   UNL A   1      34.286  16.994  24.005  1.00  0.00     0.001 A 
ENDBRANCH  12  13
ENDBRANCH   9  12
ENDBRANCH   7   9
BRANCH   7  20
ATOM     20  C   UNL A   1      33.850  23.929  23.238  1.00  0.00     0.455 C 
ATOM     21  F   UNL A   1      34.715  23.042  22.688  1.00  0.00    -0.164 F 
ATOM     22  F   UNL A   1      33.281  24.575  22.183  1.00  0.00    -0.164 F 
ATOM     23  F   UNL A   1      34.597  24.832  23.897  1.00  0.00    -0.164 F 
ENDBRANCH   7  20
ENDBRANCH   5   7
ENDBRANCH   4   5
ENDBRANCH   3   4
ENDBRANCH   2   3
ENDBRANCH   1   2
BRANCH   1  24
ATOM     24  C   UNL A   1      32.595  29.643  24.781  1.00  0.00     0.202 C 
BRANCH  24  25
ATOM     25  C   UNL A   1      31.768  30.466  25.777  1.00  0.00     0.261 C 
BRANCH  25  26
ATOM     26  O   UNL A   1      32.389  30.556  27.070  1.00  0.00    -0.460 OA
BRANCH  26  27
ATOM     27  C   UNL A   1      33.089  31.703  27.270  1.00  0.00     0.338 C 
ATOM     28  O   UNL A   1      32.653  32.841  27.251  1.00  0.00    -0.246 OA
BRANCH  27  29
ATOM     29  C   UNL A   1      34.456  31.385  27.718  1.00  0.00     0.060 A 
ATOM     30  C   UNL A   1      34.767  30.033  27.913  1.00  0.00     0.016 A 
ATOM     31  C   UNL A   1      35.387  32.382  28.018  1.00  0.00     0.016 A 
ATOM     32  C   UNL A   1      35.997  29.671  28.452  1.00  0.00     0.010 A 
ATOM     33  C   UNL A   1      36.616  32.017  28.578  1.00  0.00     0.010 A 
ATOM     34  C   UNL A   1      36.910  30.663  28.830  1.00  0.00    -0.014 A 
BRANCH  34  35
ATOM     35  C   UNL A   1      38.081  30.288  29.659  1.00  0.00     0.031 A 
ATOM     36  C   UNL A   1      39.064  29.296  29.101  1.00  0.00     0.074 A 
ATOM     37  C   UNL A   1      38.282  30.846  30.864  1.00  0.00     0.049 A 
ATOM     38  N   UNL A   1      40.134  28.785  29.652  1.00  0.00    -0.248 NA
ATOM     39  C   UNL A   1      38.797  28.814  27.737  1.00  0.00     0.031 C 
ATOM     40  C   UNL A   1      37.421  31.855  31.478  1.00  0.00     0.029 A 
ATOM     41  N   UNL A   1      39.270  30.634  31.792  1.00  0.00    -0.354 N 
ATOM     42  C   UNL A   1      40.667  27.916  28.705  1.00  0.00     0.074 A 
ATOM     43  C   UNL A   1      39.781  27.946  27.561  1.00  0.00     0.031 C 
ATOM     44  C   UNL A   1      37.906  32.158  32.695  1.00  0.00     0.029 A 
ATOM     45  C   UNL A   1      39.088  31.338  32.959  1.00  0.00     0.049 A 
ATOM     46  H   UNL A   1      40.036  30.036  31.637  1.00  0.00     0.167 HD
ATOM     47  C   UNL A   1      41.795  27.168  28.784  1.00  0.00     0.034 A 
ATOM     48  C   UNL A   1      39.777  31.297  34.117  1.00  0.00     0.034 A 
ATOM     49  C   UNL A   1      42.655  27.142  29.941  1.00  0.00     0.049 A 
ATOM     50  C   UNL A   1      40.980  30.392  34.219  1.00  0.00     0.074 A 
ATOM     51  C   UNL A   1      43.833  26.440  30.126  1.00  0.00     0.029 A 
ATOM     52  N   UNL A   1      42.418  27.838  31.121  1.00  0.00    -0.354 N 
ATOM     53  N   UNL A   1      41.485  29.585  33.313  1.00  0.00    -0.248 NA
ATOM     54  C   UNL A   1      41.709  30.394  35.494  1.00  0.00     0.031 C 
ATOM     55  C   UNL A   1      44.266  26.651  31.440  1.00  0.00     0.029 A 
ATOM     56  C   UNL A   1      43.404  27.548  32.052  1.00  0.00     0.049 A 
ATOM     57  H   UNL A   1      41.660  28.447  31.274  1.00  0.00     0.167 HD
ATOM     58  C   UNL A   1      42.606  29.005  33.902  1.00  0.00     0.074 A 
ATOM     59  C   UNL A   1      42.707  29.561  35.236  1.00  0.00     0.031 C 
ATOM     60  C   UNL A   1      43.479  28.102  33.385  1.00  0.00     0.034 A 
BRANCH  47  61
ATOM     61  C   UNL A   1      42.113  26.273  27.610  1.00  0.00     0.023 A 
ATOM     62  C   UNL A   1      41.623  24.957  27.523  1.00  0.00     0.031 A 
ATOM     63  C   UNL A   1      42.963  26.726  26.586  1.00  0.00     0.131 A 
ATOM     64  C   UNL A   1      42.049  24.119  26.481  1.00  0.00     0.055 A 
ATOM     65  C   UNL A   1      43.319  25.913  25.509  1.00  0.00     0.041 A 
ATOM     66  F   UNL A   1      43.482  27.964  26.626  1.00  0.00    -0.206 F 
ATOM     67  C   UNL A   1      42.875  24.595  25.460  1.00  0.00     0.022 A 
BRANCH  64  68
ATOM     68  S   UNL A   1      41.637  22.354  26.564  1.00  0.00     0.124 S 
ATOM     69  O   UNL A   1      42.450  21.809  25.480  1.00  0.00    -0.237 OA
ATOM     70  O   UNL A   1      42.053  21.997  27.916  1.00  0.00    -0.237 OA
ATOM     71  O   UNL A   1      40.195  22.326  26.327  1.00  0.00    -0.744 OA
ENDBRANCH  64  68
ENDBRANCH  47  61
BRANCH  48  72
ATOM     72  C   UNL A   1      39.311  32.087  35.292  1.00  0.00     0.023 A 
ATOM     73  C   UNL A   1      39.745  33.403  35.513  1.00  0.00     0.031 A 
ATOM     74  C   UNL A   1      38.439  31.513  36.238  1.00  0.00     0.131 A 
ATOM     75  C   UNL A   1      39.333  34.090  36.666  1.00  0.00     0.055 A 
ATOM     76  C   UNL A   1      37.996  32.217  37.357  1.00  0.00     0.041 A 
ATOM     77  F   UNL A   1      37.994  30.257  36.075  1.00  0.00    -0.206 F 
ATOM     78  C   UNL A   1      38.451  33.512  37.582  1.00  0.00     0.022 A 
BRANCH  75  79
ATOM     79  S   UNL A   1      40.019  35.739  36.990  1.00  0.00     0.124 S 
ATOM     80  O   UNL A   1      41.437  35.443  37.156  1.00  0.00    -0.237 OA
ATOM     81  O   UNL A   1      39.651  36.463  35.778  1.00  0.00    -0.237 OA
ATOM     82  O   UNL A   1      39.324  36.164  38.203  1.00  0.00    -0.744 OA
ENDBRANCH  75  79
ENDBRANCH  48  72
BRANCH  60  83
ATOM     83  C   UNL A   1      44.644  27.693  34.253  1.00  0.00     0.023 A 
ATOM     84  C   UNL A   1      44.578  26.577  35.105  1.00  0.00     0.031 A 
ATOM     85  C   UNL A   1      45.842  28.429  34.215  1.00  0.00     0.131 A 
ATOM     86  C   UNL A   1      45.677  26.253  35.915  1.00  0.00     0.055 A 
ATOM     87  C   UNL A   1      46.950  28.068  34.982  1.00  0.00     0.041 A 
ATOM     88  F   UNL A   1      45.958  29.504  33.419  1.00  0.00    -0.206 F 
ATOM     89  C   UNL A   1      46.869  26.981  35.846  1.00  0.00     0.022 A 
BRANCH  86  90
ATOM     90  S   UNL A   1      45.509  24.904  37.117  1.00  0.00     0.124 S 
ATOM     91  O   UNL A   1      46.899  24.635  37.466  1.00  0.00    -0.237 OA
ATOM     92  O   UNL A   1      44.695  25.516  38.162  1.00  0.00    -0.237 OA
ATOM     93  O   UNL A   1      44.845  23.847  36.355  1.00  0.00    -0.744 OA
ENDBRANCH  86  90
ENDBRANCH  60  83
ENDBRANCH  34  35
ENDBRANCH  27  29
ENDBRANCH  26  27
ENDBRANCH  25  26
ENDBRANCH  24  25
ENDBRANCH   1  24
TORSDOF 21
ENDMDL
MODEL 3
REMARK VINA RESULT:     -10.3      2.008      7.729
REMARK SMILES C[C@@]([NH2+]Cc1ccccc1Br)(C(=O)OCCOCCOC(=O)c1ccc(-c2c3nc(c(-c4cc(S(=O)(=O)[O-])ccc4F)c4ccc([nH]4)c(-c4cc(S(=O)(=O)[O-])ccc4F)c4nc(c(-c5cc(S(=O)(=O)[O-])ccc5F)c5ccc2[nH]5)C=C4)C=C3)cc1)C(F)(F)F
REMARK SMILES IDX 17 1 16 2 15 3 14 4 12 5 13 6 2 7 1 8 3 9 4 12 5 13 6 14
REMARK SMILES IDX 10 15 7 16 9 17 11 18 8 19 86 20 87 21 88 22 89 23 18 24
REMARK SMILES IDX 19 25 20 26 21 27 22 28 23 29 24 30 85 31 25 32 84 33 26 34
REMARK SMILES IDX 27 35 28 36 78 37 29 38 83 39 77 40 79 41 30 42 82 43 76 44
REMARK SMILES IDX 75 45 31 47 63 48 43 49 62 50 44 51 47 52 61 53 80 54 45 55
REMARK SMILES IDX 46 56 60 58 81 59 48 60 32 61 33 62 41 63 34 64 40 65 42 66
REMARK SMILES IDX 39 67 35 68 36 69 37 70 38 71 64 72 65 73 73 74 66 75 72 76
REMARK SMILES IDX 74 77 71 78 67 79 68 80 69 81 70 82 49 83 50 84 58 85 51 86
REMARK SMILES IDX 57 87 59 88 56 89 52 90 53 91 54 92 55 93
REMARK H PARENT 3 10 3 11 79 46 47 57
REMARK Flexibility Score: inf
ROOT
ATOM      1  O   UNL A   1      31.005  29.727  24.613  1.00  0.00    -0.374 OA
ENDROOT
BRANCH   1   2
ATOM      2  C   UNL A   1      31.089  29.056  23.355  1.00  0.00     0.202 C 
BRANCH   2   3
ATOM      3  C   UNL A   1      30.456  27.662  23.267  1.00  0.00     0.261 C 
BRANCH   3   4
ATOM      4  O   UNL A   1      31.400  26.628  23.615  1.00  0.00    -0.458 OA
BRANCH   4   5
ATOM      5  C   UNL A   1      31.004  25.743  24.574  1.00  0.00     0.377 C 
ATOM      6  O   UNL A   1      29.947  25.851  25.187  1.00  0.00    -0.244 OA
BRANCH   5   7
ATOM      7  C   UNL A   1      32.005  24.597  24.789  1.00  0.00     0.287 C 
ATOM      8  C   UNL A   1      31.380  23.398  25.544  1.00  0.00     0.103 C 
BRANCH   7   9
ATOM      9  N   UNL A   1      32.433  23.969  23.480  1.00  0.00    -0.321 N 
ATOM     10  H   UNL A   1      33.219  24.516  23.129  1.00  0.00     0.347 HD
ATOM     11  H   UNL A   1      31.583  23.978  22.915  1.00  0.00     0.347 HD
BRANCH   9  12
ATOM     12  C   UNL A   1      32.848  22.564  23.469  1.00  0.00     0.299 C 
BRANCH  12  13
ATOM     13  C   UNL A   1      34.285  22.286  23.837  1.00  0.00     0.020 A 
ATOM     14  C   UNL A   1      35.281  23.093  23.255  1.00  0.00     0.011 A 
ATOM     15  C   UNL A   1      34.693  21.277  24.725  1.00  0.00     0.026 A 
ATOM     16  C   UNL A   1      36.623  22.962  23.614  1.00  0.00     0.001 A 
ATOM     17  C   UNL A   1      36.035  21.172  25.113  1.00  0.00     0.016 A 
ATOM     18  Br  UNL A   1      33.487  19.996  25.449  1.00  0.00    -0.050 Br
ATOM     19  C   UNL A   1      36.996  22.020  24.566  1.00  0.00     0.001 A 
ENDBRANCH  12  13
ENDBRANCH   9  12
ENDBRANCH   7   9
BRANCH   7  20
ATOM     20  C   UNL A   1      33.103  25.174  25.724  1.00  0.00     0.455 C 
ATOM     21  F   UNL A   1      32.607  26.085  26.597  1.00  0.00    -0.164 F 
ATOM     22  F   UNL A   1      33.627  24.185  26.498  1.00  0.00    -0.164 F 
ATOM     23  F   UNL A   1      34.131  25.770  25.095  1.00  0.00    -0.164 F 
ENDBRANCH   7  20
ENDBRANCH   5   7
ENDBRANCH   4   5
ENDBRANCH   3   4
ENDBRANCH   2   3
ENDBRANCH   1   2
BRANCH   1  24
ATOM     24  C   UNL A   1      31.777  29.200  25.688  1.00  0.00     0.202 C 
BRANCH  24  25
ATOM     25  C   UNL A   1      33.304  29.208  25.544  1.00  0.00     0.261 C 
BRANCH  25  26
ATOM     26  O   UNL A   1      33.978  29.046  26.803  1.00  0.00    -0.460 OA
BRANCH  26  27
ATOM     27  C   UNL A   1      34.369  30.214  27.377  1.00  0.00     0.338 C 
ATOM     28  O   UNL A   1      33.714  31.236  27.480  1.00  0.00    -0.246 OA
BRANCH  27  29
ATOM     29  C   UNL A   1      35.664  30.031  28.056  1.00  0.00     0.060 A 
ATOM     30  C   UNL A   1      36.819  30.141  27.271  1.00  0.00     0.016 A 
ATOM     31  C   UNL A   1      35.749  29.682  29.406  1.00  0.00     0.016 A 
ATOM     32  C   UNL A   1      38.065  29.858  27.820  1.00  0.00     0.010 A 
ATOM     33  C   UNL A   1      37.002  29.380  29.951  1.00  0.00     0.010 A 
ATOM     34  C   UNL A   1      38.159  29.431  29.151  1.00  0.00    -0.014 A 
BRANCH  34  35
ATOM     35  C   UNL A   1      39.438  28.862  29.637  1.00  0.00     0.031 A 
ATOM     36  C   UNL A   1      40.112  29.517  30.811  1.00  0.00     0.074 A 
ATOM     37  C   UNL A   1      39.966  27.765  29.069  1.00  0.00     0.049 A 
ATOM     38  N   UNL A   1      41.251  29.227  31.385  1.00  0.00    -0.248 NA
ATOM     39  C   UNL A   1      39.404  30.657  31.414  1.00  0.00     0.031 C 
ATOM     40  C   UNL A   1      39.371  27.021  27.961  1.00  0.00     0.029 A 
ATOM     41  N   UNL A   1      41.131  27.093  29.342  1.00  0.00    -0.354 N 
ATOM     42  C   UNL A   1      41.401  30.152  32.413  1.00  0.00     0.074 A 
ATOM     43  C   UNL A   1      40.252  31.031  32.359  1.00  0.00     0.031 C 
ATOM     44  C   UNL A   1      40.188  26.006  27.631  1.00  0.00     0.029 A 
ATOM     45  C   UNL A   1      41.379  26.052  28.478  1.00  0.00     0.049 A 
ATOM     46  H   UNL A   1      41.731  27.332  30.084  1.00  0.00     0.167 HD
ATOM     47  C   UNL A   1      42.403  30.253  33.322  1.00  0.00     0.034 A 
ATOM     48  C   UNL A   1      42.459  25.253  28.364  1.00  0.00     0.034 A 
ATOM     49  C   UNL A   1      43.546  29.375  33.346  1.00  0.00     0.049 A 
ATOM     50  C   UNL A   1      43.606  25.436  29.328  1.00  0.00     0.074 A 
ATOM     51  C   UNL A   1      44.611  29.368  34.231  1.00  0.00     0.029 A 
ATOM     52  N   UNL A   1      43.784  28.356  32.431  1.00  0.00    -0.354 N 
ATOM     53  N   UNL A   1      43.732  26.303  30.307  1.00  0.00    -0.248 NA
ATOM     54  C   UNL A   1      44.754  24.531  29.177  1.00  0.00     0.031 C 
ATOM     55  C   UNL A   1      45.526  28.398  33.806  1.00  0.00     0.029 A 
ATOM     56  C   UNL A   1      44.998  27.744  32.703  1.00  0.00     0.049 A 
ATOM     57  H   UNL A   1      43.180  28.107  31.696  1.00  0.00     0.167 HD
ATOM     58  C   UNL A   1      44.960  26.029  30.904  1.00  0.00     0.074 A 
ATOM     59  C   UNL A   1      45.532  24.912  30.179  1.00  0.00     0.031 C 
ATOM     60  C   UNL A   1      45.558  26.638  31.960  1.00  0.00     0.034 A 
BRANCH  47  61
ATOM     61  C   UNL A   1      42.327  31.392  34.309  1.00  0.00     0.023 A 
ATOM     62  C   UNL A   1      41.413  31.391  35.379  1.00  0.00     0.031 A 
ATOM     63  C   UNL A   1      43.148  32.522  34.149  1.00  0.00     0.131 A 
ATOM     64  C   UNL A   1      41.288  32.527  36.194  1.00  0.00     0.055 A 
ATOM     65  C   UNL A   1      43.075  33.616  35.012  1.00  0.00     0.041 A 
ATOM     66  F   UNL A   1      44.024  32.592  33.132  1.00  0.00    -0.206 F 
ATOM     67  C   UNL A   1      42.129  33.630  36.033  1.00  0.00     0.022 A 
BRANCH  64  68
ATOM     68  S   UNL A   1      39.904  32.605  37.365  1.00  0.00     0.124 S 
ATOM     69  O   UNL A   1      39.352  33.928  37.082  1.00  0.00    -0.237 OA
ATOM     70  O   UNL A   1      39.085  31.469  36.960  1.00  0.00    -0.237 OA
ATOM     71  O   UNL A   1      40.551  32.475  38.669  1.00  0.00    -0.744 OA
ENDBRANCH  64  68
ENDBRANCH  47  61
BRANCH  48  72
ATOM     72  C   UNL A   1      42.537  24.254  27.261  1.00  0.00     0.023 A 
ATOM     73  C   UNL A   1      41.946  22.986  27.374  1.00  0.00     0.031 A 
ATOM     74  C   UNL A   1      43.242  24.550  26.079  1.00  0.00     0.131 A 
ATOM     75  C   UNL A   1      42.097  22.050  26.338  1.00  0.00     0.055 A 
ATOM     76  C   UNL A   1      43.349  23.633  25.033  1.00  0.00     0.041 A 
ATOM     77  F   UNL A   1      43.827  25.748  25.920  1.00  0.00    -0.206 F 
ATOM     78  C   UNL A   1      42.782  22.370  25.163  1.00  0.00     0.022 A 
BRANCH  75  79
ATOM     79  S   UNL A   1      41.437  20.377  26.572  1.00  0.00     0.124 S 
ATOM     80  O   UNL A   1      42.054  19.988  27.835  1.00  0.00    -0.237 OA
ATOM     81  O   UNL A   1      39.999  20.620  26.608  1.00  0.00    -0.237 OA
ATOM     82  O   UNL A   1      41.916  19.654  25.395  1.00  0.00    -0.744 OA
ENDBRANCH  75  79
ENDBRANCH  48  72
BRANCH  60  83
ATOM     83  C   UNL A   1      46.883  26.078  32.420  1.00  0.00     0.023 A 
ATOM     84  C   UNL A   1      46.964  25.100  33.425  1.00  0.00     0.031 A 
ATOM     85  C   UNL A   1      48.079  26.526  31.831  1.00  0.00     0.131 A 
ATOM     86  C   UNL A   1      48.220  24.630  33.841  1.00  0.00     0.055 A 
ATOM     87  C   UNL A   1      49.320  26.015  32.210  1.00  0.00     0.041 A 
ATOM     88  F   UNL A   1      48.056  27.460  30.866  1.00  0.00    -0.206 F 
ATOM     89  C   UNL A   1      49.397  25.069  33.227  1.00  0.00     0.022 A 
BRANCH  86  90
ATOM     90  S   UNL A   1      48.304  23.485  35.245  1.00  0.00     0.124 S 
ATOM     91  O   UNL A   1      48.050  22.200  34.603  1.00  0.00    -0.237 OA
ATOM     92  O   UNL A   1      49.661  23.695  35.739  1.00  0.00    -0.237 OA
ATOM     93  O   UNL A   1      47.243  23.954  36.135  1.00  0.00    -0.744 OA
ENDBRANCH  86  90
ENDBRANCH  60  83
ENDBRANCH  34  35
ENDBRANCH  27  29
ENDBRANCH  26  27
ENDBRANCH  25  26
ENDBRANCH  24  25
ENDBRANCH   1  24
TORSDOF 21
ENDMDL
