MODEL 1
REMARK VINA RESULT:     -10.2      0.000      0.000
REMARK SMILES C#CC[N@@H+](CC(=O)NC(=O)NC)CC(=O)OCCOCCOC(=O)c1ccc(-c2c3nc(c(-c4cc(S(=O)(=O)[O-])ccc4F)c4ccc([nH]4)c(-c4cc(S(=O)(=O)[O-])ccc4F)c4nc(c(-c5cc(S(=O)(=O)[O-])ccc5F)c5ccc2[nH]5)C=C4)C=C3)cc1
REMARK SMILES IDX 19 1 18 2 17 3 16 4 14 5 15 6 13 7 4 8 3 10 2 11 1 12 5 13
REMARK SMILES IDX 6 14 7 15 8 16 9 17 10 19 11 20 12 21 20 23 21 24 22 25
REMARK SMILES IDX 23 26 24 27 25 28 26 29 87 30 27 31 86 32 28 33 29 34 30 35
REMARK SMILES IDX 80 36 31 37 85 38 79 39 81 40 32 41 84 42 78 43 77 44 33 46
REMARK SMILES IDX 65 47 45 48 64 49 46 50 49 51 63 52 82 53 47 54 48 55 62 57
REMARK SMILES IDX 83 58 50 59 34 60 35 61 43 62 36 63 42 64 44 65 41 66 37 67
REMARK SMILES IDX 38 68 39 69 40 70 66 71 67 72 75 73 68 74 74 75 76 76 73 77
REMARK SMILES IDX 69 78 70 79 71 80 72 81 51 82 52 83 60 84 53 85 59 86 61 87
REMARK SMILES IDX 58 88 54 89 55 90 56 91 57 92
REMARK H PARENT 4 9 8 18 11 22 81 45 49 56
REMARK Flexibility Score: inf
ROOT
ATOM      1  O   UNL A   1      34.819  20.986  25.757  1.00  0.00    -0.374 OA
ENDROOT
BRANCH   1   2
ATOM      2  C   UNL A   1      35.106  21.876  26.841  1.00  0.00     0.202 C 
BRANCH   2   3
ATOM      3  C   UNL A   1      35.309  23.337  26.438  1.00  0.00     0.261 C 
BRANCH   3   4
ATOM      4  O   UNL A   1      34.048  23.950  26.109  1.00  0.00    -0.459 OA
BRANCH   4   5
ATOM      5  C   UNL A   1      34.087  25.103  25.403  1.00  0.00     0.361 C 
ATOM      6  O   UNL A   1      33.955  26.224  25.884  1.00  0.00    -0.245 OA
BRANCH   5   7
ATOM      7  C   UNL A   1      34.229  24.872  23.906  1.00  0.00     0.387 C 
BRANCH   7   8
ATOM      8  N   UNL A   1      33.025  24.998  23.068  1.00  0.00    -0.308 N 
ATOM      9  H   UNL A   1      32.637  25.757  23.628  1.00  0.00     0.349 HD
BRANCH   8  10
ATOM     10  C   UNL A   1      32.982  25.872  21.907  1.00  0.00     0.354 C 
BRANCH  10  11
ATOM     11  C   UNL A   1      33.517  27.248  22.270  1.00  0.00    -0.047 C 
ATOM     12  C   UNL A   1      33.977  28.428  22.581  1.00  0.00     0.010 C 
ENDBRANCH  10  11
ENDBRANCH   8  10
BRANCH   8  13
ATOM     13  C   UNL A   1      32.039  23.929  23.167  1.00  0.00     0.365 C 
BRANCH  13  14
ATOM     14  C   UNL A   1      30.765  24.284  23.910  1.00  0.00     0.283 C 
ATOM     15  O   UNL A   1      29.964  25.093  23.426  1.00  0.00    -0.268 OA
ATOM     16  N   UNL A   1      30.443  23.760  25.148  1.00  0.00    -0.273 N 
ATOM     17  C   UNL A   1      30.996  23.061  26.184  1.00  0.00     0.321 C 
ATOM     18  H   UNL A   1      29.500  23.955  25.352  1.00  0.00     0.175 HD
ATOM     19  O   UNL A   1      30.880  23.486  27.335  1.00  0.00    -0.248 OA
ATOM     20  N   UNL A   1      31.679  21.921  26.005  1.00  0.00    -0.341 N 
ATOM     21  C   UNL A   1      31.838  21.076  24.855  1.00  0.00     0.144 C 
ATOM     22  H   UNL A   1      32.157  21.606  26.807  1.00  0.00     0.165 HD
ENDBRANCH  13  14
ENDBRANCH   8  13
ENDBRANCH   7   8
ENDBRANCH   5   7
ENDBRANCH   4   5
ENDBRANCH   3   4
ENDBRANCH   2   3
ENDBRANCH   1   2
BRANCH   1  23
ATOM     23  C   UNL A   1      35.776  20.977  24.699  1.00  0.00     0.202 C 
BRANCH  23  24
ATOM     24  C   UNL A   1      37.112  20.294  25.025  1.00  0.00     0.261 C 
BRANCH  24  25
ATOM     25  O   UNL A   1      38.198  21.239  25.074  1.00  0.00    -0.460 OA
BRANCH  25  26
ATOM     26  C   UNL A   1      39.205  20.904  25.925  1.00  0.00     0.338 C 
ATOM     27  O   UNL A   1      39.768  19.831  26.005  1.00  0.00    -0.246 OA
BRANCH  26  28
ATOM     28  C   UNL A   1      39.689  22.117  26.621  1.00  0.00     0.060 A 
ATOM     29  C   UNL A   1      39.020  23.317  26.364  1.00  0.00     0.016 A 
ATOM     30  C   UNL A   1      40.794  22.104  27.470  1.00  0.00     0.016 A 
ATOM     31  C   UNL A   1      39.485  24.510  26.919  1.00  0.00     0.010 A 
ATOM     32  C   UNL A   1      41.209  23.289  28.094  1.00  0.00     0.010 A 
ATOM     33  C   UNL A   1      40.602  24.517  27.769  1.00  0.00    -0.014 A 
BRANCH  33  34
ATOM     34  C   UNL A   1      41.243  25.820  28.126  1.00  0.00     0.031 A 
ATOM     35  C   UNL A   1      42.635  26.113  27.610  1.00  0.00     0.074 A 
ATOM     36  C   UNL A   1      40.582  26.769  28.819  1.00  0.00     0.049 A 
ATOM     37  N   UNL A   1      43.368  27.189  27.755  1.00  0.00    -0.248 NA
ATOM     38  C   UNL A   1      43.295  25.046  26.842  1.00  0.00     0.031 C 
ATOM     39  C   UNL A   1      39.229  26.635  29.359  1.00  0.00     0.029 A 
ATOM     40  N   UNL A   1      40.953  28.046  29.172  1.00  0.00    -0.354 N 
ATOM     41  C   UNL A   1      44.571  26.919  27.107  1.00  0.00     0.074 A 
ATOM     42  C   UNL A   1      44.496  25.557  26.634  1.00  0.00     0.031 C 
ATOM     43  C   UNL A   1      38.873  27.793  29.942  1.00  0.00     0.029 A 
ATOM     44  C   UNL A   1      39.983  28.740  29.860  1.00  0.00     0.049 A 
ATOM     45  H   UNL A   1      41.832  28.430  28.951  1.00  0.00     0.167 HD
ATOM     46  C   UNL A   1      45.633  27.737  26.894  1.00  0.00     0.034 A 
ATOM     47  C   UNL A   1      39.989  29.989  30.375  1.00  0.00     0.034 A 
ATOM     48  C   UNL A   1      45.698  29.103  27.346  1.00  0.00     0.049 A 
ATOM     49  C   UNL A   1      41.214  30.858  30.191  1.00  0.00     0.074 A 
ATOM     50  C   UNL A   1      46.712  30.025  27.149  1.00  0.00     0.029 A 
ATOM     51  N   UNL A   1      44.720  29.744  28.094  1.00  0.00    -0.354 N 
ATOM     52  N   UNL A   1      42.330  30.593  29.551  1.00  0.00    -0.248 NA
ATOM     53  C   UNL A   1      41.174  32.199  30.793  1.00  0.00     0.031 C 
ATOM     54  C   UNL A   1      46.388  31.190  27.848  1.00  0.00     0.029 A 
ATOM     55  C   UNL A   1      45.127  31.033  28.403  1.00  0.00     0.049 A 
ATOM     56  H   UNL A   1      43.863  29.342  28.365  1.00  0.00     0.167 HD
ATOM     57  C   UNL A   1      43.105  31.749  29.643  1.00  0.00     0.074 A 
ATOM     58  C   UNL A   1      42.325  32.715  30.387  1.00  0.00     0.031 C 
ATOM     59  C   UNL A   1      44.348  31.991  29.151  1.00  0.00     0.034 A 
BRANCH  46  60
ATOM     60  C   UNL A   1      46.826  27.154  26.172  1.00  0.00     0.023 A 
ATOM     61  C   UNL A   1      47.858  26.485  26.855  1.00  0.00     0.031 A 
ATOM     62  C   UNL A   1      46.942  27.293  24.778  1.00  0.00     0.131 A 
ATOM     63  C   UNL A   1      48.992  26.049  26.154  1.00  0.00     0.055 A 
ATOM     64  C   UNL A   1      48.032  26.778  24.074  1.00  0.00     0.041 A 
ATOM     65  F   UNL A   1      46.002  27.944  24.074  1.00  0.00    -0.206 F 
ATOM     66  C   UNL A   1      49.073  26.165  24.764  1.00  0.00     0.022 A 
BRANCH  63  67
ATOM     67  S   UNL A   1      50.427  25.468  27.100  1.00  0.00     0.124 S 
ATOM     68  O   UNL A   1      49.885  24.279  27.755  1.00  0.00    -0.237 OA
ATOM     69  O   UNL A   1      51.417  25.230  26.057  1.00  0.00    -0.237 OA
ATOM     70  O   UNL A   1      50.720  26.585  27.997  1.00  0.00    -0.744 OA
ENDBRANCH  63  67
ENDBRANCH  46  60
BRANCH  47  71
ATOM     71  C   UNL A   1      38.816  30.504  31.145  1.00  0.00     0.023 A 
ATOM     72  C   UNL A   1      37.738  31.136  30.504  1.00  0.00     0.031 A 
ATOM     73  C   UNL A   1      38.795  30.442  32.551  1.00  0.00     0.131 A 
ATOM     74  C   UNL A   1      36.715  31.726  31.265  1.00  0.00     0.055 A 
ATOM     75  C   UNL A   1      37.745  30.973  33.301  1.00  0.00     0.041 A 
ATOM     76  F   UNL A   1      39.804  29.860  33.221  1.00  0.00    -0.206 F 
ATOM     77  C   UNL A   1      36.703  31.634  32.658  1.00  0.00     0.022 A 
BRANCH  74  78
ATOM     78  S   UNL A   1      35.451  32.714  30.414  1.00  0.00     0.124 S 
ATOM     79  O   UNL A   1      36.079  34.030  30.380  1.00  0.00    -0.237 OA
ATOM     80  O   UNL A   1      35.337  32.022  29.135  1.00  0.00    -0.237 OA
ATOM     81  O   UNL A   1      34.286  32.601  31.288  1.00  0.00    -0.744 OA
ENDBRANCH  74  78
ENDBRANCH  47  71
BRANCH  59  82
ATOM     82  C   UNL A   1      44.923  33.375  29.355  1.00  0.00     0.023 A 
ATOM     83  C   UNL A   1      44.863  34.361  28.355  1.00  0.00     0.031 A 
ATOM     84  C   UNL A   1      45.538  33.711  30.575  1.00  0.00     0.131 A 
ATOM     85  C   UNL A   1      45.459  35.614  28.571  1.00  0.00     0.055 A 
ATOM     86  C   UNL A   1      46.068  34.980  30.809  1.00  0.00     0.041 A 
ATOM     87  F   UNL A   1      45.628  32.809  31.566  1.00  0.00    -0.206 F 
ATOM     88  C   UNL A   1      46.043  35.936  29.799  1.00  0.00     0.022 A 
BRANCH  85  89
ATOM     89  S   UNL A   1      45.552  36.786  27.191  1.00  0.00     0.124 S 
ATOM     90  O   UNL A   1      45.981  35.928  26.091  1.00  0.00    -0.237 OA
ATOM     91  O   UNL A   1      44.183  37.286  27.113  1.00  0.00    -0.237 OA
ATOM     92  O   UNL A   1      46.543  37.765  27.635  1.00  0.00    -0.744 OA
ENDBRANCH  85  89
ENDBRANCH  59  82
ENDBRANCH  33  34
ENDBRANCH  26  28
ENDBRANCH  25  26
ENDBRANCH  24  25
ENDBRANCH  23  24
ENDBRANCH   1  23
TORSDOF 22
ENDMDL
MODEL 2
REMARK VINA RESULT:     -10.0      2.196      2.914
REMARK SMILES C#CC[N@@H+](CC(=O)NC(=O)NC)CC(=O)OCCOCCOC(=O)c1ccc(-c2c3nc(c(-c4cc(S(=O)(=O)[O-])ccc4F)c4ccc([nH]4)c(-c4cc(S(=O)(=O)[O-])ccc4F)c4nc(c(-c5cc(S(=O)(=O)[O-])ccc5F)c5ccc2[nH]5)C=C4)C=C3)cc1
REMARK SMILES IDX 19 1 18 2 17 3 16 4 14 5 15 6 13 7 4 8 3 10 2 11 1 12 5 13
REMARK SMILES IDX 6 14 7 15 8 16 9 17 10 19 11 20 12 21 20 23 21 24 22 25
REMARK SMILES IDX 23 26 24 27 25 28 26 29 87 30 27 31 86 32 28 33 29 34 30 35
REMARK SMILES IDX 80 36 31 37 85 38 79 39 81 40 32 41 84 42 78 43 77 44 33 46
REMARK SMILES IDX 65 47 45 48 64 49 46 50 49 51 63 52 82 53 47 54 48 55 62 57
REMARK SMILES IDX 83 58 50 59 34 60 35 61 43 62 36 63 42 64 44 65 41 66 37 67
REMARK SMILES IDX 38 68 39 69 40 70 66 71 67 72 75 73 68 74 74 75 76 76 73 77
REMARK SMILES IDX 69 78 70 79 71 80 72 81 51 82 52 83 60 84 53 85 59 86 61 87
REMARK SMILES IDX 58 88 54 89 55 90 56 91 57 92
REMARK H PARENT 4 9 8 18 11 22 81 45 49 56
REMARK Flexibility Score: inf
ROOT
ATOM      1  O   UNL A   1      35.093  20.104  24.482  1.00  0.00    -0.374 OA
ENDROOT
BRANCH   1   2
ATOM      2  C   UNL A   1      33.708  20.304  24.781  1.00  0.00     0.202 C 
BRANCH   2   3
ATOM      3  C   UNL A   1      33.414  20.714  26.225  1.00  0.00     0.261 C 
BRANCH   3   4
ATOM      4  O   UNL A   1      32.522  21.844  26.257  1.00  0.00    -0.459 OA
BRANCH   4   5
ATOM      5  C   UNL A   1      32.983  22.978  26.834  1.00  0.00     0.361 C 
ATOM      6  O   UNL A   1      34.026  23.065  27.475  1.00  0.00    -0.245 OA
BRANCH   5   7
ATOM      7  C   UNL A   1      32.021  24.148  26.683  1.00  0.00     0.387 C 
BRANCH   7   8
ATOM      8  N   UNL A   1      32.201  25.050  25.534  1.00  0.00    -0.308 N 
ATOM      9  H   UNL A   1      32.107  25.893  26.100  1.00  0.00     0.349 HD
BRANCH   8  10
ATOM     10  C   UNL A   1      33.513  25.512  25.115  1.00  0.00     0.354 C 
BRANCH  10  11
ATOM     11  C   UNL A   1      33.710  26.963  25.523  1.00  0.00    -0.047 C 
ATOM     12  C   UNL A   1      33.879  28.208  25.873  1.00  0.00     0.010 C 
ENDBRANCH  10  11
ENDBRANCH   8  10
BRANCH   8  13
ATOM     13  C   UNL A   1      31.102  25.126  24.578  1.00  0.00     0.365 C 
BRANCH  13  14
ATOM     14  C   UNL A   1      31.277  24.300  23.317  1.00  0.00     0.283 C 
ATOM     15  O   UNL A   1      31.049  23.084  23.329  1.00  0.00    -0.268 OA
ATOM     16  N   UNL A   1      31.712  24.834  22.119  1.00  0.00    -0.273 N 
ATOM     17  C   UNL A   1      32.283  25.964  21.603  1.00  0.00     0.321 C 
ATOM     18  H   UNL A   1      31.559  24.186  21.395  1.00  0.00     0.175 HD
ATOM     19  O   UNL A   1      33.283  25.869  20.889  1.00  0.00    -0.248 OA
ATOM     20  N   UNL A   1      31.806  27.194  21.850  1.00  0.00    -0.341 N 
ATOM     21  C   UNL A   1      30.588  27.637  22.467  1.00  0.00     0.144 C 
ATOM     22  H   UNL A   1      32.398  27.923  21.553  1.00  0.00     0.165 HD
ENDBRANCH  13  14
ENDBRANCH   8  13
ENDBRANCH   7   8
ENDBRANCH   5   7
ENDBRANCH   4   5
ENDBRANCH   3   4
ENDBRANCH   2   3
ENDBRANCH   1   2
BRANCH   1  23
ATOM     23  C   UNL A   1      36.009  20.833  25.296  1.00  0.00     0.202 C 
BRANCH  23  24
ATOM     24  C   UNL A   1      37.495  20.543  25.037  1.00  0.00     0.261 C 
BRANCH  24  25
ATOM     25  O   UNL A   1      38.319  21.694  25.305  1.00  0.00    -0.460 OA
BRANCH  25  26
ATOM     26  C   UNL A   1      39.408  21.445  26.081  1.00  0.00     0.338 C 
ATOM     27  O   UNL A   1      40.091  20.441  26.082  1.00  0.00    -0.246 OA
BRANCH  26  28
ATOM     28  C   UNL A   1      39.798  22.680  26.798  1.00  0.00     0.060 A 
ATOM     29  C   UNL A   1      39.069  23.840  26.526  1.00  0.00     0.016 A 
ATOM     30  C   UNL A   1      40.875  22.725  27.682  1.00  0.00     0.016 A 
ATOM     31  C   UNL A   1      39.446  25.055  27.101  1.00  0.00     0.010 A 
ATOM     32  C   UNL A   1      41.200  23.928  28.325  1.00  0.00     0.010 A 
ATOM     33  C   UNL A   1      40.533  25.121  27.986  1.00  0.00    -0.014 A 
BRANCH  33  34
ATOM     34  C   UNL A   1      41.085  26.456  28.370  1.00  0.00     0.031 A 
ATOM     35  C   UNL A   1      42.499  26.806  27.959  1.00  0.00     0.074 A 
ATOM     36  C   UNL A   1      40.330  27.383  28.994  1.00  0.00     0.049 A 
ATOM     37  N   UNL A   1      43.170  27.916  28.142  1.00  0.00    -0.248 NA
ATOM     38  C   UNL A   1      43.264  25.761  27.261  1.00  0.00     0.031 C 
ATOM     39  C   UNL A   1      38.947  27.194  29.430  1.00  0.00     0.029 A 
ATOM     40  N   UNL A   1      40.615  28.680  29.353  1.00  0.00    -0.354 N 
ATOM     41  C   UNL A   1      44.430  27.694  27.593  1.00  0.00     0.074 A 
ATOM     42  C   UNL A   1      44.453  26.323  27.138  1.00  0.00     0.031 C 
ATOM     43  C   UNL A   1      38.495  28.342  29.965  1.00  0.00     0.029 A 
ATOM     44  C   UNL A   1      39.564  29.338  29.953  1.00  0.00     0.049 A 
ATOM     45  H   UNL A   1      41.491  29.101  29.195  1.00  0.00     0.167 HD
ATOM     46  C   UNL A   1      45.467  28.557  27.449  1.00  0.00     0.034 A 
ATOM     47  C   UNL A   1      39.475  30.592  30.446  1.00  0.00     0.034 A 
ATOM     48  C   UNL A   1      45.436  29.930  27.882  1.00  0.00     0.049 A 
ATOM     49  C   UNL A   1      40.670  31.514  30.342  1.00  0.00     0.074 A 
ATOM     50  C   UNL A   1      46.420  30.895  27.749  1.00  0.00     0.029 A 
ATOM     51  N   UNL A   1      44.375  30.535  28.541  1.00  0.00    -0.354 N 
ATOM     52  N   UNL A   1      41.844  31.292  29.795  1.00  0.00    -0.248 NA
ATOM     53  C   UNL A   1      40.524  32.859  30.918  1.00  0.00     0.031 C 
ATOM     54  C   UNL A   1      45.990  32.053  28.402  1.00  0.00     0.029 A 
ATOM     55  C   UNL A   1      44.699  31.845  28.859  1.00  0.00     0.049 A 
ATOM     56  H   UNL A   1      43.518  30.098  28.752  1.00  0.00     0.167 HD
ATOM     57  C   UNL A   1      42.556  32.484  29.928  1.00  0.00     0.074 A 
ATOM     58  C   UNL A   1      41.679  33.422  30.593  1.00  0.00     0.031 C 
ATOM     59  C   UNL A   1      43.822  32.776  29.529  1.00  0.00     0.034 A 
BRANCH  46  60
ATOM     60  C   UNL A   1      46.738  28.020  26.831  1.00  0.00     0.023 A 
ATOM     61  C   UNL A   1      47.011  28.147  25.457  1.00  0.00     0.031 A 
ATOM     62  C   UNL A   1      47.681  27.348  27.629  1.00  0.00     0.131 A 
ATOM     63  C   UNL A   1      48.155  27.545  24.912  1.00  0.00     0.055 A 
ATOM     64  C   UNL A   1      48.862  26.829  27.095  1.00  0.00     0.041 A 
ATOM     65  F   UNL A   1      47.464  27.173  28.942  1.00  0.00    -0.206 F 
ATOM     66  C   UNL A   1      49.098  26.913  25.727  1.00  0.00     0.022 A 
BRANCH  63  67
ATOM     67  S   UNL A   1      48.319  27.467  23.107  1.00  0.00     0.124 S 
ATOM     68  O   UNL A   1      49.607  28.126  22.901  1.00  0.00    -0.237 OA
ATOM     69  O   UNL A   1      48.286  26.032  22.850  1.00  0.00    -0.237 OA
ATOM     70  O   UNL A   1      47.161  28.216  22.626  1.00  0.00    -0.744 OA
ENDBRANCH  63  67
ENDBRANCH  46  60
BRANCH  47  71
ATOM     71  C   UNL A   1      38.223  31.063  31.115  1.00  0.00     0.023 A 
ATOM     72  C   UNL A   1      37.192  31.682  30.388  1.00  0.00     0.031 A 
ATOM     73  C   UNL A   1      38.076  30.972  32.511  1.00  0.00     0.131 A 
ATOM     74  C   UNL A   1      36.089  32.231  31.063  1.00  0.00     0.055 A 
ATOM     75  C   UNL A   1      36.948  31.462  33.171  1.00  0.00     0.041 A 
ATOM     76  F   UNL A   1      39.034  30.401  33.260  1.00  0.00    -0.206 F 
ATOM     77  C   UNL A   1      35.953  32.111  32.448  1.00  0.00     0.022 A 
BRANCH  74  78
ATOM     78  S   UNL A   1      34.883  33.206  30.119  1.00  0.00     0.124 S 
ATOM     79  O   UNL A   1      34.044  33.748  31.182  1.00  0.00    -0.237 OA
ATOM     80  O   UNL A   1      35.742  34.161  29.426  1.00  0.00    -0.237 OA
ATOM     81  O   UNL A   1      34.240  32.212  29.261  1.00  0.00    -0.744 OA
ENDBRANCH  74  78
ENDBRANCH  47  71
BRANCH  59  82
ATOM     82  C   UNL A   1      44.316  34.187  29.754  1.00  0.00     0.023 A 
ATOM     83  C   UNL A   1      45.010  34.558  30.918  1.00  0.00     0.031 A 
ATOM     84  C   UNL A   1      44.089  35.178  28.779  1.00  0.00     0.131 A 
ATOM     85  C   UNL A   1      45.401  35.894  31.105  1.00  0.00     0.055 A 
ATOM     86  C   UNL A   1      44.541  36.488  28.940  1.00  0.00     0.041 A 
ATOM     87  F   UNL A   1      43.429  34.884  27.647  1.00  0.00    -0.206 F 
ATOM     88  C   UNL A   1      45.189  36.856  30.115  1.00  0.00     0.022 A 
BRANCH  85  89
ATOM     89  S   UNL A   1      46.103  36.382  32.704  1.00  0.00     0.124 S 
ATOM     90  O   UNL A   1      46.867  37.574  32.351  1.00  0.00    -0.237 OA
ATOM     91  O   UNL A   1      44.910  36.607  33.513  1.00  0.00    -0.237 OA
ATOM     92  O   UNL A   1      46.906  35.225  33.096  1.00  0.00    -0.744 OA
ENDBRANCH  85  89
ENDBRANCH  59  82
ENDBRANCH  33  34
ENDBRANCH  26  28
ENDBRANCH  25  26
ENDBRANCH  24  25
ENDBRANCH  23  24
ENDBRANCH   1  23
TORSDOF 22
ENDMDL
MODEL 3
REMARK VINA RESULT:      -9.9      4.823      9.955
REMARK SMILES C#CC[N@@H+](CC(=O)NC(=O)NC)CC(=O)OCCOCCOC(=O)c1ccc(-c2c3nc(c(-c4cc(S(=O)(=O)[O-])ccc4F)c4ccc([nH]4)c(-c4cc(S(=O)(=O)[O-])ccc4F)c4nc(c(-c5cc(S(=O)(=O)[O-])ccc5F)c5ccc2[nH]5)C=C4)C=C3)cc1
REMARK SMILES IDX 19 1 18 2 17 3 16 4 14 5 15 6 13 7 4 8 3 10 2 11 1 12 5 13
REMARK SMILES IDX 6 14 7 15 8 16 9 17 10 19 11 20 12 21 20 23 21 24 22 25
REMARK SMILES IDX 23 26 24 27 25 28 26 29 87 30 27 31 86 32 28 33 29 34 30 35
REMARK SMILES IDX 80 36 31 37 85 38 79 39 81 40 32 41 84 42 78 43 77 44 33 46
REMARK SMILES IDX 65 47 45 48 64 49 46 50 49 51 63 52 82 53 47 54 48 55 62 57
REMARK SMILES IDX 83 58 50 59 34 60 35 61 43 62 36 63 42 64 44 65 41 66 37 67
REMARK SMILES IDX 38 68 39 69 40 70 66 71 67 72 75 73 68 74 74 75 76 76 73 77
REMARK SMILES IDX 69 78 70 79 71 80 72 81 51 82 52 83 60 84 53 85 59 86 61 87
REMARK SMILES IDX 58 88 54 89 55 90 56 91 57 92
REMARK H PARENT 4 9 8 18 11 22 81 45 49 56
REMARK Flexibility Score: inf
ROOT
ATOM      1  O   UNL A   1      31.720  29.052  25.122  1.00  0.00    -0.374 OA
ENDROOT
BRANCH   1   2
ATOM      2  C   UNL A   1      31.154  28.601  23.887  1.00  0.00     0.202 C 
BRANCH   2   3
ATOM      3  C   UNL A   1      31.483  27.153  23.519  1.00  0.00     0.261 C 
BRANCH   3   4
ATOM      4  O   UNL A   1      32.393  26.584  24.479  1.00  0.00    -0.459 OA
BRANCH   4   5
ATOM      5  C   UNL A   1      33.571  26.112  24.009  1.00  0.00     0.361 C 
ATOM      6  O   UNL A   1      33.926  26.158  22.835  1.00  0.00    -0.245 OA
BRANCH   5   7
ATOM      7  C   UNL A   1      34.401  25.425  25.083  1.00  0.00     0.387 C 
BRANCH   7   8
ATOM      8  N   UNL A   1      34.781  24.018  24.872  1.00  0.00    -0.308 N 
ATOM      9  H   UNL A   1      34.440  24.005  23.911  1.00  0.00     0.349 HD
BRANCH   8  10
ATOM     10  C   UNL A   1      36.095  23.639  24.382  1.00  0.00     0.354 C 
BRANCH  10  11
ATOM     11  C   UNL A   1      37.126  23.783  25.490  1.00  0.00    -0.047 C 
ATOM     12  C   UNL A   1      38.011  23.906  26.440  1.00  0.00     0.010 C 
ENDBRANCH  10  11
ENDBRANCH   8  10
BRANCH   8  13
ATOM     13  C   UNL A   1      33.980  23.011  25.558  1.00  0.00     0.365 C 
BRANCH  13  14
ATOM     14  C   UNL A   1      33.180  22.090  24.657  1.00  0.00     0.283 C 
ATOM     15  O   UNL A   1      33.676  21.034  24.243  1.00  0.00    -0.268 OA
ATOM     16  N   UNL A   1      31.895  22.375  24.234  1.00  0.00    -0.273 N 
ATOM     17  C   UNL A   1      30.996  23.404  24.183  1.00  0.00     0.321 C 
ATOM     18  H   UNL A   1      31.493  21.569  23.838  1.00  0.00     0.175 HD
ATOM     19  O   UNL A   1      30.442  23.676  23.117  1.00  0.00    -0.248 OA
ATOM     20  N   UNL A   1      30.689  24.150  25.255  1.00  0.00    -0.341 N 
ATOM     21  C   UNL A   1      31.000  23.991  26.648  1.00  0.00     0.144 C 
ATOM     22  H   UNL A   1      30.154  24.951  25.049  1.00  0.00     0.165 HD
ENDBRANCH  13  14
ENDBRANCH   8  13
ENDBRANCH   7   8
ENDBRANCH   5   7
ENDBRANCH   4   5
ENDBRANCH   3   4
ENDBRANCH   2   3
ENDBRANCH   1   2
BRANCH   1  23
ATOM     23  C   UNL A   1      31.472  30.418  25.447  1.00  0.00     0.202 C 
BRANCH  23  24
ATOM     24  C   UNL A   1      31.911  30.850  26.854  1.00  0.00     0.261 C 
BRANCH  24  25
ATOM     25  O   UNL A   1      33.292  30.526  27.107  1.00  0.00    -0.460 OA
BRANCH  25  26
ATOM     26  C   UNL A   1      34.025  31.541  27.639  1.00  0.00     0.338 C 
ATOM     27  O   UNL A   1      33.618  32.628  27.995  1.00  0.00    -0.246 OA
BRANCH  26  28
ATOM     28  C   UNL A   1      35.393  31.060  27.937  1.00  0.00     0.060 A 
ATOM     29  C   UNL A   1      35.615  29.681  27.887  1.00  0.00     0.016 A 
ATOM     30  C   UNL A   1      36.428  31.920  28.300  1.00  0.00     0.016 A 
ATOM     31  C   UNL A   1      36.860  29.160  28.247  1.00  0.00     0.010 A 
ATOM     32  C   UNL A   1      37.700  31.401  28.579  1.00  0.00     0.010 A 
ATOM     33  C   UNL A   1      37.910  30.010  28.624  1.00  0.00    -0.014 A 
BRANCH  33  34
ATOM     34  C   UNL A   1      39.131  29.428  29.262  1.00  0.00     0.031 A 
ATOM     35  C   UNL A   1      39.522  29.895  30.647  1.00  0.00     0.074 A 
ATOM     36  C   UNL A   1      39.837  28.441  28.674  1.00  0.00     0.049 A 
ATOM     37  N   UNL A   1      40.511  29.501  31.411  1.00  0.00    -0.248 NA
ATOM     38  C   UNL A   1      38.699  30.958  31.246  1.00  0.00     0.031 C 
ATOM     39  C   UNL A   1      39.563  27.877  27.352  1.00  0.00     0.029 A 
ATOM     40  N   UNL A   1      40.921  27.723  29.121  1.00  0.00    -0.354 N 
ATOM     41  C   UNL A   1      40.429  30.274  32.567  1.00  0.00     0.074 A 
ATOM     42  C   UNL A   1      39.344  31.207  32.372  1.00  0.00     0.031 C 
ATOM     43  C   UNL A   1      40.432  26.880  27.112  1.00  0.00     0.029 A 
ATOM     44  C   UNL A   1      41.355  26.758  28.239  1.00  0.00     0.049 A 
ATOM     45  H   UNL A   1      41.348  27.883  29.993  1.00  0.00     0.167 HD
ATOM     46  C   UNL A   1      41.168  30.199  33.702  1.00  0.00     0.034 A 
ATOM     47  C   UNL A   1      42.382  25.884  28.323  1.00  0.00     0.034 A 
ATOM     48  C   UNL A   1      42.236  29.254  33.906  1.00  0.00     0.049 A 
ATOM     49  C   UNL A   1      43.240  25.869  29.569  1.00  0.00     0.074 A 
ATOM     50  C   UNL A   1      43.019  29.073  35.033  1.00  0.00     0.029 A 
ATOM     51  N   UNL A   1      42.682  28.339  32.963  1.00  0.00    -0.354 N 
ATOM     52  N   UNL A   1      43.129  26.591  30.661  1.00  0.00    -0.248 NA
ATOM     53  C   UNL A   1      44.358  24.915  29.594  1.00  0.00     0.031 C 
ATOM     54  C   UNL A   1      43.991  28.113  34.742  1.00  0.00     0.029 A 
ATOM     55  C   UNL A   1      43.756  27.622  33.467  1.00  0.00     0.049 A 
ATOM     56  H   UNL A   1      42.292  28.216  32.067  1.00  0.00     0.167 HD
ATOM     57  C   UNL A   1      44.139  26.147  31.514  1.00  0.00     0.074 A 
ATOM     58  C   UNL A   1      44.839  25.089  30.817  1.00  0.00     0.031 C 
ATOM     59  C   UNL A   1      44.455  26.573  32.765  1.00  0.00     0.034 A 
BRANCH  46  60
ATOM     60  C   UNL A   1      40.866  31.199  34.796  1.00  0.00     0.023 A 
ATOM     61  C   UNL A   1      39.791  31.027  35.687  1.00  0.00     0.031 A 
ATOM     62  C   UNL A   1      41.655  32.354  34.932  1.00  0.00     0.131 A 
ATOM     63  C   UNL A   1      39.490  32.031  36.620  1.00  0.00     0.055 A 
ATOM     64  C   UNL A   1      41.404  33.306  35.922  1.00  0.00     0.041 A 
ATOM     65  F   UNL A   1      42.679  32.586  34.095  1.00  0.00    -0.206 F 
ATOM     66  C   UNL A   1      40.307  33.155  36.763  1.00  0.00     0.022 A 
BRANCH  63  67
ATOM     67  S   UNL A   1      37.930  31.921  37.540  1.00  0.00     0.124 S 
ATOM     68  O   UNL A   1      37.586  30.510  37.368  1.00  0.00    -0.237 OA
ATOM     69  O   UNL A   1      38.327  32.324  38.883  1.00  0.00    -0.237 OA
ATOM     70  O   UNL A   1      37.053  32.857  36.840  1.00  0.00    -0.744 OA
ENDBRANCH  63  67
ENDBRANCH  46  60
BRANCH  47  71
ATOM     71  C   UNL A   1      42.692  24.960  27.189  1.00  0.00     0.023 A 
ATOM     72  C   UNL A   1      42.160  23.661  27.135  1.00  0.00     0.031 A 
ATOM     73  C   UNL A   1      43.597  25.338  26.180  1.00  0.00     0.131 A 
ATOM     74  C   UNL A   1      42.575  22.773  26.129  1.00  0.00     0.055 A 
ATOM     75  C   UNL A   1      43.958  24.473  25.146  1.00  0.00     0.041 A 
ATOM     76  F   UNL A   1      44.149  26.563  26.186  1.00  0.00    -0.206 F 
ATOM     77  C   UNL A   1      43.457  23.176  25.125  1.00  0.00     0.022 A 
BRANCH  74  78
ATOM     78  S   UNL A   1      42.030  21.043  26.212  1.00  0.00     0.124 S 
ATOM     79  O   UNL A   1      42.275  20.722  27.613  1.00  0.00    -0.237 OA
ATOM     80  O   UNL A   1      40.631  21.147  25.811  1.00  0.00    -0.237 OA
ATOM     81  O   UNL A   1      42.902  20.366  25.254  1.00  0.00    -0.744 OA
ENDBRANCH  74  78
ENDBRANCH  47  71
BRANCH  59  82
ATOM     82  C   UNL A   1      45.576  25.856  33.484  1.00  0.00     0.023 A 
ATOM     83  C   UNL A   1      45.345  24.724  34.284  1.00  0.00     0.031 A 
ATOM     84  C   UNL A   1      46.901  26.316  33.361  1.00  0.00     0.131 A 
ATOM     85  C   UNL A   1      46.411  24.126  34.976  1.00  0.00     0.055 A 
ATOM     86  C   UNL A   1      47.966  25.676  33.996  1.00  0.00     0.041 A 
ATOM     87  F   UNL A   1      47.183  27.395  32.614  1.00  0.00    -0.206 F 
ATOM     88  C   UNL A   1      47.722  24.583  34.821  1.00  0.00     0.022 A 
BRANCH  85  89
ATOM     89  S   UNL A   1      46.048  22.803  36.162  1.00  0.00     0.124 S 
ATOM     90  O   UNL A   1      47.305  22.700  36.897  1.00  0.00    -0.237 OA
ATOM     91  O   UNL A   1      44.919  23.351  36.906  1.00  0.00    -0.237 OA
ATOM     92  O   UNL A   1      45.731  21.656  35.313  1.00  0.00    -0.744 OA
ENDBRANCH  85  89
ENDBRANCH  59  82
ENDBRANCH  33  34
ENDBRANCH  26  28
ENDBRANCH  25  26
ENDBRANCH  24  25
ENDBRANCH  23  24
ENDBRANCH   1  23
TORSDOF 22
ENDMDL
