MODEL 1
REMARK VINA RESULT:     -10.8      0.000      0.000
REMARK SMILES CC(C)CN(C)c1cc2c(cc1Cl)C=C(C(=O)OCCOCCOC(=O)c1ccc(-c3c4nc(c(-c5cc(S(=O)(=O)[O-])ccc5F)c5ccc([nH]5)c(-c5cc(S(=O)(=O)[O-])ccc5F)c5nc(c(-c6cc(S(=O)(=O)[O-])ccc6F)c6ccc3[nH]6)C=C5)C=C4)cc1)[C@@H](C(F)(F)F)O2
REMARK SMILES IDX 21 1 20 2 19 3 18 4 16 5 17 6 15 7 7 8 8 9 12 10 9 11 11 12
REMARK SMILES IDX 13 13 10 14 95 15 14 16 90 17 5 18 6 19 4 20 2 21 1 22 3 23
REMARK SMILES IDX 91 24 92 25 93 26 94 27 22 28 23 29 24 30 25 31 26 32 27 33
REMARK SMILES IDX 28 34 89 35 29 36 88 37 30 38 31 39 32 40 82 41 33 42 87 43
REMARK SMILES IDX 81 44 83 45 34 46 86 47 80 48 79 49 35 51 67 52 47 53 66 54
REMARK SMILES IDX 48 55 51 56 65 57 84 58 49 59 50 60 64 62 85 63 52 64 36 65
REMARK SMILES IDX 37 66 45 67 38 68 44 69 46 70 43 71 39 72 40 73 41 74 42 75
REMARK SMILES IDX 68 76 69 77 77 78 70 79 76 80 78 81 75 82 71 83 72 84 73 85
REMARK SMILES IDX 74 86 53 87 54 88 62 89 55 90 61 91 63 92 60 93 56 94 57 95
REMARK SMILES IDX 58 96 59 97
REMARK H PARENT 83 50 51 61
REMARK Flexibility Score: inf
ROOT
ATOM      1  O   UNL A   1      32.311  30.803  26.557  1.00  0.00    -0.374 OA
ENDROOT
BRANCH   1   2
ATOM      2  C   UNL A   1      31.758  29.638  25.949  1.00  0.00     0.202 C 
BRANCH   2   3
ATOM      3  C   UNL A   1      31.047  29.789  24.600  1.00  0.00     0.261 C 
BRANCH   3   4
ATOM      4  O   UNL A   1      30.262  28.639  24.252  1.00  0.00    -0.460 OA
BRANCH   4   5
ATOM      5  C   UNL A   1      30.537  28.155  23.021  1.00  0.00     0.338 C 
ATOM      6  O   UNL A   1      30.158  28.618  21.954  1.00  0.00    -0.246 OA
BRANCH   5   7
ATOM      7  C   UNL A   1      31.485  27.030  23.095  1.00  0.00     0.087 C 
ATOM      8  C   UNL A   1      34.119  23.212  25.020  1.00  0.00     0.059 A 
ATOM      9  C   UNL A   1      34.220  23.961  23.825  1.00  0.00     0.074 A 
ATOM     10  C   UNL A   1      33.066  23.535  25.903  1.00  0.00     0.065 A 
ATOM     11  C   UNL A   1      33.283  24.955  23.514  1.00  0.00     0.130 A 
ATOM     12  C   UNL A   1      32.067  24.429  25.532  1.00  0.00     0.034 A 
ATOM     13  Cl  UNL A   1      32.972  22.912  27.516  1.00  0.00    -0.082 Cl
ATOM     14  C   UNL A   1      32.174  25.130  24.337  1.00  0.00     0.019 A 
ATOM     15  O   UNL A   1      33.482  25.715  22.390  1.00  0.00    -0.475 OA
ATOM     16  C   UNL A   1      31.162  26.107  24.007  1.00  0.00     0.027 C 
ATOM     17  C   UNL A   1      32.766  26.997  22.309  1.00  0.00     0.316 C 
BRANCH   8  18
ATOM     18  N   UNL A   1      35.024  22.184  25.313  1.00  0.00    -0.373 N 
ATOM     19  C   UNL A   1      36.347  22.609  25.756  1.00  0.00     0.143 C 
BRANCH  18  20
ATOM     20  C   UNL A   1      34.923  20.930  24.535  1.00  0.00     0.119 C 
BRANCH  20  21
ATOM     21  C   UNL A   1      33.570  20.207  24.725  1.00  0.00     0.002 C 
ATOM     22  C   UNL A   1      32.549  20.581  23.644  1.00  0.00     0.009 C 
ATOM     23  C   UNL A   1      33.731  18.683  24.726  1.00  0.00     0.009 C 
ENDBRANCH  20  21
ENDBRANCH  18  20
ENDBRANCH   8  18
BRANCH  17  24
ATOM     24  C   UNL A   1      33.687  28.160  22.707  1.00  0.00     0.430 C 
ATOM     25  F   UNL A   1      33.968  28.143  24.030  1.00  0.00    -0.167 F 
ATOM     26  F   UNL A   1      34.869  28.097  22.050  1.00  0.00    -0.167 F 
ATOM     27  F   UNL A   1      33.133  29.363  22.425  1.00  0.00    -0.167 F 
ENDBRANCH  17  24
ENDBRANCH   5   7
ENDBRANCH   4   5
ENDBRANCH   3   4
ENDBRANCH   2   3
ENDBRANCH   1   2
BRANCH   1  28
ATOM     28  C   UNL A   1      31.488  31.956  26.715  1.00  0.00     0.202 C 
BRANCH  28  29
ATOM     29  C   UNL A   1      32.139  33.345  26.770  1.00  0.00     0.261 C 
BRANCH  29  30
ATOM     30  O   UNL A   1      32.203  33.893  28.097  1.00  0.00    -0.460 OA
BRANCH  30  31
ATOM     31  C   UNL A   1      33.287  34.674  28.337  1.00  0.00     0.338 C 
ATOM     32  O   UNL A   1      33.319  35.896  28.371  1.00  0.00    -0.246 OA
BRANCH  31  33
ATOM     33  C   UNL A   1      34.412  33.825  28.770  1.00  0.00     0.060 A 
ATOM     34  C   UNL A   1      35.730  34.180  28.486  1.00  0.00     0.016 A 
ATOM     35  C   UNL A   1      34.128  32.669  29.510  1.00  0.00     0.016 A 
ATOM     36  C   UNL A   1      36.769  33.383  28.969  1.00  0.00     0.010 A 
ATOM     37  C   UNL A   1      35.169  31.874  29.990  1.00  0.00     0.010 A 
ATOM     38  C   UNL A   1      36.499  32.236  29.741  1.00  0.00    -0.014 A 
BRANCH  38  39
ATOM     39  C   UNL A   1      37.611  31.514  30.410  1.00  0.00     0.031 A 
ATOM     40  C   UNL A   1      38.398  30.449  29.706  1.00  0.00     0.074 A 
ATOM     41  C   UNL A   1      37.889  31.825  31.691  1.00  0.00     0.049 A 
ATOM     42  N   UNL A   1      39.440  29.787  30.140  1.00  0.00    -0.248 NA
ATOM     43  C   UNL A   1      37.964  30.070  28.354  1.00  0.00     0.031 C 
ATOM     44  C   UNL A   1      37.142  32.797  32.489  1.00  0.00     0.029 A 
ATOM     45  N   UNL A   1      38.860  31.366  32.546  1.00  0.00    -0.354 N 
ATOM     46  C   UNL A   1      39.802  28.927  29.111  1.00  0.00     0.074 A 
ATOM     47  C   UNL A   1      38.837  29.116  28.048  1.00  0.00     0.031 C 
ATOM     48  C   UNL A   1      37.693  32.878  33.707  1.00  0.00     0.029 A 
ATOM     49  C   UNL A   1      38.808  31.938  33.796  1.00  0.00     0.049 A 
ATOM     50  H   UNL A   1      39.529  30.691  32.289  1.00  0.00     0.167 HD
ATOM     51  C   UNL A   1      40.858  28.082  29.058  1.00  0.00     0.034 A 
ATOM     52  C   UNL A   1      39.562  31.730  34.896  1.00  0.00     0.034 A 
ATOM     53  C   UNL A   1      41.807  27.907  30.131  1.00  0.00     0.049 A 
ATOM     54  C   UNL A   1      40.731  30.782  34.808  1.00  0.00     0.074 A 
ATOM     55  C   UNL A   1      42.943  27.115  30.141  1.00  0.00     0.029 A 
ATOM     56  N   UNL A   1      41.738  28.513  31.377  1.00  0.00    -0.354 N 
ATOM     57  N   UNL A   1      41.137  30.072  33.781  1.00  0.00    -0.248 NA
ATOM     58  C   UNL A   1      41.559  30.618  36.010  1.00  0.00     0.031 C 
ATOM     59  C   UNL A   1      43.510  27.176  31.411  1.00  0.00     0.029 A 
ATOM     60  C   UNL A   1      42.790  28.084  32.171  1.00  0.00     0.049 A 
ATOM     61  H   UNL A   1      41.045  29.155  31.655  1.00  0.00     0.167 HD
ATOM     62  C   UNL A   1      42.277  29.396  34.208  1.00  0.00     0.074 A 
ATOM     63  C   UNL A   1      42.517  29.809  35.573  1.00  0.00     0.031 C 
ATOM     64  C   UNL A   1      43.045  28.507  33.528  1.00  0.00     0.034 A 
BRANCH  51  65
ATOM     65  C   UNL A   1      41.107  27.292  27.796  1.00  0.00     0.023 A 
ATOM     66  C   UNL A   1      40.899  25.899  27.786  1.00  0.00     0.031 A 
ATOM     67  C   UNL A   1      41.747  27.877  26.691  1.00  0.00     0.131 A 
ATOM     68  C   UNL A   1      41.390  25.130  26.723  1.00  0.00     0.055 A 
ATOM     69  C   UNL A   1      42.190  27.112  25.610  1.00  0.00     0.041 A 
ATOM     70  F   UNL A   1      41.974  29.200  26.655  1.00  0.00    -0.206 F 
ATOM     71  C   UNL A   1      42.030  25.730  25.634  1.00  0.00     0.022 A 
BRANCH  68  72
ATOM     72  S   UNL A   1      41.307  23.319  26.760  1.00  0.00     0.124 S 
ATOM     73  O   UNL A   1      39.874  23.079  26.605  1.00  0.00    -0.237 OA
ATOM     74  O   UNL A   1      42.128  22.953  25.610  1.00  0.00    -0.237 OA
ATOM     75  O   UNL A   1      41.854  22.970  28.066  1.00  0.00    -0.744 OA
ENDBRANCH  68  72
ENDBRANCH  51  65
BRANCH  52  76
ATOM     76  C   UNL A   1      39.242  32.480  36.145  1.00  0.00     0.023 A 
ATOM     77  C   UNL A   1      39.856  33.718  36.409  1.00  0.00     0.031 A 
ATOM     78  C   UNL A   1      38.415  31.930  37.138  1.00  0.00     0.131 A 
ATOM     79  C   UNL A   1      39.694  34.327  37.659  1.00  0.00     0.055 A 
ATOM     80  C   UNL A   1      38.189  32.583  38.353  1.00  0.00     0.041 A 
ATOM     81  F   UNL A   1      37.822  30.743  36.945  1.00  0.00    -0.206 F 
ATOM     82  C   UNL A   1      38.847  33.778  38.625  1.00  0.00     0.022 A 
BRANCH  79  83
ATOM     83  S   UNL A   1      40.700  35.763  38.126  1.00  0.00     0.124 S 
ATOM     84  O   UNL A   1      40.904  35.540  39.554  1.00  0.00    -0.237 OA
ATOM     85  O   UNL A   1      41.882  35.586  37.285  1.00  0.00    -0.237 OA
ATOM     86  O   UNL A   1      39.858  36.902  37.777  1.00  0.00    -0.744 OA
ENDBRANCH  79  83
ENDBRANCH  52  76
BRANCH  64  87
ATOM     87  C   UNL A   1      44.243  27.895  34.220  1.00  0.00     0.023 A 
ATOM     88  C   UNL A   1      44.069  26.801  35.089  1.00  0.00     0.031 A 
ATOM     89  C   UNL A   1      45.513  28.494  34.155  1.00  0.00     0.131 A 
ATOM     90  C   UNL A   1      45.130  26.376  35.899  1.00  0.00     0.055 A 
ATOM     91  C   UNL A   1      46.583  28.028  34.920  1.00  0.00     0.041 A 
ATOM     92  F   UNL A   1      45.731  29.549  33.354  1.00  0.00    -0.206 F 
ATOM     93  C   UNL A   1      46.390  26.975  35.811  1.00  0.00     0.022 A 
BRANCH  90  94
ATOM     94  S   UNL A   1      44.887  25.101  37.169  1.00  0.00     0.124 S 
ATOM     95  O   UNL A   1      45.218  23.880  36.439  1.00  0.00    -0.237 OA
ATOM     96  O   UNL A   1      45.853  25.499  38.190  1.00  0.00    -0.237 OA
ATOM     97  O   UNL A   1      43.484  25.239  37.544  1.00  0.00    -0.744 OA
ENDBRANCH  90  94
ENDBRANCH  64  87
ENDBRANCH  38  39
ENDBRANCH  31  33
ENDBRANCH  30  31
ENDBRANCH  29  30
ENDBRANCH  28  29
ENDBRANCH   1  28
TORSDOF 21
ENDMDL
MODEL 2
REMARK VINA RESULT:     -10.8      1.756      2.193
REMARK SMILES CC(C)CN(C)c1cc2c(cc1Cl)C=C(C(=O)OCCOCCOC(=O)c1ccc(-c3c4nc(c(-c5cc(S(=O)(=O)[O-])ccc5F)c5ccc([nH]5)c(-c5cc(S(=O)(=O)[O-])ccc5F)c5nc(c(-c6cc(S(=O)(=O)[O-])ccc6F)c6ccc3[nH]6)C=C5)C=C4)cc1)[C@@H](C(F)(F)F)O2
REMARK SMILES IDX 21 1 20 2 19 3 18 4 16 5 17 6 15 7 7 8 8 9 12 10 9 11 11 12
REMARK SMILES IDX 13 13 10 14 95 15 14 16 90 17 5 18 6 19 4 20 2 21 1 22 3 23
REMARK SMILES IDX 91 24 92 25 93 26 94 27 22 28 23 29 24 30 25 31 26 32 27 33
REMARK SMILES IDX 28 34 89 35 29 36 88 37 30 38 31 39 32 40 82 41 33 42 87 43
REMARK SMILES IDX 81 44 83 45 34 46 86 47 80 48 79 49 35 51 67 52 47 53 66 54
REMARK SMILES IDX 48 55 51 56 65 57 84 58 49 59 50 60 64 62 85 63 52 64 36 65
REMARK SMILES IDX 37 66 45 67 38 68 44 69 46 70 43 71 39 72 40 73 41 74 42 75
REMARK SMILES IDX 68 76 69 77 77 78 70 79 76 80 78 81 75 82 71 83 72 84 73 85
REMARK SMILES IDX 74 86 53 87 54 88 62 89 55 90 61 91 63 92 60 93 56 94 57 95
REMARK SMILES IDX 58 96 59 97
REMARK H PARENT 83 50 51 61
REMARK Flexibility Score: inf
ROOT
ATOM      1  O   UNL A   1      30.023  31.490  24.632  1.00  0.00    -0.374 OA
ENDROOT
BRANCH   1   2
ATOM      2  C   UNL A   1      29.557  30.398  23.843  1.00  0.00     0.202 C 
BRANCH   2   3
ATOM      3  C   UNL A   1      30.557  29.308  23.445  1.00  0.00     0.261 C 
BRANCH   3   4
ATOM      4  O   UNL A   1      30.194  28.011  23.939  1.00  0.00    -0.460 OA
BRANCH   4   5
ATOM      5  C   UNL A   1      31.046  27.536  24.875  1.00  0.00     0.338 C 
ATOM      6  O   UNL A   1      31.377  28.096  25.911  1.00  0.00    -0.246 OA
BRANCH   5   7
ATOM      7  C   UNL A   1      31.459  26.157  24.561  1.00  0.00     0.087 C 
ATOM      8  C   UNL A   1      33.448  21.585  25.161  1.00  0.00     0.059 A 
ATOM      9  C   UNL A   1      33.018  22.320  24.033  1.00  0.00     0.074 A 
ATOM     10  C   UNL A   1      33.303  22.193  26.427  1.00  0.00     0.065 A 
ATOM     11  C   UNL A   1      32.430  23.584  24.175  1.00  0.00     0.130 A 
ATOM     12  C   UNL A   1      32.603  23.386  26.574  1.00  0.00     0.034 A 
ATOM     13  Cl  UNL A   1      34.029  21.553  27.862  1.00  0.00    -0.082 Cl
ATOM     14  C   UNL A   1      32.163  24.074  25.449  1.00  0.00     0.019 A 
ATOM     15  O   UNL A   1      32.118  24.293  23.042  1.00  0.00    -0.475 OA
ATOM     16  C   UNL A   1      31.503  25.348  25.624  1.00  0.00     0.027 C 
ATOM     17  C   UNL A   1      31.917  25.742  23.191  1.00  0.00     0.316 C 
BRANCH   8  18
ATOM     18  N   UNL A   1      33.991  20.301  25.029  1.00  0.00    -0.373 N 
ATOM     19  C   UNL A   1      35.446  20.231  24.957  1.00  0.00     0.143 C 
BRANCH  18  20
ATOM     20  C   UNL A   1      33.211  19.292  24.279  1.00  0.00     0.119 C 
BRANCH  20  21
ATOM     21  C   UNL A   1      33.621  17.840  24.612  1.00  0.00     0.002 C 
ATOM     22  C   UNL A   1      32.494  17.053  25.292  1.00  0.00     0.009 C 
ATOM     23  C   UNL A   1      34.058  17.069  23.362  1.00  0.00     0.009 C 
ENDBRANCH  20  21
ENDBRANCH  18  20
ENDBRANCH   8  18
BRANCH  17  24
ATOM     24  C   UNL A   1      33.181  26.511  22.775  1.00  0.00     0.430 C 
ATOM     25  F   UNL A   1      33.978  25.764  21.977  1.00  0.00    -0.167 F 
ATOM     26  F   UNL A   1      32.868  27.633  22.083  1.00  0.00    -0.167 F 
ATOM     27  F   UNL A   1      33.918  26.890  23.845  1.00  0.00    -0.167 F 
ENDBRANCH  17  24
ENDBRANCH   5   7
ENDBRANCH   4   5
ENDBRANCH   3   4
ENDBRANCH   2   3
ENDBRANCH   1   2
BRANCH   1  28
ATOM     28  C   UNL A   1      31.001  31.245  25.640  1.00  0.00     0.202 C 
BRANCH  28  29
ATOM     29  C   UNL A   1      31.512  32.414  26.494  1.00  0.00     0.261 C 
BRANCH  29  30
ATOM     30  O   UNL A   1      32.558  32.042  27.405  1.00  0.00    -0.460 OA
BRANCH  30  31
ATOM     31  C   UNL A   1      33.489  33.004  27.625  1.00  0.00     0.338 C 
ATOM     32  O   UNL A   1      33.310  34.214  27.623  1.00  0.00    -0.246 OA
BRANCH  31  33
ATOM     33  C   UNL A   1      34.740  32.373  28.086  1.00  0.00     0.060 A 
ATOM     34  C   UNL A   1      35.899  33.127  28.265  1.00  0.00     0.016 A 
ATOM     35  C   UNL A   1      34.727  31.003  28.379  1.00  0.00     0.016 A 
ATOM     36  C   UNL A   1      37.045  32.506  28.764  1.00  0.00     0.010 A 
ATOM     37  C   UNL A   1      35.875  30.384  28.877  1.00  0.00     0.010 A 
ATOM     38  C   UNL A   1      37.037  31.136  29.092  1.00  0.00    -0.014 A 
BRANCH  38  39
ATOM     39  C   UNL A   1      38.195  30.536  29.803  1.00  0.00     0.031 A 
ATOM     40  C   UNL A   1      39.037  29.464  29.180  1.00  0.00     0.074 A 
ATOM     41  C   UNL A   1      38.467  30.969  31.051  1.00  0.00     0.049 A 
ATOM     42  N   UNL A   1      40.120  28.902  29.652  1.00  0.00    -0.248 NA
ATOM     43  C   UNL A   1      38.614  28.950  27.869  1.00  0.00     0.031 C 
ATOM     44  C   UNL A   1      37.671  31.959  31.776  1.00  0.00     0.029 A 
ATOM     45  N   UNL A   1      39.470  30.639  31.927  1.00  0.00    -0.354 N 
ATOM     46  C   UNL A   1      40.523  27.982  28.692  1.00  0.00     0.074 A 
ATOM     47  C   UNL A   1      39.538  28.026  27.631  1.00  0.00     0.031 C 
ATOM     48  C   UNL A   1      38.227  32.173  32.976  1.00  0.00     0.029 A 
ATOM     49  C   UNL A   1      39.396  31.309  33.127  1.00  0.00     0.049 A 
ATOM     50  H   UNL A   1      40.175  29.985  31.717  1.00  0.00     0.167 HD
ATOM     51  C   UNL A   1      41.626  27.197  28.694  1.00  0.00     0.034 A 
ATOM     52  C   UNL A   1      40.171  31.237  34.229  1.00  0.00     0.034 A 
ATOM     53  C   UNL A   1      42.593  27.167  29.765  1.00  0.00     0.049 A 
ATOM     54  C   UNL A   1      41.392  30.354  34.203  1.00  0.00     0.074 A 
ATOM     55  C   UNL A   1      43.773  26.445  29.824  1.00  0.00     0.029 A 
ATOM     56  N   UNL A   1      42.500  27.870  30.958  1.00  0.00    -0.354 N 
ATOM     57  N   UNL A   1      41.830  29.586  33.233  1.00  0.00    -0.248 NA
ATOM     58  C   UNL A   1      42.239  30.338  35.403  1.00  0.00     0.031 C 
ATOM     59  C   UNL A   1      44.348  26.645  31.077  1.00  0.00     0.029 A 
ATOM     60  C   UNL A   1      43.582  27.570  31.769  1.00  0.00     0.049 A 
ATOM     61  H   UNL A   1      41.773  28.491  31.192  1.00  0.00     0.167 HD
ATOM     62  C   UNL A   1      43.012  29.014  33.698  1.00  0.00     0.074 A 
ATOM     63  C   UNL A   1      43.239  29.553  35.021  1.00  0.00     0.031 C 
ATOM     64  C   UNL A   1      43.824  28.118  33.083  1.00  0.00     0.034 A 
BRANCH  51  65
ATOM     65  C   UNL A   1      41.910  26.320  27.499  1.00  0.00     0.023 A 
ATOM     66  C   UNL A   1      41.515  24.968  27.508  1.00  0.00     0.031 A 
ATOM     67  C   UNL A   1      42.748  26.762  26.461  1.00  0.00     0.131 A 
ATOM     68  C   UNL A   1      42.016  24.090  26.539  1.00  0.00     0.055 A 
ATOM     69  C   UNL A   1      43.204  25.893  25.468  1.00  0.00     0.041 A 
ATOM     70  F   UNL A   1      43.156  28.040  26.410  1.00  0.00    -0.206 F 
ATOM     71  C   UNL A   1      42.855  24.547  25.517  1.00  0.00     0.022 A 
BRANCH  68  72
ATOM     72  S   UNL A   1      41.682  22.310  26.625  1.00  0.00     0.124 S 
ATOM     73  O   UNL A   1      40.221  22.278  26.636  1.00  0.00    -0.237 OA
ATOM     74  O   UNL A   1      42.308  21.824  25.399  1.00  0.00    -0.237 OA
ATOM     75  O   UNL A   1      42.319  21.894  27.869  1.00  0.00    -0.744 OA
ENDBRANCH  68  72
ENDBRANCH  51  65
BRANCH  52  76
ATOM     76  C   UNL A   1      39.819  32.069  35.417  1.00  0.00     0.023 A 
ATOM     77  C   UNL A   1      39.044  31.527  36.460  1.00  0.00     0.031 A 
ATOM     78  C   UNL A   1      40.149  33.432  35.481  1.00  0.00     0.131 A 
ATOM     79  C   UNL A   1      38.565  32.358  37.479  1.00  0.00     0.055 A 
ATOM     80  C   UNL A   1      39.738  34.240  36.544  1.00  0.00     0.041 A 
ATOM     81  F   UNL A   1      40.868  34.002  34.502  1.00  0.00    -0.206 F 
ATOM     82  C   UNL A   1      38.925  33.708  37.539  1.00  0.00     0.022 A 
BRANCH  79  83
ATOM     83  S   UNL A   1      37.333  31.752  38.665  1.00  0.00     0.124 S 
ATOM     84  O   UNL A   1      38.047  31.870  39.932  1.00  0.00    -0.237 OA
ATOM     85  O   UNL A   1      36.238  32.699  38.468  1.00  0.00    -0.237 OA
ATOM     86  O   UNL A   1      37.062  30.391  38.215  1.00  0.00    -0.744 OA
ENDBRANCH  79  83
ENDBRANCH  52  76
BRANCH  64  87
ATOM     87  C   UNL A   1      45.062  27.636  33.807  1.00  0.00     0.023 A 
ATOM     88  C   UNL A   1      44.985  26.522  34.665  1.00  0.00     0.031 A 
ATOM     89  C   UNL A   1      46.260  28.371  33.783  1.00  0.00     0.131 A 
ATOM     90  C   UNL A   1      46.063  26.209  35.503  1.00  0.00     0.055 A 
ATOM     91  C   UNL A   1      47.353  28.019  34.576  1.00  0.00     0.041 A 
ATOM     92  F   UNL A   1      46.383  29.451  32.994  1.00  0.00    -0.206 F 
ATOM     93  C   UNL A   1      47.251  26.944  35.456  1.00  0.00     0.022 A 
BRANCH  90  94
ATOM     94  S   UNL A   1      45.926  24.904  36.759  1.00  0.00     0.124 S 
ATOM     95  O   UNL A   1      45.669  25.678  37.971  1.00  0.00    -0.237 OA
ATOM     96  O   UNL A   1      44.796  24.123  36.266  1.00  0.00    -0.237 OA
ATOM     97  O   UNL A   1      47.222  24.234  36.714  1.00  0.00    -0.744 OA
ENDBRANCH  90  94
ENDBRANCH  64  87
ENDBRANCH  38  39
ENDBRANCH  31  33
ENDBRANCH  30  31
ENDBRANCH  29  30
ENDBRANCH  28  29
ENDBRANCH   1  28
TORSDOF 21
ENDMDL
MODEL 3
REMARK VINA RESULT:     -10.3      2.031      7.612
REMARK SMILES CC(C)CN(C)c1cc2c(cc1Cl)C=C(C(=O)OCCOCCOC(=O)c1ccc(-c3c4nc(c(-c5cc(S(=O)(=O)[O-])ccc5F)c5ccc([nH]5)c(-c5cc(S(=O)(=O)[O-])ccc5F)c5nc(c(-c6cc(S(=O)(=O)[O-])ccc6F)c6ccc3[nH]6)C=C5)C=C4)cc1)[C@@H](C(F)(F)F)O2
REMARK SMILES IDX 21 1 20 2 19 3 18 4 16 5 17 6 15 7 7 8 8 9 12 10 9 11 11 12
REMARK SMILES IDX 13 13 10 14 95 15 14 16 90 17 5 18 6 19 4 20 2 21 1 22 3 23
REMARK SMILES IDX 91 24 92 25 93 26 94 27 22 28 23 29 24 30 25 31 26 32 27 33
REMARK SMILES IDX 28 34 89 35 29 36 88 37 30 38 31 39 32 40 82 41 33 42 87 43
REMARK SMILES IDX 81 44 83 45 34 46 86 47 80 48 79 49 35 51 67 52 47 53 66 54
REMARK SMILES IDX 48 55 51 56 65 57 84 58 49 59 50 60 64 62 85 63 52 64 36 65
REMARK SMILES IDX 37 66 45 67 38 68 44 69 46 70 43 71 39 72 40 73 41 74 42 75
REMARK SMILES IDX 68 76 69 77 77 78 70 79 76 80 78 81 75 82 71 83 72 84 73 85
REMARK SMILES IDX 74 86 53 87 54 88 62 89 55 90 61 91 63 92 60 93 56 94 57 95
REMARK SMILES IDX 58 96 59 97
REMARK H PARENT 83 50 51 61
REMARK Flexibility Score: inf
ROOT
ATOM      1  O   UNL A   1      33.193  30.028  27.041  1.00  0.00    -0.374 OA
ENDROOT
BRANCH   1   2
ATOM      2  C   UNL A   1      33.809  29.227  26.036  1.00  0.00     0.202 C 
BRANCH   2   3
ATOM      3  C   UNL A   1      33.293  29.339  24.598  1.00  0.00     0.261 C 
BRANCH   3   4
ATOM      4  O   UNL A   1      33.103  28.062  23.973  1.00  0.00    -0.460 OA
BRANCH   4   5
ATOM      5  C   UNL A   1      31.948  27.456  24.328  1.00  0.00     0.338 C 
ATOM      6  O   UNL A   1      30.826  27.938  24.272  1.00  0.00    -0.246 OA
BRANCH   5   7
ATOM      7  C   UNL A   1      32.181  26.048  24.694  1.00  0.00     0.087 C 
ATOM      8  C   UNL A   1      34.477  21.597  25.062  1.00  0.00     0.059 A 
ATOM      9  C   UNL A   1      33.152  22.033  25.295  1.00  0.00     0.074 A 
ATOM     10  C   UNL A   1      35.418  22.567  24.654  1.00  0.00     0.065 A 
ATOM     11  C   UNL A   1      32.803  23.383  25.167  1.00  0.00     0.130 A 
ATOM     12  C   UNL A   1      35.099  23.921  24.655  1.00  0.00     0.034 A 
ATOM     13  Cl  UNL A   1      36.992  22.155  24.064  1.00  0.00    -0.082 Cl
ATOM     14  C   UNL A   1      33.795  24.326  24.917  1.00  0.00     0.019 A 
ATOM     15  O   UNL A   1      31.484  23.736  25.311  1.00  0.00    -0.475 OA
ATOM     16  C   UNL A   1      33.472  25.731  24.840  1.00  0.00     0.027 C 
ATOM     17  C   UNL A   1      31.072  25.036  24.762  1.00  0.00     0.316 C 
BRANCH   8  18
ATOM     18  N   UNL A   1      34.844  20.256  25.236  1.00  0.00    -0.373 N 
ATOM     19  C   UNL A   1      36.155  19.884  24.718  1.00  0.00     0.143 C 
BRANCH  18  20
ATOM     20  C   UNL A   1      33.773  19.236  25.211  1.00  0.00     0.119 C 
BRANCH  20  21
ATOM     21  C   UNL A   1      33.816  18.345  23.948  1.00  0.00     0.002 C 
ATOM     22  C   UNL A   1      34.156  16.886  24.271  1.00  0.00     0.009 C 
ATOM     23  C   UNL A   1      32.487  18.372  23.185  1.00  0.00     0.009 C 
ENDBRANCH  20  21
ENDBRANCH  18  20
ENDBRANCH   8  18
BRANCH  17  24
ATOM     24  C   UNL A   1      30.403  24.858  23.390  1.00  0.00     0.430 C 
ATOM     25  F   UNL A   1      30.190  23.553  23.106  1.00  0.00    -0.167 F 
ATOM     26  F   UNL A   1      29.197  25.474  23.348  1.00  0.00    -0.167 F 
ATOM     27  F   UNL A   1      31.154  25.375  22.389  1.00  0.00    -0.167 F 
ENDBRANCH  17  24
ENDBRANCH   5   7
ENDBRANCH   4   5
ENDBRANCH   3   4
ENDBRANCH   2   3
ENDBRANCH   1   2
BRANCH   1  28
ATOM     28  C   UNL A   1      32.050  30.807  26.698  1.00  0.00     0.202 C 
BRANCH  28  29
ATOM     29  C   UNL A   1      32.137  32.339  26.756  1.00  0.00     0.261 C 
BRANCH  29  30
ATOM     30  O   UNL A   1      32.612  32.836  28.017  1.00  0.00    -0.460 OA
BRANCH  30  31
ATOM     31  C   UNL A   1      33.691  33.656  27.934  1.00  0.00     0.338 C 
ATOM     32  O   UNL A   1      33.684  34.858  27.708  1.00  0.00    -0.246 OA
BRANCH  31  33
ATOM     33  C   UNL A   1      34.893  32.923  28.371  1.00  0.00     0.060 A 
ATOM     34  C   UNL A   1      36.169  33.417  28.107  1.00  0.00     0.016 A 
ATOM     35  C   UNL A   1      34.723  31.736  29.096  1.00  0.00     0.016 A 
ATOM     36  C   UNL A   1      37.281  32.727  28.593  1.00  0.00     0.010 A 
ATOM     37  C   UNL A   1      35.836  31.047  29.580  1.00  0.00     0.010 A 
ATOM     38  C   UNL A   1      37.123  31.549  29.350  1.00  0.00    -0.014 A 
BRANCH  38  39
ATOM     39  C   UNL A   1      38.297  30.938  30.024  1.00  0.00     0.031 A 
ATOM     40  C   UNL A   1      38.686  31.308  31.425  1.00  0.00     0.074 A 
ATOM     41  C   UNL A   1      39.032  30.044  29.333  1.00  0.00     0.049 A 
ATOM     42  N   UNL A   1      39.640  30.804  32.164  1.00  0.00    -0.248 NA
ATOM     43  C   UNL A   1      37.919  32.379  32.077  1.00  0.00     0.031 C 
ATOM     44  C   UNL A   1      38.781  29.663  27.943  1.00  0.00     0.029 A 
ATOM     45  N   UNL A   1      40.127  29.300  29.692  1.00  0.00    -0.354 N 
ATOM     46  C   UNL A   1      39.580  31.479  33.377  1.00  0.00     0.074 A 
ATOM     47  C   UNL A   1      38.526  32.464  33.256  1.00  0.00     0.031 C 
ATOM     48  C   UNL A   1      39.680  28.742  27.573  1.00  0.00     0.029 A 
ATOM     49  C   UNL A   1      40.599  28.492  28.681  1.00  0.00     0.049 A 
ATOM     50  H   UNL A   1      40.538  29.340  30.585  1.00  0.00     0.167 HD
ATOM     51  C   UNL A   1      40.323  31.270  34.490  1.00  0.00     0.034 A 
ATOM     52  C   UNL A   1      41.652  27.650  28.642  1.00  0.00     0.034 A 
ATOM     53  C   UNL A   1      41.371  30.284  34.587  1.00  0.00     0.049 A 
ATOM     54  C   UNL A   1      42.463  27.439  29.895  1.00  0.00     0.074 A 
ATOM     55  C   UNL A   1      42.136  29.963  35.696  1.00  0.00     0.029 A 
ATOM     56  N   UNL A   1      41.813  29.469  33.554  1.00  0.00    -0.354 N 
ATOM     57  N   UNL A   1      42.309  27.992  31.076  1.00  0.00    -0.248 NA
ATOM     58  C   UNL A   1      43.572  26.478  29.828  1.00  0.00     0.031 C 
ATOM     59  C   UNL A   1      43.089  29.021  35.314  1.00  0.00     0.029 A 
ATOM     60  C   UNL A   1      42.860  28.675  33.992  1.00  0.00     0.049 A 
ATOM     61  H   UNL A   1      41.436  29.457  32.644  1.00  0.00     0.167 HD
ATOM     62  C   UNL A   1      43.286  27.431  31.894  1.00  0.00     0.074 A 
ATOM     63  C   UNL A   1      44.002  26.470  31.084  1.00  0.00     0.031 C 
ATOM     64  C   UNL A   1      43.566  27.700  33.194  1.00  0.00     0.034 A 
BRANCH  51  65
ATOM     65  C   UNL A   1      40.030  32.075  35.733  1.00  0.00     0.023 A 
ATOM     66  C   UNL A   1      39.104  31.595  36.679  1.00  0.00     0.031 A 
ATOM     67  C   UNL A   1      40.498  33.393  35.868  1.00  0.00     0.131 A 
ATOM     68  C   UNL A   1      38.622  32.452  37.677  1.00  0.00     0.055 A 
ATOM     69  C   UNL A   1      40.053  34.227  36.895  1.00  0.00     0.041 A 
ATOM     70  F   UNL A   1      41.378  33.898  34.989  1.00  0.00    -0.206 F 
ATOM     71  C   UNL A   1      39.095  33.763  37.792  1.00  0.00     0.022 A 
BRANCH  68  72
ATOM     72  S   UNL A   1      37.294  31.932  38.797  1.00  0.00     0.124 S 
ATOM     73  O   UNL A   1      37.037  30.566  38.347  1.00  0.00    -0.237 OA
ATOM     74  O   UNL A   1      37.936  32.049  40.104  1.00  0.00    -0.237 OA
ATOM     75  O   UNL A   1      36.220  32.883  38.532  1.00  0.00    -0.744 OA
ENDBRANCH  68  72
ENDBRANCH  51  65
BRANCH  52  76
ATOM     76  C   UNL A   1      41.951  26.923  27.373  1.00  0.00     0.023 A 
ATOM     77  C   UNL A   1      41.686  25.546  27.263  1.00  0.00     0.031 A 
ATOM     78  C   UNL A   1      42.600  27.557  26.301  1.00  0.00     0.131 A 
ATOM     79  C   UNL A   1      42.133  24.834  26.144  1.00  0.00     0.055 A 
ATOM     80  C   UNL A   1      42.970  26.859  25.149  1.00  0.00     0.041 A 
ATOM     81  F   UNL A   1      42.894  28.864  26.364  1.00  0.00    -0.206 F 
ATOM     82  C   UNL A   1      42.755  25.486  25.075  1.00  0.00     0.022 A 
BRANCH  79  83
ATOM     83  S   UNL A   1      42.064  23.022  26.111  1.00  0.00     0.124 S 
ATOM     84  O   UNL A   1      42.723  22.670  27.364  1.00  0.00    -0.237 OA
ATOM     85  O   UNL A   1      40.624  22.779  26.065  1.00  0.00    -0.237 OA
ATOM     86  O   UNL A   1      42.789  22.671  24.894  1.00  0.00    -0.744 OA
ENDBRANCH  79  83
ENDBRANCH  52  76
BRANCH  64  87
ATOM     87  C   UNL A   1      44.696  26.954  33.869  1.00  0.00     0.023 A 
ATOM     88  C   UNL A   1      44.443  25.727  34.512  1.00  0.00     0.031 A 
ATOM     89  C   UNL A   1      45.968  27.532  34.023  1.00  0.00     0.131 A 
ATOM     90  C   UNL A   1      45.426  25.147  35.324  1.00  0.00     0.055 A 
ATOM     91  C   UNL A   1      46.965  26.920  34.785  1.00  0.00     0.041 A 
ATOM     92  F   UNL A   1      46.258  28.708  33.444  1.00  0.00    -0.206 F 
ATOM     93  C   UNL A   1      46.690  25.730  35.454  1.00  0.00     0.022 A 
BRANCH  90  94
ATOM     94  S   UNL A   1      45.069  23.673  36.322  1.00  0.00     0.124 S 
ATOM     95  O   UNL A   1      43.879  23.142  35.660  1.00  0.00    -0.237 OA
ATOM     96  O   UNL A   1      46.284  22.883  36.147  1.00  0.00    -0.237 OA
ATOM     97  O   UNL A   1      44.849  24.200  37.664  1.00  0.00    -0.744 OA
ENDBRANCH  90  94
ENDBRANCH  64  87
ENDBRANCH  38  39
ENDBRANCH  31  33
ENDBRANCH  30  31
ENDBRANCH  29  30
ENDBRANCH  28  29
ENDBRANCH   1  28
TORSDOF 21
ENDMDL
