MODEL 1
REMARK VINA RESULT:      -9.3      0.000      0.000
REMARK SMILES C=CC[C@@H](NC(=O)OCc1ccccc1)C(=O)OCCOCCOC(=O)c1ccc(-c2c3nc(c(-c4cc(S(=O)(=O)[O-])ccc4F)c4ccc([nH]4)c(-c4cc(S(=O)(=O)[O-])ccc4F)c4nc(c(-c5cc(S(=O)(=O)[O-])ccc5F)c5ccc2[nH]5)C=C4)C=C3)cc1
REMARK SMILES IDX 20 1 19 2 18 3 16 4 17 5 4 6 3 7 2 8 1 9 5 10 6 11 7 13 8 14
REMARK SMILES IDX 9 15 10 16 11 17 15 18 12 19 14 20 13 21 21 22 22 23 23 24
REMARK SMILES IDX 24 25 25 26 26 27 27 28 28 29 89 30 29 31 88 32 30 33 31 34
REMARK SMILES IDX 32 35 82 36 33 37 87 38 81 39 83 40 34 41 86 42 80 43 79 44
REMARK SMILES IDX 35 46 67 47 47 48 66 49 48 50 51 51 65 52 84 53 49 54 50 55
REMARK SMILES IDX 64 57 85 58 52 59 36 60 37 61 45 62 38 63 44 64 46 65 43 66
REMARK SMILES IDX 39 67 40 68 41 69 42 70 68 71 69 72 77 73 70 74 76 75 78 76
REMARK SMILES IDX 75 77 71 78 72 79 73 80 74 81 53 82 54 83 62 84 55 85 61 86
REMARK SMILES IDX 63 87 60 88 56 89 57 90 58 91 59 92
REMARK H PARENT 5 12 83 45 51 56
REMARK Flexibility Score: inf
ROOT
ATOM      1  C   UNL A   1      37.301  20.890  25.190  1.00  0.00     0.202 C 
ENDROOT
BRANCH   1   2
ATOM      2  C   UNL A   1      36.246  21.546  24.298  1.00  0.00     0.261 C 
BRANCH   2   3
ATOM      3  O   UNL A   1      35.051  21.918  25.000  1.00  0.00    -0.462 OA
BRANCH   3   4
ATOM      4  C   UNL A   1      35.019  23.202  25.469  1.00  0.00     0.329 C 
ATOM      5  O   UNL A   1      35.733  23.648  26.361  1.00  0.00    -0.250 OA
BRANCH   4   6
ATOM      6  C   UNL A   1      33.870  24.003  24.838  1.00  0.00     0.199 C 
BRANCH   6   7
ATOM      7  C   UNL A   1      33.180  24.992  25.790  1.00  0.00     0.064 C 
BRANCH   7   8
ATOM      8  C   UNL A   1      32.071  24.323  26.573  1.00  0.00    -0.032 C 
ATOM      9  C   UNL A   1      30.822  24.146  26.120  1.00  0.00     0.004 C 
ENDBRANCH   7   8
ENDBRANCH   6   7
BRANCH   6  10
ATOM     10  N   UNL A   1      34.178  24.583  23.524  1.00  0.00    -0.308 N 
ATOM     11  C   UNL A   1      33.360  25.337  22.734  1.00  0.00     0.408 C 
ATOM     12  H   UNL A   1      35.081  24.406  23.172  1.00  0.00     0.168 HD
ATOM     13  O   UNL A   1      33.676  25.624  21.585  1.00  0.00    -0.225 OA
BRANCH  11  14
ATOM     14  O   UNL A   1      32.293  25.817  23.400  1.00  0.00    -0.445 OA
BRANCH  14  15
ATOM     15  C   UNL A   1      31.239  26.404  22.627  1.00  0.00     0.270 C 
BRANCH  15  16
ATOM     16  C   UNL A   1      30.776  27.749  23.157  1.00  0.00    -0.011 A 
ATOM     17  C   UNL A   1      31.377  28.389  24.252  1.00  0.00     0.007 A 
ATOM     18  C   UNL A   1      29.734  28.414  22.494  1.00  0.00     0.007 A 
ATOM     19  C   UNL A   1      30.989  29.675  24.637  1.00  0.00     0.000 A 
ATOM     20  C   UNL A   1      29.336  29.694  22.888  1.00  0.00     0.000 A 
ATOM     21  C   UNL A   1      29.975  30.331  23.949  1.00  0.00     0.000 A 
ENDBRANCH  15  16
ENDBRANCH  14  15
ENDBRANCH  11  14
ENDBRANCH   6  10
ENDBRANCH   4   6
ENDBRANCH   3   4
ENDBRANCH   2   3
ENDBRANCH   1   2
BRANCH   1  22
ATOM     22  O   UNL A   1      38.556  21.544  25.324  1.00  0.00    -0.374 OA
BRANCH  22  23
ATOM     23  C   UNL A   1      39.505  21.013  26.245  1.00  0.00     0.202 C 
BRANCH  23  24
ATOM     24  C   UNL A   1      40.055  19.599  26.008  1.00  0.00     0.261 C 
BRANCH  24  25
ATOM     25  O   UNL A   1      41.278  19.555  25.252  1.00  0.00    -0.460 OA
BRANCH  25  26
ATOM     26  C   UNL A   1      42.402  19.736  25.995  1.00  0.00     0.338 C 
ATOM     27  O   UNL A   1      43.274  18.912  26.215  1.00  0.00    -0.246 OA
BRANCH  26  28
ATOM     28  C   UNL A   1      42.532  21.144  26.407  1.00  0.00     0.060 A 
ATOM     29  C   UNL A   1      42.644  22.122  25.411  1.00  0.00     0.016 A 
ATOM     30  C   UNL A   1      42.694  21.476  27.752  1.00  0.00     0.016 A 
ATOM     31  C   UNL A   1      42.962  23.436  25.754  1.00  0.00     0.010 A 
ATOM     32  C   UNL A   1      43.016  22.793  28.093  1.00  0.00     0.010 A 
ATOM     33  C   UNL A   1      43.185  23.773  27.095  1.00  0.00    -0.014 A 
BRANCH  33  34
ATOM     34  C   UNL A   1      43.736  25.102  27.459  1.00  0.00     0.031 A 
ATOM     35  C   UNL A   1      42.808  26.147  28.012  1.00  0.00     0.074 A 
ATOM     36  C   UNL A   1      45.036  25.386  27.268  1.00  0.00     0.049 A 
ATOM     37  N   UNL A   1      43.023  27.417  28.240  1.00  0.00    -0.248 NA
ATOM     38  C   UNL A   1      41.447  25.697  28.335  1.00  0.00     0.031 C 
ATOM     39  C   UNL A   1      46.040  24.440  26.786  1.00  0.00     0.029 A 
ATOM     40  N   UNL A   1      45.727  26.562  27.425  1.00  0.00    -0.354 N 
ATOM     41  C   UNL A   1      41.816  27.926  28.708  1.00  0.00     0.074 A 
ATOM     42  C   UNL A   1      40.869  26.830  28.701  1.00  0.00     0.031 C 
ATOM     43  C   UNL A   1      47.212  25.082  26.652  1.00  0.00     0.029 A 
ATOM     44  C   UNL A   1      47.026  26.494  26.983  1.00  0.00     0.049 A 
ATOM     45  H   UNL A   1      45.330  27.373  27.817  1.00  0.00     0.167 HD
ATOM     46  C   UNL A   1      41.529  29.193  29.102  1.00  0.00     0.034 A 
ATOM     47  C   UNL A   1      47.944  27.468  26.808  1.00  0.00     0.034 A 
ATOM     48  C   UNL A   1      42.491  30.270  29.088  1.00  0.00     0.049 A 
ATOM     49  C   UNL A   1      47.585  28.889  27.167  1.00  0.00     0.074 A 
ATOM     50  C   UNL A   1      42.323  31.581  29.498  1.00  0.00     0.029 A 
ATOM     51  N   UNL A   1      43.794  30.168  28.615  1.00  0.00    -0.354 N 
ATOM     52  N   UNL A   1      46.447  29.365  27.619  1.00  0.00    -0.248 NA
ATOM     53  C   UNL A   1      48.634  29.904  26.999  1.00  0.00     0.031 C 
ATOM     54  C   UNL A   1      43.488  32.290  29.186  1.00  0.00     0.029 A 
ATOM     55  C   UNL A   1      44.423  31.402  28.678  1.00  0.00     0.049 A 
ATOM     56  H   UNL A   1      44.211  29.340  28.283  1.00  0.00     0.167 HD
ATOM     57  C   UNL A   1      46.654  30.727  27.818  1.00  0.00     0.074 A 
ATOM     58  C   UNL A   1      48.025  30.998  27.437  1.00  0.00     0.031 C 
ATOM     59  C   UNL A   1      45.791  31.665  28.287  1.00  0.00     0.034 A 
BRANCH  46  60
ATOM     60  C   UNL A   1      40.102  29.489  29.505  1.00  0.00     0.023 A 
ATOM     61  C   UNL A   1      39.698  29.519  30.851  1.00  0.00     0.031 A 
ATOM     62  C   UNL A   1      39.117  29.692  28.521  1.00  0.00     0.131 A 
ATOM     63  C   UNL A   1      38.337  29.648  31.171  1.00  0.00     0.055 A 
ATOM     64  C   UNL A   1      37.779  29.918  28.851  1.00  0.00     0.041 A 
ATOM     65  F   UNL A   1      39.433  29.653  27.218  1.00  0.00    -0.206 F 
ATOM     66  C   UNL A   1      37.378  29.875  30.182  1.00  0.00     0.022 A 
BRANCH  63  67
ATOM     67  S   UNL A   1      37.816  29.322  32.879  1.00  0.00     0.124 S 
ATOM     68  O   UNL A   1      36.584  30.103  32.965  1.00  0.00    -0.237 OA
ATOM     69  O   UNL A   1      37.656  27.873  32.888  1.00  0.00    -0.237 OA
ATOM     70  O   UNL A   1      38.926  29.834  33.680  1.00  0.00    -0.744 OA
ENDBRANCH  63  67
ENDBRANCH  46  60
BRANCH  47  71
ATOM     71  C   UNL A   1      49.264  27.136  26.202  1.00  0.00     0.023 A 
ATOM     72  C   UNL A   1      49.570  27.476  24.876  1.00  0.00     0.031 A 
ATOM     73  C   UNL A   1      50.246  26.462  26.953  1.00  0.00     0.131 A 
ATOM     74  C   UNL A   1      50.816  27.119  24.333  1.00  0.00     0.055 A 
ATOM     75  C   UNL A   1      51.502  26.156  26.426  1.00  0.00     0.041 A 
ATOM     76  F   UNL A   1      50.004  26.112  28.227  1.00  0.00    -0.206 F 
ATOM     77  C   UNL A   1      51.788  26.479  25.104  1.00  0.00     0.022 A 
BRANCH  74  78
ATOM     78  S   UNL A   1      51.126  27.450  22.577  1.00  0.00     0.124 S 
ATOM     79  O   UNL A   1      49.905  26.943  21.960  1.00  0.00    -0.237 OA
ATOM     80  O   UNL A   1      51.296  28.898  22.567  1.00  0.00    -0.237 OA
ATOM     81  O   UNL A   1      52.335  26.680  22.294  1.00  0.00    -0.744 OA
ENDBRANCH  74  78
ENDBRANCH  47  71
BRANCH  59  82
ATOM     82  C   UNL A   1      46.317  33.069  28.481  1.00  0.00     0.023 A 
ATOM     83  C   UNL A   1      46.922  33.487  29.679  1.00  0.00     0.031 A 
ATOM     84  C   UNL A   1      46.239  33.995  27.423  1.00  0.00     0.131 A 
ATOM     85  C   UNL A   1      47.398  34.803  29.801  1.00  0.00     0.055 A 
ATOM     86  C   UNL A   1      46.767  35.282  27.528  1.00  0.00     0.041 A 
ATOM     87  F   UNL A   1      45.665  33.653  26.258  1.00  0.00    -0.206 F 
ATOM     88  C   UNL A   1      47.343  35.695  28.726  1.00  0.00     0.022 A 
BRANCH  85  89
ATOM     89  S   UNL A   1      48.029  35.363  31.406  1.00  0.00     0.124 S 
ATOM     90  O   UNL A   1      48.911  36.459  31.018  1.00  0.00    -0.237 OA
ATOM     91  O   UNL A   1      46.808  35.743  32.108  1.00  0.00    -0.237 OA
ATOM     92  O   UNL A   1      48.708  34.183  31.939  1.00  0.00    -0.744 OA
ENDBRANCH  85  89
ENDBRANCH  59  82
ENDBRANCH  33  34
ENDBRANCH  26  28
ENDBRANCH  25  26
ENDBRANCH  24  25
ENDBRANCH  23  24
ENDBRANCH  22  23
ENDBRANCH   1  22
TORSDOF 23
ENDMDL
MODEL 2
REMARK VINA RESULT:      -9.3      3.578      4.885
REMARK SMILES C=CC[C@@H](NC(=O)OCc1ccccc1)C(=O)OCCOCCOC(=O)c1ccc(-c2c3nc(c(-c4cc(S(=O)(=O)[O-])ccc4F)c4ccc([nH]4)c(-c4cc(S(=O)(=O)[O-])ccc4F)c4nc(c(-c5cc(S(=O)(=O)[O-])ccc5F)c5ccc2[nH]5)C=C4)C=C3)cc1
REMARK SMILES IDX 20 1 19 2 18 3 16 4 17 5 4 6 3 7 2 8 1 9 5 10 6 11 7 13 8 14
REMARK SMILES IDX 9 15 10 16 11 17 15 18 12 19 14 20 13 21 21 22 22 23 23 24
REMARK SMILES IDX 24 25 25 26 26 27 27 28 28 29 89 30 29 31 88 32 30 33 31 34
REMARK SMILES IDX 32 35 82 36 33 37 87 38 81 39 83 40 34 41 86 42 80 43 79 44
REMARK SMILES IDX 35 46 67 47 47 48 66 49 48 50 51 51 65 52 84 53 49 54 50 55
REMARK SMILES IDX 64 57 85 58 52 59 36 60 37 61 45 62 38 63 44 64 46 65 43 66
REMARK SMILES IDX 39 67 40 68 41 69 42 70 68 71 69 72 77 73 70 74 76 75 78 76
REMARK SMILES IDX 75 77 71 78 72 79 73 80 74 81 53 82 54 83 62 84 55 85 61 86
REMARK SMILES IDX 63 87 60 88 56 89 57 90 58 91 59 92
REMARK H PARENT 5 12 83 45 51 56
REMARK Flexibility Score: inf
ROOT
ATOM      1  C   UNL A   1      34.541  22.417  25.882  1.00  0.00     0.202 C 
ENDROOT
BRANCH   1   2
ATOM      2  C   UNL A   1      33.677  23.237  24.924  1.00  0.00     0.261 C 
BRANCH   2   3
ATOM      3  O   UNL A   1      34.172  24.564  24.698  1.00  0.00    -0.462 OA
BRANCH   3   4
ATOM      4  C   UNL A   1      33.235  25.559  24.752  1.00  0.00     0.329 C 
ATOM      5  O   UNL A   1      32.068  25.414  25.101  1.00  0.00    -0.250 OA
BRANCH   4   6
ATOM      6  C   UNL A   1      33.780  26.877  24.181  1.00  0.00     0.199 C 
BRANCH   6   7
ATOM      7  C   UNL A   1      33.592  27.045  22.664  1.00  0.00     0.064 C 
BRANCH   7   8
ATOM      8  C   UNL A   1      32.912  25.838  22.056  1.00  0.00    -0.032 C 
ATOM      9  C   UNL A   1      32.635  25.700  20.751  1.00  0.00     0.004 C 
ENDBRANCH   7   8
ENDBRANCH   6   7
BRANCH   6  10
ATOM     10  N   UNL A   1      33.408  28.075  24.946  1.00  0.00    -0.308 N 
ATOM     11  C   UNL A   1      32.497  29.031  24.605  1.00  0.00     0.408 C 
ATOM     12  H   UNL A   1      33.872  28.202  25.806  1.00  0.00     0.168 HD
ATOM     13  O   UNL A   1      32.395  30.069  25.250  1.00  0.00    -0.225 OA
BRANCH  11  14
ATOM     14  O   UNL A   1      31.674  28.636  23.615  1.00  0.00    -0.445 OA
BRANCH  14  15
ATOM     15  C   UNL A   1      30.270  28.595  23.896  1.00  0.00     0.270 C 
BRANCH  15  16
ATOM     16  C   UNL A   1      29.494  29.740  23.271  1.00  0.00    -0.011 A 
ATOM     17  C   UNL A   1      29.288  30.969  23.916  1.00  0.00     0.007 A 
ATOM     18  C   UNL A   1      29.001  29.588  21.966  1.00  0.00     0.007 A 
ATOM     19  C   UNL A   1      28.661  32.031  23.260  1.00  0.00     0.000 A 
ATOM     20  C   UNL A   1      28.362  30.646  21.315  1.00  0.00     0.000 A 
ATOM     21  C   UNL A   1      28.206  31.873  21.955  1.00  0.00     0.000 A 
ENDBRANCH  15  16
ENDBRANCH  14  15
ENDBRANCH  11  14
ENDBRANCH   6  10
ENDBRANCH   4   6
ENDBRANCH   3   4
ENDBRANCH   2   3
ENDBRANCH   1   2
BRANCH   1  22
ATOM     22  O   UNL A   1      35.340  21.377  25.331  1.00  0.00    -0.374 OA
BRANCH  22  23
ATOM     23  C   UNL A   1      36.432  21.732  24.489  1.00  0.00     0.202 C 
BRANCH  23  24
ATOM     24  C   UNL A   1      37.464  22.747  25.002  1.00  0.00     0.261 C 
BRANCH  24  25
ATOM     25  O   UNL A   1      38.060  22.403  26.266  1.00  0.00    -0.460 OA
BRANCH  25  26
ATOM     26  C   UNL A   1      39.367  22.755  26.383  1.00  0.00     0.338 C 
ATOM     27  O   UNL A   1      40.335  22.108  26.017  1.00  0.00    -0.246 OA
BRANCH  26  28
ATOM     28  C   UNL A   1      39.492  24.131  26.891  1.00  0.00     0.060 A 
ATOM     29  C   UNL A   1      40.031  25.108  26.043  1.00  0.00     0.016 A 
ATOM     30  C   UNL A   1      39.225  24.419  28.230  1.00  0.00     0.016 A 
ATOM     31  C   UNL A   1      40.344  26.372  26.544  1.00  0.00     0.010 A 
ATOM     32  C   UNL A   1      39.545  25.685  28.729  1.00  0.00     0.010 A 
ATOM     33  C   UNL A   1      40.137  26.657  27.899  1.00  0.00    -0.014 A 
BRANCH  33  34
ATOM     34  C   UNL A   1      40.664  27.909  28.498  1.00  0.00     0.031 A 
ATOM     35  C   UNL A   1      39.692  28.953  28.972  1.00  0.00     0.074 A 
ATOM     36  C   UNL A   1      41.988  28.127  28.586  1.00  0.00     0.049 A 
ATOM     37  N   UNL A   1      39.914  30.180  29.368  1.00  0.00    -0.248 NA
ATOM     38  C   UNL A   1      38.276  28.561  28.984  1.00  0.00     0.031 C 
ATOM     39  C   UNL A   1      43.024  27.170  28.206  1.00  0.00     0.029 A 
ATOM     40  N   UNL A   1      42.685  29.238  28.993  1.00  0.00    -0.354 N 
ATOM     41  C   UNL A   1      38.663  30.717  29.651  1.00  0.00     0.074 A 
ATOM     42  C   UNL A   1      37.688  29.688  29.351  1.00  0.00     0.031 C 
ATOM     43  C   UNL A   1      44.226  27.748  28.363  1.00  0.00     0.029 A 
ATOM     44  C   UNL A   1      44.041  29.131  28.799  1.00  0.00     0.049 A 
ATOM     45  H   UNL A   1      42.255  30.032  29.386  1.00  0.00     0.167 HD
ATOM     46  C   UNL A   1      38.360  31.957  30.114  1.00  0.00     0.034 A 
ATOM     47  C   UNL A   1      45.016  30.057  28.903  1.00  0.00     0.034 A 
ATOM     48  C   UNL A   1      39.352  32.968  30.394  1.00  0.00     0.049 A 
ATOM     49  C   UNL A   1      44.657  31.458  29.335  1.00  0.00     0.074 A 
ATOM     50  C   UNL A   1      39.165  34.242  30.900  1.00  0.00     0.029 A 
ATOM     51  N   UNL A   1      40.717  32.829  30.168  1.00  0.00    -0.354 N 
ATOM     52  N   UNL A   1      43.475  31.959  29.611  1.00  0.00    -0.248 NA
ATOM     53  C   UNL A   1      45.761  32.417  29.474  1.00  0.00     0.031 C 
ATOM     54  C   UNL A   1      40.398  34.903  30.890  1.00  0.00     0.029 A 
ATOM     55  C   UNL A   1      41.374  34.011  30.477  1.00  0.00     0.049 A 
ATOM     56  H   UNL A   1      41.153  32.012  29.836  1.00  0.00     0.167 HD
ATOM     57  C   UNL A   1      43.698  33.281  29.987  1.00  0.00     0.074 A 
ATOM     58  C   UNL A   1      45.128  33.500  29.902  1.00  0.00     0.031 C 
ATOM     59  C   UNL A   1      42.802  34.223  30.381  1.00  0.00     0.034 A 
BRANCH  46  60
ATOM     60  C   UNL A   1      36.896  32.302  30.270  1.00  0.00     0.023 A 
ATOM     61  C   UNL A   1      36.172  32.960  29.260  1.00  0.00     0.031 A 
ATOM     62  C   UNL A   1      36.226  32.016  31.474  1.00  0.00     0.131 A 
ATOM     63  C   UNL A   1      34.861  33.395  29.508  1.00  0.00     0.055 A 
ATOM     64  C   UNL A   1      34.890  32.365  31.677  1.00  0.00     0.041 A 
ATOM     65  F   UNL A   1      36.867  31.411  32.486  1.00  0.00    -0.206 F 
ATOM     66  C   UNL A   1      34.205  33.078  30.699  1.00  0.00     0.022 A 
BRANCH  63  67
ATOM     67  S   UNL A   1      34.094  34.544  28.331  1.00  0.00     0.124 S 
ATOM     68  O   UNL A   1      34.301  35.829  28.996  1.00  0.00    -0.237 OA
ATOM     69  O   UNL A   1      34.874  34.320  27.119  1.00  0.00    -0.237 OA
ATOM     70  O   UNL A   1      32.705  34.098  28.271  1.00  0.00    -0.744 OA
ENDBRANCH  63  67
ENDBRANCH  46  60
BRANCH  47  71
ATOM     71  C   UNL A   1      46.414  29.702  28.525  1.00  0.00     0.023 A 
ATOM     72  C   UNL A   1      47.319  29.183  29.463  1.00  0.00     0.031 A 
ATOM     73  C   UNL A   1      46.866  29.886  27.205  1.00  0.00     0.131 A 
ATOM     74  C   UNL A   1      48.637  28.890  29.073  1.00  0.00     0.055 A 
ATOM     75  C   UNL A   1      48.159  29.543  26.810  1.00  0.00     0.041 A 
ATOM     76  F   UNL A   1      46.040  30.381  26.268  1.00  0.00    -0.206 F 
ATOM     77  C   UNL A   1      49.056  29.049  27.751  1.00  0.00     0.022 A 
BRANCH  74  78
ATOM     78  S   UNL A   1      49.819  28.352  30.339  1.00  0.00     0.124 S 
ATOM     79  O   UNL A   1      48.957  28.212  31.508  1.00  0.00    -0.237 OA
ATOM     80  O   UNL A   1      50.331  27.112  29.768  1.00  0.00    -0.237 OA
ATOM     81  O   UNL A   1      50.778  29.453  30.399  1.00  0.00    -0.744 OA
ENDBRANCH  74  78
ENDBRANCH  47  71
BRANCH  59  82
ATOM     82  C   UNL A   1      43.341  35.567  30.816  1.00  0.00     0.023 A 
ATOM     83  C   UNL A   1      43.645  35.856  32.158  1.00  0.00     0.031 A 
ATOM     84  C   UNL A   1      43.587  36.564  29.854  1.00  0.00     0.131 A 
ATOM     85  C   UNL A   1      44.148  37.121  32.503  1.00  0.00     0.055 A 
ATOM     86  C   UNL A   1      44.144  37.797  30.194  1.00  0.00     0.041 A 
ATOM     87  F   UNL A   1      43.309  36.345  28.558  1.00  0.00    -0.206 F 
ATOM     88  C   UNL A   1      44.420  38.084  31.527  1.00  0.00     0.022 A 
BRANCH  85  89
ATOM     89  S   UNL A   1      44.383  37.523  34.256  1.00  0.00     0.124 S 
ATOM     90  O   UNL A   1      45.812  37.816  34.311  1.00  0.00    -0.237 OA
ATOM     91  O   UNL A   1      43.489  38.662  34.439  1.00  0.00    -0.237 OA
ATOM     92  O   UNL A   1      43.976  36.300  34.946  1.00  0.00    -0.744 OA
ENDBRANCH  85  89
ENDBRANCH  59  82
ENDBRANCH  33  34
ENDBRANCH  26  28
ENDBRANCH  25  26
ENDBRANCH  24  25
ENDBRANCH  23  24
ENDBRANCH  22  23
ENDBRANCH   1  22
TORSDOF 23
ENDMDL
MODEL 3
REMARK VINA RESULT:      -9.3      7.138     11.379
REMARK SMILES C=CC[C@@H](NC(=O)OCc1ccccc1)C(=O)OCCOCCOC(=O)c1ccc(-c2c3nc(c(-c4cc(S(=O)(=O)[O-])ccc4F)c4ccc([nH]4)c(-c4cc(S(=O)(=O)[O-])ccc4F)c4nc(c(-c5cc(S(=O)(=O)[O-])ccc5F)c5ccc2[nH]5)C=C4)C=C3)cc1
REMARK SMILES IDX 20 1 19 2 18 3 16 4 17 5 4 6 3 7 2 8 1 9 5 10 6 11 7 13 8 14
REMARK SMILES IDX 9 15 10 16 11 17 15 18 12 19 14 20 13 21 21 22 22 23 23 24
REMARK SMILES IDX 24 25 25 26 26 27 27 28 28 29 89 30 29 31 88 32 30 33 31 34
REMARK SMILES IDX 32 35 82 36 33 37 87 38 81 39 83 40 34 41 86 42 80 43 79 44
REMARK SMILES IDX 35 46 67 47 47 48 66 49 48 50 51 51 65 52 84 53 49 54 50 55
REMARK SMILES IDX 64 57 85 58 52 59 36 60 37 61 45 62 38 63 44 64 46 65 43 66
REMARK SMILES IDX 39 67 40 68 41 69 42 70 68 71 69 72 77 73 70 74 76 75 78 76
REMARK SMILES IDX 75 77 71 78 72 79 73 80 74 81 53 82 54 83 62 84 55 85 61 86
REMARK SMILES IDX 63 87 60 88 56 89 57 90 58 91 59 92
REMARK H PARENT 5 12 83 45 51 56
REMARK Flexibility Score: inf
ROOT
ATOM      1  C   UNL A   1      31.624  31.957  26.773  1.00  0.00     0.202 C 
ENDROOT
BRANCH   1   2
ATOM      2  C   UNL A   1      32.826  31.035  26.561  1.00  0.00     0.261 C 
BRANCH   2   3
ATOM      3  O   UNL A   1      33.631  30.862  27.735  1.00  0.00    -0.462 OA
BRANCH   3   4
ATOM      4  C   UNL A   1      34.706  30.028  27.594  1.00  0.00     0.329 C 
ATOM      5  O   UNL A   1      34.656  28.869  27.197  1.00  0.00    -0.250 OA
BRANCH   4   6
ATOM      6  C   UNL A   1      35.992  30.673  28.133  1.00  0.00     0.199 C 
BRANCH   6   7
ATOM      7  C   UNL A   1      35.990  32.210  28.128  1.00  0.00     0.064 C 
BRANCH   7   8
ATOM      8  C   UNL A   1      36.875  32.767  29.222  1.00  0.00    -0.032 C 
ATOM      9  C   UNL A   1      37.265  34.048  29.304  1.00  0.00     0.004 C 
ENDBRANCH   7   8
ENDBRANCH   6   7
BRANCH   6  10
ATOM     10  N   UNL A   1      36.482  30.099  29.394  1.00  0.00    -0.308 N 
ATOM     11  C   UNL A   1      37.394  29.098  29.553  1.00  0.00     0.408 C 
ATOM     12  H   UNL A   1      36.107  30.482  30.220  1.00  0.00     0.168 HD
ATOM     13  O   UNL A   1      37.598  28.594  30.652  1.00  0.00    -0.225 OA
BRANCH  11  14
ATOM     14  O   UNL A   1      38.103  28.857  28.434  1.00  0.00    -0.445 OA
BRANCH  14  15
ATOM     15  C   UNL A   1      38.995  27.735  28.442  1.00  0.00     0.270 C 
BRANCH  15  16
ATOM     16  C   UNL A   1      40.019  27.768  27.322  1.00  0.00    -0.011 A 
ATOM     17  C   UNL A   1      40.600  28.954  26.848  1.00  0.00     0.007 A 
ATOM     18  C   UNL A   1      40.449  26.554  26.765  1.00  0.00     0.007 A 
ATOM     19  C   UNL A   1      41.617  28.927  25.891  1.00  0.00     0.000 A 
ATOM     20  C   UNL A   1      41.456  26.527  25.797  1.00  0.00     0.000 A 
ATOM     21  C   UNL A   1      42.052  27.712  25.372  1.00  0.00     0.000 A 
ENDBRANCH  15  16
ENDBRANCH  14  15
ENDBRANCH  11  14
ENDBRANCH   6  10
ENDBRANCH   4   6
ENDBRANCH   3   4
ENDBRANCH   2   3
ENDBRANCH   1   2
BRANCH   1  22
ATOM     22  O   UNL A   1      31.782  33.061  27.655  1.00  0.00    -0.374 OA
BRANCH  22  23
ATOM     23  C   UNL A   1      32.936  33.884  27.514  1.00  0.00     0.202 C 
BRANCH  23  24
ATOM     24  C   UNL A   1      33.370  34.760  28.699  1.00  0.00     0.261 C 
BRANCH  24  25
ATOM     25  O   UNL A   1      33.529  34.047  29.939  1.00  0.00    -0.460 OA
BRANCH  25  26
ATOM     26  C   UNL A   1      33.653  34.846  31.031  1.00  0.00     0.338 C 
ATOM     27  O   UNL A   1      32.996  35.841  31.288  1.00  0.00    -0.246 OA
BRANCH  26  28
ATOM     28  C   UNL A   1      34.613  34.273  31.989  1.00  0.00     0.060 A 
ATOM     29  C   UNL A   1      35.471  35.143  32.675  1.00  0.00     0.016 A 
ATOM     30  C   UNL A   1      34.769  32.890  32.095  1.00  0.00     0.016 A 
ATOM     31  C   UNL A   1      36.519  34.631  33.441  1.00  0.00     0.010 A 
ATOM     32  C   UNL A   1      35.822  32.381  32.859  1.00  0.00     0.010 A 
ATOM     33  C   UNL A   1      36.723  33.248  33.509  1.00  0.00    -0.014 A 
BRANCH  33  34
ATOM     34  C   UNL A   1      37.952  32.694  34.131  1.00  0.00     0.031 A 
ATOM     35  C   UNL A   1      38.191  32.924  35.597  1.00  0.00     0.074 A 
ATOM     36  C   UNL A   1      38.859  32.029  33.394  1.00  0.00     0.049 A 
ATOM     37  N   UNL A   1      39.258  32.686  36.315  1.00  0.00    -0.248 NA
ATOM     38  C   UNL A   1      37.077  33.517  36.348  1.00  0.00     0.031 C 
ATOM     39  C   UNL A   1      38.713  31.703  31.977  1.00  0.00     0.029 A 
ATOM     40  N   UNL A   1      40.095  31.536  33.729  1.00  0.00    -0.354 N 
ATOM     41  C   UNL A   1      38.956  33.126  37.599  1.00  0.00     0.074 A 
ATOM     42  C   UNL A   1      37.615  33.671  37.548  1.00  0.00     0.031 C 
ATOM     43  C   UNL A   1      39.834  31.096  31.554  1.00  0.00     0.029 A 
ATOM     44  C   UNL A   1      40.795  31.044  32.655  1.00  0.00     0.049 A 
ATOM     45  H   UNL A   1      40.446  31.536  34.650  1.00  0.00     0.167 HD
ATOM     46  C   UNL A   1      39.730  33.081  38.713  1.00  0.00     0.034 A 
ATOM     47  C   UNL A   1      42.081  30.649  32.553  1.00  0.00     0.034 A 
ATOM     48  C   UNL A   1      41.069  32.541  38.732  1.00  0.00     0.049 A 
ATOM     49  C   UNL A   1      42.960  30.685  33.779  1.00  0.00     0.074 A 
ATOM     50  C   UNL A   1      41.930  32.410  39.807  1.00  0.00     0.029 A 
ATOM     51  N   UNL A   1      41.753  32.066  37.618  1.00  0.00    -0.354 N 
ATOM     52  N   UNL A   1      42.667  31.092  34.994  1.00  0.00    -0.248 NA
ATOM     53  C   UNL A   1      44.340  30.205  33.625  1.00  0.00     0.031 C 
ATOM     54  C   UNL A   1      43.161  31.948  39.329  1.00  0.00     0.029 A 
ATOM     55  C   UNL A   1      43.039  31.689  37.973  1.00  0.00     0.049 A 
ATOM     56  H   UNL A   1      41.379  32.007  36.710  1.00  0.00     0.167 HD
ATOM     57  C   UNL A   1      43.816  30.887  35.754  1.00  0.00     0.074 A 
ATOM     58  C   UNL A   1      44.807  30.321  34.861  1.00  0.00     0.031 C 
ATOM     59  C   UNL A   1      44.026  31.132  37.073  1.00  0.00     0.034 A 
BRANCH  46  60
ATOM     60  C   UNL A   1      39.170  33.698  39.974  1.00  0.00     0.023 A 
ATOM     61  C   UNL A   1      39.503  35.003  40.379  1.00  0.00     0.031 A 
ATOM     62  C   UNL A   1      38.329  32.947  40.817  1.00  0.00     0.131 A 
ATOM     63  C   UNL A   1      39.082  35.478  41.630  1.00  0.00     0.055 A 
ATOM     64  C   UNL A   1      37.833  33.462  42.016  1.00  0.00     0.041 A 
ATOM     65  F   UNL A   1      37.993  31.687  40.500  1.00  0.00    -0.206 F 
ATOM     66  C   UNL A   1      38.226  34.728  42.440  1.00  0.00     0.022 A 
BRANCH  63  67
ATOM     67  S   UNL A   1      39.821  37.007  42.269  1.00  0.00     0.124 S 
ATOM     68  O   UNL A   1      41.248  36.733  42.109  1.00  0.00    -0.237 OA
ATOM     69  O   UNL A   1      39.262  38.021  41.382  1.00  0.00    -0.237 OA
ATOM     70  O   UNL A   1      39.357  37.061  43.653  1.00  0.00    -0.744 OA
ENDBRANCH  63  67
ENDBRANCH  46  60
BRANCH  47  71
ATOM     71  C   UNL A   1      42.629  30.253  31.225  1.00  0.00     0.023 A 
ATOM     72  C   UNL A   1      42.822  28.906  30.881  1.00  0.00     0.031 A 
ATOM     73  C   UNL A   1      42.974  31.232  30.273  1.00  0.00     0.131 A 
ATOM     74  C   UNL A   1      43.369  28.576  29.630  1.00  0.00     0.055 A 
ATOM     75  C   UNL A   1      43.467  30.897  29.011  1.00  0.00     0.041 A 
ATOM     76  F   UNL A   1      42.811  32.535  30.552  1.00  0.00    -0.206 F 
ATOM     77  C   UNL A   1      43.675  29.560  28.688  1.00  0.00     0.022 A 
BRANCH  74  78
ATOM     78  S   UNL A   1      43.733  26.836  29.272  1.00  0.00     0.124 S 
ATOM     79  O   UNL A   1      44.274  26.919  27.920  1.00  0.00    -0.237 OA
ATOM     80  O   UNL A   1      44.686  26.503  30.326  1.00  0.00    -0.237 OA
ATOM     81  O   UNL A   1      42.429  26.185  29.385  1.00  0.00    -0.744 OA
ENDBRANCH  74  78
ENDBRANCH  47  71
BRANCH  59  82
ATOM     82  C   UNL A   1      45.360  30.730  37.659  1.00  0.00     0.023 A 
ATOM     83  C   UNL A   1      45.609  29.434  38.141  1.00  0.00     0.031 A 
ATOM     84  C   UNL A   1      46.413  31.663  37.699  1.00  0.00     0.131 A 
ATOM     85  C   UNL A   1      46.871  29.115  38.669  1.00  0.00     0.055 A 
ATOM     86  C   UNL A   1      47.682  31.325  38.170  1.00  0.00     0.041 A 
ATOM     87  F   UNL A   1      46.229  32.919  37.259  1.00  0.00    -0.206 F 
ATOM     88  C   UNL A   1      47.914  30.046  38.667  1.00  0.00     0.022 A 
BRANCH  85  89
ATOM     89  S   UNL A   1      47.119  27.486  39.428  1.00  0.00     0.124 S 
ATOM     90  O   UNL A   1      47.628  27.842  40.749  1.00  0.00    -0.237 OA
ATOM     91  O   UNL A   1      45.777  26.916  39.392  1.00  0.00    -0.237 OA
ATOM     92  O   UNL A   1      48.089  26.840  38.545  1.00  0.00    -0.744 OA
ENDBRANCH  85  89
ENDBRANCH  59  82
ENDBRANCH  33  34
ENDBRANCH  26  28
ENDBRANCH  25  26
ENDBRANCH  24  25
ENDBRANCH  23  24
ENDBRANCH  22  23
ENDBRANCH   1  22
TORSDOF 23
ENDMDL
