MODEL 1
REMARK VINA RESULT:     -10.7      0.000      0.000
REMARK SMILES C[C@H](Oc1ccc(-c2ccccc2)cc1)C(=O)N[C@H](C)C(=O)OCCOCCOC(=O)c1ccc(-c2c3nc(c(-c4cc(S(=O)(=O)[O-])ccc4F)c4ccc([nH]4)c(-c4cc(S(=O)(=O)[O-])ccc4F)c4nc(c(-c5cc(S(=O)(=O)[O-])ccc5F)c5ccc2[nH]5)C=C4)C=C3)cc1
REMARK SMILES IDX 25 1 24 2 23 3 21 4 22 5 19 6 20 7 18 8 16 9 17 10 2 12 1 13
REMARK SMILES IDX 3 14 4 15 5 16 15 17 6 18 14 19 7 20 8 21 9 22 13 23 10 24
REMARK SMILES IDX 12 25 11 26 26 27 27 28 28 29 29 30 30 31 31 32 32 33 33 34
REMARK SMILES IDX 94 35 34 36 93 37 35 38 36 39 37 40 87 41 38 42 92 43 86 44
REMARK SMILES IDX 88 45 39 46 91 47 85 48 84 49 40 51 72 52 52 53 71 54 53 55
REMARK SMILES IDX 56 56 70 57 89 58 54 59 55 60 69 62 90 63 57 64 41 65 42 66
REMARK SMILES IDX 50 67 43 68 49 69 51 70 48 71 44 72 45 73 46 74 47 75 73 76
REMARK SMILES IDX 74 77 82 78 75 79 81 80 83 81 80 82 76 83 77 84 78 85 79 86
REMARK SMILES IDX 58 87 59 88 67 89 60 90 66 91 68 92 65 93 61 94 62 95 63 96
REMARK SMILES IDX 64 97
REMARK H PARENT 18 11 88 50 56 61
REMARK Flexibility Score: inf
ROOT
ATOM      1  C   UNL A   1      37.190  22.516  25.069  1.00  0.00     0.202 C 
ENDROOT
BRANCH   1   2
ATOM      2  C   UNL A   1      35.740  22.237  24.651  1.00  0.00     0.261 C 
BRANCH   2   3
ATOM      3  O   UNL A   1      35.014  23.470  24.518  1.00  0.00    -0.462 OA
BRANCH   3   4
ATOM      4  C   UNL A   1      34.550  24.045  25.654  1.00  0.00     0.328 C 
ATOM      5  O   UNL A   1      34.512  23.490  26.747  1.00  0.00    -0.250 OA
BRANCH   4   6
ATOM      6  C   UNL A   1      34.041  25.479  25.414  1.00  0.00     0.189 C 
ATOM      7  C   UNL A   1      33.935  25.955  23.964  1.00  0.00     0.043 C 
BRANCH   6   8
ATOM      8  N   UNL A   1      32.911  25.929  26.242  1.00  0.00    -0.340 N 
ATOM      9  C   UNL A   1      31.585  26.137  25.996  1.00  0.00     0.261 C 
ATOM     10  O   UNL A   1      30.990  26.839  26.824  1.00  0.00    -0.271 OA
ATOM     11  H   UNL A   1      33.165  26.120  27.173  1.00  0.00     0.164 HD
BRANCH   9  12
ATOM     12  C   UNL A   1      30.804  25.456  24.852  1.00  0.00     0.258 C 
ATOM     13  C   UNL A   1      29.542  26.264  24.575  1.00  0.00     0.064 C 
BRANCH  12  14
ATOM     14  O   UNL A   1      30.589  24.112  25.227  1.00  0.00    -0.481 OA
BRANCH  14  15
ATOM     15  C   UNL A   1      31.250  23.073  24.660  1.00  0.00     0.120 A 
ATOM     16  C   UNL A   1      31.647  22.838  23.348  1.00  0.00     0.047 A 
ATOM     17  C   UNL A   1      31.525  22.104  25.596  1.00  0.00     0.047 A 
ATOM     18  C   UNL A   1      32.271  21.604  22.990  1.00  0.00     0.012 A 
ATOM     19  C   UNL A   1      32.063  20.884  25.223  1.00  0.00     0.012 A 
ATOM     20  C   UNL A   1      32.478  20.585  23.930  1.00  0.00    -0.018 A 
BRANCH  20  21
ATOM     21  C   UNL A   1      33.192  19.296  23.726  1.00  0.00    -0.018 A 
ATOM     22  C   UNL A   1      34.293  18.928  24.510  1.00  0.00     0.009 A 
ATOM     23  C   UNL A   1      32.653  18.297  22.875  1.00  0.00     0.009 A 
ATOM     24  C   UNL A   1      34.776  17.609  24.506  1.00  0.00     0.001 A 
ATOM     25  C   UNL A   1      33.113  16.977  22.890  1.00  0.00     0.001 A 
ATOM     26  C   UNL A   1      34.170  16.631  23.719  1.00  0.00     0.000 A 
ENDBRANCH  20  21
ENDBRANCH  14  15
ENDBRANCH  12  14
ENDBRANCH   9  12
ENDBRANCH   6   8
ENDBRANCH   4   6
ENDBRANCH   3   4
ENDBRANCH   2   3
ENDBRANCH   1   2
BRANCH   1  27
ATOM     27  O   UNL A   1      37.762  21.518  25.915  1.00  0.00    -0.374 OA
BRANCH  27  28
ATOM     28  C   UNL A   1      39.155  21.240  25.707  1.00  0.00     0.202 C 
BRANCH  28  29
ATOM     29  C   UNL A   1      39.554  19.749  25.732  1.00  0.00     0.261 C 
BRANCH  29  30
ATOM     30  O   UNL A   1      40.986  19.528  25.658  1.00  0.00    -0.460 OA
BRANCH  30  31
ATOM     31  C   UNL A   1      41.656  19.723  26.839  1.00  0.00     0.338 C 
ATOM     32  O   UNL A   1      41.755  18.905  27.738  1.00  0.00    -0.246 OA
BRANCH  31  33
ATOM     33  C   UNL A   1      42.280  21.075  26.918  1.00  0.00     0.060 A 
ATOM     34  C   UNL A   1      42.536  21.656  28.162  1.00  0.00     0.016 A 
ATOM     35  C   UNL A   1      42.489  21.840  25.766  1.00  0.00     0.016 A 
ATOM     36  C   UNL A   1      43.120  22.924  28.266  1.00  0.00     0.010 A 
ATOM     37  C   UNL A   1      42.990  23.156  25.871  1.00  0.00     0.010 A 
ATOM     38  C   UNL A   1      43.315  23.708  27.124  1.00  0.00    -0.014 A 
BRANCH  38  39
ATOM     39  C   UNL A   1      43.587  25.167  27.295  1.00  0.00     0.031 A 
ATOM     40  C   UNL A   1      44.951  25.676  26.891  1.00  0.00     0.074 A 
ATOM     41  C   UNL A   1      42.649  26.046  27.702  1.00  0.00     0.049 A 
ATOM     42  N   UNL A   1      45.467  26.872  27.005  1.00  0.00    -0.248 NA
ATOM     43  C   UNL A   1      45.841  24.698  26.244  1.00  0.00     0.031 C 
ATOM     44  C   UNL A   1      41.249  25.725  27.970  1.00  0.00     0.029 A 
ATOM     45  N   UNL A   1      42.731  27.400  27.945  1.00  0.00    -0.354 N 
ATOM     46  C   UNL A   1      46.745  26.786  26.459  1.00  0.00     0.074 A 
ATOM     47  C   UNL A   1      46.916  25.428  25.995  1.00  0.00     0.031 C 
ATOM     48  C   UNL A   1      40.606  26.848  28.347  1.00  0.00     0.029 A 
ATOM     49  C   UNL A   1      41.558  27.959  28.410  1.00  0.00     0.049 A 
ATOM     50  H   UNL A   1      43.553  27.922  27.800  1.00  0.00     0.167 HD
ATOM     51  C   UNL A   1      47.700  27.742  26.376  1.00  0.00     0.034 A 
ATOM     52  C   UNL A   1      41.300  29.206  28.869  1.00  0.00     0.034 A 
ATOM     53  C   UNL A   1      47.539  29.083  26.877  1.00  0.00     0.049 A 
ATOM     54  C   UNL A   1      42.434  30.216  28.909  1.00  0.00     0.074 A 
ATOM     55  C   UNL A   1      48.469  30.106  26.921  1.00  0.00     0.029 A 
ATOM     56  N   UNL A   1      46.370  29.583  27.436  1.00  0.00    -0.354 N 
ATOM     57  N   UNL A   1      43.664  30.101  28.459  1.00  0.00    -0.248 NA
ATOM     58  C   UNL A   1      42.150  31.519  29.532  1.00  0.00     0.031 C 
ATOM     59  C   UNL A   1      47.885  31.200  27.569  1.00  0.00     0.029 A 
ATOM     60  C   UNL A   1      46.567  30.887  27.857  1.00  0.00     0.049 A 
ATOM     61  H   UNL A   1      45.527  29.082  27.520  1.00  0.00     0.167 HD
ATOM     62  C   UNL A   1      44.283  31.325  28.719  1.00  0.00     0.074 A 
ATOM     63  C   UNL A   1      43.288  32.169  29.344  1.00  0.00     0.031 C 
ATOM     64  C   UNL A   1      45.559  31.717  28.470  1.00  0.00     0.034 A 
BRANCH  51  65
ATOM     65  C   UNL A   1      49.044  27.321  25.836  1.00  0.00     0.023 A 
ATOM     66  C   UNL A   1      50.089  26.890  26.671  1.00  0.00     0.031 A 
ATOM     67  C   UNL A   1      49.293  27.411  24.455  1.00  0.00     0.131 A 
ATOM     68  C   UNL A   1      51.352  26.620  26.122  1.00  0.00     0.055 A 
ATOM     69  C   UNL A   1      50.531  27.075  23.907  1.00  0.00     0.041 A 
ATOM     70  F   UNL A   1      48.339  27.848  23.616  1.00  0.00    -0.206 F 
ATOM     71  C   UNL A   1      51.573  26.688  24.743  1.00  0.00     0.022 A 
BRANCH  68  72
ATOM     72  S   UNL A   1      52.742  26.299  27.242  1.00  0.00     0.124 S 
ATOM     73  O   UNL A   1      53.342  25.112  26.635  1.00  0.00    -0.237 OA
ATOM     74  O   UNL A   1      53.521  27.528  27.143  1.00  0.00    -0.237 OA
ATOM     75  O   UNL A   1      52.099  26.071  28.534  1.00  0.00    -0.744 OA
ENDBRANCH  68  72
ENDBRANCH  51  65
BRANCH  52  76
ATOM     76  C   UNL A   1      39.960  29.577  29.436  1.00  0.00     0.023 A 
ATOM     77  C   UNL A   1      39.727  29.605  30.824  1.00  0.00     0.031 A 
ATOM     78  C   UNL A   1      38.851  29.775  28.591  1.00  0.00     0.131 A 
ATOM     79  C   UNL A   1      38.418  29.756  31.318  1.00  0.00     0.055 A 
ATOM     80  C   UNL A   1      37.564  29.994  29.088  1.00  0.00     0.041 A 
ATOM     81  F   UNL A   1      38.997  29.733  27.257  1.00  0.00    -0.206 F 
ATOM     82  C   UNL A   1      37.339  29.967  30.459  1.00  0.00     0.022 A 
BRANCH  79  83
ATOM     83  S   UNL A   1      38.119  29.529  33.097  1.00  0.00     0.124 S 
ATOM     84  O   UNL A   1      37.362  30.731  33.425  1.00  0.00    -0.237 OA
ATOM     85  O   UNL A   1      37.375  28.275  33.120  1.00  0.00    -0.237 OA
ATOM     86  O   UNL A   1      39.465  29.464  33.663  1.00  0.00    -0.744 OA
ENDBRANCH  79  83
ENDBRANCH  52  76
BRANCH  64  87
ATOM     87  C   UNL A   1      45.930  33.138  28.819  1.00  0.00     0.023 A 
ATOM     88  C   UNL A   1      45.762  34.196  27.908  1.00  0.00     0.031 A 
ATOM     89  C   UNL A   1      46.448  33.438  30.092  1.00  0.00     0.131 A 
ATOM     90  C   UNL A   1      46.156  35.495  28.266  1.00  0.00     0.055 A 
ATOM     91  C   UNL A   1      46.785  34.741  30.463  1.00  0.00     0.041 A 
ATOM     92  F   UNL A   1      46.627  32.467  31.002  1.00  0.00    -0.206 F 
ATOM     93  C   UNL A   1      46.650  35.776  29.542  1.00  0.00     0.022 A 
BRANCH  90  94
ATOM     94  S   UNL A   1      46.084  36.806  27.013  1.00  0.00     0.124 S 
ATOM     95  O   UNL A   1      44.646  37.011  26.869  1.00  0.00    -0.237 OA
ATOM     96  O   UNL A   1      46.822  37.890  27.652  1.00  0.00    -0.237 OA
ATOM     97  O   UNL A   1      46.744  36.208  25.854  1.00  0.00    -0.744 OA
ENDBRANCH  90  94
ENDBRANCH  64  87
ENDBRANCH  38  39
ENDBRANCH  31  33
ENDBRANCH  30  31
ENDBRANCH  29  30
ENDBRANCH  28  29
ENDBRANCH  27  28
ENDBRANCH   1  27
TORSDOF 22
ENDMDL
MODEL 2
REMARK VINA RESULT:     -10.5      2.510      2.826
REMARK SMILES C[C@H](Oc1ccc(-c2ccccc2)cc1)C(=O)N[C@H](C)C(=O)OCCOCCOC(=O)c1ccc(-c2c3nc(c(-c4cc(S(=O)(=O)[O-])ccc4F)c4ccc([nH]4)c(-c4cc(S(=O)(=O)[O-])ccc4F)c4nc(c(-c5cc(S(=O)(=O)[O-])ccc5F)c5ccc2[nH]5)C=C4)C=C3)cc1
REMARK SMILES IDX 25 1 24 2 23 3 21 4 22 5 19 6 20 7 18 8 16 9 17 10 2 12 1 13
REMARK SMILES IDX 3 14 4 15 5 16 15 17 6 18 14 19 7 20 8 21 9 22 13 23 10 24
REMARK SMILES IDX 12 25 11 26 26 27 27 28 28 29 29 30 30 31 31 32 32 33 33 34
REMARK SMILES IDX 94 35 34 36 93 37 35 38 36 39 37 40 87 41 38 42 92 43 86 44
REMARK SMILES IDX 88 45 39 46 91 47 85 48 84 49 40 51 72 52 52 53 71 54 53 55
REMARK SMILES IDX 56 56 70 57 89 58 54 59 55 60 69 62 90 63 57 64 41 65 42 66
REMARK SMILES IDX 50 67 43 68 49 69 51 70 48 71 44 72 45 73 46 74 47 75 73 76
REMARK SMILES IDX 74 77 82 78 75 79 81 80 83 81 80 82 76 83 77 84 78 85 79 86
REMARK SMILES IDX 58 87 59 88 67 89 60 90 66 91 68 92 65 93 61 94 62 95 63 96
REMARK SMILES IDX 64 97
REMARK H PARENT 18 11 88 50 56 61
REMARK Flexibility Score: inf
ROOT
ATOM      1  C   UNL A   1      36.832  22.762  24.739  1.00  0.00     0.202 C 
ENDROOT
BRANCH   1   2
ATOM      2  C   UNL A   1      35.348  23.134  24.861  1.00  0.00     0.261 C 
BRANCH   2   3
ATOM      3  O   UNL A   1      35.103  24.410  24.246  1.00  0.00    -0.462 OA
BRANCH   3   4
ATOM      4  C   UNL A   1      34.299  25.276  24.910  1.00  0.00     0.328 C 
ATOM      5  O   UNL A   1      34.010  25.185  26.098  1.00  0.00    -0.250 OA
BRANCH   4   6
ATOM      6  C   UNL A   1      33.758  26.387  23.991  1.00  0.00     0.189 C 
ATOM      7  C   UNL A   1      33.612  26.062  22.503  1.00  0.00     0.043 C 
BRANCH   6   8
ATOM      8  N   UNL A   1      32.637  27.188  24.507  1.00  0.00    -0.340 N 
ATOM      9  C   UNL A   1      31.283  27.131  24.345  1.00  0.00     0.261 C 
ATOM     10  O   UNL A   1      30.664  28.160  24.647  1.00  0.00    -0.271 OA
ATOM     11  H   UNL A   1      32.924  27.922  25.097  1.00  0.00     0.164 HD
BRANCH   9  12
ATOM     12  C   UNL A   1      30.516  25.852  23.946  1.00  0.00     0.258 C 
ATOM     13  C   UNL A   1      29.032  26.186  23.847  1.00  0.00     0.064 C 
BRANCH  12  14
ATOM     14  O   UNL A   1      30.848  24.849  24.882  1.00  0.00    -0.481 OA
BRANCH  14  15
ATOM     15  C   UNL A   1      31.339  23.638  24.522  1.00  0.00     0.120 A 
ATOM     16  C   UNL A   1      31.728  23.129  23.287  1.00  0.00     0.047 A 
ATOM     17  C   UNL A   1      31.417  22.803  25.612  1.00  0.00     0.047 A 
ATOM     18  C   UNL A   1      32.143  21.769  23.163  1.00  0.00     0.012 A 
ATOM     19  C   UNL A   1      31.749  21.467  25.466  1.00  0.00     0.012 A 
ATOM     20  C   UNL A   1      32.145  20.897  24.261  1.00  0.00    -0.018 A 
BRANCH  20  21
ATOM     21  C   UNL A   1      32.634  19.493  24.301  1.00  0.00    -0.018 A 
ATOM     22  C   UNL A   1      32.842  18.816  25.510  1.00  0.00     0.009 A 
ATOM     23  C   UNL A   1      32.703  18.716  23.116  1.00  0.00     0.009 A 
ATOM     24  C   UNL A   1      33.025  17.424  25.538  1.00  0.00     0.001 A 
ATOM     25  C   UNL A   1      32.856  17.327  23.144  1.00  0.00     0.001 A 
ATOM     26  C   UNL A   1      33.004  16.679  24.362  1.00  0.00     0.000 A 
ENDBRANCH  20  21
ENDBRANCH  14  15
ENDBRANCH  12  14
ENDBRANCH   9  12
ENDBRANCH   6   8
ENDBRANCH   4   6
ENDBRANCH   3   4
ENDBRANCH   2   3
ENDBRANCH   1   2
BRANCH   1  27
ATOM     27  O   UNL A   1      37.241  21.686  25.583  1.00  0.00    -0.374 OA
BRANCH  27  28
ATOM     28  C   UNL A   1      38.656  21.533  25.768  1.00  0.00     0.202 C 
BRANCH  28  29
ATOM     29  C   UNL A   1      39.211  20.107  25.563  1.00  0.00     0.261 C 
BRANCH  29  30
ATOM     30  O   UNL A   1      40.168  19.704  26.577  1.00  0.00    -0.460 OA
BRANCH  30  31
ATOM     31  C   UNL A   1      41.482  19.833  26.207  1.00  0.00     0.338 C 
ATOM     32  O   UNL A   1      42.155  18.965  25.677  1.00  0.00    -0.246 OA
BRANCH  31  33
ATOM     33  C   UNL A   1      42.026  21.186  26.517  1.00  0.00     0.060 A 
ATOM     34  C   UNL A   1      42.099  21.624  27.842  1.00  0.00     0.016 A 
ATOM     35  C   UNL A   1      42.337  22.089  25.496  1.00  0.00     0.016 A 
ATOM     36  C   UNL A   1      42.604  22.890  28.163  1.00  0.00     0.010 A 
ATOM     37  C   UNL A   1      42.758  23.399  25.812  1.00  0.00     0.010 A 
ATOM     38  C   UNL A   1      42.900  23.810  27.151  1.00  0.00    -0.014 A 
BRANCH  38  39
ATOM     39  C   UNL A   1      43.079  25.246  27.519  1.00  0.00     0.031 A 
ATOM     40  C   UNL A   1      44.453  25.848  27.341  1.00  0.00     0.074 A 
ATOM     41  C   UNL A   1      42.058  26.036  27.910  1.00  0.00     0.049 A 
ATOM     42  N   UNL A   1      44.893  27.039  27.653  1.00  0.00    -0.248 NA
ATOM     43  C   UNL A   1      45.458  24.986  26.697  1.00  0.00     0.031 C 
ATOM     44  C   UNL A   1      40.654  25.636  27.971  1.00  0.00     0.029 A 
ATOM     45  N   UNL A   1      42.045  27.354  28.315  1.00  0.00    -0.354 N 
ATOM     46  C   UNL A   1      46.227  27.064  27.256  1.00  0.00     0.074 A 
ATOM     47  C   UNL A   1      46.517  25.779  26.663  1.00  0.00     0.031 C 
ATOM     48  C   UNL A   1      39.918  26.682  28.395  1.00  0.00     0.029 A 
ATOM     49  C   UNL A   1      40.801  27.811  28.698  1.00  0.00     0.049 A 
ATOM     50  H   UNL A   1      42.852  27.917  28.330  1.00  0.00     0.167 HD
ATOM     51  C   UNL A   1      47.138  28.057  27.398  1.00  0.00     0.034 A 
ATOM     52  C   UNL A   1      40.431  28.984  29.264  1.00  0.00     0.034 A 
ATOM     53  C   UNL A   1      46.855  29.321  28.026  1.00  0.00     0.049 A 
ATOM     54  C   UNL A   1      41.503  30.021  29.554  1.00  0.00     0.074 A 
ATOM     55  C   UNL A   1      47.723  30.364  28.298  1.00  0.00     0.029 A 
ATOM     56  N   UNL A   1      45.607  29.709  28.496  1.00  0.00    -0.354 N 
ATOM     57  N   UNL A   1      42.780  30.005  29.243  1.00  0.00    -0.248 NA
ATOM     58  C   UNL A   1      41.085  31.229  30.284  1.00  0.00     0.031 C 
ATOM     59  C   UNL A   1      47.015  31.351  28.993  1.00  0.00     0.029 A 
ATOM     60  C   UNL A   1      45.690  30.960  29.085  1.00  0.00     0.049 A 
ATOM     61  H   UNL A   1      44.785  29.172  28.421  1.00  0.00     0.167 HD
ATOM     62  C   UNL A   1      43.304  31.209  29.714  1.00  0.00     0.074 A 
ATOM     63  C   UNL A   1      42.204  31.937  30.309  1.00  0.00     0.031 C 
ATOM     64  C   UNL A   1      44.579  31.674  29.665  1.00  0.00     0.034 A 
BRANCH  51  65
ATOM     65  C   UNL A   1      48.553  27.752  26.977  1.00  0.00     0.023 A 
ATOM     66  C   UNL A   1      49.008  27.958  25.662  1.00  0.00     0.031 A 
ATOM     67  C   UNL A   1      49.445  27.186  27.905  1.00  0.00     0.131 A 
ATOM     68  C   UNL A   1      50.301  27.548  25.301  1.00  0.00     0.055 A 
ATOM     69  C   UNL A   1      50.752  26.845  27.557  1.00  0.00     0.041 A 
ATOM     70  F   UNL A   1      49.052  26.938  29.165  1.00  0.00    -0.206 F 
ATOM     71  C   UNL A   1      51.183  27.015  26.246  1.00  0.00     0.022 A 
BRANCH  68  72
ATOM     72  S   UNL A   1      50.780  27.605  23.553  1.00  0.00     0.124 S 
ATOM     73  O   UNL A   1      51.961  26.745  23.542  1.00  0.00    -0.237 OA
ATOM     74  O   UNL A   1      49.599  27.074  22.882  1.00  0.00    -0.237 OA
ATOM     75  O   UNL A   1      51.048  29.022  23.314  1.00  0.00    -0.744 OA
ENDBRANCH  68  72
ENDBRANCH  51  65
BRANCH  52  76
ATOM     76  C   UNL A   1      39.019  29.237  29.706  1.00  0.00     0.023 A 
ATOM     77  C   UNL A   1      38.161  30.090  28.986  1.00  0.00     0.031 A 
ATOM     78  C   UNL A   1      38.550  28.737  30.936  1.00  0.00     0.131 A 
ATOM     79  C   UNL A   1      36.919  30.466  29.530  1.00  0.00     0.055 A 
ATOM     80  C   UNL A   1      37.287  29.058  31.439  1.00  0.00     0.041 A 
ATOM     81  F   UNL A   1      39.327  27.941  31.687  1.00  0.00    -0.206 F 
ATOM     82  C   UNL A   1      36.470  29.942  30.744  1.00  0.00     0.022 A 
BRANCH  79  83
ATOM     83  S   UNL A   1      35.953  31.763  28.701  1.00  0.00     0.124 S 
ATOM     84  O   UNL A   1      36.949  32.816  28.540  1.00  0.00    -0.237 OA
ATOM     85  O   UNL A   1      35.528  31.090  27.479  1.00  0.00    -0.237 OA
ATOM     86  O   UNL A   1      34.884  32.055  29.654  1.00  0.00    -0.744 OA
ENDBRANCH  79  83
ENDBRANCH  52  76
BRANCH  64  87
ATOM     87  C   UNL A   1      44.837  33.055  30.217  1.00  0.00     0.023 A 
ATOM     88  C   UNL A   1      45.220  33.262  31.554  1.00  0.00     0.031 A 
ATOM     89  C   UNL A   1      44.709  34.181  29.384  1.00  0.00     0.131 A 
ATOM     90  C   UNL A   1      45.414  34.568  32.031  1.00  0.00     0.055 A 
ATOM     91  C   UNL A   1      44.959  35.474  29.848  1.00  0.00     0.041 A 
ATOM     92  F   UNL A   1      44.349  34.042  28.098  1.00  0.00    -0.206 F 
ATOM     93  C   UNL A   1      45.302  35.673  31.182  1.00  0.00     0.022 A 
BRANCH  90  94
ATOM     94  S   UNL A   1      45.743  34.813  33.799  1.00  0.00     0.124 S 
ATOM     95  O   UNL A   1      47.184  34.597  33.873  1.00  0.00    -0.237 OA
ATOM     96  O   UNL A   1      45.292  36.184  34.013  1.00  0.00    -0.237 OA
ATOM     97  O   UNL A   1      44.928  33.786  34.444  1.00  0.00    -0.744 OA
ENDBRANCH  90  94
ENDBRANCH  64  87
ENDBRANCH  38  39
ENDBRANCH  31  33
ENDBRANCH  30  31
ENDBRANCH  29  30
ENDBRANCH  28  29
ENDBRANCH  27  28
ENDBRANCH   1  27
TORSDOF 22
ENDMDL
MODEL 3
REMARK VINA RESULT:     -10.4      2.827      5.024
REMARK SMILES C[C@H](Oc1ccc(-c2ccccc2)cc1)C(=O)N[C@H](C)C(=O)OCCOCCOC(=O)c1ccc(-c2c3nc(c(-c4cc(S(=O)(=O)[O-])ccc4F)c4ccc([nH]4)c(-c4cc(S(=O)(=O)[O-])ccc4F)c4nc(c(-c5cc(S(=O)(=O)[O-])ccc5F)c5ccc2[nH]5)C=C4)C=C3)cc1
REMARK SMILES IDX 25 1 24 2 23 3 21 4 22 5 19 6 20 7 18 8 16 9 17 10 2 12 1 13
REMARK SMILES IDX 3 14 4 15 5 16 15 17 6 18 14 19 7 20 8 21 9 22 13 23 10 24
REMARK SMILES IDX 12 25 11 26 26 27 27 28 28 29 29 30 30 31 31 32 32 33 33 34
REMARK SMILES IDX 94 35 34 36 93 37 35 38 36 39 37 40 87 41 38 42 92 43 86 44
REMARK SMILES IDX 88 45 39 46 91 47 85 48 84 49 40 51 72 52 52 53 71 54 53 55
REMARK SMILES IDX 56 56 70 57 89 58 54 59 55 60 69 62 90 63 57 64 41 65 42 66
REMARK SMILES IDX 50 67 43 68 49 69 51 70 48 71 44 72 45 73 46 74 47 75 73 76
REMARK SMILES IDX 74 77 82 78 75 79 81 80 83 81 80 82 76 83 77 84 78 85 79 86
REMARK SMILES IDX 58 87 59 88 67 89 60 90 66 91 68 92 65 93 61 94 62 95 63 96
REMARK SMILES IDX 64 97
REMARK H PARENT 18 11 88 50 56 61
REMARK Flexibility Score: inf
ROOT
ATOM      1  C   UNL A   1      35.788  22.439  25.428  1.00  0.00     0.202 C 
ENDROOT
BRANCH   1   2
ATOM      2  C   UNL A   1      34.614  21.685  26.070  1.00  0.00     0.261 C 
BRANCH   2   3
ATOM      3  O   UNL A   1      33.367  22.280  25.675  1.00  0.00    -0.462 OA
BRANCH   3   4
ATOM      4  C   UNL A   1      32.568  21.559  24.851  1.00  0.00     0.328 C 
ATOM      5  O   UNL A   1      31.612  20.886  25.223  1.00  0.00    -0.250 OA
BRANCH   4   6
ATOM      6  C   UNL A   1      33.012  21.656  23.380  1.00  0.00     0.189 C 
ATOM      7  C   UNL A   1      32.063  21.097  22.319  1.00  0.00     0.043 C 
BRANCH   6   8
ATOM      8  N   UNL A   1      33.650  22.914  22.961  1.00  0.00    -0.340 N 
ATOM      9  C   UNL A   1      33.174  24.147  22.621  1.00  0.00     0.261 C 
ATOM     10  O   UNL A   1      33.959  24.870  21.995  1.00  0.00    -0.271 OA
ATOM     11  H   UNL A   1      34.632  22.855  22.918  1.00  0.00     0.164 HD
BRANCH   9  12
ATOM     12  C   UNL A   1      31.807  24.698  23.080  1.00  0.00     0.258 C 
ATOM     13  C   UNL A   1      31.442  25.888  22.200  1.00  0.00     0.064 C 
BRANCH  12  14
ATOM     14  O   UNL A   1      31.903  24.975  24.460  1.00  0.00    -0.481 OA
BRANCH  14  15
ATOM     15  C   UNL A   1      32.325  26.168  24.946  1.00  0.00     0.120 A 
ATOM     16  C   UNL A   1      33.600  26.699  25.107  1.00  0.00     0.047 A 
ATOM     17  C   UNL A   1      31.257  26.931  25.356  1.00  0.00     0.047 A 
ATOM     18  C   UNL A   1      33.781  27.972  25.728  1.00  0.00     0.012 A 
ATOM     19  C   UNL A   1      31.449  28.128  26.023  1.00  0.00     0.012 A 
ATOM     20  C   UNL A   1      32.696  28.712  26.219  1.00  0.00    -0.018 A 
BRANCH  20  21
ATOM     21  C   UNL A   1      32.722  30.081  26.800  1.00  0.00    -0.018 A 
ATOM     22  C   UNL A   1      33.875  30.611  27.394  1.00  0.00     0.009 A 
ATOM     23  C   UNL A   1      31.645  30.979  26.585  1.00  0.00     0.009 A 
ATOM     24  C   UNL A   1      33.977  31.983  27.679  1.00  0.00     0.001 A 
ATOM     25  C   UNL A   1      31.755  32.349  26.841  1.00  0.00     0.001 A 
ATOM     26  C   UNL A   1      32.931  32.852  27.378  1.00  0.00     0.000 A 
ENDBRANCH  20  21
ENDBRANCH  14  15
ENDBRANCH  12  14
ENDBRANCH   9  12
ENDBRANCH   6   8
ENDBRANCH   4   6
ENDBRANCH   3   4
ENDBRANCH   2   3
ENDBRANCH   1   2
BRANCH   1  27
ATOM     27  O   UNL A   1      36.340  21.798  24.278  1.00  0.00    -0.374 OA
BRANCH  27  28
ATOM     28  C   UNL A   1      37.220  20.694  24.534  1.00  0.00     0.202 C 
BRANCH  28  29
ATOM     29  C   UNL A   1      38.137  20.836  25.767  1.00  0.00     0.261 C 
BRANCH  29  30
ATOM     30  O   UNL A   1      39.525  20.507  25.501  1.00  0.00    -0.460 OA
BRANCH  30  31
ATOM     31  C   UNL A   1      40.342  20.541  26.602  1.00  0.00     0.338 C 
ATOM     32  O   UNL A   1      40.832  19.567  27.148  1.00  0.00    -0.246 OA
BRANCH  31  33
ATOM     33  C   UNL A   1      40.588  21.931  27.080  1.00  0.00     0.060 A 
ATOM     34  C   UNL A   1      39.908  23.003  26.497  1.00  0.00     0.016 A 
ATOM     35  C   UNL A   1      41.595  22.205  28.011  1.00  0.00     0.016 A 
ATOM     36  C   UNL A   1      40.120  24.319  26.925  1.00  0.00     0.010 A 
ATOM     37  C   UNL A   1      41.878  23.539  28.377  1.00  0.00     0.010 A 
ATOM     38  C   UNL A   1      41.137  24.609  27.840  1.00  0.00    -0.014 A 
BRANCH  38  39
ATOM     39  C   UNL A   1      41.578  26.027  27.994  1.00  0.00     0.031 A 
ATOM     40  C   UNL A   1      42.868  26.436  27.323  1.00  0.00     0.074 A 
ATOM     41  C   UNL A   1      40.836  26.964  28.621  1.00  0.00     0.049 A 
ATOM     42  N   UNL A   1      43.510  27.575  27.360  1.00  0.00    -0.248 NA
ATOM     43  C   UNL A   1      43.504  25.418  26.469  1.00  0.00     0.031 C 
ATOM     44  C   UNL A   1      39.500  26.753  29.173  1.00  0.00     0.029 A 
ATOM     45  N   UNL A   1      41.098  28.291  28.883  1.00  0.00    -0.354 N 
ATOM     46  C   UNL A   1      44.629  27.405  26.550  1.00  0.00     0.074 A 
ATOM     47  C   UNL A   1      44.567  26.064  26.017  1.00  0.00     0.031 C 
ATOM     48  C   UNL A   1      39.063  27.907  29.715  1.00  0.00     0.029 A 
ATOM     49  C   UNL A   1      40.109  28.926  29.606  1.00  0.00     0.049 A 
ATOM     50  H   UNL A   1      41.917  28.745  28.582  1.00  0.00     0.167 HD
ATOM     51  C   UNL A   1      45.633  28.278  26.294  1.00  0.00     0.034 A 
ATOM     52  C   UNL A   1      40.075  30.165  30.150  1.00  0.00     0.034 A 
ATOM     53  C   UNL A   1      45.711  29.600  26.859  1.00  0.00     0.049 A 
ATOM     54  C   UNL A   1      41.284  31.069  29.977  1.00  0.00     0.074 A 
ATOM     55  C   UNL A   1      46.724  30.534  26.734  1.00  0.00     0.029 A 
ATOM     56  N   UNL A   1      44.741  30.170  27.672  1.00  0.00    -0.354 N 
ATOM     57  N   UNL A   1      42.374  30.870  29.269  1.00  0.00    -0.248 NA
ATOM     58  C   UNL A   1      41.264  32.357  30.687  1.00  0.00     0.031 C 
ATOM     59  C   UNL A   1      46.398  31.640  27.527  1.00  0.00     0.029 A 
ATOM     60  C   UNL A   1      45.146  31.429  28.082  1.00  0.00     0.049 A 
ATOM     61  H   UNL A   1      43.890  29.742  27.920  1.00  0.00     0.167 HD
ATOM     62  C   UNL A   1      43.149  32.020  29.429  1.00  0.00     0.074 A 
ATOM     63  C   UNL A   1      42.394  32.914  30.279  1.00  0.00     0.031 C 
ATOM     64  C   UNL A   1      44.375  32.312  28.923  1.00  0.00     0.034 A 
BRANCH  51  65
ATOM     65  C   UNL A   1      46.785  27.769  25.464  1.00  0.00     0.023 A 
ATOM     66  C   UNL A   1      46.974  28.151  24.125  1.00  0.00     0.031 A 
ATOM     67  C   UNL A   1      47.678  26.835  26.019  1.00  0.00     0.131 A 
ATOM     68  C   UNL A   1      47.997  27.556  23.369  1.00  0.00     0.055 A 
ATOM     69  C   UNL A   1      48.736  26.300  25.283  1.00  0.00     0.041 A 
ATOM     70  F   UNL A   1      47.524  26.412  27.285  1.00  0.00    -0.206 F 
ATOM     71  C   UNL A   1      48.893  26.651  23.947  1.00  0.00     0.022 A 
BRANCH  68  72
ATOM     72  S   UNL A   1      48.071  27.884  21.587  1.00  0.00     0.124 S 
ATOM     73  O   UNL A   1      49.207  28.800  21.502  1.00  0.00    -0.237 OA
ATOM     74  O   UNL A   1      48.282  26.554  21.027  1.00  0.00    -0.237 OA
ATOM     75  O   UNL A   1      46.772  28.485  21.292  1.00  0.00    -0.744 OA
ENDBRANCH  68  72
ENDBRANCH  51  65
BRANCH  52  76
ATOM     76  C   UNL A   1      38.927  30.622  31.003  1.00  0.00     0.023 A 
ATOM     77  C   UNL A   1      37.927  31.475  30.500  1.00  0.00     0.031 A 
ATOM     78  C   UNL A   1      38.890  30.324  32.378  1.00  0.00     0.131 A 
ATOM     79  C   UNL A   1      36.981  32.047  31.371  1.00  0.00     0.055 A 
ATOM     80  C   UNL A   1      37.907  30.839  33.227  1.00  0.00     0.041 A 
ATOM     81  F   UNL A   1      39.829  29.539  32.930  1.00  0.00    -0.206 F 
ATOM     82  C   UNL A   1      36.956  31.721  32.728  1.00  0.00     0.022 A 
BRANCH  79  83
ATOM     83  S   UNL A   1      35.870  33.338  30.737  1.00  0.00     0.124 S 
ATOM     84  O   UNL A   1      36.062  34.401  31.716  1.00  0.00    -0.237 OA
ATOM     85  O   UNL A   1      36.419  33.583  29.407  1.00  0.00    -0.237 OA
ATOM     86  O   UNL A   1      34.557  32.698  30.759  1.00  0.00    -0.744 OA
ENDBRANCH  79  83
ENDBRANCH  52  76
BRANCH  64  87
ATOM     87  C   UNL A   1      44.947  33.675  29.229  1.00  0.00     0.023 A 
ATOM     88  C   UNL A   1      44.680  34.792  28.418  1.00  0.00     0.031 A 
ATOM     89  C   UNL A   1      45.763  33.859  30.360  1.00  0.00     0.131 A 
ATOM     90  C   UNL A   1      45.263  36.032  28.723  1.00  0.00     0.055 A 
ATOM     91  C   UNL A   1      46.294  35.106  30.690  1.00  0.00     0.041 A 
ATOM     92  F   UNL A   1      46.049  32.827  31.170  1.00  0.00    -0.206 F 
ATOM     93  C   UNL A   1      46.055  36.199  29.862  1.00  0.00     0.022 A 
BRANCH  90  94
ATOM     94  S   UNL A   1      45.036  37.413  27.567  1.00  0.00     0.124 S 
ATOM     95  O   UNL A   1      46.118  37.192  26.613  1.00  0.00    -0.237 OA
ATOM     96  O   UNL A   1      43.686  37.180  27.064  1.00  0.00    -0.237 OA
ATOM     97  O   UNL A   1      45.186  38.596  28.412  1.00  0.00    -0.744 OA
ENDBRANCH  90  94
ENDBRANCH  64  87
ENDBRANCH  38  39
ENDBRANCH  31  33
ENDBRANCH  30  31
ENDBRANCH  29  30
ENDBRANCH  28  29
ENDBRANCH  27  28
ENDBRANCH   1  27
TORSDOF 22
ENDMDL
