MODEL 1
REMARK VINA RESULT:     -10.3      0.000      0.000
REMARK SMILES C[C@@H](C(=O)OCCOCCOC(=O)c1ccc(-c2c3nc(c(-c4cc(S(=O)(=O)[O-])ccc4F)c4ccc([nH]4)c(-c4cc(S(=O)(=O)[O-])ccc4F)c4nc(c(-c5cc(S(=O)(=O)[O-])ccc5F)c5ccc2[nH]5)C=C4)C=C3)cc1)c1ccc(-c2ccc3[nH]ccc3c2)cc1
REMARK SMILES IDX 9 1 8 2 7 3 6 4 5 5 3 6 4 7 2 8 1 9 77 10 78 11 91 12 79 13
REMARK SMILES IDX 90 14 80 15 81 16 82 17 89 18 83 19 88 20 84 21 87 22 85 23
REMARK SMILES IDX 86 24 10 26 11 27 12 28 13 29 14 30 15 31 76 32 16 33 75 34
REMARK SMILES IDX 17 35 18 36 19 37 69 38 20 39 74 40 68 41 70 42 21 43 73 44
REMARK SMILES IDX 67 45 66 46 22 48 54 49 34 50 53 51 35 52 38 53 52 54 71 55
REMARK SMILES IDX 36 56 37 57 51 59 72 60 39 61 23 62 24 63 32 64 25 65 31 66
REMARK SMILES IDX 33 67 30 68 26 69 27 70 28 71 29 72 55 73 56 74 64 75 57 76
REMARK SMILES IDX 63 77 65 78 62 79 58 80 59 81 60 82 61 83 40 84 41 85 49 86
REMARK SMILES IDX 42 87 48 88 50 89 47 90 43 91 44 92 45 93 46 94
REMARK H PARENT 85 25 70 47 38 58
REMARK Flexibility Score: inf
ROOT
ATOM      1  C   UNL A   1      42.205  19.807  26.399  1.00  0.00     0.202 C 
ENDROOT
BRANCH   1   2
ATOM      2  O   UNL A   1      42.686  19.100  25.255  1.00  0.00    -0.374 OA
BRANCH   2   3
ATOM      3  C   UNL A   1      44.086  18.833  25.177  1.00  0.00     0.202 C 
BRANCH   3   4
ATOM      4  C   UNL A   1      44.949  19.890  24.478  1.00  0.00     0.261 C 
BRANCH   4   5
ATOM      5  O   UNL A   1      45.584  20.746  25.437  1.00  0.00    -0.463 OA
BRANCH   5   6
ATOM      6  C   UNL A   1      45.520  22.081  25.180  1.00  0.00     0.313 C 
ATOM      7  O   UNL A   1      46.366  22.709  24.552  1.00  0.00    -0.252 OA
BRANCH   6   8
ATOM      8  C   UNL A   1      44.202  22.700  25.658  1.00  0.00     0.126 C 
ATOM      9  C   UNL A   1      43.627  23.707  24.649  1.00  0.00     0.025 C 
BRANCH   8  10
ATOM     10  C   UNL A   1      44.245  23.254  27.090  1.00  0.00    -0.034 A 
ATOM     11  C   UNL A   1      43.133  23.089  27.933  1.00  0.00     0.005 A 
ATOM     12  C   UNL A   1      45.385  23.865  27.638  1.00  0.00     0.005 A 
ATOM     13  C   UNL A   1      43.177  23.478  29.278  1.00  0.00     0.009 A 
ATOM     14  C   UNL A   1      45.427  24.254  28.986  1.00  0.00     0.009 A 
ATOM     15  C   UNL A   1      44.335  24.035  29.831  1.00  0.00    -0.018 A 
BRANCH  15  16
ATOM     16  C   UNL A   1      44.435  24.263  31.278  1.00  0.00    -0.018 A 
ATOM     17  C   UNL A   1      44.925  25.497  31.738  1.00  0.00     0.011 A 
ATOM     18  C   UNL A   1      44.056  23.286  32.215  1.00  0.00     0.019 A 
ATOM     19  C   UNL A   1      45.047  25.789  33.100  1.00  0.00     0.027 A 
ATOM     20  C   UNL A   1      44.185  23.551  33.598  1.00  0.00    -0.000 A 
ATOM     21  C   UNL A   1      44.670  24.794  34.004  1.00  0.00     0.045 A 
ATOM     22  C   UNL A   1      43.930  22.801  34.781  1.00  0.00     0.028 A 
ATOM     23  N   UNL A   1      44.683  24.799  35.380  1.00  0.00    -0.361 N 
ATOM     24  C   UNL A   1      44.252  23.593  35.862  1.00  0.00     0.083 A 
ATOM     25  H   UNL A   1      44.963  25.560  35.937  1.00  0.00     0.166 HD
ENDBRANCH  15  16
ENDBRANCH   8  10
ENDBRANCH   6   8
ENDBRANCH   5   6
ENDBRANCH   4   5
ENDBRANCH   3   4
ENDBRANCH   2   3
ENDBRANCH   1   2
BRANCH   1  26
ATOM     26  C   UNL A   1      40.707  20.137  26.465  1.00  0.00     0.261 C 
BRANCH  26  27
ATOM     27  O   UNL A   1      40.436  21.412  27.079  1.00  0.00    -0.460 OA
BRANCH  27  28
ATOM     28  C   UNL A   1      39.543  22.179  26.401  1.00  0.00     0.338 C 
ATOM     29  O   UNL A   1      38.696  21.795  25.613  1.00  0.00    -0.246 OA
BRANCH  28  30
ATOM     30  C   UNL A   1      39.595  23.575  26.879  1.00  0.00     0.060 A 
ATOM     31  C   UNL A   1      39.912  24.566  25.941  1.00  0.00     0.016 A 
ATOM     32  C   UNL A   1      39.452  23.896  28.229  1.00  0.00     0.016 A 
ATOM     33  C   UNL A   1      40.133  25.877  26.357  1.00  0.00     0.010 A 
ATOM     34  C   UNL A   1      39.684  25.213  28.647  1.00  0.00     0.010 A 
ATOM     35  C   UNL A   1      40.059  26.202  27.718  1.00  0.00    -0.014 A 
BRANCH  35  36
ATOM     36  C   UNL A   1      40.520  27.539  28.172  1.00  0.00     0.031 A 
ATOM     37  C   UNL A   1      41.992  27.853  28.143  1.00  0.00     0.074 A 
ATOM     38  C   UNL A   1      39.637  28.475  28.565  1.00  0.00     0.049 A 
ATOM     39  N   UNL A   1      42.618  28.938  28.519  1.00  0.00    -0.248 NA
ATOM     40  C   UNL A   1      42.873  26.799  27.619  1.00  0.00     0.031 C 
ATOM     41  C   UNL A   1      38.185  28.304  28.588  1.00  0.00     0.029 A 
ATOM     42  N   UNL A   1      39.833  29.753  29.022  1.00  0.00    -0.354 N 
ATOM     43  C   UNL A   1      43.968  28.699  28.279  1.00  0.00     0.074 A 
ATOM     44  C   UNL A   1      44.068  27.350  27.764  1.00  0.00     0.031 C 
ATOM     45  C   UNL A   1      37.621  29.434  29.047  1.00  0.00     0.029 A 
ATOM     46  C   UNL A   1      38.670  30.393  29.385  1.00  0.00     0.049 A 
ATOM     47  H   UNL A   1      40.720  30.174  29.083  1.00  0.00     0.167 HD
ATOM     48  C   UNL A   1      45.024  29.532  28.460  1.00  0.00     0.034 A 
ATOM     49  C   UNL A   1      38.479  31.602  29.953  1.00  0.00     0.034 A 
ATOM     50  C   UNL A   1      44.909  30.870  28.989  1.00  0.00     0.049 A 
ATOM     51  C   UNL A   1      39.676  32.477  30.235  1.00  0.00     0.074 A 
ATOM     52  C   UNL A   1      45.909  31.801  29.210  1.00  0.00     0.029 A 
ATOM     53  N   UNL A   1      43.720  31.466  29.396  1.00  0.00    -0.354 N 
ATOM     54  N   UNL A   1      40.948  32.241  30.003  1.00  0.00    -0.248 NA
ATOM     55  C   UNL A   1      39.412  33.786  30.848  1.00  0.00     0.031 C 
ATOM     56  C   UNL A   1      45.339  32.926  29.815  1.00  0.00     0.029 A 
ATOM     57  C   UNL A   1      43.968  32.735  29.898  1.00  0.00     0.049 A 
ATOM     58  H   UNL A   1      42.831  31.048  29.336  1.00  0.00     0.167 HD
ATOM     59  C   UNL A   1      41.628  33.384  30.415  1.00  0.00     0.074 A 
ATOM     60  C   UNL A   1      40.627  34.312  30.896  1.00  0.00     0.031 C 
ATOM     61  C   UNL A   1      42.961  33.646  30.390  1.00  0.00     0.034 A 
BRANCH  48  62
ATOM     62  C   UNL A   1      46.396  28.991  28.135  1.00  0.00     0.023 A 
ATOM     63  C   UNL A   1      46.815  28.777  26.809  1.00  0.00     0.031 A 
ATOM     64  C   UNL A   1      47.288  28.650  29.168  1.00  0.00     0.131 A 
ATOM     65  C   UNL A   1      48.054  28.170  26.554  1.00  0.00     0.055 A 
ATOM     66  C   UNL A   1      48.553  28.122  28.904  1.00  0.00     0.041 A 
ATOM     67  F   UNL A   1      46.938  28.809  30.453  1.00  0.00    -0.206 F 
ATOM     68  C   UNL A   1      48.937  27.863  27.593  1.00  0.00     0.022 A 
BRANCH  65  69
ATOM     69  S   UNL A   1      48.432  27.646  24.859  1.00  0.00     0.124 S 
ATOM     70  O   UNL A   1      48.398  26.191  24.984  1.00  0.00    -0.237 OA
ATOM     71  O   UNL A   1      47.344  28.248  24.095  1.00  0.00    -0.237 OA
ATOM     72  O   UNL A   1      49.756  28.213  24.612  1.00  0.00    -0.744 OA
ENDBRANCH  65  69
ENDBRANCH  48  62
BRANCH  49  73
ATOM     73  C   UNL A   1      37.107  32.042  30.339  1.00  0.00     0.023 A 
ATOM     74  C   UNL A   1      36.265  32.693  29.424  1.00  0.00     0.031 A 
ATOM     75  C   UNL A   1      36.638  31.858  31.653  1.00  0.00     0.131 A 
ATOM     76  C   UNL A   1      35.015  33.174  29.846  1.00  0.00     0.055 A 
ATOM     77  C   UNL A   1      35.373  32.291  32.053  1.00  0.00     0.041 A 
ATOM     78  F   UNL A   1      37.405  31.244  32.568  1.00  0.00    -0.206 F 
ATOM     79  C   UNL A   1      34.558  32.964  31.150  1.00  0.00     0.022 A 
BRANCH  76  80
ATOM     80  S   UNL A   1      34.022  34.152  28.685  1.00  0.00     0.124 S 
ATOM     81  O   UNL A   1      32.861  34.490  29.500  1.00  0.00    -0.237 OA
ATOM     82  O   UNL A   1      34.926  35.252  28.366  1.00  0.00    -0.237 OA
ATOM     83  O   UNL A   1      33.765  33.221  27.588  1.00  0.00    -0.744 OA
ENDBRANCH  76  80
ENDBRANCH  49  73
BRANCH  61  84
ATOM     84  C   UNL A   1      43.402  35.013  30.859  1.00  0.00     0.023 A 
ATOM     85  C   UNL A   1      43.615  35.300  32.218  1.00  0.00     0.031 A 
ATOM     86  C   UNL A   1      43.603  36.048  29.927  1.00  0.00     0.131 A 
ATOM     87  C   UNL A   1      43.963  36.602  32.614  1.00  0.00     0.055 A 
ATOM     88  C   UNL A   1      44.009  37.324  30.320  1.00  0.00     0.041 A 
ATOM     89  F   UNL A   1      43.413  35.833  28.615  1.00  0.00    -0.206 F 
ATOM     90  C   UNL A   1      44.178  37.611  31.671  1.00  0.00     0.022 A 
BRANCH  87  91
ATOM     91  S   UNL A   1      44.041  36.985  34.386  1.00  0.00     0.124 S 
ATOM     92  O   UNL A   1      44.884  35.908  34.893  1.00  0.00    -0.237 OA
ATOM     93  O   UNL A   1      44.635  38.317  34.391  1.00  0.00    -0.237 OA
ATOM     94  O   UNL A   1      42.642  36.929  34.810  1.00  0.00    -0.744 OA
ENDBRANCH  87  91
ENDBRANCH  61  84
ENDBRANCH  35  36
ENDBRANCH  28  30
ENDBRANCH  27  28
ENDBRANCH  26  27
ENDBRANCH   1  26
TORSDOF 19
ENDMDL
MODEL 2
REMARK VINA RESULT:     -10.1      1.891      2.306
REMARK SMILES C[C@@H](C(=O)OCCOCCOC(=O)c1ccc(-c2c3nc(c(-c4cc(S(=O)(=O)[O-])ccc4F)c4ccc([nH]4)c(-c4cc(S(=O)(=O)[O-])ccc4F)c4nc(c(-c5cc(S(=O)(=O)[O-])ccc5F)c5ccc2[nH]5)C=C4)C=C3)cc1)c1ccc(-c2ccc3[nH]ccc3c2)cc1
REMARK SMILES IDX 9 1 8 2 7 3 6 4 5 5 3 6 4 7 2 8 1 9 77 10 78 11 91 12 79 13
REMARK SMILES IDX 90 14 80 15 81 16 82 17 89 18 83 19 88 20 84 21 87 22 85 23
REMARK SMILES IDX 86 24 10 26 11 27 12 28 13 29 14 30 15 31 76 32 16 33 75 34
REMARK SMILES IDX 17 35 18 36 19 37 69 38 20 39 74 40 68 41 70 42 21 43 73 44
REMARK SMILES IDX 67 45 66 46 22 48 54 49 34 50 53 51 35 52 38 53 52 54 71 55
REMARK SMILES IDX 36 56 37 57 51 59 72 60 39 61 23 62 24 63 32 64 25 65 31 66
REMARK SMILES IDX 33 67 30 68 26 69 27 70 28 71 29 72 55 73 56 74 64 75 57 76
REMARK SMILES IDX 63 77 65 78 62 79 58 80 59 81 60 82 61 83 40 84 41 85 49 86
REMARK SMILES IDX 42 87 48 88 50 89 47 90 43 91 44 92 45 93 46 94
REMARK H PARENT 85 25 70 47 38 58
REMARK Flexibility Score: inf
ROOT
ATOM      1  C   UNL A   1      40.786  19.965  26.565  1.00  0.00     0.202 C 
ENDROOT
BRANCH   1   2
ATOM      2  O   UNL A   1      41.518  19.055  25.741  1.00  0.00    -0.374 OA
BRANCH   2   3
ATOM      3  C   UNL A   1      42.908  18.879  26.017  1.00  0.00     0.202 C 
BRANCH   3   4
ATOM      4  C   UNL A   1      43.889  19.602  25.087  1.00  0.00     0.261 C 
BRANCH   4   5
ATOM      5  O   UNL A   1      44.299  20.855  25.650  1.00  0.00    -0.463 OA
BRANCH   5   6
ATOM      6  C   UNL A   1      44.158  21.946  24.848  1.00  0.00     0.313 C 
ATOM      7  O   UNL A   1      44.527  21.999  23.680  1.00  0.00    -0.252 OA
BRANCH   6   8
ATOM      8  C   UNL A   1      43.369  23.069  25.529  1.00  0.00     0.126 C 
ATOM      9  C   UNL A   1      43.545  24.421  24.821  1.00  0.00     0.025 C 
BRANCH   8  10
ATOM     10  C   UNL A   1      43.581  23.162  27.047  1.00  0.00    -0.034 A 
ATOM     11  C   UNL A   1      44.834  23.549  27.552  1.00  0.00     0.005 A 
ATOM     12  C   UNL A   1      42.550  22.946  27.977  1.00  0.00     0.005 A 
ATOM     13  C   UNL A   1      45.033  23.754  28.923  1.00  0.00     0.009 A 
ATOM     14  C   UNL A   1      42.751  23.153  29.350  1.00  0.00     0.009 A 
ATOM     15  C   UNL A   1      43.986  23.591  29.837  1.00  0.00    -0.018 A 
BRANCH  15  16
ATOM     16  C   UNL A   1      44.151  23.990  31.240  1.00  0.00    -0.018 A 
ATOM     17  C   UNL A   1      44.648  25.272  31.527  1.00  0.00     0.011 A 
ATOM     18  C   UNL A   1      43.829  23.128  32.304  1.00  0.00     0.019 A 
ATOM     19  C   UNL A   1      44.830  25.724  32.838  1.00  0.00     0.027 A 
ATOM     20  C   UNL A   1      44.020  23.555  33.637  1.00  0.00    -0.000 A 
ATOM     21  C   UNL A   1      44.508  24.841  33.870  1.00  0.00     0.045 A 
ATOM     22  C   UNL A   1      43.830  22.949  34.912  1.00  0.00     0.028 A 
ATOM     23  N   UNL A   1      44.587  25.009  35.234  1.00  0.00    -0.361 N 
ATOM     24  C   UNL A   1      44.193  23.866  35.875  1.00  0.00     0.083 A 
ATOM     25  H   UNL A   1      44.884  25.832  35.683  1.00  0.00     0.166 HD
ENDBRANCH  15  16
ENDBRANCH   8  10
ENDBRANCH   6   8
ENDBRANCH   5   6
ENDBRANCH   4   5
ENDBRANCH   3   4
ENDBRANCH   2   3
ENDBRANCH   1   2
BRANCH   1  26
ATOM     26  C   UNL A   1      40.163  21.199  25.898  1.00  0.00     0.261 C 
BRANCH  26  27
ATOM     27  O   UNL A   1      39.025  21.715  26.615  1.00  0.00    -0.460 OA
BRANCH  27  28
ATOM     28  C   UNL A   1      38.533  22.880  26.118  1.00  0.00     0.338 C 
ATOM     29  O   UNL A   1      37.525  23.023  25.448  1.00  0.00    -0.246 OA
BRANCH  28  30
ATOM     30  C   UNL A   1      39.291  24.028  26.651  1.00  0.00     0.060 A 
ATOM     31  C   UNL A   1      39.134  24.330  28.010  1.00  0.00     0.016 A 
ATOM     32  C   UNL A   1      40.046  24.860  25.823  1.00  0.00     0.016 A 
ATOM     33  C   UNL A   1      39.694  25.492  28.538  1.00  0.00     0.010 A 
ATOM     34  C   UNL A   1      40.601  26.031  26.354  1.00  0.00     0.010 A 
ATOM     35  C   UNL A   1      40.399  26.370  27.705  1.00  0.00    -0.014 A 
BRANCH  35  36
ATOM     36  C   UNL A   1      40.789  27.707  28.222  1.00  0.00     0.031 A 
ATOM     37  C   UNL A   1      42.246  28.083  28.250  1.00  0.00     0.074 A 
ATOM     38  C   UNL A   1      39.855  28.590  28.620  1.00  0.00     0.049 A 
ATOM     39  N   UNL A   1      42.814  29.178  28.684  1.00  0.00    -0.248 NA
ATOM     40  C   UNL A   1      43.186  27.087  27.716  1.00  0.00     0.031 C 
ATOM     41  C   UNL A   1      38.412  28.359  28.591  1.00  0.00     0.029 A 
ATOM     42  N   UNL A   1      39.983  29.858  29.129  1.00  0.00    -0.354 N 
ATOM     43  C   UNL A   1      44.180  29.004  28.479  1.00  0.00     0.074 A 
ATOM     44  C   UNL A   1      44.352  27.681  27.919  1.00  0.00     0.031 C 
ATOM     45  C   UNL A   1      37.787  29.446  29.072  1.00  0.00     0.029 A 
ATOM     46  C   UNL A   1      38.784  30.435  29.479  1.00  0.00     0.049 A 
ATOM     47  H   UNL A   1      40.849  30.312  29.233  1.00  0.00     0.167 HD
ATOM     48  C   UNL A   1      45.193  29.873  28.723  1.00  0.00     0.034 A 
ATOM     49  C   UNL A   1      38.524  31.612  30.083  1.00  0.00     0.034 A 
ATOM     50  C   UNL A   1      45.005  31.184  29.297  1.00  0.00     0.049 A 
ATOM     51  C   UNL A   1      39.674  32.525  30.434  1.00  0.00     0.074 A 
ATOM     52  C   UNL A   1      45.958  32.147  29.582  1.00  0.00     0.029 A 
ATOM     53  N   UNL A   1      43.780  31.715  29.687  1.00  0.00    -0.354 N 
ATOM     54  N   UNL A   1      40.961  32.351  30.234  1.00  0.00    -0.248 NA
ATOM     55  C   UNL A   1      39.336  33.798  31.086  1.00  0.00     0.031 C 
ATOM     56  C   UNL A   1      45.322  33.224  30.209  1.00  0.00     0.029 A 
ATOM     57  C   UNL A   1      43.960  32.974  30.242  1.00  0.00     0.049 A 
ATOM     58  H   UNL A   1      42.913  31.263  29.583  1.00  0.00     0.167 HD
ATOM     59  C   UNL A   1      41.580  33.505  30.708  1.00  0.00     0.074 A 
ATOM     60  C   UNL A   1      40.525  34.372  31.191  1.00  0.00     0.031 C 
ATOM     61  C   UNL A   1      42.901  33.823  30.735  1.00  0.00     0.034 A 
BRANCH  48  62
ATOM     62  C   UNL A   1      46.596  29.402  28.422  1.00  0.00     0.023 A 
ATOM     63  C   UNL A   1      47.367  28.710  29.373  1.00  0.00     0.031 A 
ATOM     64  C   UNL A   1      47.186  29.681  27.176  1.00  0.00     0.131 A 
ATOM     65  C   UNL A   1      48.704  28.387  29.092  1.00  0.00     0.055 A 
ATOM     66  C   UNL A   1      48.491  29.285  26.873  1.00  0.00     0.041 A 
ATOM     67  F   UNL A   1      46.510  30.359  26.236  1.00  0.00    -0.206 F 
ATOM     68  C   UNL A   1      49.263  28.649  27.839  1.00  0.00     0.022 A 
BRANCH  65  69
ATOM     69  S   UNL A   1      49.747  27.761  30.438  1.00  0.00     0.124 S 
ATOM     70  O   UNL A   1      49.021  26.559  30.839  1.00  0.00    -0.237 OA
ATOM     71  O   UNL A   1      51.025  27.543  29.769  1.00  0.00    -0.237 OA
ATOM     72  O   UNL A   1      49.733  28.846  31.417  1.00  0.00    -0.744 OA
ENDBRANCH  65  69
ENDBRANCH  48  62
BRANCH  49  73
ATOM     73  C   UNL A   1      37.124  31.980  30.442  1.00  0.00     0.023 A 
ATOM     74  C   UNL A   1      36.296  32.667  29.540  1.00  0.00     0.031 A 
ATOM     75  C   UNL A   1      36.611  31.690  31.719  1.00  0.00     0.131 A 
ATOM     76  C   UNL A   1      35.014  33.077  29.942  1.00  0.00     0.055 A 
ATOM     77  C   UNL A   1      35.317  32.053  32.096  1.00  0.00     0.041 A 
ATOM     78  F   UNL A   1      37.362  31.038  32.620  1.00  0.00    -0.206 F 
ATOM     79  C   UNL A   1      34.514  32.762  31.208  1.00  0.00     0.022 A 
BRANCH  76  80
ATOM     80  S   UNL A   1      34.034  34.103  28.811  1.00  0.00     0.124 S 
ATOM     81  O   UNL A   1      35.066  34.922  28.186  1.00  0.00    -0.237 OA
ATOM     82  O   UNL A   1      33.408  33.098  27.958  1.00  0.00    -0.237 OA
ATOM     83  O   UNL A   1      33.123  34.816  29.702  1.00  0.00    -0.744 OA
ENDBRANCH  76  80
ENDBRANCH  49  73
BRANCH  61  84
ATOM     84  C   UNL A   1      43.268  35.189  31.267  1.00  0.00     0.023 A 
ATOM     85  C   UNL A   1      43.414  36.302  30.422  1.00  0.00     0.031 A 
ATOM     86  C   UNL A   1      43.484  35.374  32.645  1.00  0.00     0.131 A 
ATOM     87  C   UNL A   1      43.818  37.537  30.953  1.00  0.00     0.055 A 
ATOM     88  C   UNL A   1      43.826  36.618  33.176  1.00  0.00     0.041 A 
ATOM     89  F   UNL A   1      43.362  34.346  33.501  1.00  0.00    -0.206 F 
ATOM     90  C   UNL A   1      44.008  37.706  32.327  1.00  0.00     0.022 A 
BRANCH  87  91
ATOM     91  S   UNL A   1      44.184  38.900  29.813  1.00  0.00     0.124 S 
ATOM     92  O   UNL A   1      44.377  40.019  30.729  1.00  0.00    -0.237 OA
ATOM     93  O   UNL A   1      45.381  38.422  29.129  1.00  0.00    -0.237 OA
ATOM     94  O   UNL A   1      42.985  38.981  28.979  1.00  0.00    -0.744 OA
ENDBRANCH  87  91
ENDBRANCH  61  84
ENDBRANCH  35  36
ENDBRANCH  28  30
ENDBRANCH  27  28
ENDBRANCH  26  27
ENDBRANCH   1  26
TORSDOF 19
ENDMDL
MODEL 3
REMARK VINA RESULT:     -10.0      4.928      8.412
REMARK SMILES C[C@@H](C(=O)OCCOCCOC(=O)c1ccc(-c2c3nc(c(-c4cc(S(=O)(=O)[O-])ccc4F)c4ccc([nH]4)c(-c4cc(S(=O)(=O)[O-])ccc4F)c4nc(c(-c5cc(S(=O)(=O)[O-])ccc5F)c5ccc2[nH]5)C=C4)C=C3)cc1)c1ccc(-c2ccc3[nH]ccc3c2)cc1
REMARK SMILES IDX 9 1 8 2 7 3 6 4 5 5 3 6 4 7 2 8 1 9 77 10 78 11 91 12 79 13
REMARK SMILES IDX 90 14 80 15 81 16 82 17 89 18 83 19 88 20 84 21 87 22 85 23
REMARK SMILES IDX 86 24 10 26 11 27 12 28 13 29 14 30 15 31 76 32 16 33 75 34
REMARK SMILES IDX 17 35 18 36 19 37 69 38 20 39 74 40 68 41 70 42 21 43 73 44
REMARK SMILES IDX 67 45 66 46 22 48 54 49 34 50 53 51 35 52 38 53 52 54 71 55
REMARK SMILES IDX 36 56 37 57 51 59 72 60 39 61 23 62 24 63 32 64 25 65 31 66
REMARK SMILES IDX 33 67 30 68 26 69 27 70 28 71 29 72 55 73 56 74 64 75 57 76
REMARK SMILES IDX 63 77 65 78 62 79 58 80 59 81 60 82 61 83 40 84 41 85 49 86
REMARK SMILES IDX 42 87 48 88 50 89 47 90 43 91 44 92 45 93 46 94
REMARK H PARENT 85 25 70 47 38 58
REMARK Flexibility Score: inf
ROOT
ATOM      1  C   UNL A   1      36.760  19.518  24.673  1.00  0.00     0.202 C 
ENDROOT
BRANCH   1   2
ATOM      2  O   UNL A   1      35.914  20.583  25.109  1.00  0.00    -0.374 OA
BRANCH   2   3
ATOM      3  C   UNL A   1      34.515  20.474  24.845  1.00  0.00     0.202 C 
BRANCH   3   4
ATOM      4  C   UNL A   1      33.586  20.449  26.064  1.00  0.00     0.261 C 
BRANCH   4   5
ATOM      5  O   UNL A   1      32.564  21.448  25.949  1.00  0.00    -0.463 OA
BRANCH   5   6
ATOM      6  C   UNL A   1      32.704  22.540  26.750  1.00  0.00     0.313 C 
ATOM      7  O   UNL A   1      33.768  22.915  27.230  1.00  0.00    -0.252 OA
BRANCH   6   8
ATOM      8  C   UNL A   1      31.398  23.329  26.888  1.00  0.00     0.126 C 
ATOM      9  C   UNL A   1      30.157  22.425  26.828  1.00  0.00     0.025 C 
BRANCH   8  10
ATOM     10  C   UNL A   1      31.292  24.546  25.957  1.00  0.00    -0.034 A 
ATOM     11  C   UNL A   1      30.820  24.378  24.644  1.00  0.00     0.005 A 
ATOM     12  C   UNL A   1      31.579  25.856  26.376  1.00  0.00     0.005 A 
ATOM     13  C   UNL A   1      30.602  25.478  23.804  1.00  0.00     0.009 A 
ATOM     14  C   UNL A   1      31.360  26.957  25.534  1.00  0.00     0.009 A 
ATOM     15  C   UNL A   1      30.838  26.784  24.248  1.00  0.00    -0.018 A 
BRANCH  15  16
ATOM     16  C   UNL A   1      30.430  27.935  23.433  1.00  0.00    -0.018 A 
ATOM     17  C   UNL A   1      31.401  28.603  22.669  1.00  0.00     0.011 A 
ATOM     18  C   UNL A   1      29.099  28.386  23.393  1.00  0.00     0.019 A 
ATOM     19  C   UNL A   1      31.088  29.705  21.866  1.00  0.00     0.027 A 
ATOM     20  C   UNL A   1      28.760  29.507  22.602  1.00  0.00    -0.000 A 
ATOM     21  C   UNL A   1      29.759  30.132  21.856  1.00  0.00     0.045 A 
ATOM     22  C   UNL A   1      27.554  30.225  22.360  1.00  0.00     0.028 A 
ATOM     23  N   UNL A   1      29.171  31.172  21.173  1.00  0.00    -0.361 N 
ATOM     24  C   UNL A   1      27.840  31.248  21.481  1.00  0.00     0.083 A 
ATOM     25  H   UNL A   1      29.640  31.775  20.553  1.00  0.00     0.166 HD
ENDBRANCH  15  16
ENDBRANCH   8  10
ENDBRANCH   6   8
ENDBRANCH   5   6
ENDBRANCH   4   5
ENDBRANCH   3   4
ENDBRANCH   2   3
ENDBRANCH   1   2
BRANCH   1  26
ATOM     26  C   UNL A   1      38.219  19.515  25.148  1.00  0.00     0.261 C 
BRANCH  26  27
ATOM     27  O   UNL A   1      38.653  20.794  25.651  1.00  0.00    -0.460 OA
BRANCH  27  28
ATOM     28  C   UNL A   1      39.837  20.760  26.315  1.00  0.00     0.338 C 
ATOM     29  O   UNL A   1      40.644  19.847  26.328  1.00  0.00    -0.246 OA
BRANCH  28  30
ATOM     30  C   UNL A   1      40.134  22.080  26.905  1.00  0.00     0.060 A 
ATOM     31  C   UNL A   1      39.483  23.193  26.357  1.00  0.00     0.016 A 
ATOM     32  C   UNL A   1      41.109  22.243  27.890  1.00  0.00     0.016 A 
ATOM     33  C   UNL A   1      39.837  24.479  26.760  1.00  0.00     0.010 A 
ATOM     34  C   UNL A   1      41.470  23.537  28.287  1.00  0.00     0.010 A 
ATOM     35  C   UNL A   1      40.861  24.661  27.699  1.00  0.00    -0.014 A 
BRANCH  35  36
ATOM     36  C   UNL A   1      41.385  26.029  27.947  1.00  0.00     0.031 A 
ATOM     37  C   UNL A   1      42.761  26.385  27.450  1.00  0.00     0.074 A 
ATOM     38  C   UNL A   1      40.630  26.954  28.566  1.00  0.00     0.049 A 
ATOM     39  N   UNL A   1      43.428  27.503  27.579  1.00  0.00    -0.248 NA
ATOM     40  C   UNL A   1      43.478  25.336  26.710  1.00  0.00     0.031 C 
ATOM     41  C   UNL A   1      39.265  26.742  29.046  1.00  0.00     0.029 A 
ATOM     42  N   UNL A   1      40.905  28.256  28.900  1.00  0.00    -0.354 N 
ATOM     43  C   UNL A   1      44.646  27.293  26.938  1.00  0.00     0.074 A 
ATOM     44  C   UNL A   1      44.636  25.927  26.459  1.00  0.00     0.031 C 
ATOM     45  C   UNL A   1      38.826  27.873  29.622  1.00  0.00     0.029 A 
ATOM     46  C   UNL A   1      39.888  28.876  29.588  1.00  0.00     0.049 A 
ATOM     47  H   UNL A   1      41.750  28.704  28.668  1.00  0.00     0.167 HD
ATOM     48  C   UNL A   1      45.671  28.164  26.756  1.00  0.00     0.034 A 
ATOM     49  C   UNL A   1      39.833  30.101  30.150  1.00  0.00     0.034 A 
ATOM     50  C   UNL A   1      45.671  29.518  27.254  1.00  0.00     0.049 A 
ATOM     51  C   UNL A   1      41.022  31.022  30.018  1.00  0.00     0.074 A 
ATOM     52  C   UNL A   1      46.651  30.487  27.123  1.00  0.00     0.029 A 
ATOM     53  N   UNL A   1      44.643  30.096  27.992  1.00  0.00    -0.354 N 
ATOM     54  N   UNL A   1      42.167  30.814  29.408  1.00  0.00    -0.248 NA
ATOM     55  C   UNL A   1      40.908  32.347  30.643  1.00  0.00     0.031 C 
ATOM     56  C   UNL A   1      46.251  31.619  27.841  1.00  0.00     0.029 A 
ATOM     57  C   UNL A   1      44.983  31.392  28.353  1.00  0.00     0.049 A 
ATOM     58  H   UNL A   1      43.798  29.650  28.224  1.00  0.00     0.167 HD
ATOM     59  C   UNL A   1      42.895  31.992  29.553  1.00  0.00     0.074 A 
ATOM     60  C   UNL A   1      42.055  32.910  30.294  1.00  0.00     0.031 C 
ATOM     61  C   UNL A   1      44.143  32.292  29.106  1.00  0.00     0.034 A 
BRANCH  48  62
ATOM     62  C   UNL A   1      46.895  27.650  26.036  1.00  0.00     0.023 A 
ATOM     63  C   UNL A   1      47.151  27.964  24.689  1.00  0.00     0.031 A 
ATOM     64  C   UNL A   1      47.804  26.804  26.696  1.00  0.00     0.131 A 
ATOM     65  C   UNL A   1      48.240  27.378  24.026  1.00  0.00     0.055 A 
ATOM     66  C   UNL A   1      48.931  26.288  26.053  1.00  0.00     0.041 A 
ATOM     67  F   UNL A   1      47.602  26.448  27.974  1.00  0.00    -0.206 F 
ATOM     68  C   UNL A   1      49.146  26.561  24.706  1.00  0.00     0.022 A 
BRANCH  65  69
ATOM     69  S   UNL A   1      48.369  27.573  22.227  1.00  0.00     0.124 S 
ATOM     70  O   UNL A   1      48.580  26.194  21.794  1.00  0.00    -0.237 OA
ATOM     71  O   UNL A   1      47.080  28.162  21.882  1.00  0.00    -0.237 OA
ATOM     72  O   UNL A   1      49.523  28.456  22.060  1.00  0.00    -0.744 OA
ENDBRANCH  65  69
ENDBRANCH  48  62
BRANCH  49  73
ATOM     73  C   UNL A   1      38.632  30.516  30.931  1.00  0.00     0.023 A 
ATOM     74  C   UNL A   1      37.565  31.196  30.322  1.00  0.00     0.031 A 
ATOM     75  C   UNL A   1      38.560  30.279  32.316  1.00  0.00     0.131 A 
ATOM     76  C   UNL A   1      36.491  31.651  31.104  1.00  0.00     0.055 A 
ATOM     77  C   UNL A   1      37.465  30.688  33.079  1.00  0.00     0.041 A 
ATOM     78  F   UNL A   1      39.555  29.636  32.947  1.00  0.00    -0.206 F 
ATOM     79  C   UNL A   1      36.427  31.389  32.475  1.00  0.00     0.022 A 
BRANCH  76  80
ATOM     80  S   UNL A   1      35.211  32.667  30.316  1.00  0.00     0.124 S 
ATOM     81  O   UNL A   1      34.285  32.886  31.421  1.00  0.00    -0.237 OA
ATOM     82  O   UNL A   1      35.975  33.829  29.877  1.00  0.00    -0.237 OA
ATOM     83  O   UNL A   1      34.711  31.810  29.242  1.00  0.00    -0.744 OA
ENDBRANCH  76  80
ENDBRANCH  49  73
BRANCH  61  84
ATOM     84  C   UNL A   1      44.651  33.690  29.373  1.00  0.00     0.023 A 
ATOM     85  C   UNL A   1      44.320  34.773  28.541  1.00  0.00     0.031 A 
ATOM     86  C   UNL A   1      45.488  33.937  30.476  1.00  0.00     0.131 A 
ATOM     87  C   UNL A   1      44.866  36.042  28.792  1.00  0.00     0.055 A 
ATOM     88  C   UNL A   1      45.979  35.213  30.756  1.00  0.00     0.041 A 
ATOM     89  F   UNL A   1      45.840  32.941  31.305  1.00  0.00    -0.206 F 
ATOM     90  C   UNL A   1      45.680  36.272  29.904  1.00  0.00     0.022 A 
BRANCH  87  91
ATOM     91  S   UNL A   1      44.575  37.371  27.591  1.00  0.00     0.124 S 
ATOM     92  O   UNL A   1      43.472  36.832  26.803  1.00  0.00    -0.237 OA
ATOM     93  O   UNL A   1      44.250  38.504  28.451  1.00  0.00    -0.237 OA
ATOM     94  O   UNL A   1      45.850  37.477  26.882  1.00  0.00    -0.744 OA
ENDBRANCH  87  91
ENDBRANCH  61  84
ENDBRANCH  35  36
ENDBRANCH  28  30
ENDBRANCH  27  28
ENDBRANCH  26  27
ENDBRANCH   1  26
TORSDOF 19
ENDMDL
