MODEL 1
REMARK VINA RESULT:     -11.6      0.000      0.000
REMARK SMILES CCN(C(=O)Cc1c(C(=O)OCCOCCOC(=O)c2ccc(-c3c4nc(c(-c5cc(S(=O)(=O)[O-])ccc5F)c5ccc([nH]5)c(-c5cc(S(=O)(=O)[O-])ccc5F)c5nc(c(-c6cc(S(=O)(=O)[O-])ccc6F)c6ccc3[nH]6)C=C5)C=C4)cc2)[nH]c2ccc(Cl)cc12)c1ccc(C)c(C)c1
REMARK SMILES IDX 13 1 12 2 11 3 9 4 10 5 8 6 7 7 90 8 83 9 84 10 89 11 85 13
REMARK SMILES IDX 87 14 86 15 88 16 6 17 4 18 5 19 3 20 2 21 1 22 91 23 92 24
REMARK SMILES IDX 98 25 93 26 96 27 94 28 97 29 95 30 14 31 15 32 16 33 17 34
REMARK SMILES IDX 18 35 19 36 20 37 21 38 82 39 22 40 81 41 23 42 24 43 25 44
REMARK SMILES IDX 75 45 26 46 80 47 74 48 76 49 27 50 79 51 73 52 72 53 28 55
REMARK SMILES IDX 60 56 40 57 59 58 41 59 44 60 58 61 77 62 42 63 43 64 57 66
REMARK SMILES IDX 78 67 45 68 29 69 30 70 38 71 31 72 37 73 39 74 36 75 32 76
REMARK SMILES IDX 33 77 34 78 35 79 61 80 62 81 70 82 63 83 69 84 71 85 68 86
REMARK SMILES IDX 64 87 65 88 66 89 67 90 46 91 47 92 55 93 48 94 54 95 56 96
REMARK SMILES IDX 53 97 49 98 50 99 51 100 52 101
REMARK H PARENT 83 12 76 54 44 65
REMARK Flexibility Score: inf
ROOT
ATOM      1  C   UNL A   1      33.204  29.507  27.161  1.00  0.00     0.202 C 
ENDROOT
BRANCH   1   2
ATOM      2  C   UNL A   1      31.920  28.682  27.290  1.00  0.00     0.261 C 
BRANCH   2   3
ATOM      3  O   UNL A   1      31.759  27.825  26.145  1.00  0.00    -0.459 OA
BRANCH   3   4
ATOM      4  C   UNL A   1      31.491  26.525  26.428  1.00  0.00     0.355 C 
ATOM      5  O   UNL A   1      30.396  26.075  26.739  1.00  0.00    -0.244 OA
BRANCH   4   6
ATOM      6  C   UNL A   1      32.632  25.682  26.135  1.00  0.00     0.129 A 
ATOM      7  C   UNL A   1      33.644  25.696  25.169  1.00  0.00     0.002 A 
ATOM      8  C   UNL A   1      34.359  24.445  25.311  1.00  0.00     0.005 A 
ATOM      9  N   UNL A   1      32.824  24.563  26.909  1.00  0.00    -0.349 N 
ATOM     10  C   UNL A   1      33.851  23.796  26.436  1.00  0.00     0.046 A 
ATOM     11  C   UNL A   1      35.404  23.797  24.614  1.00  0.00     0.031 A 
ATOM     12  H   UNL A   1      32.289  24.340  27.705  1.00  0.00     0.167 HD
ATOM     13  C   UNL A   1      34.348  22.583  26.924  1.00  0.00     0.028 A 
ATOM     14  C   UNL A   1      35.939  22.602  25.109  1.00  0.00     0.041 A 
ATOM     15  C   UNL A   1      35.422  22.004  26.250  1.00  0.00     0.022 A 
ATOM     16  Cl  UNL A   1      37.277  21.874  24.304  1.00  0.00    -0.084 Cl
BRANCH   7  17
ATOM     17  C   UNL A   1      33.892  26.821  24.187  1.00  0.00     0.139 C 
BRANCH  17  18
ATOM     18  C   UNL A   1      33.229  26.674  22.821  1.00  0.00     0.231 C 
ATOM     19  O   UNL A   1      33.791  27.189  21.846  1.00  0.00    -0.274 OA
BRANCH  18  20
ATOM     20  N   UNL A   1      31.994  26.012  22.720  1.00  0.00    -0.312 N 
BRANCH  20  21
ATOM     21  C   UNL A   1      31.817  24.618  22.274  1.00  0.00     0.122 C 
ATOM     22  C   UNL A   1      33.076  23.875  21.844  1.00  0.00     0.028 C 
ENDBRANCH  20  21
BRANCH  20  23
ATOM     23  C   UNL A   1      30.809  26.794  22.899  1.00  0.00     0.044 A 
ATOM     24  C   UNL A   1      29.687  26.242  23.518  1.00  0.00     0.026 A 
ATOM     25  C   UNL A   1      30.720  28.088  22.372  1.00  0.00     0.030 A 
ATOM     26  C   UNL A   1      28.509  26.985  23.632  1.00  0.00     0.006 A 
ATOM     27  C   UNL A   1      29.533  28.841  22.459  1.00  0.00    -0.046 A 
ATOM     28  C   UNL A   1      28.416  28.286  23.108  1.00  0.00    -0.048 A 
ATOM     29  C   UNL A   1      29.489  30.199  21.814  1.00  0.00     0.044 C 
ATOM     30  C   UNL A   1      27.095  28.998  23.227  1.00  0.00     0.044 C 
ENDBRANCH  20  23
ENDBRANCH  18  20
ENDBRANCH  17  18
ENDBRANCH   7  17
ENDBRANCH   4   6
ENDBRANCH   3   4
ENDBRANCH   2   3
ENDBRANCH   1   2
BRANCH   1  31
ATOM     31  O   UNL A   1      33.048  30.738  26.451  1.00  0.00    -0.374 OA
BRANCH  31  32
ATOM     32  C   UNL A   1      31.823  31.446  26.674  1.00  0.00     0.202 C 
BRANCH  32  33
ATOM     33  C   UNL A   1      31.947  32.969  26.798  1.00  0.00     0.261 C 
BRANCH  33  34
ATOM     34  O   UNL A   1      32.413  33.348  28.105  1.00  0.00    -0.460 OA
BRANCH  34  35
ATOM     35  C   UNL A   1      33.524  34.123  28.114  1.00  0.00     0.338 C 
ATOM     36  O   UNL A   1      33.567  35.339  28.022  1.00  0.00    -0.246 OA
BRANCH  35  37
ATOM     37  C   UNL A   1      34.706  33.304  28.458  1.00  0.00     0.060 A 
ATOM     38  C   UNL A   1      34.487  32.158  29.233  1.00  0.00     0.016 A 
ATOM     39  C   UNL A   1      36.002  33.657  28.072  1.00  0.00     0.016 A 
ATOM     40  C   UNL A   1      35.565  31.392  29.672  1.00  0.00     0.010 A 
ATOM     41  C   UNL A   1      37.085  32.892  28.522  1.00  0.00     0.010 A 
ATOM     42  C   UNL A   1      36.873  31.775  29.352  1.00  0.00    -0.014 A 
BRANCH  42  43
ATOM     43  C   UNL A   1      38.012  31.098  30.020  1.00  0.00     0.031 A 
ATOM     44  C   UNL A   1      38.339  31.463  31.443  1.00  0.00     0.074 A 
ATOM     45  C   UNL A   1      38.714  30.141  29.387  1.00  0.00     0.049 A 
ATOM     46  N   UNL A   1      39.288  31.011  32.220  1.00  0.00    -0.248 NA
ATOM     47  C   UNL A   1      37.477  32.476  32.070  1.00  0.00     0.031 C 
ATOM     48  C   UNL A   1      38.461  29.671  28.025  1.00  0.00     0.029 A 
ATOM     49  N   UNL A   1      39.787  29.396  29.807  1.00  0.00    -0.354 N 
ATOM     50  C   UNL A   1      39.139  31.681  33.429  1.00  0.00     0.074 A 
ATOM     51  C   UNL A   1      38.029  32.597  33.268  1.00  0.00     0.031 C 
ATOM     52  C   UNL A   1      39.364  28.723  27.718  1.00  0.00     0.029 A 
ATOM     53  C   UNL A   1      40.276  28.542  28.845  1.00  0.00     0.049 A 
ATOM     54  H   UNL A   1      40.171  29.465  30.710  1.00  0.00     0.167 HD
ATOM     55  C   UNL A   1      39.854  31.539  34.573  1.00  0.00     0.034 A 
ATOM     56  C   UNL A   1      41.351  27.727  28.867  1.00  0.00     0.034 A 
ATOM     57  C   UNL A   1      40.970  30.636  34.715  1.00  0.00     0.049 A 
ATOM     58  C   UNL A   1      42.189  27.651  30.121  1.00  0.00     0.074 A 
ATOM     59  C   UNL A   1      41.756  30.405  35.830  1.00  0.00     0.029 A 
ATOM     60  N   UNL A   1      41.468  29.824  33.705  1.00  0.00    -0.354 N 
ATOM     61  N   UNL A   1      42.028  28.281  31.263  1.00  0.00    -0.248 NA
ATOM     62  C   UNL A   1      43.348  26.750  30.091  1.00  0.00     0.031 C 
ATOM     63  C   UNL A   1      42.769  29.506  35.476  1.00  0.00     0.029 A 
ATOM     64  C   UNL A   1      42.572  29.118  34.160  1.00  0.00     0.049 A 
ATOM     65  H   UNL A   1      41.092  29.759  32.797  1.00  0.00     0.167 HD
ATOM     66  C   UNL A   1      43.050  27.828  32.094  1.00  0.00     0.074 A 
ATOM     67  C   UNL A   1      43.813  26.865  31.327  1.00  0.00     0.031 C 
ATOM     68  C   UNL A   1      43.331  28.171  33.378  1.00  0.00     0.034 A 
BRANCH  55  69
ATOM     69  C   UNL A   1      39.479  32.425  35.736  1.00  0.00     0.023 A 
ATOM     70  C   UNL A   1      40.004  33.722  35.876  1.00  0.00     0.031 A 
ATOM     71  C   UNL A   1      38.611  31.952  36.735  1.00  0.00     0.131 A 
ATOM     72  C   UNL A   1      39.709  34.475  37.023  1.00  0.00     0.055 A 
ATOM     73  C   UNL A   1      38.263  32.735  37.837  1.00  0.00     0.041 A 
ATOM     74  F   UNL A   1      38.097  30.715  36.664  1.00  0.00    -0.206 F 
ATOM     75  C   UNL A   1      38.823  34.001  37.993  1.00  0.00     0.022 A 
BRANCH  72  76
ATOM     76  S   UNL A   1      40.598  36.033  37.292  1.00  0.00     0.124 S 
ATOM     77  O   UNL A   1      40.936  36.421  35.924  1.00  0.00    -0.237 OA
ATOM     78  O   UNL A   1      39.598  36.856  37.961  1.00  0.00    -0.237 OA
ATOM     79  O   UNL A   1      41.736  35.639  38.119  1.00  0.00    -0.744 OA
ENDBRANCH  72  76
ENDBRANCH  55  69
BRANCH  56  80
ATOM     80  C   UNL A   1      41.733  26.948  27.654  1.00  0.00     0.023 A 
ATOM     81  C   UNL A   1      41.542  25.560  27.589  1.00  0.00     0.031 A 
ATOM     82  C   UNL A   1      42.355  27.581  26.563  1.00  0.00     0.131 A 
ATOM     83  C   UNL A   1      42.008  24.842  26.475  1.00  0.00     0.055 A 
ATOM     84  C   UNL A   1      42.773  26.871  25.438  1.00  0.00     0.041 A 
ATOM     85  F   UNL A   1      42.562  28.908  26.576  1.00  0.00    -0.206 F 
ATOM     86  C   UNL A   1      42.612  25.489  25.395  1.00  0.00     0.022 A 
BRANCH  83  87
ATOM     87  S   UNL A   1      41.887  23.032  26.493  1.00  0.00     0.124 S 
ATOM     88  O   UNL A   1      42.396  22.687  25.171  1.00  0.00    -0.237 OA
ATOM     89  O   UNL A   1      42.742  22.683  27.622  1.00  0.00    -0.237 OA
ATOM     90  O   UNL A   1      40.460  22.789  26.698  1.00  0.00    -0.744 OA
ENDBRANCH  83  87
ENDBRANCH  56  80
BRANCH  68  91
ATOM     91  C   UNL A   1      44.487  27.463  34.040  1.00  0.00     0.023 A 
ATOM     92  C   UNL A   1      44.315  26.251  34.731  1.00  0.00     0.031 A 
ATOM     93  C   UNL A   1      45.779  28.016  33.983  1.00  0.00     0.131 A 
ATOM     94  C   UNL A   1      45.408  25.657  35.382  1.00  0.00     0.055 A 
ATOM     95  C   UNL A   1      46.872  27.393  34.585  1.00  0.00     0.041 A 
ATOM     96  F   UNL A   1      45.999  29.173  33.338  1.00  0.00    -0.206 F 
ATOM     97  C   UNL A   1      46.688  26.212  35.299  1.00  0.00     0.022 A 
BRANCH  94  98
ATOM     98  S   UNL A   1      45.120  24.188  36.406  1.00  0.00     0.124 S 
ATOM     99  O   UNL A   1      44.108  23.473  35.635  1.00  0.00    -0.237 OA
ATOM    100  O   UNL A   1      46.442  23.572  36.450  1.00  0.00    -0.237 OA
ATOM    101  O   UNL A   1      44.653  24.741  37.676  1.00  0.00    -0.744 OA
ENDBRANCH  94  98
ENDBRANCH  68  91
ENDBRANCH  42  43
ENDBRANCH  35  37
ENDBRANCH  34  35
ENDBRANCH  33  34
ENDBRANCH  32  33
ENDBRANCH  31  32
ENDBRANCH   1  31
TORSDOF 22
ENDMDL
MODEL 2
REMARK VINA RESULT:     -10.8      2.841      3.762
REMARK SMILES CCN(C(=O)Cc1c(C(=O)OCCOCCOC(=O)c2ccc(-c3c4nc(c(-c5cc(S(=O)(=O)[O-])ccc5F)c5ccc([nH]5)c(-c5cc(S(=O)(=O)[O-])ccc5F)c5nc(c(-c6cc(S(=O)(=O)[O-])ccc6F)c6ccc3[nH]6)C=C5)C=C4)cc2)[nH]c2ccc(Cl)cc12)c1ccc(C)c(C)c1
REMARK SMILES IDX 13 1 12 2 11 3 9 4 10 5 8 6 7 7 90 8 83 9 84 10 89 11 85 13
REMARK SMILES IDX 87 14 86 15 88 16 6 17 4 18 5 19 3 20 2 21 1 22 91 23 92 24
REMARK SMILES IDX 98 25 93 26 96 27 94 28 97 29 95 30 14 31 15 32 16 33 17 34
REMARK SMILES IDX 18 35 19 36 20 37 21 38 82 39 22 40 81 41 23 42 24 43 25 44
REMARK SMILES IDX 75 45 26 46 80 47 74 48 76 49 27 50 79 51 73 52 72 53 28 55
REMARK SMILES IDX 60 56 40 57 59 58 41 59 44 60 58 61 77 62 42 63 43 64 57 66
REMARK SMILES IDX 78 67 45 68 29 69 30 70 38 71 31 72 37 73 39 74 36 75 32 76
REMARK SMILES IDX 33 77 34 78 35 79 61 80 62 81 70 82 63 83 69 84 71 85 68 86
REMARK SMILES IDX 64 87 65 88 66 89 67 90 46 91 47 92 55 93 48 94 54 95 56 96
REMARK SMILES IDX 53 97 49 98 50 99 51 100 52 101
REMARK H PARENT 83 12 76 54 44 65
REMARK Flexibility Score: inf
ROOT
ATOM      1  C   UNL A   1      33.986  27.781  25.437  1.00  0.00     0.202 C 
ENDROOT
BRANCH   1   2
ATOM      2  C   UNL A   1      33.492  26.523  24.716  1.00  0.00     0.261 C 
BRANCH   2   3
ATOM      3  O   UNL A   1      34.549  25.549  24.628  1.00  0.00    -0.459 OA
BRANCH   3   4
ATOM      4  C   UNL A   1      34.567  24.624  25.621  1.00  0.00     0.355 C 
ATOM      5  O   UNL A   1      33.609  24.300  26.309  1.00  0.00    -0.244 OA
BRANCH   4   6
ATOM      6  C   UNL A   1      35.831  23.918  25.651  1.00  0.00     0.129 A 
ATOM      7  C   UNL A   1      36.266  22.659  25.220  1.00  0.00     0.002 A 
ATOM      8  C   UNL A   1      37.607  22.492  25.738  1.00  0.00     0.005 A 
ATOM      9  N   UNL A   1      36.900  24.531  26.259  1.00  0.00    -0.349 N 
ATOM     10  C   UNL A   1      37.980  23.698  26.332  1.00  0.00     0.046 A 
ATOM     11  C   UNL A   1      38.560  21.449  25.752  1.00  0.00     0.031 A 
ATOM     12  H   UNL A   1      36.889  25.455  26.600  1.00  0.00     0.167 HD
ATOM     13  C   UNL A   1      39.243  23.934  26.886  1.00  0.00     0.028 A 
ATOM     14  C   UNL A   1      39.841  21.678  26.268  1.00  0.00     0.041 A 
ATOM     15  C   UNL A   1      40.181  22.904  26.824  1.00  0.00     0.022 A 
ATOM     16  Cl  UNL A   1      41.024  20.428  26.189  1.00  0.00    -0.084 Cl
BRANCH   7  17
ATOM     17  C   UNL A   1      35.449  21.697  24.384  1.00  0.00     0.139 C 
BRANCH  17  18
ATOM     18  C   UNL A   1      34.115  21.260  24.980  1.00  0.00     0.231 C 
ATOM     19  O   UNL A   1      34.093  20.932  26.172  1.00  0.00    -0.274 OA
BRANCH  18  20
ATOM     20  N   UNL A   1      32.978  21.195  24.156  1.00  0.00    -0.312 N 
BRANCH  20  21
ATOM     21  C   UNL A   1      32.252  19.958  23.814  1.00  0.00     0.122 C 
ATOM     22  C   UNL A   1      33.072  18.675  23.777  1.00  0.00     0.028 C 
ENDBRANCH  20  21
BRANCH  20  23
ATOM     23  C   UNL A   1      32.596  22.388  23.463  1.00  0.00     0.044 A 
ATOM     24  C   UNL A   1      33.365  22.863  22.401  1.00  0.00     0.026 A 
ATOM     25  C   UNL A   1      31.504  23.148  23.899  1.00  0.00     0.030 A 
ATOM     26  C   UNL A   1      33.028  24.063  21.770  1.00  0.00     0.006 A 
ATOM     27  C   UNL A   1      31.165  24.371  23.287  1.00  0.00    -0.046 A 
ATOM     28  C   UNL A   1      31.931  24.829  22.200  1.00  0.00    -0.048 A 
ATOM     29  C   UNL A   1      30.019  25.167  23.848  1.00  0.00     0.044 C 
ATOM     30  C   UNL A   1      31.668  26.135  21.499  1.00  0.00     0.044 C 
ENDBRANCH  20  23
ENDBRANCH  18  20
ENDBRANCH  17  18
ENDBRANCH   7  17
ENDBRANCH   4   6
ENDBRANCH   3   4
ENDBRANCH   2   3
ENDBRANCH   1   2
BRANCH   1  31
ATOM     31  O   UNL A   1      33.457  29.005  24.920  1.00  0.00    -0.374 OA
BRANCH  31  32
ATOM     32  C   UNL A   1      32.118  29.329  25.310  1.00  0.00     0.202 C 
BRANCH  32  33
ATOM     33  C   UNL A   1      31.971  30.521  26.263  1.00  0.00     0.261 C 
BRANCH  33  34
ATOM     34  O   UNL A   1      32.930  30.453  27.333  1.00  0.00    -0.460 OA
BRANCH  34  35
ATOM     35  C   UNL A   1      33.595  31.606  27.580  1.00  0.00     0.338 C 
ATOM     36  O   UNL A   1      33.113  32.724  27.662  1.00  0.00    -0.246 OA
BRANCH  35  37
ATOM     37  C   UNL A   1      34.997  31.310  27.945  1.00  0.00     0.060 A 
ATOM     38  C   UNL A   1      35.316  29.977  28.231  1.00  0.00     0.016 A 
ATOM     39  C   UNL A   1      35.973  32.306  28.048  1.00  0.00     0.016 A 
ATOM     40  C   UNL A   1      36.594  29.640  28.673  1.00  0.00     0.010 A 
ATOM     41  C   UNL A   1      37.253  31.968  28.502  1.00  0.00     0.010 A 
ATOM     42  C   UNL A   1      37.559  30.639  28.848  1.00  0.00    -0.014 A 
BRANCH  42  43
ATOM     43  C   UNL A   1      38.829  30.308  29.543  1.00  0.00     0.031 A 
ATOM     44  C   UNL A   1      39.055  30.842  30.932  1.00  0.00     0.074 A 
ATOM     45  C   UNL A   1      39.743  29.508  28.966  1.00  0.00     0.049 A 
ATOM     46  N   UNL A   1      40.085  30.690  31.723  1.00  0.00    -0.248 NA
ATOM     47  C   UNL A   1      37.972  31.657  31.501  1.00  0.00     0.031 C 
ATOM     48  C   UNL A   1      39.614  28.895  27.645  1.00  0.00     0.029 A 
ATOM     49  N   UNL A   1      40.966  29.077  29.419  1.00  0.00    -0.354 N 
ATOM     50  C   UNL A   1      39.776  31.389  32.885  1.00  0.00     0.074 A 
ATOM     51  C   UNL A   1      38.477  31.993  32.678  1.00  0.00     0.031 C 
ATOM     52  C   UNL A   1      40.721  28.175  27.389  1.00  0.00     0.029 A 
ATOM     53  C   UNL A   1      41.648  28.302  28.512  1.00  0.00     0.049 A 
ATOM     54  H   UNL A   1      41.320  29.302  30.309  1.00  0.00     0.167 HD
ATOM     55  C   UNL A   1      40.503  31.506  34.024  1.00  0.00     0.034 A 
ATOM     56  C   UNL A   1      42.889  27.776  28.572  1.00  0.00     0.034 A 
ATOM     57  C   UNL A   1      41.805  30.914  34.210  1.00  0.00     0.049 A 
ATOM     58  C   UNL A   1      43.719  27.996  29.815  1.00  0.00     0.074 A 
ATOM     59  C   UNL A   1      42.623  30.961  35.326  1.00  0.00     0.029 A 
ATOM     60  N   UNL A   1      42.487  30.177  33.250  1.00  0.00    -0.354 N 
ATOM     61  N   UNL A   1      43.409  28.648  30.913  1.00  0.00    -0.248 NA
ATOM     62  C   UNL A   1      45.063  27.403  29.828  1.00  0.00     0.031 C 
ATOM     63  C   UNL A   1      43.824  30.312  35.018  1.00  0.00     0.029 A 
ATOM     64  C   UNL A   1      43.729  29.796  33.735  1.00  0.00     0.049 A 
ATOM     65  H   UNL A   1      42.139  29.959  32.356  1.00  0.00     0.167 HD
ATOM     66  C   UNL A   1      44.509  28.517  31.756  1.00  0.00     0.074 A 
ATOM     67  C   UNL A   1      45.485  27.716  31.045  1.00  0.00     0.031 C 
ATOM     68  C   UNL A   1      44.697  29.009  33.008  1.00  0.00     0.034 A 
BRANCH  55  69
ATOM     69  C   UNL A   1      39.922  32.355  35.129  1.00  0.00     0.023 A 
ATOM     70  C   UNL A   1      39.195  31.788  36.191  1.00  0.00     0.031 A 
ATOM     71  C   UNL A   1      40.071  33.752  35.101  1.00  0.00     0.131 A 
ATOM     72  C   UNL A   1      38.587  32.621  37.144  1.00  0.00     0.055 A 
ATOM     73  C   UNL A   1      39.525  34.569  36.093  1.00  0.00     0.041 A 
ATOM     74  F   UNL A   1      40.736  34.349  34.100  1.00  0.00    -0.206 F 
ATOM     75  C   UNL A   1      38.767  34.006  37.115  1.00  0.00     0.022 A 
BRANCH  72  76
ATOM     76  S   UNL A   1      37.452  31.879  38.348  1.00  0.00     0.124 S 
ATOM     77  O   UNL A   1      36.299  32.772  38.256  1.00  0.00    -0.237 OA
ATOM     78  O   UNL A   1      37.263  30.535  37.817  1.00  0.00    -0.237 OA
ATOM     79  O   UNL A   1      38.190  31.954  39.607  1.00  0.00    -0.744 OA
ENDBRANCH  72  76
ENDBRANCH  55  69
BRANCH  56  80
ATOM     80  C   UNL A   1      43.451  27.030  27.410  1.00  0.00     0.023 A 
ATOM     81  C   UNL A   1      43.387  25.630  27.343  1.00  0.00     0.031 A 
ATOM     82  C   UNL A   1      44.117  27.711  26.376  1.00  0.00     0.131 A 
ATOM     83  C   UNL A   1      44.018  24.952  26.287  1.00  0.00     0.055 A 
ATOM     84  C   UNL A   1      44.700  27.036  25.303  1.00  0.00     0.041 A 
ATOM     85  F   UNL A   1      44.208  29.051  26.392  1.00  0.00    -0.206 F 
ATOM     86  C   UNL A   1      44.663  25.645  25.261  1.00  0.00     0.022 A 
BRANCH  83  87
ATOM     87  S   UNL A   1      44.051  23.138  26.314  1.00  0.00     0.124 S 
ATOM     88  O   UNL A   1      43.483  22.850  27.626  1.00  0.00    -0.237 OA
ATOM     89  O   UNL A   1      43.217  22.803  25.165  1.00  0.00    -0.237 OA
ATOM     90  O   UNL A   1      45.470  22.822  26.165  1.00  0.00    -0.744 OA
ENDBRANCH  83  87
ENDBRANCH  56  80
BRANCH  68  91
ATOM     91  C   UNL A   1      45.990  28.652  33.699  1.00  0.00     0.023 A 
ATOM     92  C   UNL A   1      47.129  29.471  33.608  1.00  0.00     0.031 A 
ATOM     93  C   UNL A   1      46.083  27.469  34.454  1.00  0.00     0.131 A 
ATOM     94  C   UNL A   1      48.327  29.070  34.218  1.00  0.00     0.055 A 
ATOM     95  C   UNL A   1      47.262  27.103  35.105  1.00  0.00     0.041 A 
ATOM     96  F   UNL A   1      45.026  26.649  34.573  1.00  0.00    -0.206 F 
ATOM     97  C   UNL A   1      48.396  27.900  34.980  1.00  0.00     0.022 A 
BRANCH  94  98
ATOM     98  S   UNL A   1      49.822  30.060  33.940  1.00  0.00     0.124 S 
ATOM     99  O   UNL A   1      50.639  29.156  33.138  1.00  0.00    -0.237 OA
ATOM    100  O   UNL A   1      49.298  31.231  33.246  1.00  0.00    -0.237 OA
ATOM    101  O   UNL A   1      50.322  30.314  35.290  1.00  0.00    -0.744 OA
ENDBRANCH  94  98
ENDBRANCH  68  91
ENDBRANCH  42  43
ENDBRANCH  35  37
ENDBRANCH  34  35
ENDBRANCH  33  34
ENDBRANCH  32  33
ENDBRANCH  31  32
ENDBRANCH   1  31
TORSDOF 22
ENDMDL
MODEL 3
REMARK VINA RESULT:     -10.0      2.358      7.805
REMARK SMILES CCN(C(=O)Cc1c(C(=O)OCCOCCOC(=O)c2ccc(-c3c4nc(c(-c5cc(S(=O)(=O)[O-])ccc5F)c5ccc([nH]5)c(-c5cc(S(=O)(=O)[O-])ccc5F)c5nc(c(-c6cc(S(=O)(=O)[O-])ccc6F)c6ccc3[nH]6)C=C5)C=C4)cc2)[nH]c2ccc(Cl)cc12)c1ccc(C)c(C)c1
REMARK SMILES IDX 13 1 12 2 11 3 9 4 10 5 8 6 7 7 90 8 83 9 84 10 89 11 85 13
REMARK SMILES IDX 87 14 86 15 88 16 6 17 4 18 5 19 3 20 2 21 1 22 91 23 92 24
REMARK SMILES IDX 98 25 93 26 96 27 94 28 97 29 95 30 14 31 15 32 16 33 17 34
REMARK SMILES IDX 18 35 19 36 20 37 21 38 82 39 22 40 81 41 23 42 24 43 25 44
REMARK SMILES IDX 75 45 26 46 80 47 74 48 76 49 27 50 79 51 73 52 72 53 28 55
REMARK SMILES IDX 60 56 40 57 59 58 41 59 44 60 58 61 77 62 42 63 43 64 57 66
REMARK SMILES IDX 78 67 45 68 29 69 30 70 38 71 31 72 37 73 39 74 36 75 32 76
REMARK SMILES IDX 33 77 34 78 35 79 61 80 62 81 70 82 63 83 69 84 71 85 68 86
REMARK SMILES IDX 64 87 65 88 66 89 67 90 46 91 47 92 55 93 48 94 54 95 56 96
REMARK SMILES IDX 53 97 49 98 50 99 51 100 52 101
REMARK H PARENT 83 12 76 54 44 65
REMARK Flexibility Score: inf
ROOT
ATOM      1  C   UNL A   1      34.930  30.750  28.047  1.00  0.00     0.202 C 
ENDROOT
BRANCH   1   2
ATOM      2  C   UNL A   1      33.819  30.249  27.118  1.00  0.00     0.261 C 
BRANCH   2   3
ATOM      3  O   UNL A   1      33.891  28.818  26.979  1.00  0.00    -0.459 OA
BRANCH   3   4
ATOM      4  C   UNL A   1      33.639  28.344  25.733  1.00  0.00     0.355 C 
ATOM      5  O   UNL A   1      33.594  29.016  24.711  1.00  0.00    -0.244 OA
BRANCH   4   6
ATOM      6  C   UNL A   1      33.611  26.896  25.722  1.00  0.00     0.129 A 
ATOM      7  C   UNL A   1      32.698  25.926  26.148  1.00  0.00     0.002 A 
ATOM      8  C   UNL A   1      33.373  24.651  26.031  1.00  0.00     0.005 A 
ATOM      9  N   UNL A   1      34.712  26.232  25.236  1.00  0.00    -0.349 N 
ATOM     10  C   UNL A   1      34.601  24.882  25.412  1.00  0.00     0.046 A 
ATOM     11  C   UNL A   1      33.066  23.313  26.367  1.00  0.00     0.031 A 
ATOM     12  H   UNL A   1      35.484  26.674  24.813  1.00  0.00     0.167 HD
ATOM     13  C   UNL A   1      35.505  23.868  25.073  1.00  0.00     0.028 A 
ATOM     14  C   UNL A   1      33.941  22.282  26.002  1.00  0.00     0.041 A 
ATOM     15  C   UNL A   1      35.141  22.553  25.360  1.00  0.00     0.022 A 
ATOM     16  Cl  UNL A   1      33.508  20.646  26.331  1.00  0.00    -0.084 Cl
BRANCH   7  17
ATOM     17  C   UNL A   1      31.291  26.209  26.632  1.00  0.00     0.139 C 
BRANCH  17  18
ATOM     18  C   UNL A   1      30.172  25.468  25.907  1.00  0.00     0.231 C 
ATOM     19  O   UNL A   1      29.294  24.931  26.592  1.00  0.00    -0.274 OA
BRANCH  18  20
ATOM     20  N   UNL A   1      30.200  25.377  24.505  1.00  0.00    -0.312 N 
BRANCH  20  21
ATOM     21  C   UNL A   1      30.629  24.189  23.744  1.00  0.00     0.122 C 
ATOM     22  C   UNL A   1      31.866  24.350  22.868  1.00  0.00     0.028 C 
ENDBRANCH  20  21
BRANCH  20  23
ATOM     23  C   UNL A   1      29.957  26.575  23.760  1.00  0.00     0.044 A 
ATOM     24  C   UNL A   1      31.012  27.251  23.149  1.00  0.00     0.026 A 
ATOM     25  C   UNL A   1      28.676  27.139  23.712  1.00  0.00     0.030 A 
ATOM     26  C   UNL A   1      30.783  28.456  22.480  1.00  0.00     0.006 A 
ATOM     27  C   UNL A   1      28.432  28.363  23.061  1.00  0.00    -0.046 A 
ATOM     28  C   UNL A   1      29.499  29.025  22.426  1.00  0.00    -0.048 A 
ATOM     29  C   UNL A   1      27.045  28.942  23.105  1.00  0.00     0.044 C 
ATOM     30  C   UNL A   1      29.347  30.351  21.729  1.00  0.00     0.044 C 
ENDBRANCH  20  23
ENDBRANCH  18  20
ENDBRANCH  17  18
ENDBRANCH   7  17
ENDBRANCH   4   6
ENDBRANCH   3   4
ENDBRANCH   2   3
ENDBRANCH   1   2
BRANCH   1  31
ATOM     31  O   UNL A   1      34.629  31.975  28.721  1.00  0.00    -0.374 OA
BRANCH  31  32
ATOM     32  C   UNL A   1      34.937  33.179  28.012  1.00  0.00     0.202 C 
BRANCH  32  33
ATOM     33  C   UNL A   1      34.020  34.374  28.297  1.00  0.00     0.261 C 
BRANCH  33  34
ATOM     34  O   UNL A   1      33.191  34.131  29.448  1.00  0.00    -0.460 OA
BRANCH  34  35
ATOM     35  C   UNL A   1      33.419  34.951  30.502  1.00  0.00     0.338 C 
ATOM     36  O   UNL A   1      32.756  35.921  30.829  1.00  0.00    -0.246 OA
BRANCH  35  37
ATOM     37  C   UNL A   1      34.493  34.392  31.351  1.00  0.00     0.060 A 
ATOM     38  C   UNL A   1      35.725  35.057  31.345  1.00  0.00     0.016 A 
ATOM     39  C   UNL A   1      34.324  33.228  32.106  1.00  0.00     0.016 A 
ATOM     40  C   UNL A   1      36.808  34.534  32.047  1.00  0.00     0.010 A 
ATOM     41  C   UNL A   1      35.416  32.697  32.803  1.00  0.00     0.010 A 
ATOM     42  C   UNL A   1      36.672  33.330  32.749  1.00  0.00    -0.014 A 
BRANCH  42  43
ATOM     43  C   UNL A   1      37.883  32.662  33.288  1.00  0.00     0.031 A 
ATOM     44  C   UNL A   1      38.503  31.541  32.499  1.00  0.00     0.074 A 
ATOM     45  C   UNL A   1      38.447  33.076  34.436  1.00  0.00     0.049 A 
ATOM     46  N   UNL A   1      39.552  30.811  32.776  1.00  0.00    -0.248 NA
ATOM     47  C   UNL A   1      37.849  31.200  31.227  1.00  0.00     0.031 C 
ATOM     48  C   UNL A   1      37.963  34.181  35.263  1.00  0.00     0.029 A 
ATOM     49  N   UNL A   1      39.551  32.612  35.107  1.00  0.00    -0.354 N 
ATOM     50  C   UNL A   1      39.687  29.924  31.713  1.00  0.00     0.074 A 
ATOM     51  C   UNL A   1      38.590  30.186  30.805  1.00  0.00     0.031 C 
ATOM     52  C   UNL A   1      38.761  34.301  36.339  1.00  0.00     0.029 A 
ATOM     53  C   UNL A   1      39.790  33.265  36.294  1.00  0.00     0.049 A 
ATOM     54  H   UNL A   1      40.118  31.881  34.771  1.00  0.00     0.167 HD
ATOM     55  C   UNL A   1      40.644  28.985  31.507  1.00  0.00     0.034 A 
ATOM     56  C   UNL A   1      40.720  33.035  37.244  1.00  0.00     0.034 A 
ATOM     57  C   UNL A   1      41.721  28.720  32.428  1.00  0.00     0.049 A 
ATOM     58  C   UNL A   1      41.721  31.924  37.037  1.00  0.00     0.074 A 
ATOM     59  C   UNL A   1      42.750  27.801  32.314  1.00  0.00     0.029 A 
ATOM     60  N   UNL A   1      41.903  29.367  33.644  1.00  0.00    -0.354 N 
ATOM     61  N   UNL A   1      41.846  31.101  36.020  1.00  0.00    -0.248 NA
ATOM     62  C   UNL A   1      42.710  31.715  38.102  1.00  0.00     0.031 C 
ATOM     63  C   UNL A   1      43.512  27.845  33.487  1.00  0.00     0.029 A 
ATOM     64  C   UNL A   1      43.004  28.842  34.304  1.00  0.00     0.049 A 
ATOM     65  H   UNL A   1      41.333  30.092  33.988  1.00  0.00     0.167 HD
ATOM     66  C   UNL A   1      42.945  30.298  36.314  1.00  0.00     0.074 A 
ATOM     67  C   UNL A   1      43.454  30.742  37.596  1.00  0.00     0.031 C 
ATOM     68  C   UNL A   1      43.491  29.287  35.589  1.00  0.00     0.034 A 
BRANCH  55  69
ATOM     69  C   UNL A   1      40.525  28.141  30.261  1.00  0.00     0.023 A 
ATOM     70  C   UNL A   1      41.397  28.308  29.170  1.00  0.00     0.031 A 
ATOM     71  C   UNL A   1      39.506  27.179  30.151  1.00  0.00     0.131 A 
ATOM     72  C   UNL A   1      41.191  27.572  27.993  1.00  0.00     0.055 A 
ATOM     73  C   UNL A   1      39.352  26.399  29.004  1.00  0.00     0.041 A 
ATOM     74  F   UNL A   1      38.633  26.992  31.153  1.00  0.00    -0.206 F 
ATOM     75  C   UNL A   1      40.189  26.602  27.910  1.00  0.00     0.022 A 
BRANCH  72  76
ATOM     76  S   UNL A   1      42.169  27.991  26.524  1.00  0.00     0.124 S 
ATOM     77  O   UNL A   1      42.396  29.421  26.718  1.00  0.00    -0.237 OA
ATOM     78  O   UNL A   1      43.340  27.133  26.669  1.00  0.00    -0.237 OA
ATOM     79  O   UNL A   1      41.282  27.653  25.413  1.00  0.00    -0.744 OA
ENDBRANCH  72  76
ENDBRANCH  55  69
BRANCH  56  80
ATOM     80  C   UNL A   1      40.729  33.836  38.502  1.00  0.00     0.023 A 
ATOM     81  C   UNL A   1      41.550  34.965  38.642  1.00  0.00     0.031 A 
ATOM     82  C   UNL A   1      39.954  33.442  39.607  1.00  0.00     0.131 A 
ATOM     83  C   UNL A   1      41.612  35.634  39.875  1.00  0.00     0.055 A 
ATOM     84  C   UNL A   1      39.982  34.139  40.815  1.00  0.00     0.041 A 
ATOM     85  F   UNL A   1      39.151  32.368  39.526  1.00  0.00    -0.206 F 
ATOM     86  C   UNL A   1      40.826  35.237  40.958  1.00  0.00     0.022 A 
BRANCH  83  87
ATOM     87  S   UNL A   1      42.801  36.991  40.069  1.00  0.00     0.124 S 
ATOM     88  O   UNL A   1      41.924  38.156  40.081  1.00  0.00    -0.237 OA
ATOM     89  O   UNL A   1      43.439  36.654  41.337  1.00  0.00    -0.237 OA
ATOM     90  O   UNL A   1      43.657  36.865  38.891  1.00  0.00    -0.744 OA
ENDBRANCH  83  87
ENDBRANCH  56  80
BRANCH  68  91
ATOM     91  C   UNL A   1      44.727  28.629  36.151  1.00  0.00     0.023 A 
ATOM     92  C   UNL A   1      44.651  27.493  36.975  1.00  0.00     0.031 A 
ATOM     93  C   UNL A   1      45.999  29.153  35.861  1.00  0.00     0.131 A 
ATOM     94  C   UNL A   1      45.822  26.948  37.523  1.00  0.00     0.055 A 
ATOM     95  C   UNL A   1      47.165  28.575  36.363  1.00  0.00     0.041 A 
ATOM     96  F   UNL A   1      46.129  30.239  35.080  1.00  0.00    -0.206 F 
ATOM     97  C   UNL A   1      47.080  27.473  37.209  1.00  0.00     0.022 A 
BRANCH  94  98
ATOM     98  S   UNL A   1      45.678  25.590  38.717  1.00  0.00     0.124 S 
ATOM     99  O   UNL A   1      44.802  24.659  38.014  1.00  0.00    -0.237 OA
ATOM    100  O   UNL A   1      47.064  25.165  38.878  1.00  0.00    -0.237 OA
ATOM    101  O   UNL A   1      45.087  26.228  39.893  1.00  0.00    -0.744 OA
ENDBRANCH  94  98
ENDBRANCH  68  91
ENDBRANCH  42  43
ENDBRANCH  35  37
ENDBRANCH  34  35
ENDBRANCH  33  34
ENDBRANCH  32  33
ENDBRANCH  31  32
ENDBRANCH   1  31
TORSDOF 22
ENDMDL
