MODEL 1
REMARK VINA RESULT:      -9.6      0.000      0.000
REMARK SMILES C#CCN(CC(=O)OCCOCCOC(=O)c1ccc(-c2c3nc(c(-c4cc(S(=O)(=O)[O-])ccc4F)c4ccc([nH]4)c(-c4cc(S(=O)(=O)[O-])ccc4F)c4nc(c(-c5cc(S(=O)(=O)[O-])ccc5F)c5ccc2[nH]5)C=C4)C=C3)cc1)C(=O)c1cc([N+](=O)[O-])c(F)cc1F
REMARK SMILES IDX 10 1 9 2 8 3 6 4 7 5 5 6 4 7 3 8 2 9 1 10 80 11 81 12 82 13
REMARK SMILES IDX 83 14 91 15 84 16 90 17 92 18 88 19 89 20 85 21 86 22 87 23
REMARK SMILES IDX 11 24 12 25 13 26 14 27 15 28 16 29 17 30 18 31 79 32 19 33
REMARK SMILES IDX 78 34 20 35 21 36 22 37 72 38 23 39 77 40 71 41 73 42 24 43
REMARK SMILES IDX 76 44 70 45 69 46 25 48 57 49 37 50 56 51 38 52 41 53 55 54
REMARK SMILES IDX 74 55 39 56 40 57 54 59 75 60 42 61 26 62 27 63 35 64 28 65
REMARK SMILES IDX 34 66 36 67 33 68 29 69 30 70 31 71 32 72 58 73 59 74 67 75
REMARK SMILES IDX 60 76 66 77 68 78 65 79 61 80 62 81 63 82 64 83 43 84 44 85
REMARK SMILES IDX 52 86 45 87 51 88 53 89 50 90 46 91 47 92 48 93 49 94
REMARK H PARENT 73 47 41 58
REMARK Flexibility Score: inf
ROOT
ATOM      1  C   UNL A   1      36.491  22.411  25.655  1.00  0.00     0.202 C 
ENDROOT
BRANCH   1   2
ATOM      2  C   UNL A   1      35.243  23.305  25.645  1.00  0.00     0.261 C 
BRANCH   2   3
ATOM      3  O   UNL A   1      35.131  24.055  24.407  1.00  0.00    -0.462 OA
BRANCH   3   4
ATOM      4  C   UNL A   1      34.238  25.085  24.436  1.00  0.00     0.325 C 
ATOM      5  O   UNL A   1      33.889  25.721  23.446  1.00  0.00    -0.250 OA
BRANCH   4   6
ATOM      6  C   UNL A   1      33.698  25.421  25.840  1.00  0.00     0.243 C 
BRANCH   6   7
ATOM      7  N   UNL A   1      32.252  25.480  26.073  1.00  0.00    -0.316 N 
BRANCH   7   8
ATOM      8  C   UNL A   1      31.722  26.814  26.497  1.00  0.00     0.210 C 
BRANCH   8   9
ATOM      9  C   UNL A   1      31.409  27.585  25.225  1.00  0.00    -0.085 C 
ATOM     10  C   UNL A   1      31.141  28.247  24.134  1.00  0.00     0.006 C 
ENDBRANCH   8   9
ENDBRANCH   7   8
BRANCH   7  11
ATOM     11  C   UNL A   1      31.292  24.469  25.852  1.00  0.00     0.258 C 
ATOM     12  O   UNL A   1      30.242  24.497  26.509  1.00  0.00    -0.269 OA
BRANCH  11  13
ATOM     13  C   UNL A   1      31.351  23.289  24.903  1.00  0.00     0.082 A 
ATOM     14  C   UNL A   1      31.739  22.051  25.497  1.00  0.00     0.105 A 
ATOM     15  C   UNL A   1      31.281  23.297  23.509  1.00  0.00     0.139 A 
ATOM     16  C   UNL A   1      32.154  20.950  24.721  1.00  0.00     0.305 A 
ATOM     17  C   UNL A   1      31.686  22.196  22.736  1.00  0.00     0.086 A 
ATOM     18  F   UNL A   1      30.944  24.380  22.810  1.00  0.00    -0.206 F 
ATOM     19  C   UNL A   1      32.152  21.037  23.339  1.00  0.00     0.203 A 
ATOM     20  F   UNL A   1      32.585  20.044  22.553  1.00  0.00    -0.199 F 
BRANCH  16  21
ATOM     21  N   UNL A   1      32.619  19.732  25.373  1.00  0.00     0.065 N 
ATOM     22  O   UNL A   1      33.464  19.862  26.270  1.00  0.00    -0.258 OA
ATOM     23  O   UNL A   1      32.150  18.650  25.001  1.00  0.00    -0.258 OA
ENDBRANCH  16  21
ENDBRANCH  11  13
ENDBRANCH   7  11
ENDBRANCH   6   7
ENDBRANCH   4   6
ENDBRANCH   3   4
ENDBRANCH   2   3
ENDBRANCH   1   2
BRANCH   1  24
ATOM     24  O   UNL A   1      36.272  21.003  25.505  1.00  0.00    -0.374 OA
BRANCH  24  25
ATOM     25  C   UNL A   1      37.273  20.278  24.808  1.00  0.00     0.202 C 
BRANCH  25  26
ATOM     26  C   UNL A   1      38.474  19.762  25.611  1.00  0.00     0.261 C 
BRANCH  26  27
ATOM     27  O   UNL A   1      39.557  20.677  25.648  1.00  0.00    -0.460 OA
BRANCH  27  28
ATOM     28  C   UNL A   1      40.126  20.771  26.871  1.00  0.00     0.338 C 
ATOM     29  O   UNL A   1      40.420  19.866  27.633  1.00  0.00    -0.246 OA
BRANCH  28  30
ATOM     30  C   UNL A   1      40.555  22.161  27.030  1.00  0.00     0.060 A 
ATOM     31  C   UNL A   1      41.583  22.400  27.946  1.00  0.00     0.016 A 
ATOM     32  C   UNL A   1      40.012  23.184  26.248  1.00  0.00     0.016 A 
ATOM     33  C   UNL A   1      42.065  23.689  28.101  1.00  0.00     0.010 A 
ATOM     34  C   UNL A   1      40.491  24.479  26.414  1.00  0.00     0.010 A 
ATOM     35  C   UNL A   1      41.504  24.733  27.354  1.00  0.00    -0.014 A 
BRANCH  35  36
ATOM     36  C   UNL A   1      41.905  26.118  27.659  1.00  0.00     0.031 A 
ATOM     37  C   UNL A   1      43.253  26.585  27.200  1.00  0.00     0.074 A 
ATOM     38  C   UNL A   1      41.047  26.937  28.290  1.00  0.00     0.049 A 
ATOM     39  N   UNL A   1      43.826  27.745  27.367  1.00  0.00    -0.248 NA
ATOM     40  C   UNL A   1      44.062  25.610  26.449  1.00  0.00     0.031 C 
ATOM     41  C   UNL A   1      39.699  26.568  28.726  1.00  0.00     0.029 A 
ATOM     42  N   UNL A   1      41.179  28.243  28.676  1.00  0.00    -0.354 N 
ATOM     43  C   UNL A   1      45.059  27.646  26.732  1.00  0.00     0.074 A 
ATOM     44  C   UNL A   1      45.168  26.298  26.219  1.00  0.00     0.031 C 
ATOM     45  C   UNL A   1      39.132  27.625  29.329  1.00  0.00     0.029 A 
ATOM     46  C   UNL A   1      40.090  28.726  29.363  1.00  0.00     0.049 A 
ATOM     47  H   UNL A   1      41.977  28.786  28.480  1.00  0.00     0.167 HD
ATOM     48  C   UNL A   1      46.002  28.606  26.585  1.00  0.00     0.034 A 
ATOM     49  C   UNL A   1      39.913  29.913  29.975  1.00  0.00     0.034 A 
ATOM     50  C   UNL A   1      45.868  29.932  27.136  1.00  0.00     0.049 A 
ATOM     51  C   UNL A   1      41.029  30.927  29.893  1.00  0.00     0.074 A 
ATOM     52  C   UNL A   1      46.754  30.990  27.063  1.00  0.00     0.029 A 
ATOM     53  N   UNL A   1      44.778  30.373  27.877  1.00  0.00    -0.354 N 
ATOM     54  N   UNL A   1      42.187  30.833  29.278  1.00  0.00    -0.248 NA
ATOM     55  C   UNL A   1      40.817  32.205  30.583  1.00  0.00     0.031 C 
ATOM     56  C   UNL A   1      46.238  32.042  27.826  1.00  0.00     0.029 A 
ATOM     57  C   UNL A   1      44.990  31.674  28.304  1.00  0.00     0.049 A 
ATOM     58  H   UNL A   1      43.974  29.840  28.071  1.00  0.00     0.167 HD
ATOM     59  C   UNL A   1      42.832  32.047  29.492  1.00  0.00     0.074 A 
ATOM     60  C   UNL A   1      41.920  32.866  30.266  1.00  0.00     0.031 C 
ATOM     61  C   UNL A   1      44.065  32.455  29.092  1.00  0.00     0.034 A 
BRANCH  48  62
ATOM     62  C   UNL A   1      47.265  28.233  25.851  1.00  0.00     0.023 A 
ATOM     63  C   UNL A   1      47.337  28.255  24.447  1.00  0.00     0.031 A 
ATOM     64  C   UNL A   1      48.407  27.827  26.563  1.00  0.00     0.131 A 
ATOM     65  C   UNL A   1      48.504  27.821  23.799  1.00  0.00     0.055 A 
ATOM     66  C   UNL A   1      49.591  27.470  25.914  1.00  0.00     0.041 A 
ATOM     67  F   UNL A   1      48.388  27.757  27.903  1.00  0.00    -0.206 F 
ATOM     68  C   UNL A   1      49.640  27.453  24.523  1.00  0.00     0.022 A 
BRANCH  65  69
ATOM     69  S   UNL A   1      48.471  27.619  21.996  1.00  0.00     0.124 S 
ATOM     70  O   UNL A   1      48.575  26.168  21.861  1.00  0.00    -0.237 OA
ATOM     71  O   UNL A   1      47.185  28.204  21.637  1.00  0.00    -0.237 OA
ATOM     72  O   UNL A   1      49.644  28.365  21.547  1.00  0.00    -0.744 OA
ENDBRANCH  65  69
ENDBRANCH  48  62
BRANCH  49  73
ATOM     73  C   UNL A   1      38.677  30.186  30.764  1.00  0.00     0.023 A 
ATOM     74  C   UNL A   1      37.627  30.954  30.236  1.00  0.00     0.031 A 
ATOM     75  C   UNL A   1      38.554  29.733  32.092  1.00  0.00     0.131 A 
ATOM     76  C   UNL A   1      36.532  31.292  31.046  1.00  0.00     0.055 A 
ATOM     77  C   UNL A   1      37.433  30.019  32.872  1.00  0.00     0.041 A 
ATOM     78  F   UNL A   1      39.529  28.998  32.653  1.00  0.00    -0.206 F 
ATOM     79  C   UNL A   1      36.420  30.817  32.355  1.00  0.00     0.022 A 
BRANCH  76  80
ATOM     80  S   UNL A   1      35.306  32.463  30.400  1.00  0.00     0.124 S 
ATOM     81  O   UNL A   1      34.785  31.741  29.246  1.00  0.00    -0.237 OA
ATOM     82  O   UNL A   1      34.398  32.604  31.534  1.00  0.00    -0.237 OA
ATOM     83  O   UNL A   1      36.100  33.650  30.089  1.00  0.00    -0.744 OA
ENDBRANCH  76  80
ENDBRANCH  49  73
BRANCH  61  84
ATOM     84  C   UNL A   1      44.477  33.853  29.480  1.00  0.00     0.023 A 
ATOM     85  C   UNL A   1      44.132  34.963  28.690  1.00  0.00     0.031 A 
ATOM     86  C   UNL A   1      45.224  34.077  30.650  1.00  0.00     0.131 A 
ATOM     87  C   UNL A   1      44.581  36.241  29.050  1.00  0.00     0.055 A 
ATOM     88  C   UNL A   1      45.608  35.360  31.040  1.00  0.00     0.041 A 
ATOM     89  F   UNL A   1      45.583  33.052  31.439  1.00  0.00    -0.206 F 
ATOM     90  C   UNL A   1      45.298  36.449  30.231  1.00  0.00     0.022 A 
BRANCH  87  91
ATOM     91  S   UNL A   1      44.297  37.614  27.902  1.00  0.00     0.124 S 
ATOM     92  O   UNL A   1      43.627  38.589  28.759  1.00  0.00    -0.237 OA
ATOM     93  O   UNL A   1      45.652  37.960  27.484  1.00  0.00    -0.237 OA
ATOM     94  O   UNL A   1      43.459  37.024  26.862  1.00  0.00    -0.744 OA
ENDBRANCH  87  91
ENDBRANCH  61  84
ENDBRANCH  35  36
ENDBRANCH  28  30
ENDBRANCH  27  28
ENDBRANCH  26  27
ENDBRANCH  25  26
ENDBRANCH  24  25
ENDBRANCH   1  24
TORSDOF 23
ENDMDL
MODEL 2
REMARK VINA RESULT:      -9.6      1.901      8.228
REMARK SMILES C#CCN(CC(=O)OCCOCCOC(=O)c1ccc(-c2c3nc(c(-c4cc(S(=O)(=O)[O-])ccc4F)c4ccc([nH]4)c(-c4cc(S(=O)(=O)[O-])ccc4F)c4nc(c(-c5cc(S(=O)(=O)[O-])ccc5F)c5ccc2[nH]5)C=C4)C=C3)cc1)C(=O)c1cc([N+](=O)[O-])c(F)cc1F
REMARK SMILES IDX 10 1 9 2 8 3 6 4 7 5 5 6 4 7 3 8 2 9 1 10 80 11 81 12 82 13
REMARK SMILES IDX 83 14 91 15 84 16 90 17 92 18 88 19 89 20 85 21 86 22 87 23
REMARK SMILES IDX 11 24 12 25 13 26 14 27 15 28 16 29 17 30 18 31 79 32 19 33
REMARK SMILES IDX 78 34 20 35 21 36 22 37 72 38 23 39 77 40 71 41 73 42 24 43
REMARK SMILES IDX 76 44 70 45 69 46 25 48 57 49 37 50 56 51 38 52 41 53 55 54
REMARK SMILES IDX 74 55 39 56 40 57 54 59 75 60 42 61 26 62 27 63 35 64 28 65
REMARK SMILES IDX 34 66 36 67 33 68 29 69 30 70 31 71 32 72 58 73 59 74 67 75
REMARK SMILES IDX 60 76 66 77 68 78 65 79 61 80 62 81 63 82 64 83 43 84 44 85
REMARK SMILES IDX 52 86 45 87 51 88 53 89 50 90 46 91 47 92 48 93 49 94
REMARK H PARENT 73 47 41 58
REMARK Flexibility Score: inf
ROOT
ATOM      1  C   UNL A   1      34.416  21.062  25.847  1.00  0.00     0.202 C 
ENDROOT
BRANCH   1   2
ATOM      2  C   UNL A   1      32.904  21.326  25.891  1.00  0.00     0.261 C 
BRANCH   2   3
ATOM      3  O   UNL A   1      32.556  22.562  25.213  1.00  0.00    -0.462 OA
BRANCH   3   4
ATOM      4  C   UNL A   1      31.933  23.491  25.992  1.00  0.00     0.325 C 
ATOM      5  O   UNL A   1      31.747  23.365  27.199  1.00  0.00    -0.250 OA
BRANCH   4   6
ATOM      6  C   UNL A   1      31.441  24.736  25.227  1.00  0.00     0.243 C 
BRANCH   6   7
ATOM      7  N   UNL A   1      32.188  25.993  25.319  1.00  0.00    -0.316 N 
BRANCH   7   8
ATOM      8  C   UNL A   1      33.131  26.267  24.190  1.00  0.00     0.210 C 
BRANCH   8   9
ATOM      9  C   UNL A   1      32.278  26.494  22.953  1.00  0.00    -0.085 C 
ATOM     10  C   UNL A   1      31.547  26.689  21.891  1.00  0.00     0.006 C 
ENDBRANCH   8   9
ENDBRANCH   7   8
BRANCH   7  11
ATOM     11  C   UNL A   1      32.056  27.016  26.283  1.00  0.00     0.258 C 
ATOM     12  O   UNL A   1      31.301  26.827  27.247  1.00  0.00    -0.269 OA
BRANCH  11  13
ATOM     13  C   UNL A   1      32.711  28.382  26.319  1.00  0.00     0.082 A 
ATOM     14  C   UNL A   1      33.999  28.422  26.932  1.00  0.00     0.105 A 
ATOM     15  C   UNL A   1      32.141  29.622  26.026  1.00  0.00     0.139 A 
ATOM     16  C   UNL A   1      34.595  29.634  27.335  1.00  0.00     0.305 A 
ATOM     17  C   UNL A   1      32.739  30.830  26.421  1.00  0.00     0.086 A 
ATOM     18  F   UNL A   1      30.940  29.749  25.464  1.00  0.00    -0.206 F 
ATOM     19  C   UNL A   1      33.948  30.835  27.102  1.00  0.00     0.203 A 
ATOM     20  F   UNL A   1      34.439  32.011  27.510  1.00  0.00    -0.199 F 
BRANCH  16  21
ATOM     21  N   UNL A   1      35.877  29.620  28.031  1.00  0.00     0.065 N 
ATOM     22  O   UNL A   1      36.883  29.888  27.361  1.00  0.00    -0.258 OA
ATOM     23  O   UNL A   1      35.888  29.345  29.237  1.00  0.00    -0.258 OA
ENDBRANCH  16  21
ENDBRANCH  11  13
ENDBRANCH   7  11
ENDBRANCH   6   7
ENDBRANCH   4   6
ENDBRANCH   3   4
ENDBRANCH   2   3
ENDBRANCH   1   2
BRANCH   1  24
ATOM     24  O   UNL A   1      35.259  22.073  26.414  1.00  0.00    -0.374 OA
BRANCH  24  25
ATOM     25  C   UNL A   1      36.497  22.302  25.760  1.00  0.00     0.202 C 
BRANCH  25  26
ATOM     26  C   UNL A   1      37.462  21.119  25.617  1.00  0.00     0.261 C 
BRANCH  26  27
ATOM     27  O   UNL A   1      38.804  21.515  25.392  1.00  0.00    -0.460 OA
BRANCH  27  28
ATOM     28  C   UNL A   1      39.616  21.248  26.440  1.00  0.00     0.338 C 
ATOM     29  O   UNL A   1      39.940  20.157  26.878  1.00  0.00    -0.246 OA
BRANCH  28  30
ATOM     30  C   UNL A   1      40.241  22.514  26.823  1.00  0.00     0.060 A 
ATOM     31  C   UNL A   1      39.831  23.653  26.126  1.00  0.00     0.016 A 
ATOM     32  C   UNL A   1      41.147  22.586  27.885  1.00  0.00     0.016 A 
ATOM     33  C   UNL A   1      40.351  24.888  26.480  1.00  0.00     0.010 A 
ATOM     34  C   UNL A   1      41.675  23.825  28.231  1.00  0.00     0.010 A 
ATOM     35  C   UNL A   1      41.290  24.972  27.516  1.00  0.00    -0.014 A 
BRANCH  35  36
ATOM     36  C   UNL A   1      41.962  26.261  27.760  1.00  0.00     0.031 A 
ATOM     37  C   UNL A   1      41.234  27.303  28.552  1.00  0.00     0.074 A 
ATOM     38  C   UNL A   1      43.216  26.454  27.316  1.00  0.00     0.049 A 
ATOM     39  N   UNL A   1      41.612  28.509  28.875  1.00  0.00    -0.248 NA
ATOM     40  C   UNL A   1      39.897  26.932  29.047  1.00  0.00     0.031 C 
ATOM     41  C   UNL A   1      44.008  25.467  26.579  1.00  0.00     0.029 A 
ATOM     42  N   UNL A   1      44.041  27.540  27.417  1.00  0.00    -0.354 N 
ATOM     43  C   UNL A   1      40.567  29.040  29.622  1.00  0.00     0.074 A 
ATOM     44  C   UNL A   1      39.521  28.041  29.663  1.00  0.00     0.031 C 
ATOM     45  C   UNL A   1      45.205  26.001  26.286  1.00  0.00     0.029 A 
ATOM     46  C   UNL A   1      45.245  27.377  26.773  1.00  0.00     0.049 A 
ATOM     47  H   UNL A   1      43.798  28.360  27.904  1.00  0.00     0.167 HD
ATOM     48  C   UNL A   1      40.502  30.249  30.227  1.00  0.00     0.034 A 
ATOM     49  C   UNL A   1      46.245  28.259  26.576  1.00  0.00     0.034 A 
ATOM     50  C   UNL A   1      41.555  31.229  30.140  1.00  0.00     0.049 A 
ATOM     51  C   UNL A   1      46.098  29.641  27.165  1.00  0.00     0.074 A 
ATOM     52  C   UNL A   1      41.607  32.492  30.701  1.00  0.00     0.029 A 
ATOM     53  N   UNL A   1      42.738  31.058  29.431  1.00  0.00    -0.354 N 
ATOM     54  N   UNL A   1      45.113  30.132  27.885  1.00  0.00    -0.248 NA
ATOM     55  C   UNL A   1      47.193  30.587  26.921  1.00  0.00     0.031 C 
ATOM     56  C   UNL A   1      42.783  33.112  30.266  1.00  0.00     0.029 A 
ATOM     57  C   UNL A   1      43.507  32.208  29.505  1.00  0.00     0.049 A 
ATOM     58  H   UNL A   1      42.993  30.240  28.948  1.00  0.00     0.167 HD
ATOM     59  C   UNL A   1      45.480  31.438  28.194  1.00  0.00     0.074 A 
ATOM     60  C   UNL A   1      46.791  31.645  27.609  1.00  0.00     0.031 C 
ATOM     61  C   UNL A   1      44.803  32.386  28.892  1.00  0.00     0.034 A 
BRANCH  48  62
ATOM     62  C   UNL A   1      39.239  30.584  30.979  1.00  0.00     0.023 A 
ATOM     63  C   UNL A   1      38.251  31.420  30.428  1.00  0.00     0.031 A 
ATOM     64  C   UNL A   1      39.028  30.079  32.273  1.00  0.00     0.131 A 
ATOM     65  C   UNL A   1      37.129  31.775  31.192  1.00  0.00     0.055 A 
ATOM     66  C   UNL A   1      37.871  30.374  32.999  1.00  0.00     0.041 A 
ATOM     67  F   UNL A   1      39.948  29.301  32.863  1.00  0.00    -0.206 F 
ATOM     68  C   UNL A   1      36.919  31.237  32.464  1.00  0.00     0.022 A 
BRANCH  65  69
ATOM     69  S   UNL A   1      36.011  33.053  30.552  1.00  0.00     0.124 S 
ATOM     70  O   UNL A   1      35.974  33.996  31.666  1.00  0.00    -0.237 OA
ATOM     71  O   UNL A   1      36.707  33.507  29.353  1.00  0.00    -0.237 OA
ATOM     72  O   UNL A   1      34.765  32.329  30.314  1.00  0.00    -0.744 OA
ENDBRANCH  65  69
ENDBRANCH  48  62
BRANCH  49  73
ATOM     73  C   UNL A   1      47.428  27.895  25.743  1.00  0.00     0.023 A 
ATOM     74  C   UNL A   1      47.439  28.110  24.356  1.00  0.00     0.031 A 
ATOM     75  C   UNL A   1      48.547  27.263  26.317  1.00  0.00     0.131 A 
ATOM     76  C   UNL A   1      48.516  27.647  23.585  1.00  0.00     0.055 A 
ATOM     77  C   UNL A   1      49.645  26.863  25.554  1.00  0.00     0.041 A 
ATOM     78  F   UNL A   1      48.593  27.027  27.639  1.00  0.00    -0.206 F 
ATOM     79  C   UNL A   1      49.627  27.039  24.175  1.00  0.00     0.022 A 
BRANCH  76  80
ATOM     80  S   UNL A   1      48.394  27.746  21.777  1.00  0.00     0.124 S 
ATOM     81  O   UNL A   1      48.650  26.364  21.387  1.00  0.00    -0.237 OA
ATOM     82  O   UNL A   1      47.027  28.223  21.594  1.00  0.00    -0.237 OA
ATOM     83  O   UNL A   1      49.440  28.702  21.418  1.00  0.00    -0.744 OA
ENDBRANCH  76  80
ENDBRANCH  49  73
BRANCH  61  84
ATOM     84  C   UNL A   1      45.486  33.720  29.066  1.00  0.00     0.023 A 
ATOM     85  C   UNL A   1      45.214  34.798  28.207  1.00  0.00     0.031 A 
ATOM     86  C   UNL A   1      46.416  33.914  30.102  1.00  0.00     0.131 A 
ATOM     87  C   UNL A   1      45.910  36.005  28.363  1.00  0.00     0.055 A 
ATOM     88  C   UNL A   1      47.053  35.139  30.295  1.00  0.00     0.041 A 
ATOM     89  F   UNL A   1      46.715  32.915  30.949  1.00  0.00    -0.206 F 
ATOM     90  C   UNL A   1      46.810  36.189  29.415  1.00  0.00     0.022 A 
BRANCH  87  91
ATOM     91  S   UNL A   1      45.691  37.300  27.113  1.00  0.00     0.124 S 
ATOM     92  O   UNL A   1      46.536  36.815  26.026  1.00  0.00    -0.237 OA
ATOM     93  O   UNL A   1      44.252  37.259  26.869  1.00  0.00    -0.237 OA
ATOM     94  O   UNL A   1      46.172  38.506  27.782  1.00  0.00    -0.744 OA
ENDBRANCH  87  91
ENDBRANCH  61  84
ENDBRANCH  35  36
ENDBRANCH  28  30
ENDBRANCH  27  28
ENDBRANCH  26  27
ENDBRANCH  25  26
ENDBRANCH  24  25
ENDBRANCH   1  24
TORSDOF 23
ENDMDL
MODEL 3
REMARK VINA RESULT:      -9.4      5.406      8.541
REMARK SMILES C#CCN(CC(=O)OCCOCCOC(=O)c1ccc(-c2c3nc(c(-c4cc(S(=O)(=O)[O-])ccc4F)c4ccc([nH]4)c(-c4cc(S(=O)(=O)[O-])ccc4F)c4nc(c(-c5cc(S(=O)(=O)[O-])ccc5F)c5ccc2[nH]5)C=C4)C=C3)cc1)C(=O)c1cc([N+](=O)[O-])c(F)cc1F
REMARK SMILES IDX 10 1 9 2 8 3 6 4 7 5 5 6 4 7 3 8 2 9 1 10 80 11 81 12 82 13
REMARK SMILES IDX 83 14 91 15 84 16 90 17 92 18 88 19 89 20 85 21 86 22 87 23
REMARK SMILES IDX 11 24 12 25 13 26 14 27 15 28 16 29 17 30 18 31 79 32 19 33
REMARK SMILES IDX 78 34 20 35 21 36 22 37 72 38 23 39 77 40 71 41 73 42 24 43
REMARK SMILES IDX 76 44 70 45 69 46 25 48 57 49 37 50 56 51 38 52 41 53 55 54
REMARK SMILES IDX 74 55 39 56 40 57 54 59 75 60 42 61 26 62 27 63 35 64 28 65
REMARK SMILES IDX 34 66 36 67 33 68 29 69 30 70 31 71 32 72 58 73 59 74 67 75
REMARK SMILES IDX 60 76 66 77 68 78 65 79 61 80 62 81 63 82 64 83 43 84 44 85
REMARK SMILES IDX 52 86 45 87 51 88 53 89 50 90 46 91 47 92 48 93 49 94
REMARK H PARENT 73 47 41 58
REMARK Flexibility Score: inf
ROOT
ATOM      1  C   UNL A   1      33.332  29.135  26.698  1.00  0.00     0.202 C 
ENDROOT
BRANCH   1   2
ATOM      2  C   UNL A   1      33.203  29.320  25.179  1.00  0.00     0.261 C 
BRANCH   2   3
ATOM      3  O   UNL A   1      33.884  28.265  24.451  1.00  0.00    -0.462 OA
BRANCH   3   4
ATOM      4  C   UNL A   1      33.100  27.563  23.585  1.00  0.00     0.325 C 
ATOM      5  O   UNL A   1      33.525  26.718  22.802  1.00  0.00    -0.250 OA
BRANCH   4   6
ATOM      6  C   UNL A   1      31.604  27.930  23.640  1.00  0.00     0.243 C 
BRANCH   6   7
ATOM      7  N   UNL A   1      30.636  26.974  24.185  1.00  0.00    -0.316 N 
BRANCH   7   8
ATOM      8  C   UNL A   1      29.299  26.957  23.514  1.00  0.00     0.210 C 
BRANCH   8   9
ATOM      9  C   UNL A   1      28.916  28.406  23.266  1.00  0.00    -0.085 C 
ATOM     10  C   UNL A   1      28.586  29.650  23.053  1.00  0.00     0.006 C 
ENDBRANCH   8   9
ENDBRANCH   7   8
BRANCH   7  11
ATOM     11  C   UNL A   1      30.841  26.006  25.192  1.00  0.00     0.258 C 
ATOM     12  O   UNL A   1      30.632  26.326  26.371  1.00  0.00    -0.269 OA
BRANCH  11  13
ATOM     13  C   UNL A   1      31.312  24.572  25.055  1.00  0.00     0.082 A 
ATOM     14  C   UNL A   1      32.348  24.185  25.955  1.00  0.00     0.105 A 
ATOM     15  C   UNL A   1      31.017  23.659  24.041  1.00  0.00     0.139 A 
ATOM     16  C   UNL A   1      33.114  23.019  25.754  1.00  0.00     0.305 A 
ATOM     17  C   UNL A   1      31.774  22.492  23.845  1.00  0.00     0.086 A 
ATOM     18  F   UNL A   1      30.083  23.882  23.119  1.00  0.00    -0.206 F 
ATOM     19  C   UNL A   1      32.840  22.189  24.679  1.00  0.00     0.203 A 
ATOM     20  F   UNL A   1      33.567  21.098  24.407  1.00  0.00    -0.199 F 
BRANCH  16  21
ATOM     21  N   UNL A   1      34.217  22.705  26.654  1.00  0.00     0.065 N 
ATOM     22  O   UNL A   1      34.018  21.823  27.500  1.00  0.00    -0.258 OA
ATOM     23  O   UNL A   1      35.277  23.329  26.525  1.00  0.00    -0.258 OA
ENDBRANCH  16  21
ENDBRANCH  11  13
ENDBRANCH   7  11
ENDBRANCH   6   7
ENDBRANCH   4   6
ENDBRANCH   3   4
ENDBRANCH   2   3
ENDBRANCH   1   2
BRANCH   1  24
ATOM     24  O   UNL A   1      32.589  30.044  27.519  1.00  0.00    -0.374 OA
BRANCH  24  25
ATOM     25  C   UNL A   1      32.644  31.414  27.154  1.00  0.00     0.202 C 
BRANCH  25  26
ATOM     26  C   UNL A   1      33.853  32.233  27.624  1.00  0.00     0.261 C 
BRANCH  26  27
ATOM     27  O   UNL A   1      33.620  33.632  27.612  1.00  0.00    -0.460 OA
BRANCH  27  28
ATOM     28  C   UNL A   1      33.534  34.163  28.852  1.00  0.00     0.338 C 
ATOM     29  O   UNL A   1      32.624  34.823  29.324  1.00  0.00    -0.246 OA
BRANCH  28  30
ATOM     30  C   UNL A   1      34.640  33.603  29.629  1.00  0.00     0.060 A 
ATOM     31  C   UNL A   1      35.925  34.039  29.297  1.00  0.00     0.016 A 
ATOM     32  C   UNL A   1      34.410  32.732  30.698  1.00  0.00     0.016 A 
ATOM     33  C   UNL A   1      37.007  33.580  30.032  1.00  0.00     0.010 A 
ATOM     34  C   UNL A   1      35.498  32.266  31.427  1.00  0.00     0.010 A 
ATOM     35  C   UNL A   1      36.797  32.676  31.081  1.00  0.00    -0.014 A 
BRANCH  35  36
ATOM     36  C   UNL A   1      37.969  32.065  31.734  1.00  0.00     0.031 A 
ATOM     37  C   UNL A   1      38.682  30.957  31.022  1.00  0.00     0.074 A 
ATOM     38  C   UNL A   1      38.397  32.542  32.916  1.00  0.00     0.049 A 
ATOM     39  N   UNL A   1      39.716  30.260  31.405  1.00  0.00    -0.248 NA
ATOM     40  C   UNL A   1      38.155  30.585  29.698  1.00  0.00     0.031 C 
ATOM     41  C   UNL A   1      37.783  33.651  33.647  1.00  0.00     0.029 A 
ATOM     42  N   UNL A   1      39.444  32.156  33.707  1.00  0.00    -0.354 N 
ATOM     43  C   UNL A   1      39.975  29.375  30.365  1.00  0.00     0.074 A 
ATOM     44  C   UNL A   1      38.959  29.591  29.358  1.00  0.00     0.031 C 
ATOM     45  C   UNL A   1      38.462  33.849  34.789  1.00  0.00     0.029 A 
ATOM     46  C   UNL A   1      39.526  32.854  34.889  1.00  0.00     0.049 A 
ATOM     47  H   UNL A   1      40.078  31.446  33.456  1.00  0.00     0.167 HD
ATOM     48  C   UNL A   1      40.981  28.474  30.264  1.00  0.00     0.034 A 
ATOM     49  C   UNL A   1      40.350  32.677  35.941  1.00  0.00     0.034 A 
ATOM     50  C   UNL A   1      41.958  28.269  31.304  1.00  0.00     0.049 A 
ATOM     51  C   UNL A   1      41.392  31.588  35.850  1.00  0.00     0.074 A 
ATOM     52  C   UNL A   1      43.020  27.384  31.326  1.00  0.00     0.029 A 
ATOM     53  N   UNL A   1      41.981  28.951  32.515  1.00  0.00    -0.354 N 
ATOM     54  N   UNL A   1      41.642  30.764  34.856  1.00  0.00    -0.248 NA
ATOM     55  C   UNL A   1      42.265  31.406  37.016  1.00  0.00     0.031 C 
ATOM     56  C   UNL A   1      43.635  27.475  32.579  1.00  0.00     0.029 A 
ATOM     57  C   UNL A   1      43.012  28.476  33.308  1.00  0.00     0.049 A 
ATOM     58  H   UNL A   1      41.356  29.666  32.771  1.00  0.00     0.167 HD
ATOM     59  C   UNL A   1      42.712  29.978  35.272  1.00  0.00     0.074 A 
ATOM     60  C   UNL A   1      43.079  30.450  36.593  1.00  0.00     0.031 C 
ATOM     61  C   UNL A   1      43.338  28.958  34.631  1.00  0.00     0.034 A 
BRANCH  48  62
ATOM     62  C   UNL A   1      41.031  27.624  29.021  1.00  0.00     0.023 A 
ATOM     63  C   UNL A   1      42.019  27.810  28.039  1.00  0.00     0.031 A 
ATOM     64  C   UNL A   1      40.064  26.627  28.802  1.00  0.00     0.131 A 
ATOM     65  C   UNL A   1      41.982  27.054  26.856  1.00  0.00     0.055 A 
ATOM     66  C   UNL A   1      40.078  25.826  27.659  1.00  0.00     0.041 A 
ATOM     67  F   UNL A   1      39.079  26.424  29.691  1.00  0.00    -0.206 F 
ATOM     68  C   UNL A   1      41.034  26.045  26.672  1.00  0.00     0.022 A 
BRANCH  65  69
ATOM     69  S   UNL A   1      43.111  27.497  25.507  1.00  0.00     0.124 S 
ATOM     70  O   UNL A   1      44.142  28.247  26.220  1.00  0.00    -0.237 OA
ATOM     71  O   UNL A   1      43.512  26.193  24.991  1.00  0.00    -0.237 OA
ATOM     72  O   UNL A   1      42.278  28.295  24.611  1.00  0.00    -0.744 OA
ENDBRANCH  65  69
ENDBRANCH  48  62
BRANCH  49  73
ATOM     73  C   UNL A   1      40.188  33.491  37.180  1.00  0.00     0.023 A 
ATOM     74  C   UNL A   1      39.375  33.056  38.239  1.00  0.00     0.031 A 
ATOM     75  C   UNL A   1      40.796  34.755  37.298  1.00  0.00     0.131 A 
ATOM     76  C   UNL A   1      39.148  33.898  39.338  1.00  0.00     0.055 A 
ATOM     77  C   UNL A   1      40.618  35.562  38.422  1.00  0.00     0.041 A 
ATOM     78  F   UNL A   1      41.581  35.227  36.315  1.00  0.00    -0.206 F 
ATOM     79  C   UNL A   1      39.775  35.141  39.445  1.00  0.00     0.022 A 
BRANCH  76  80
ATOM     80  S   UNL A   1      37.923  33.394  40.578  1.00  0.00     0.124 S 
ATOM     81  O   UNL A   1      36.832  32.914  39.738  1.00  0.00    -0.237 OA
ATOM     82  O   UNL A   1      38.654  32.377  41.327  1.00  0.00    -0.237 OA
ATOM     83  O   UNL A   1      37.652  34.630  41.310  1.00  0.00    -0.744 OA
ENDBRANCH  76  80
ENDBRANCH  49  73
BRANCH  61  84
ATOM     84  C   UNL A   1      44.489  28.304  35.353  1.00  0.00     0.023 A 
ATOM     85  C   UNL A   1      44.292  27.189  36.185  1.00  0.00     0.031 A 
ATOM     86  C   UNL A   1      45.796  28.802  35.209  1.00  0.00     0.131 A 
ATOM     87  C   UNL A   1      45.377  26.643  36.886  1.00  0.00     0.055 A 
ATOM     88  C   UNL A   1      46.882  28.211  35.853  1.00  0.00     0.041 A 
ATOM     89  F   UNL A   1      46.039  29.868  34.428  1.00  0.00    -0.206 F 
ATOM     90  C   UNL A   1      46.673  27.133  36.708  1.00  0.00     0.022 A 
BRANCH  87  91
ATOM     91  S   UNL A   1      45.053  25.344  38.107  1.00  0.00     0.124 S 
ATOM     92  O   UNL A   1      43.735  24.868  37.699  1.00  0.00    -0.237 OA
ATOM     93  O   UNL A   1      46.161  24.420  37.884  1.00  0.00    -0.237 OA
ATOM     94  O   UNL A   1      45.088  26.055  39.383  1.00  0.00    -0.744 OA
ENDBRANCH  87  91
ENDBRANCH  61  84
ENDBRANCH  35  36
ENDBRANCH  28  30
ENDBRANCH  27  28
ENDBRANCH  26  27
ENDBRANCH  25  26
ENDBRANCH  24  25
ENDBRANCH   1  24
TORSDOF 23
ENDMDL
