MODEL 1
REMARK VINA RESULT:     -11.4      0.000      0.000
REMARK SMILES COc1cccc(/C=C(/CC(=O)OCCOCCOC(=O)c2ccc(-c3c4nc(c(-c5cc(S(=O)(=O)[O-])ccc5F)c5ccc([nH]5)c(-c5cc(S(=O)(=O)[O-])ccc5F)c5nc(c(-c6cc(S(=O)(=O)[O-])ccc6F)c6ccc3[nH]6)C=C5)C=C4)cc2)c2nc3ccccc3o2)c1
REMARK SMILES IDX 16 1 15 2 14 3 13 4 11 5 12 6 10 7 9 8 8 9 7 10 3 11 4 12
REMARK SMILES IDX 94 13 5 14 6 15 2 16 1 17 85 18 86 19 93 20 87 21 92 22
REMARK SMILES IDX 88 23 91 24 89 25 90 26 17 27 18 28 19 29 20 30 21 31 22 32
REMARK SMILES IDX 23 33 84 34 24 35 83 36 25 37 26 38 27 39 77 40 28 41 82 42
REMARK SMILES IDX 76 43 78 44 29 45 81 46 75 47 74 48 30 50 62 51 42 52 61 53
REMARK SMILES IDX 43 54 46 55 60 56 79 57 44 58 45 59 59 61 80 62 47 63 31 64
REMARK SMILES IDX 32 65 40 66 33 67 39 68 41 69 38 70 34 71 35 72 36 73 37 74
REMARK SMILES IDX 63 75 64 76 72 77 65 78 71 79 73 80 70 81 66 82 67 83 68 84
REMARK SMILES IDX 69 85 48 86 49 87 57 88 50 89 56 90 58 91 55 92 51 93 52 94
REMARK SMILES IDX 53 95 54 96
REMARK H PARENT 78 49 46 60
REMARK Flexibility Score: inf
ROOT
ATOM      1  O   UNL A   1      31.116  27.927  25.465  1.00  0.00    -0.374 OA
ENDROOT
BRANCH   1   2
ATOM      2  C   UNL A   1      30.665  26.799  24.727  1.00  0.00     0.202 C 
BRANCH   2   3
ATOM      3  C   UNL A   1      30.760  25.396  25.348  1.00  0.00     0.261 C 
BRANCH   3   4
ATOM      4  O   UNL A   1      30.278  24.307  24.523  1.00  0.00    -0.463 OA
BRANCH   4   5
ATOM      5  C   UNL A   1      31.219  23.383  24.183  1.00  0.00     0.310 C 
ATOM      6  O   UNL A   1      31.605  23.183  23.033  1.00  0.00    -0.252 OA
BRANCH   5   7
ATOM      7  C   UNL A   1      31.719  22.497  25.321  1.00  0.00     0.163 C 
BRANCH   7   8
ATOM      8  C   UNL A   1      32.925  21.568  25.147  1.00  0.00     0.026 C 
ATOM      9  C   UNL A   1      34.146  22.126  25.360  1.00  0.00     0.018 C 
BRANCH   9  10
ATOM     10  C   UNL A   1      35.574  21.703  25.376  1.00  0.00    -0.021 A 
ATOM     11  C   UNL A   1      37.903  22.357  25.827  1.00  0.00     0.119 A 
ATOM     12  C   UNL A   1      38.335  21.112  25.379  1.00  0.00     0.046 A 
ATOM     13  C   UNL A   1      36.531  22.641  25.840  1.00  0.00     0.054 A 
ATOM     14  C   UNL A   1      37.416  20.180  24.911  1.00  0.00     0.004 A 
ATOM     15  C   UNL A   1      36.053  20.493  24.871  1.00  0.00     0.008 A 
BRANCH  11  16
ATOM     16  O   UNL A   1      38.918  23.205  26.169  1.00  0.00    -0.497 OA
ATOM     17  C   UNL A   1      38.580  24.456  26.745  1.00  0.00     0.278 C 
ENDBRANCH  11  16
ENDBRANCH   9  10
BRANCH   8  18
ATOM     18  C   UNL A   1      32.704  20.173  24.829  1.00  0.00     0.223 A 
ATOM     19  N   UNL A   1      33.042  19.625  23.659  1.00  0.00    -0.210 NA
ATOM     20  O   UNL A   1      32.217  19.205  25.697  1.00  0.00    -0.436 OA
ATOM     21  C   UNL A   1      33.087  18.272  23.892  1.00  0.00     0.110 A 
ATOM     22  C   UNL A   1      32.580  18.009  25.147  1.00  0.00     0.155 A 
ATOM     23  C   UNL A   1      33.664  17.225  23.155  1.00  0.00     0.032 A 
ATOM     24  C   UNL A   1      32.572  16.758  25.751  1.00  0.00     0.049 A 
ATOM     25  C   UNL A   1      33.760  15.966  23.766  1.00  0.00     0.003 A 
ATOM     26  C   UNL A   1      33.216  15.737  25.036  1.00  0.00     0.004 A 
ENDBRANCH   8  18
ENDBRANCH   7   8
ENDBRANCH   5   7
ENDBRANCH   4   5
ENDBRANCH   3   4
ENDBRANCH   2   3
ENDBRANCH   1   2
BRANCH   1  27
ATOM     27  C   UNL A   1      32.208  28.667  24.946  1.00  0.00     0.202 C 
BRANCH  27  28
ATOM     28  C   UNL A   1      32.475  30.091  25.455  1.00  0.00     0.261 C 
BRANCH  28  29
ATOM     29  O   UNL A   1      32.621  30.242  26.854  1.00  0.00    -0.460 OA
BRANCH  29  30
ATOM     30  C   UNL A   1      33.173  31.416  27.220  1.00  0.00     0.338 C 
ATOM     31  O   UNL A   1      32.699  32.536  27.152  1.00  0.00    -0.246 OA
BRANCH  30  32
ATOM     32  C   UNL A   1      34.458  31.076  27.819  1.00  0.00     0.060 A 
ATOM     33  C   UNL A   1      34.697  29.740  28.143  1.00  0.00     0.016 A 
ATOM     34  C   UNL A   1      35.412  32.076  28.028  1.00  0.00     0.016 A 
ATOM     35  C   UNL A   1      35.901  29.399  28.736  1.00  0.00     0.010 A 
ATOM     36  C   UNL A   1      36.618  31.731  28.620  1.00  0.00     0.010 A 
ATOM     37  C   UNL A   1      36.845  30.400  29.006  1.00  0.00    -0.014 A 
BRANCH  37  38
ATOM     38  C   UNL A   1      38.016  30.081  29.840  1.00  0.00     0.031 A 
ATOM     39  C   UNL A   1      39.065  29.176  29.266  1.00  0.00     0.074 A 
ATOM     40  C   UNL A   1      38.125  30.608  31.069  1.00  0.00     0.049 A 
ATOM     41  N   UNL A   1      40.141  28.696  29.826  1.00  0.00    -0.248 NA
ATOM     42  C   UNL A   1      38.864  28.744  27.872  1.00  0.00     0.031 C 
ATOM     43  C   UNL A   1      37.164  31.530  31.676  1.00  0.00     0.029 A 
ATOM     44  N   UNL A   1      39.084  30.439  32.028  1.00  0.00    -0.354 N 
ATOM     45  C   UNL A   1      40.744  27.900  28.860  1.00  0.00     0.074 A 
ATOM     46  C   UNL A   1      39.889  27.926  27.693  1.00  0.00     0.031 C 
ATOM     47  C   UNL A   1      37.585  31.844  32.912  1.00  0.00     0.029 A 
ATOM     48  C   UNL A   1      38.811  31.105  33.199  1.00  0.00     0.049 A 
ATOM     49  H   UNL A   1      39.892  29.893  31.893  1.00  0.00     0.167 HD
ATOM     50  C   UNL A   1      41.912  27.222  28.945  1.00  0.00     0.034 A 
ATOM     51  C   UNL A   1      39.467  31.085  34.375  1.00  0.00     0.034 A 
ATOM     52  C   UNL A   1      42.725  27.213  30.135  1.00  0.00     0.049 A 
ATOM     53  C   UNL A   1      40.718  30.247  34.477  1.00  0.00     0.074 A 
ATOM     54  C   UNL A   1      43.930  26.573  30.351  1.00  0.00     0.029 A 
ATOM     55  N   UNL A   1      42.401  27.866  31.319  1.00  0.00    -0.354 N 
ATOM     56  N   UNL A   1      41.288  29.499  33.557  1.00  0.00    -0.248 NA
ATOM     57  C   UNL A   1      41.418  30.251  35.766  1.00  0.00     0.031 C 
ATOM     58  C   UNL A   1      44.292  26.770  31.687  1.00  0.00     0.029 A 
ATOM     59  C   UNL A   1      43.366  27.614  32.280  1.00  0.00     0.049 A 
ATOM     60  H   UNL A   1      41.603  28.425  31.455  1.00  0.00     0.167 HD
ATOM     61  C   UNL A   1      42.435  28.978  34.147  1.00  0.00     0.074 A 
ATOM     62  C   UNL A   1      42.476  29.500  35.499  1.00  0.00     0.031 C 
ATOM     63  C   UNL A   1      43.377  28.152  33.621  1.00  0.00     0.034 A 
BRANCH  50  64
ATOM     64  C   UNL A   1      42.332  26.402  27.750  1.00  0.00     0.023 A 
ATOM     65  C   UNL A   1      42.079  25.021  27.669  1.00  0.00     0.031 A 
ATOM     66  C   UNL A   1      43.029  27.005  26.687  1.00  0.00     0.131 A 
ATOM     67  C   UNL A   1      42.582  24.279  26.589  1.00  0.00     0.055 A 
ATOM     68  C   UNL A   1      43.451  26.276  25.575  1.00  0.00     0.041 A 
ATOM     69  F   UNL A   1      43.327  28.313  26.720  1.00  0.00    -0.206 F 
ATOM     70  C   UNL A   1      43.242  24.901  25.528  1.00  0.00     0.022 A 
BRANCH  67  71
ATOM     71  S   UNL A   1      42.495  22.469  26.667  1.00  0.00     0.124 S 
ATOM     72  O   UNL A   1      43.902  22.112  26.829  1.00  0.00    -0.237 OA
ATOM     73  O   UNL A   1      41.642  22.243  27.827  1.00  0.00    -0.237 OA
ATOM     74  O   UNL A   1      41.909  22.098  25.380  1.00  0.00    -0.744 OA
ENDBRANCH  67  71
ENDBRANCH  50  64
BRANCH  51  75
ATOM     75  C   UNL A   1      38.945  31.848  35.543  1.00  0.00     0.023 A 
ATOM     76  C   UNL A   1      38.336  31.191  36.622  1.00  0.00     0.031 A 
ATOM     77  C   UNL A   1      39.015  33.254  35.583  1.00  0.00     0.131 A 
ATOM     78  C   UNL A   1      37.778  31.937  37.671  1.00  0.00     0.055 A 
ATOM     79  C   UNL A   1      38.513  33.988  36.658  1.00  0.00     0.041 A 
ATOM     80  F   UNL A   1      39.589  33.935  34.578  1.00  0.00    -0.206 F 
ATOM     81  C   UNL A   1      37.876  33.331  37.704  1.00  0.00     0.022 A 
BRANCH  78  82
ATOM     82  S   UNL A   1      36.827  31.063  38.942  1.00  0.00     0.124 S 
ATOM     83  O   UNL A   1      36.731  29.724  38.372  1.00  0.00    -0.237 OA
ATOM     84  O   UNL A   1      37.687  31.204  40.113  1.00  0.00    -0.237 OA
ATOM     85  O   UNL A   1      35.571  31.810  39.000  1.00  0.00    -0.744 OA
ENDBRANCH  78  82
ENDBRANCH  51  75
BRANCH  63  86
ATOM     86  C   UNL A   1      44.561  27.817  34.491  1.00  0.00     0.023 A 
ATOM     87  C   UNL A   1      44.588  26.672  35.304  1.00  0.00     0.031 A 
ATOM     88  C   UNL A   1      45.696  28.648  34.475  1.00  0.00     0.131 A 
ATOM     89  C   UNL A   1      45.713  26.412  36.101  1.00  0.00     0.055 A 
ATOM     90  C   UNL A   1      46.837  28.348  35.218  1.00  0.00     0.041 A 
ATOM     91  F   UNL A   1      45.720  29.757  33.717  1.00  0.00    -0.206 F 
ATOM     92  C   UNL A   1      46.846  27.229  36.044  1.00  0.00     0.022 A 
BRANCH  89  93
ATOM     93  S   UNL A   1      45.650  25.029  37.271  1.00  0.00     0.124 S 
ATOM     94  O   UNL A   1      47.060  24.671  37.392  1.00  0.00    -0.237 OA
ATOM     95  O   UNL A   1      45.043  25.640  38.448  1.00  0.00    -0.237 OA
ATOM     96  O   UNL A   1      44.817  24.040  36.587  1.00  0.00    -0.744 OA
ENDBRANCH  89  93
ENDBRANCH  63  86
ENDBRANCH  37  38
ENDBRANCH  30  32
ENDBRANCH  29  30
ENDBRANCH  28  29
ENDBRANCH  27  28
ENDBRANCH   1  27
TORSDOF 21
ENDMDL
MODEL 2
REMARK VINA RESULT:     -11.4      1.900      8.022
REMARK SMILES COc1cccc(/C=C(/CC(=O)OCCOCCOC(=O)c2ccc(-c3c4nc(c(-c5cc(S(=O)(=O)[O-])ccc5F)c5ccc([nH]5)c(-c5cc(S(=O)(=O)[O-])ccc5F)c5nc(c(-c6cc(S(=O)(=O)[O-])ccc6F)c6ccc3[nH]6)C=C5)C=C4)cc2)c2nc3ccccc3o2)c1
REMARK SMILES IDX 16 1 15 2 14 3 13 4 11 5 12 6 10 7 9 8 8 9 7 10 3 11 4 12
REMARK SMILES IDX 94 13 5 14 6 15 2 16 1 17 85 18 86 19 93 20 87 21 92 22
REMARK SMILES IDX 88 23 91 24 89 25 90 26 17 27 18 28 19 29 20 30 21 31 22 32
REMARK SMILES IDX 23 33 84 34 24 35 83 36 25 37 26 38 27 39 77 40 28 41 82 42
REMARK SMILES IDX 76 43 78 44 29 45 81 46 75 47 74 48 30 50 62 51 42 52 61 53
REMARK SMILES IDX 43 54 46 55 60 56 79 57 44 58 45 59 59 61 80 62 47 63 31 64
REMARK SMILES IDX 32 65 40 66 33 67 39 68 41 69 38 70 34 71 35 72 36 73 37 74
REMARK SMILES IDX 63 75 64 76 72 77 65 78 71 79 73 80 70 81 66 82 67 83 68 84
REMARK SMILES IDX 69 85 48 86 49 87 57 88 50 89 56 90 58 91 55 92 51 93 52 94
REMARK SMILES IDX 53 95 54 96
REMARK H PARENT 78 49 46 60
REMARK Flexibility Score: inf
ROOT
ATOM      1  O   UNL A   1      31.317  29.303  25.004  1.00  0.00    -0.374 OA
ENDROOT
BRANCH   1   2
ATOM      2  C   UNL A   1      31.607  28.981  23.650  1.00  0.00     0.202 C 
BRANCH   2   3
ATOM      3  C   UNL A   1      31.739  27.509  23.230  1.00  0.00     0.261 C 
BRANCH   3   4
ATOM      4  O   UNL A   1      32.700  27.236  22.181  1.00  0.00    -0.463 OA
BRANCH   4   5
ATOM      5  C   UNL A   1      32.763  25.935  21.783  1.00  0.00     0.310 C 
ATOM      6  O   UNL A   1      33.244  25.565  20.713  1.00  0.00    -0.252 OA
BRANCH   5   7
ATOM      7  C   UNL A   1      32.091  24.926  22.709  1.00  0.00     0.163 C 
BRANCH   7   8
ATOM      8  C   UNL A   1      32.748  23.583  23.048  1.00  0.00     0.026 C 
ATOM      9  C   UNL A   1      31.964  22.482  22.908  1.00  0.00     0.018 C 
BRANCH   9  10
ATOM     10  C   UNL A   1      32.089  21.004  23.045  1.00  0.00    -0.021 A 
ATOM     11  C   UNL A   1      32.514  19.114  24.562  1.00  0.00     0.119 A 
ATOM     12  C   UNL A   1      32.456  18.239  23.481  1.00  0.00     0.046 A 
ATOM     13  C   UNL A   1      32.315  20.484  24.345  1.00  0.00     0.054 A 
ATOM     14  C   UNL A   1      32.244  18.727  22.196  1.00  0.00     0.004 A 
ATOM     15  C   UNL A   1      32.107  20.102  21.980  1.00  0.00     0.008 A 
BRANCH  11  16
ATOM     16  O   UNL A   1      32.819  18.508  25.748  1.00  0.00    -0.497 OA
ATOM     17  C   UNL A   1      32.976  17.098  25.758  1.00  0.00     0.278 C 
ENDBRANCH  11  16
ENDBRANCH   9  10
BRANCH   8  18
ATOM     18  C   UNL A   1      34.142  23.554  23.436  1.00  0.00     0.223 A 
ATOM     19  N   UNL A   1      34.677  24.408  24.313  1.00  0.00    -0.210 NA
ATOM     20  O   UNL A   1      35.078  22.605  23.047  1.00  0.00    -0.436 OA
ATOM     21  C   UNL A   1      35.841  23.811  24.735  1.00  0.00     0.110 A 
ATOM     22  C   UNL A   1      36.091  22.700  23.958  1.00  0.00     0.155 A 
ATOM     23  C   UNL A   1      36.662  24.067  25.845  1.00  0.00     0.032 A 
ATOM     24  C   UNL A   1      37.127  21.800  24.175  1.00  0.00     0.049 A 
ATOM     25  C   UNL A   1      37.661  23.132  26.154  1.00  0.00     0.003 A 
ATOM     26  C   UNL A   1      37.893  22.025  25.328  1.00  0.00     0.004 A 
ENDBRANCH   8  18
ENDBRANCH   7   8
ENDBRANCH   5   7
ENDBRANCH   4   5
ENDBRANCH   3   4
ENDBRANCH   2   3
ENDBRANCH   1   2
BRANCH   1  27
ATOM     27  C   UNL A   1      32.405  29.452  25.899  1.00  0.00     0.202 C 
BRANCH  27  28
ATOM     28  C   UNL A   1      32.653  30.805  26.581  1.00  0.00     0.261 C 
BRANCH  28  29
ATOM     29  O   UNL A   1      33.482  30.790  27.727  1.00  0.00    -0.460 OA
BRANCH  29  30
ATOM     30  C   UNL A   1      34.406  31.771  27.744  1.00  0.00     0.338 C 
ATOM     31  O   UNL A   1      34.255  32.964  27.551  1.00  0.00    -0.246 OA
BRANCH  30  32
ATOM     32  C   UNL A   1      35.653  31.129  28.139  1.00  0.00     0.060 A 
ATOM     33  C   UNL A   1      35.650  29.745  28.320  1.00  0.00     0.016 A 
ATOM     34  C   UNL A   1      36.808  31.899  28.303  1.00  0.00     0.016 A 
ATOM     35  C   UNL A   1      36.818  29.118  28.719  1.00  0.00     0.010 A 
ATOM     36  C   UNL A   1      37.977  31.268  28.701  1.00  0.00     0.010 A 
ATOM     37  C   UNL A   1      37.971  29.885  28.944  1.00  0.00    -0.014 A 
BRANCH  37  38
ATOM     38  C   UNL A   1      39.138  29.260  29.588  1.00  0.00     0.031 A 
ATOM     39  C   UNL A   1      39.544  29.755  30.944  1.00  0.00     0.074 A 
ATOM     40  C   UNL A   1      39.795  28.269  28.965  1.00  0.00     0.049 A 
ATOM     41  N   UNL A   1      40.569  29.416  31.676  1.00  0.00    -0.248 NA
ATOM     42  C   UNL A   1      38.680  30.783  31.551  1.00  0.00     0.031 C 
ATOM     43  C   UNL A   1      39.430  27.708  27.665  1.00  0.00     0.029 A 
ATOM     44  N   UNL A   1      40.906  27.567  29.338  1.00  0.00    -0.354 N 
ATOM     45  C   UNL A   1      40.481  30.192  32.826  1.00  0.00     0.074 A 
ATOM     46  C   UNL A   1      39.327  31.051  32.674  1.00  0.00     0.031 C 
ATOM     47  C   UNL A   1      40.309  26.744  27.346  1.00  0.00     0.029 A 
ATOM     48  C   UNL A   1      41.324  26.661  28.393  1.00  0.00     0.049 A 
ATOM     49  H   UNL A   1      41.364  27.697  30.200  1.00  0.00     0.167 HD
ATOM     50  C   UNL A   1      41.290  30.173  33.912  1.00  0.00     0.034 A 
ATOM     51  C   UNL A   1      42.421  25.881  28.372  1.00  0.00     0.034 A 
ATOM     52  C   UNL A   1      42.439  29.310  34.013  1.00  0.00     0.049 A 
ATOM     53  C   UNL A   1      43.361  25.944  29.552  1.00  0.00     0.074 A 
ATOM     54  C   UNL A   1      43.336  29.188  35.058  1.00  0.00     0.029 A 
ATOM     55  N   UNL A   1      42.859  28.430  33.021  1.00  0.00    -0.354 N 
ATOM     56  N   UNL A   1      43.270  26.676  30.641  1.00  0.00    -0.248 NA
ATOM     57  C   UNL A   1      44.544  25.077  29.507  1.00  0.00     0.031 C 
ATOM     58  C   UNL A   1      44.341  28.299  34.665  1.00  0.00     0.029 A 
ATOM     59  C   UNL A   1      44.022  27.790  33.415  1.00  0.00     0.049 A 
ATOM     60  H   UNL A   1      42.398  28.284  32.164  1.00  0.00     0.167 HD
ATOM     61  C   UNL A   1      44.363  26.325  31.428  1.00  0.00     0.074 A 
ATOM     62  C   UNL A   1      45.095  25.317  30.688  1.00  0.00     0.031 C 
ATOM     63  C   UNL A   1      44.727  26.785  32.652  1.00  0.00     0.034 A 
BRANCH  50  64
ATOM     64  C   UNL A   1      40.988  31.146  35.024  1.00  0.00     0.023 A 
ATOM     65  C   UNL A   1      39.817  31.050  35.798  1.00  0.00     0.031 A 
ATOM     66  C   UNL A   1      41.867  32.210  35.294  1.00  0.00     0.131 A 
ATOM     67  C   UNL A   1      39.524  32.039  36.751  1.00  0.00     0.055 A 
ATOM     68  C   UNL A   1      41.611  33.141  36.301  1.00  0.00     0.041 A 
ATOM     69  F   UNL A   1      42.985  32.373  34.569  1.00  0.00    -0.206 F 
ATOM     70  C   UNL A   1      40.426  33.068  37.026  1.00  0.00     0.022 A 
BRANCH  67  71
ATOM     71  S   UNL A   1      37.879  32.046  37.513  1.00  0.00     0.124 S 
ATOM     72  O   UNL A   1      38.154  32.673  38.804  1.00  0.00    -0.237 OA
ATOM     73  O   UNL A   1      37.097  32.838  36.572  1.00  0.00    -0.237 OA
ATOM     74  O   UNL A   1      37.526  30.629  37.580  1.00  0.00    -0.744 OA
ENDBRANCH  67  71
ENDBRANCH  50  64
BRANCH  51  75
ATOM     75  C   UNL A   1      42.706  25.010  27.198  1.00  0.00     0.023 A 
ATOM     76  C   UNL A   1      42.308  23.665  27.181  1.00  0.00     0.031 A 
ATOM     77  C   UNL A   1      43.415  25.500  26.084  1.00  0.00     0.131 A 
ATOM     78  C   UNL A   1      42.661  22.844  26.099  1.00  0.00     0.055 A 
ATOM     79  C   UNL A   1      43.710  24.695  24.984  1.00  0.00     0.041 A 
ATOM     80  F   UNL A   1      43.820  26.780  26.046  1.00  0.00    -0.206 F 
ATOM     81  C   UNL A   1      43.346  23.353  24.993  1.00  0.00     0.022 A 
BRANCH  78  82
ATOM     82  S   UNL A   1      42.303  21.070  26.208  1.00  0.00     0.124 S 
ATOM     83  O   UNL A   1      43.423  20.496  25.472  1.00  0.00    -0.237 OA
ATOM     84  O   UNL A   1      42.300  20.851  27.651  1.00  0.00    -0.237 OA
ATOM     85  O   UNL A   1      40.999  20.948  25.559  1.00  0.00    -0.744 OA
ENDBRANCH  78  82
ENDBRANCH  51  75
BRANCH  63  86
ATOM     86  C   UNL A   1      45.936  26.152  33.294  1.00  0.00     0.023 A 
ATOM     87  C   UNL A   1      45.852  24.956  34.024  1.00  0.00     0.031 A 
ATOM     88  C   UNL A   1      47.201  26.748  33.137  1.00  0.00     0.131 A 
ATOM     89  C   UNL A   1      47.007  24.415  34.607  1.00  0.00     0.055 A 
ATOM     90  C   UNL A   1      48.355  26.170  33.663  1.00  0.00     0.041 A 
ATOM     91  F   UNL A   1      47.336  27.895  32.451  1.00  0.00    -0.206 F 
ATOM     92  C   UNL A   1      48.261  25.001  34.411  1.00  0.00     0.022 A 
BRANCH  89  93
ATOM     93  S   UNL A   1      46.840  22.971  35.690  1.00  0.00     0.124 S 
ATOM     94  O   UNL A   1      47.899  22.097  35.193  1.00  0.00    -0.237 OA
ATOM     95  O   UNL A   1      47.056  23.544  37.015  1.00  0.00    -0.237 OA
ATOM     96  O   UNL A   1      45.479  22.504  35.432  1.00  0.00    -0.744 OA
ENDBRANCH  89  93
ENDBRANCH  63  86
ENDBRANCH  37  38
ENDBRANCH  30  32
ENDBRANCH  29  30
ENDBRANCH  28  29
ENDBRANCH  27  28
ENDBRANCH   1  27
TORSDOF 21
ENDMDL
MODEL 3
REMARK VINA RESULT:     -10.8      1.695      3.241
REMARK SMILES COc1cccc(/C=C(/CC(=O)OCCOCCOC(=O)c2ccc(-c3c4nc(c(-c5cc(S(=O)(=O)[O-])ccc5F)c5ccc([nH]5)c(-c5cc(S(=O)(=O)[O-])ccc5F)c5nc(c(-c6cc(S(=O)(=O)[O-])ccc6F)c6ccc3[nH]6)C=C5)C=C4)cc2)c2nc3ccccc3o2)c1
REMARK SMILES IDX 16 1 15 2 14 3 13 4 11 5 12 6 10 7 9 8 8 9 7 10 3 11 4 12
REMARK SMILES IDX 94 13 5 14 6 15 2 16 1 17 85 18 86 19 93 20 87 21 92 22
REMARK SMILES IDX 88 23 91 24 89 25 90 26 17 27 18 28 19 29 20 30 21 31 22 32
REMARK SMILES IDX 23 33 84 34 24 35 83 36 25 37 26 38 27 39 77 40 28 41 82 42
REMARK SMILES IDX 76 43 78 44 29 45 81 46 75 47 74 48 30 50 62 51 42 52 61 53
REMARK SMILES IDX 43 54 46 55 60 56 79 57 44 58 45 59 59 61 80 62 47 63 31 64
REMARK SMILES IDX 32 65 40 66 33 67 39 68 41 69 38 70 34 71 35 72 36 73 37 74
REMARK SMILES IDX 63 75 64 76 72 77 65 78 71 79 73 80 70 81 66 82 67 83 68 84
REMARK SMILES IDX 69 85 48 86 49 87 57 88 50 89 56 90 58 91 55 92 51 93 52 94
REMARK SMILES IDX 53 95 54 96
REMARK H PARENT 78 49 46 60
REMARK Flexibility Score: inf
ROOT
ATOM      1  O   UNL A   1      30.479  28.293  24.504  1.00  0.00    -0.374 OA
ENDROOT
BRANCH   1   2
ATOM      2  C   UNL A   1      30.660  27.128  23.709  1.00  0.00     0.202 C 
BRANCH   2   3
ATOM      3  C   UNL A   1      30.183  25.766  24.237  1.00  0.00     0.261 C 
BRANCH   3   4
ATOM      4  O   UNL A   1      30.318  24.652  23.320  1.00  0.00    -0.463 OA
BRANCH   4   5
ATOM      5  C   UNL A   1      31.555  24.085  23.282  1.00  0.00     0.310 C 
ATOM      6  O   UNL A   1      32.322  24.169  22.324  1.00  0.00    -0.252 OA
BRANCH   5   7
ATOM      7  C   UNL A   1      31.926  23.220  24.484  1.00  0.00     0.163 C 
BRANCH   7   8
ATOM      8  C   UNL A   1      32.853  22.007  24.347  1.00  0.00     0.026 C 
ATOM      9  C   UNL A   1      32.244  20.808  24.156  1.00  0.00     0.018 C 
BRANCH   9  10
ATOM     10  C   UNL A   1      32.632  19.389  23.925  1.00  0.00    -0.021 A 
ATOM     11  C   UNL A   1      33.714  17.382  24.852  1.00  0.00     0.119 A 
ATOM     12  C   UNL A   1      33.531  16.728  23.637  1.00  0.00     0.046 A 
ATOM     13  C   UNL A   1      33.253  18.697  24.997  1.00  0.00     0.054 A 
ATOM     14  C   UNL A   1      32.933  17.389  22.570  1.00  0.00     0.004 A 
ATOM     15  C   UNL A   1      32.530  18.721  22.704  1.00  0.00     0.008 A 
BRANCH  11  16
ATOM     16  O   UNL A   1      34.396  16.646  25.779  1.00  0.00    -0.497 OA
ATOM     17  C   UNL A   1      35.378  15.732  25.317  1.00  0.00     0.278 C 
ENDBRANCH  11  16
ENDBRANCH   9  10
BRANCH   8  18
ATOM     18  C   UNL A   1      34.287  22.205  24.375  1.00  0.00     0.223 A 
ATOM     19  N   UNL A   1      34.861  23.370  24.685  1.00  0.00    -0.210 NA
ATOM     20  O   UNL A   1      35.250  21.221  24.188  1.00  0.00    -0.436 OA
ATOM     21  C   UNL A   1      36.156  23.057  25.023  1.00  0.00     0.110 A 
ATOM     22  C   UNL A   1      36.398  21.735  24.719  1.00  0.00     0.155 A 
ATOM     23  C   UNL A   1      37.135  23.791  25.712  1.00  0.00     0.032 A 
ATOM     24  C   UNL A   1      37.571  21.054  25.027  1.00  0.00     0.049 A 
ATOM     25  C   UNL A   1      38.294  23.116  26.124  1.00  0.00     0.003 A 
ATOM     26  C   UNL A   1      38.510  21.776  25.778  1.00  0.00     0.004 A 
ENDBRANCH   8  18
ENDBRANCH   7   8
ENDBRANCH   5   7
ENDBRANCH   4   5
ENDBRANCH   3   4
ENDBRANCH   2   3
ENDBRANCH   1   2
BRANCH   1  27
ATOM     27  C   UNL A   1      31.487  29.288  24.463  1.00  0.00     0.202 C 
BRANCH  27  28
ATOM     28  C   UNL A   1      31.646  30.261  25.640  1.00  0.00     0.261 C 
BRANCH  28  29
ATOM     29  O   UNL A   1      32.953  30.409  26.161  1.00  0.00    -0.460 OA
BRANCH  29  30
ATOM     30  C   UNL A   1      33.098  31.479  26.969  1.00  0.00     0.338 C 
ATOM     31  O   UNL A   1      32.434  32.499  27.011  1.00  0.00    -0.246 OA
BRANCH  30  32
ATOM     32  C   UNL A   1      34.183  31.138  27.881  1.00  0.00     0.060 A 
ATOM     33  C   UNL A   1      34.788  32.173  28.597  1.00  0.00     0.016 A 
ATOM     34  C   UNL A   1      34.571  29.804  28.031  1.00  0.00     0.016 A 
ATOM     35  C   UNL A   1      35.837  31.875  29.449  1.00  0.00     0.010 A 
ATOM     36  C   UNL A   1      35.620  29.508  28.887  1.00  0.00     0.010 A 
ATOM     37  C   UNL A   1      36.275  30.548  29.567  1.00  0.00    -0.014 A 
BRANCH  37  38
ATOM     38  C   UNL A   1      37.528  30.263  30.286  1.00  0.00     0.031 A 
ATOM     39  C   UNL A   1      38.555  29.410  29.602  1.00  0.00     0.074 A 
ATOM     40  C   UNL A   1      37.728  30.775  31.510  1.00  0.00     0.049 A 
ATOM     41  N   UNL A   1      39.695  28.966  30.053  1.00  0.00    -0.248 NA
ATOM     42  C   UNL A   1      38.245  28.993  28.223  1.00  0.00     0.031 C 
ATOM     43  C   UNL A   1      36.791  31.648  32.218  1.00  0.00     0.029 A 
ATOM     44  N   UNL A   1      38.776  30.629  32.375  1.00  0.00    -0.354 N 
ATOM     45  C   UNL A   1      40.238  28.210  29.021  1.00  0.00     0.074 A 
ATOM     46  C   UNL A   1      39.280  28.219  27.937  1.00  0.00     0.031 C 
ATOM     47  C   UNL A   1      37.310  31.959  33.417  1.00  0.00     0.029 A 
ATOM     48  C   UNL A   1      38.585  31.265  33.578  1.00  0.00     0.049 A 
ATOM     49  H   UNL A   1      39.589  30.118  32.157  1.00  0.00     0.167 HD
ATOM     50  C   UNL A   1      41.434  27.577  28.988  1.00  0.00     0.034 A 
ATOM     51  C   UNL A   1      39.346  31.253  34.689  1.00  0.00     0.034 A 
ATOM     52  C   UNL A   1      42.351  27.582  30.099  1.00  0.00     0.049 A 
ATOM     53  C   UNL A   1      40.632  30.464  34.662  1.00  0.00     0.074 A 
ATOM     54  C   UNL A   1      43.596  26.988  30.193  1.00  0.00     0.029 A 
ATOM     55  N   UNL A   1      42.112  28.203  31.320  1.00  0.00    -0.354 N 
ATOM     56  N   UNL A   1      41.144  29.755  33.680  1.00  0.00    -0.248 NA
ATOM     57  C   UNL A   1      41.446  30.476  35.883  1.00  0.00     0.031 C 
ATOM     58  C   UNL A   1      44.070  27.178  31.494  1.00  0.00     0.029 A 
ATOM     59  C   UNL A   1      43.169  27.975  32.185  1.00  0.00     0.049 A 
ATOM     60  H   UNL A   1      41.308  28.728  31.538  1.00  0.00     0.167 HD
ATOM     61  C   UNL A   1      42.360  29.271  34.154  1.00  0.00     0.074 A 
ATOM     62  C   UNL A   1      42.503  29.772  35.506  1.00  0.00     0.031 C 
ATOM     63  C   UNL A   1      43.281  28.492  33.530  1.00  0.00     0.034 A 
BRANCH  50  64
ATOM     64  C   UNL A   1      41.775  26.794  27.744  1.00  0.00     0.023 A 
ATOM     65  C   UNL A   1      41.742  25.389  27.717  1.00  0.00     0.031 A 
ATOM     66  C   UNL A   1      42.175  27.464  26.573  1.00  0.00     0.131 A 
ATOM     67  C   UNL A   1      42.170  24.699  26.572  1.00  0.00     0.055 A 
ATOM     68  C   UNL A   1      42.517  26.773  25.410  1.00  0.00     0.041 A 
ATOM     69  F   UNL A   1      42.256  28.803  26.545  1.00  0.00    -0.206 F 
ATOM     70  C   UNL A   1      42.531  25.382  25.409  1.00  0.00     0.022 A 
BRANCH  67  71
ATOM     71  S   UNL A   1      42.394  22.902  26.677  1.00  0.00     0.124 S 
ATOM     72  O   UNL A   1      41.439  22.546  27.722  1.00  0.00    -0.237 OA
ATOM     73  O   UNL A   1      42.059  22.463  25.328  1.00  0.00    -0.237 OA
ATOM     74  O   UNL A   1      43.800  22.753  27.050  1.00  0.00    -0.744 OA
ENDBRANCH  67  71
ENDBRANCH  50  64
BRANCH  51  75
ATOM     75  C   UNL A   1      38.903  31.976  35.915  1.00  0.00     0.023 A 
ATOM     76  C   UNL A   1      38.198  31.313  36.930  1.00  0.00     0.031 A 
ATOM     77  C   UNL A   1      39.147  33.353  36.074  1.00  0.00     0.131 A 
ATOM     78  C   UNL A   1      37.720  32.034  38.035  1.00  0.00     0.055 A 
ATOM     79  C   UNL A   1      38.723  34.052  37.204  1.00  0.00     0.041 A 
ATOM     80  F   UNL A   1      39.818  34.038  35.134  1.00  0.00    -0.206 F 
ATOM     81  C   UNL A   1      37.990  33.396  38.187  1.00  0.00     0.022 A 
BRANCH  78  82
ATOM     82  S   UNL A   1      36.645  31.184  39.221  1.00  0.00     0.124 S 
ATOM     83  O   UNL A   1      36.412  29.910  38.550  1.00  0.00    -0.237 OA
ATOM     84  O   UNL A   1      37.487  31.139  40.412  1.00  0.00    -0.237 OA
ATOM     85  O   UNL A   1      35.481  32.063  39.315  1.00  0.00    -0.744 OA
ENDBRANCH  78  82
ENDBRANCH  51  75
BRANCH  63  86
ATOM     86  C   UNL A   1      44.551  28.190  34.283  1.00  0.00     0.023 A 
ATOM     87  C   UNL A   1      45.676  29.028  34.213  1.00  0.00     0.031 A 
ATOM     88  C   UNL A   1      44.617  27.056  35.113  1.00  0.00     0.131 A 
ATOM     89  C   UNL A   1      46.836  28.695  34.927  1.00  0.00     0.055 A 
ATOM     90  C   UNL A   1      45.750  26.767  35.873  1.00  0.00     0.041 A 
ATOM     91  F   UNL A   1      43.570  26.221  35.213  1.00  0.00    -0.206 F 
ATOM     92  C   UNL A   1      46.871  27.584  35.775  1.00  0.00     0.022 A 
BRANCH  89  93
ATOM     93  S   UNL A   1      48.328  29.694  34.678  1.00  0.00     0.124 S 
ATOM     94  O   UNL A   1      47.766  30.985  34.295  1.00  0.00    -0.237 OA
ATOM     95  O   UNL A   1      48.966  29.640  35.990  1.00  0.00    -0.237 OA
ATOM     96  O   UNL A   1      49.040  28.988  33.614  1.00  0.00    -0.744 OA
ENDBRANCH  89  93
ENDBRANCH  63  86
ENDBRANCH  37  38
ENDBRANCH  30  32
ENDBRANCH  29  30
ENDBRANCH  28  29
ENDBRANCH  27  28
ENDBRANCH   1  27
TORSDOF 21
ENDMDL
