MODEL 1
REMARK VINA RESULT:     -11.1      0.000      0.000
REMARK SMILES CN(C)c1cccc2c(S(=O)(=O)N[C@H](CO)C(=O)OCCOCCOC(=O)c3ccc(-c4c5nc(c(-c6cc(S(=O)(=O)[O-])ccc6F)c6ccc([nH]6)c(-c6cc(S(=O)(=O)[O-])ccc6F)c6nc(c(-c7cc(S(=O)(=O)[O-])ccc7F)c7ccc4[nH]7)C=C6)C=C5)cc3)cccc12
REMARK SMILES IDX 21 1 20 2 19 3 17 4 18 5 14 6 13 7 10 9 11 10 12 11 9 12
REMARK SMILES IDX 4 13 5 14 94 15 6 16 8 17 93 18 7 19 92 20 91 21 2 22 1 23
REMARK SMILES IDX 3 24 15 25 16 26 22 28 23 29 24 30 25 31 26 32 27 33 28 34
REMARK SMILES IDX 29 35 90 36 30 37 89 38 31 39 32 40 33 41 83 42 34 43 88 44
REMARK SMILES IDX 82 45 84 46 35 47 87 48 81 49 80 50 36 52 68 53 48 54 67 55
REMARK SMILES IDX 49 56 52 57 66 58 85 59 50 60 51 61 65 63 86 64 53 65 37 66
REMARK SMILES IDX 38 67 46 68 39 69 45 70 47 71 44 72 40 73 41 74 42 75 43 76
REMARK SMILES IDX 69 77 70 78 78 79 71 80 77 81 79 82 76 83 72 84 73 85 74 86
REMARK SMILES IDX 75 87 54 88 55 89 63 90 56 91 62 92 64 93 61 94 57 95 58 96
REMARK SMILES IDX 59 97 60 98
REMARK H PARENT 13 8 16 27 84 51 52 62
REMARK Flexibility Score: inf
ROOT
ATOM      1  C   UNL A   1      36.758  22.117  25.350  1.00  0.00     0.202 C 
ENDROOT
BRANCH   1   2
ATOM      2  C   UNL A   1      35.491  21.754  26.137  1.00  0.00     0.261 C 
BRANCH   2   3
ATOM      3  O   UNL A   1      34.693  22.885  26.510  1.00  0.00    -0.462 OA
BRANCH   3   4
ATOM      4  C   UNL A   1      33.482  22.927  25.890  1.00  0.00     0.326 C 
ATOM      5  O   UNL A   1      32.968  21.967  25.323  1.00  0.00    -0.250 OA
BRANCH   4   6
ATOM      6  C   UNL A   1      32.755  24.247  26.061  1.00  0.00     0.205 C 
BRANCH   6   7
ATOM      7  N   UNL A   1      31.490  24.471  25.312  1.00  0.00    -0.194 NA
ATOM      8  H   UNL A   1      30.915  23.643  25.464  1.00  0.00     0.142 HD
BRANCH   7   9
ATOM      9  S   UNL A   1      31.489  24.753  23.655  1.00  0.00     0.242 S 
ATOM     10  O   UNL A   1      30.378  23.986  23.136  1.00  0.00    -0.207 OA
ATOM     11  O   UNL A   1      32.841  24.484  23.209  1.00  0.00    -0.207 OA
BRANCH   9  12
ATOM     12  C   UNL A   1      31.193  26.488  23.361  1.00  0.00     0.090 A 
ATOM     13  C   UNL A   1      28.498  29.093  22.973  1.00  0.00     0.044 A 
ATOM     14  C   UNL A   1      27.368  28.344  23.343  1.00  0.00     0.026 A 
ATOM     15  C   UNL A   1      29.782  28.462  23.010  1.00  0.00     0.006 A 
ATOM     16  C   UNL A   1      27.485  27.044  23.811  1.00  0.00     0.003 A 
ATOM     17  C   UNL A   1      29.907  27.099  23.423  1.00  0.00     0.004 A 
ATOM     18  C   UNL A   1      30.964  29.163  22.675  1.00  0.00     0.011 A 
ATOM     19  C   UNL A   1      28.738  26.450  23.882  1.00  0.00     0.010 A 
ATOM     20  C   UNL A   1      32.217  28.557  22.649  1.00  0.00     0.002 A 
ATOM     21  C   UNL A   1      32.329  27.217  22.974  1.00  0.00     0.022 A 
BRANCH  13  22
ATOM     22  N   UNL A   1      28.329  30.433  22.580  1.00  0.00    -0.377 N 
ATOM     23  C   UNL A   1      27.691  31.341  23.524  1.00  0.00     0.143 C 
ATOM     24  C   UNL A   1      28.108  30.677  21.158  1.00  0.00     0.143 C 
ENDBRANCH  13  22
ENDBRANCH   9  12
ENDBRANCH   7   9
ENDBRANCH   6   7
BRANCH   6  25
ATOM     25  C   UNL A   1      33.638  25.497  25.877  1.00  0.00     0.188 C 
BRANCH  25  26
ATOM     26  O   UNL A   1      34.777  25.209  25.063  1.00  0.00    -0.394 OA
ATOM     27  H   UNL A   1      34.490  25.060  24.148  1.00  0.00     0.210 HD
ENDBRANCH  25  26
ENDBRANCH   6  25
ENDBRANCH   4   6
ENDBRANCH   3   4
ENDBRANCH   2   3
ENDBRANCH   1   2
BRANCH   1  28
ATOM     28  O   UNL A   1      37.242  21.176  24.397  1.00  0.00    -0.374 OA
BRANCH  28  29
ATOM     29  C   UNL A   1      37.500  19.835  24.819  1.00  0.00     0.202 C 
BRANCH  29  30
ATOM     30  C   UNL A   1      38.931  19.479  25.226  1.00  0.00     0.261 C 
BRANCH  30  31
ATOM     31  O   UNL A   1      39.298  20.127  26.461  1.00  0.00    -0.460 OA
BRANCH  31  32
ATOM     32  C   UNL A   1      40.604  20.490  26.530  1.00  0.00     0.338 C 
ATOM     33  O   UNL A   1      41.557  19.882  26.075  1.00  0.00    -0.246 OA
BRANCH  32  34
ATOM     34  C   UNL A   1      40.721  21.854  27.073  1.00  0.00     0.060 A 
ATOM     35  C   UNL A   1      40.059  22.884  26.393  1.00  0.00     0.016 A 
ATOM     36  C   UNL A   1      41.566  22.135  28.148  1.00  0.00     0.016 A 
ATOM     37  C   UNL A   1      40.283  24.212  26.753  1.00  0.00     0.010 A 
ATOM     38  C   UNL A   1      41.800  23.469  28.498  1.00  0.00     0.010 A 
ATOM     39  C   UNL A   1      41.191  24.513  27.776  1.00  0.00    -0.014 A 
BRANCH  39  40
ATOM     40  C   UNL A   1      41.638  25.915  27.959  1.00  0.00     0.031 A 
ATOM     41  C   UNL A   1      42.971  26.329  27.396  1.00  0.00     0.074 A 
ATOM     42  C   UNL A   1      40.855  26.813  28.582  1.00  0.00     0.049 A 
ATOM     43  N   UNL A   1      43.579  27.485  27.459  1.00  0.00    -0.248 NA
ATOM     44  C   UNL A   1      43.718  25.294  26.663  1.00  0.00     0.031 C 
ATOM     45  C   UNL A   1      39.524  26.540  29.121  1.00  0.00     0.029 A 
ATOM     46  N   UNL A   1      41.071  28.137  28.868  1.00  0.00    -0.354 N 
ATOM     47  C   UNL A   1      44.778  27.321  26.772  1.00  0.00     0.074 A 
ATOM     48  C   UNL A   1      44.826  25.942  26.335  1.00  0.00     0.031 C 
ATOM     49  C   UNL A   1      39.048  27.662  29.691  1.00  0.00     0.029 A 
ATOM     50  C   UNL A   1      40.051  28.719  29.584  1.00  0.00     0.049 A 
ATOM     51  H   UNL A   1      41.880  28.625  28.589  1.00  0.00     0.167 HD
ATOM     52  C   UNL A   1      45.746  28.237  26.525  1.00  0.00     0.034 A 
ATOM     53  C   UNL A   1      39.954  29.956  30.113  1.00  0.00     0.034 A 
ATOM     54  C   UNL A   1      45.694  29.604  26.984  1.00  0.00     0.049 A 
ATOM     55  C   UNL A   1      41.085  30.933  29.906  1.00  0.00     0.074 A 
ATOM     56  C   UNL A   1      46.614  30.618  26.787  1.00  0.00     0.029 A 
ATOM     57  N   UNL A   1      44.667  30.144  27.748  1.00  0.00    -0.354 N 
ATOM     58  N   UNL A   1      42.213  30.767  29.252  1.00  0.00    -0.248 NA
ATOM     59  C   UNL A   1      40.926  32.267  30.501  1.00  0.00     0.031 C 
ATOM     60  C   UNL A   1      46.176  31.751  27.484  1.00  0.00     0.029 A 
ATOM     61  C   UNL A   1      44.948  31.466  28.058  1.00  0.00     0.049 A 
ATOM     62  H   UNL A   1      43.858  29.659  28.029  1.00  0.00     0.167 HD
ATOM     63  C   UNL A   1      42.884  31.985  29.337  1.00  0.00     0.074 A 
ATOM     64  C   UNL A   1      42.031  32.876  30.095  1.00  0.00     0.031 C 
ATOM     65  C   UNL A   1      44.092  32.337  28.829  1.00  0.00     0.034 A 
BRANCH  52  66
ATOM     66  C   UNL A   1      46.964  27.766  25.769  1.00  0.00     0.023 A 
ATOM     67  C   UNL A   1      47.152  28.063  24.407  1.00  0.00     0.031 A 
ATOM     68  C   UNL A   1      47.932  26.972  26.410  1.00  0.00     0.131 A 
ATOM     69  C   UNL A   1      48.242  27.514  23.716  1.00  0.00     0.055 A 
ATOM     70  C   UNL A   1      49.053  26.489  25.733  1.00  0.00     0.041 A 
ATOM     71  F   UNL A   1      47.793  26.636  27.702  1.00  0.00    -0.206 F 
ATOM     72  C   UNL A   1      49.206  26.747  24.375  1.00  0.00     0.022 A 
BRANCH  69  73
ATOM     73  S   UNL A   1      48.308  27.699  21.912  1.00  0.00     0.124 S 
ATOM     74  O   UNL A   1      49.423  28.629  21.751  1.00  0.00    -0.237 OA
ATOM     75  O   UNL A   1      48.547  26.332  21.464  1.00  0.00    -0.237 OA
ATOM     76  O   UNL A   1      46.997  28.246  21.574  1.00  0.00    -0.744 OA
ENDBRANCH  69  73
ENDBRANCH  52  66
BRANCH  53  77
ATOM     77  C   UNL A   1      38.768  30.331  30.933  1.00  0.00     0.023 A 
ATOM     78  C   UNL A   1      37.678  31.012  30.371  1.00  0.00     0.031 A 
ATOM     79  C   UNL A   1      38.735  30.054  32.312  1.00  0.00     0.131 A 
ATOM     80  C   UNL A   1      36.617  31.430  31.191  1.00  0.00     0.055 A 
ATOM     81  C   UNL A   1      37.657  30.430  33.114  1.00  0.00     0.041 A 
ATOM     82  F   UNL A   1      39.754  29.405  32.899  1.00  0.00    -0.206 F 
ATOM     83  C   UNL A   1      36.595  31.132  32.556  1.00  0.00     0.022 A 
BRANCH  80  84
ATOM     84  S   UNL A   1      35.298  32.436  30.459  1.00  0.00     0.124 S 
ATOM     85  O   UNL A   1      34.313  32.463  31.533  1.00  0.00    -0.237 OA
ATOM     86  O   UNL A   1      35.991  33.693  30.190  1.00  0.00    -0.237 OA
ATOM     87  O   UNL A   1      34.909  31.677  29.272  1.00  0.00    -0.744 OA
ENDBRANCH  80  84
ENDBRANCH  53  77
BRANCH  65  88
ATOM     88  C   UNL A   1      44.536  33.762  29.043  1.00  0.00     0.023 A 
ATOM     89  C   UNL A   1      43.963  34.830  28.331  1.00  0.00     0.031 A 
ATOM     90  C   UNL A   1      45.552  34.052  29.971  1.00  0.00     0.131 A 
ATOM     91  C   UNL A   1      44.443  36.135  28.525  1.00  0.00     0.055 A 
ATOM     92  C   UNL A   1      45.989  35.358  30.197  1.00  0.00     0.041 A 
ATOM     93  F   UNL A   1      46.133  33.069  30.676  1.00  0.00    -0.206 F 
ATOM     94  C   UNL A   1      45.441  36.407  29.463  1.00  0.00     0.022 A 
BRANCH  91  95
ATOM     95  S   UNL A   1      43.794  37.467  27.479  1.00  0.00     0.124 S 
ATOM     96  O   UNL A   1      43.028  38.259  28.435  1.00  0.00    -0.237 OA
ATOM     97  O   UNL A   1      45.013  38.087  26.968  1.00  0.00    -0.237 OA
ATOM     98  O   UNL A   1      42.994  36.760  26.479  1.00  0.00    -0.744 OA
ENDBRANCH  91  95
ENDBRANCH  65  88
ENDBRANCH  39  40
ENDBRANCH  32  34
ENDBRANCH  31  32
ENDBRANCH  30  31
ENDBRANCH  29  30
ENDBRANCH  28  29
ENDBRANCH   1  28
TORSDOF 23
ENDMDL
MODEL 2
REMARK VINA RESULT:     -10.8      1.680      2.086
REMARK SMILES CN(C)c1cccc2c(S(=O)(=O)N[C@H](CO)C(=O)OCCOCCOC(=O)c3ccc(-c4c5nc(c(-c6cc(S(=O)(=O)[O-])ccc6F)c6ccc([nH]6)c(-c6cc(S(=O)(=O)[O-])ccc6F)c6nc(c(-c7cc(S(=O)(=O)[O-])ccc7F)c7ccc4[nH]7)C=C6)C=C5)cc3)cccc12
REMARK SMILES IDX 21 1 20 2 19 3 17 4 18 5 14 6 13 7 10 9 11 10 12 11 9 12
REMARK SMILES IDX 4 13 5 14 94 15 6 16 8 17 93 18 7 19 92 20 91 21 2 22 1 23
REMARK SMILES IDX 3 24 15 25 16 26 22 28 23 29 24 30 25 31 26 32 27 33 28 34
REMARK SMILES IDX 29 35 90 36 30 37 89 38 31 39 32 40 33 41 83 42 34 43 88 44
REMARK SMILES IDX 82 45 84 46 35 47 87 48 81 49 80 50 36 52 68 53 48 54 67 55
REMARK SMILES IDX 49 56 52 57 66 58 85 59 50 60 51 61 65 63 86 64 53 65 37 66
REMARK SMILES IDX 38 67 46 68 39 69 45 70 47 71 44 72 40 73 41 74 42 75 43 76
REMARK SMILES IDX 69 77 70 78 78 79 71 80 77 81 79 82 76 83 72 84 73 85 74 86
REMARK SMILES IDX 75 87 54 88 55 89 63 90 56 91 62 92 64 93 61 94 57 95 58 96
REMARK SMILES IDX 59 97 60 98
REMARK H PARENT 13 8 16 27 84 51 52 62
REMARK Flexibility Score: inf
ROOT
ATOM      1  C   UNL A   1      36.333  22.386  25.245  1.00  0.00     0.202 C 
ENDROOT
BRANCH   1   2
ATOM      2  C   UNL A   1      35.274  21.780  26.178  1.00  0.00     0.261 C 
BRANCH   2   3
ATOM      3  O   UNL A   1      33.977  22.376  26.051  1.00  0.00    -0.462 OA
BRANCH   3   4
ATOM      4  C   UNL A   1      33.293  21.967  24.948  1.00  0.00     0.326 C 
ATOM      5  O   UNL A   1      33.475  20.891  24.387  1.00  0.00    -0.250 OA
BRANCH   4   6
ATOM      6  C   UNL A   1      32.186  22.917  24.530  1.00  0.00     0.205 C 
BRANCH   6   7
ATOM      7  N   UNL A   1      32.516  24.349  24.309  1.00  0.00    -0.194 NA
ATOM      8  H   UNL A   1      33.370  24.366  23.752  1.00  0.00     0.142 HD
BRANCH   7   9
ATOM      9  S   UNL A   1      32.767  25.401  25.596  1.00  0.00     0.242 S 
ATOM     10  O   UNL A   1      34.198  25.410  25.809  1.00  0.00    -0.207 OA
ATOM     11  O   UNL A   1      31.871  24.960  26.645  1.00  0.00    -0.207 OA
BRANCH   9  12
ATOM     12  C   UNL A   1      32.233  27.036  25.123  1.00  0.00     0.090 A 
ATOM     13  C   UNL A   1      29.497  28.964  23.393  1.00  0.00     0.044 A 
ATOM     14  C   UNL A   1      28.546  27.946  23.214  1.00  0.00     0.026 A 
ATOM     15  C   UNL A   1      30.723  28.649  24.062  1.00  0.00     0.006 A 
ATOM     16  C   UNL A   1      28.739  26.677  23.737  1.00  0.00     0.003 A 
ATOM     17  C   UNL A   1      30.965  27.325  24.542  1.00  0.00     0.004 A 
ATOM     18  C   UNL A   1      31.714  29.630  24.298  1.00  0.00     0.011 A 
ATOM     19  C   UNL A   1      29.914  26.387  24.419  1.00  0.00     0.010 A 
ATOM     20  C   UNL A   1      32.936  29.336  24.895  1.00  0.00     0.002 A 
ATOM     21  C   UNL A   1      33.204  28.038  25.290  1.00  0.00     0.022 A 
BRANCH  13  22
ATOM     22  N   UNL A   1      29.214  30.255  22.911  1.00  0.00    -0.377 N 
ATOM     23  C   UNL A   1      28.316  31.091  23.697  1.00  0.00     0.143 C 
ATOM     24  C   UNL A   1      29.192  30.423  21.461  1.00  0.00     0.143 C 
ENDBRANCH  13  22
ENDBRANCH   9  12
ENDBRANCH   7   9
ENDBRANCH   6   7
BRANCH   6  25
ATOM     25  C   UNL A   1      30.920  22.856  25.406  1.00  0.00     0.188 C 
BRANCH  25  26
ATOM     26  O   UNL A   1      31.076  21.919  26.475  1.00  0.00    -0.394 OA
ATOM     27  H   UNL A   1      31.905  22.102  26.945  1.00  0.00     0.210 HD
ENDBRANCH  25  26
ENDBRANCH   6  25
ENDBRANCH   4   6
ENDBRANCH   3   4
ENDBRANCH   2   3
ENDBRANCH   1   2
BRANCH   1  28
ATOM     28  O   UNL A   1      37.093  21.495  24.434  1.00  0.00    -0.374 OA
BRANCH  28  29
ATOM     29  C   UNL A   1      37.236  20.135  24.847  1.00  0.00     0.202 C 
BRANCH  29  30
ATOM     30  C   UNL A   1      38.655  19.590  25.022  1.00  0.00     0.261 C 
BRANCH  30  31
ATOM     31  O   UNL A   1      39.144  19.831  26.357  1.00  0.00    -0.460 OA
BRANCH  31  32
ATOM     32  C   UNL A   1      40.460  20.158  26.414  1.00  0.00     0.338 C 
ATOM     33  O   UNL A   1      41.390  19.538  25.927  1.00  0.00    -0.246 OA
BRANCH  32  34
ATOM     34  C   UNL A   1      40.622  21.504  26.991  1.00  0.00     0.060 A 
ATOM     35  C   UNL A   1      39.953  22.564  26.366  1.00  0.00     0.016 A 
ATOM     36  C   UNL A   1      41.511  21.740  28.040  1.00  0.00     0.016 A 
ATOM     37  C   UNL A   1      40.213  23.877  26.754  1.00  0.00     0.010 A 
ATOM     38  C   UNL A   1      41.782  23.059  28.418  1.00  0.00     0.010 A 
ATOM     39  C   UNL A   1      41.165  24.133  27.750  1.00  0.00    -0.014 A 
BRANCH  39  40
ATOM     40  C   UNL A   1      41.643  25.522  27.956  1.00  0.00     0.031 A 
ATOM     41  C   UNL A   1      43.014  25.896  27.460  1.00  0.00     0.074 A 
ATOM     42  C   UNL A   1      40.856  26.444  28.538  1.00  0.00     0.049 A 
ATOM     43  N   UNL A   1      43.651  27.033  27.554  1.00  0.00    -0.248 NA
ATOM     44  C   UNL A   1      43.766  24.839  26.766  1.00  0.00     0.031 C 
ATOM     45  C   UNL A   1      39.492  26.210  29.010  1.00  0.00     0.029 A 
ATOM     46  N   UNL A   1      41.096  27.761  28.835  1.00  0.00    -0.354 N 
ATOM     47  C   UNL A   1      44.879  26.833  26.929  1.00  0.00     0.074 A 
ATOM     48  C   UNL A   1      44.908  25.453  26.495  1.00  0.00     0.031 C 
ATOM     49  C   UNL A   1      39.021  27.346  29.554  1.00  0.00     0.029 A 
ATOM     50  C   UNL A   1      40.059  28.374  29.498  1.00  0.00     0.049 A 
ATOM     51  H   UNL A   1      41.932  28.224  28.597  1.00  0.00     0.167 HD
ATOM     52  C   UNL A   1      45.885  27.721  26.731  1.00  0.00     0.034 A 
ATOM     53  C   UNL A   1      39.971  29.613  30.023  1.00  0.00     0.034 A 
ATOM     54  C   UNL A   1      45.849  29.088  27.187  1.00  0.00     0.049 A 
ATOM     55  C   UNL A   1      41.139  30.557  29.872  1.00  0.00     0.074 A 
ATOM     56  C   UNL A   1      46.808  30.076  27.037  1.00  0.00     0.029 A 
ATOM     57  N   UNL A   1      44.801  29.660  27.899  1.00  0.00    -0.354 N 
ATOM     58  N   UNL A   1      42.294  30.357  29.277  1.00  0.00    -0.248 NA
ATOM     59  C   UNL A   1      40.990  31.895  30.459  1.00  0.00     0.031 C 
ATOM     60  C   UNL A   1      46.369  31.221  27.711  1.00  0.00     0.029 A 
ATOM     61  C   UNL A   1      45.105  30.974  28.223  1.00  0.00     0.049 A 
ATOM     62  H   UNL A   1      43.965  29.199  28.138  1.00  0.00     0.167 HD
ATOM     63  C   UNL A   1      42.995  31.554  29.396  1.00  0.00     0.074 A 
ATOM     64  C   UNL A   1      42.131  32.472  30.109  1.00  0.00     0.031 C 
ATOM     65  C   UNL A   1      44.237  31.870  28.949  1.00  0.00     0.034 A 
BRANCH  52  66
ATOM     66  C   UNL A   1      47.125  27.212  26.038  1.00  0.00     0.023 A 
ATOM     67  C   UNL A   1      48.174  26.603  26.749  1.00  0.00     0.031 A 
ATOM     68  C   UNL A   1      47.277  27.377  24.650  1.00  0.00     0.131 A 
ATOM     69  C   UNL A   1      49.354  26.244  26.082  1.00  0.00     0.055 A 
ATOM     70  C   UNL A   1      48.426  26.950  23.980  1.00  0.00     0.041 A 
ATOM     71  F   UNL A   1      46.319  27.973  23.923  1.00  0.00    -0.206 F 
ATOM     72  C   UNL A   1      49.478  26.393  24.699  1.00  0.00     0.022 A 
BRANCH  69  73
ATOM     73  S   UNL A   1      50.780  25.709  27.068  1.00  0.00     0.124 S 
ATOM     74  O   UNL A   1      51.461  24.810  26.139  1.00  0.00    -0.237 OA
ATOM     75  O   UNL A   1      51.458  26.969  27.351  1.00  0.00    -0.237 OA
ATOM     76  O   UNL A   1      50.173  25.054  28.224  1.00  0.00    -0.744 OA
ENDBRANCH  69  73
ENDBRANCH  52  66
BRANCH  53  77
ATOM     77  C   UNL A   1      38.757  30.024  30.781  1.00  0.00     0.023 A 
ATOM     78  C   UNL A   1      37.743  30.785  30.180  1.00  0.00     0.031 A 
ATOM     79  C   UNL A   1      38.620  29.699  32.143  1.00  0.00     0.131 A 
ATOM     80  C   UNL A   1      36.656  31.232  30.948  1.00  0.00     0.055 A 
ATOM     81  C   UNL A   1      37.514  30.105  32.891  1.00  0.00     0.041 A 
ATOM     82  F   UNL A   1      39.562  28.972  32.766  1.00  0.00    -0.206 F 
ATOM     83  C   UNL A   1      36.530  30.886  32.296  1.00  0.00     0.022 A 
BRANCH  80  84
ATOM     84  S   UNL A   1      35.443  32.338  30.177  1.00  0.00     0.124 S 
ATOM     85  O   UNL A   1      35.073  31.587  28.983  1.00  0.00    -0.237 OA
ATOM     86  O   UNL A   1      34.423  32.438  31.215  1.00  0.00    -0.237 OA
ATOM     87  O   UNL A   1      36.204  33.562  29.934  1.00  0.00    -0.744 OA
ENDBRANCH  80  84
ENDBRANCH  53  77
BRANCH  65  88
ATOM     88  C   UNL A   1      44.711  33.282  29.186  1.00  0.00     0.023 A 
ATOM     89  C   UNL A   1      44.332  34.341  28.342  1.00  0.00     0.031 A 
ATOM     90  C   UNL A   1      45.558  33.569  30.270  1.00  0.00     0.131 A 
ATOM     91  C   UNL A   1      44.839  35.630  28.569  1.00  0.00     0.055 A 
ATOM     92  C   UNL A   1      46.018  34.862  30.522  1.00  0.00     0.041 A 
ATOM     93  F   UNL A   1      45.951  32.594  31.106  1.00  0.00    -0.206 F 
ATOM     94  C   UNL A   1      45.667  35.899  29.661  1.00  0.00     0.022 A 
BRANCH  91  95
ATOM     95  S   UNL A   1      44.460  36.939  27.373  1.00  0.00     0.124 S 
ATOM     96  O   UNL A   1      45.742  37.113  26.697  1.00  0.00    -0.237 OA
ATOM     97  O   UNL A   1      43.396  36.338  26.576  1.00  0.00    -0.237 OA
ATOM     98  O   UNL A   1      44.046  38.062  28.213  1.00  0.00    -0.744 OA
ENDBRANCH  91  95
ENDBRANCH  65  88
ENDBRANCH  39  40
ENDBRANCH  32  34
ENDBRANCH  31  32
ENDBRANCH  30  31
ENDBRANCH  29  30
ENDBRANCH  28  29
ENDBRANCH   1  28
TORSDOF 23
ENDMDL
MODEL 3
REMARK VINA RESULT:     -10.6      2.357      3.925
REMARK SMILES CN(C)c1cccc2c(S(=O)(=O)N[C@H](CO)C(=O)OCCOCCOC(=O)c3ccc(-c4c5nc(c(-c6cc(S(=O)(=O)[O-])ccc6F)c6ccc([nH]6)c(-c6cc(S(=O)(=O)[O-])ccc6F)c6nc(c(-c7cc(S(=O)(=O)[O-])ccc7F)c7ccc4[nH]7)C=C6)C=C5)cc3)cccc12
REMARK SMILES IDX 21 1 20 2 19 3 17 4 18 5 14 6 13 7 10 9 11 10 12 11 9 12
REMARK SMILES IDX 4 13 5 14 94 15 6 16 8 17 93 18 7 19 92 20 91 21 2 22 1 23
REMARK SMILES IDX 3 24 15 25 16 26 22 28 23 29 24 30 25 31 26 32 27 33 28 34
REMARK SMILES IDX 29 35 90 36 30 37 89 38 31 39 32 40 33 41 83 42 34 43 88 44
REMARK SMILES IDX 82 45 84 46 35 47 87 48 81 49 80 50 36 52 68 53 48 54 67 55
REMARK SMILES IDX 49 56 52 57 66 58 85 59 50 60 51 61 65 63 86 64 53 65 37 66
REMARK SMILES IDX 38 67 46 68 39 69 45 70 47 71 44 72 40 73 41 74 42 75 43 76
REMARK SMILES IDX 69 77 70 78 78 79 71 80 77 81 79 82 76 83 72 84 73 85 74 86
REMARK SMILES IDX 75 87 54 88 55 89 63 90 56 91 62 92 64 93 61 94 57 95 58 96
REMARK SMILES IDX 59 97 60 98
REMARK H PARENT 13 8 16 27 84 51 52 62
REMARK Flexibility Score: inf
ROOT
ATOM      1  C   UNL A   1      36.588  22.666  24.694  1.00  0.00     0.202 C 
ENDROOT
BRANCH   1   2
ATOM      2  C   UNL A   1      35.589  23.330  23.736  1.00  0.00     0.261 C 
BRANCH   2   3
ATOM      3  O   UNL A   1      34.966  24.507  24.268  1.00  0.00    -0.462 OA
BRANCH   3   4
ATOM      4  C   UNL A   1      34.225  25.193  23.356  1.00  0.00     0.326 C 
ATOM      5  O   UNL A   1      33.875  24.736  22.272  1.00  0.00    -0.250 OA
BRANCH   4   6
ATOM      6  C   UNL A   1      33.760  26.551  23.847  1.00  0.00     0.205 C 
BRANCH   6   7
ATOM      7  N   UNL A   1      33.060  26.640  25.155  1.00  0.00    -0.194 NA
ATOM      8  H   UNL A   1      33.675  26.204  25.842  1.00  0.00     0.142 HD
BRANCH   7   9
ATOM      9  S   UNL A   1      31.538  25.964  25.383  1.00  0.00     0.242 S 
ATOM     10  O   UNL A   1      30.661  26.682  24.485  1.00  0.00    -0.207 OA
ATOM     11  O   UNL A   1      31.306  25.989  26.812  1.00  0.00    -0.207 OA
BRANCH   9  12
ATOM     12  C   UNL A   1      31.587  24.245  24.905  1.00  0.00     0.090 A 
ATOM     13  C   UNL A   1      33.134  20.905  25.709  1.00  0.00     0.044 A 
ATOM     14  C   UNL A   1      33.783  21.212  26.917  1.00  0.00     0.026 A 
ATOM     15  C   UNL A   1      32.376  21.930  25.057  1.00  0.00     0.006 A 
ATOM     16  C   UNL A   1      33.640  22.453  27.518  1.00  0.00     0.003 A 
ATOM     17  C   UNL A   1      32.280  23.234  25.632  1.00  0.00     0.004 A 
ATOM     18  C   UNL A   1      31.677  21.683  23.853  1.00  0.00     0.011 A 
ATOM     19  C   UNL A   1      32.872  23.431  26.901  1.00  0.00     0.010 A 
ATOM     20  C   UNL A   1      30.980  22.677  23.171  1.00  0.00     0.002 A 
ATOM     21  C   UNL A   1      30.950  23.960  23.686  1.00  0.00     0.022 A 
BRANCH  13  22
ATOM     22  N   UNL A   1      33.250  19.605  25.183  1.00  0.00    -0.377 N 
ATOM     23  C   UNL A   1      32.559  18.528  25.880  1.00  0.00     0.143 C 
ATOM     24  C   UNL A   1      34.505  19.278  24.514  1.00  0.00     0.143 C 
ENDBRANCH  13  22
ENDBRANCH   9  12
ENDBRANCH   7   9
ENDBRANCH   6   7
BRANCH   6  25
ATOM     25  C   UNL A   1      32.945  27.362  22.821  1.00  0.00     0.188 C 
BRANCH  25  26
ATOM     26  O   UNL A   1      33.651  27.489  21.585  1.00  0.00    -0.394 OA
ATOM     27  H   UNL A   1      34.386  26.854  21.566  1.00  0.00     0.210 HD
ENDBRANCH  25  26
ENDBRANCH   6  25
ENDBRANCH   4   6
ENDBRANCH   3   4
ENDBRANCH   2   3
ENDBRANCH   1   2
BRANCH   1  28
ATOM     28  O   UNL A   1      37.266  21.497  24.242  1.00  0.00    -0.374 OA
BRANCH  28  29
ATOM     29  C   UNL A   1      37.480  20.424  25.160  1.00  0.00     0.202 C 
BRANCH  29  30
ATOM     30  C   UNL A   1      38.761  19.601  25.006  1.00  0.00     0.261 C 
BRANCH  30  31
ATOM     31  O   UNL A   1      39.483  19.524  26.252  1.00  0.00    -0.460 OA
BRANCH  31  32
ATOM     32  C   UNL A   1      40.764  19.966  26.179  1.00  0.00     0.338 C 
ATOM     33  O   UNL A   1      41.688  19.437  25.586  1.00  0.00    -0.246 OA
BRANCH  32  34
ATOM     34  C   UNL A   1      40.867  21.315  26.763  1.00  0.00     0.060 A 
ATOM     35  C   UNL A   1      40.248  22.368  26.080  1.00  0.00     0.016 A 
ATOM     36  C   UNL A   1      41.661  21.559  27.884  1.00  0.00     0.016 A 
ATOM     37  C   UNL A   1      40.466  23.684  26.485  1.00  0.00     0.010 A 
ATOM     38  C   UNL A   1      41.890  22.881  28.280  1.00  0.00     0.010 A 
ATOM     39  C   UNL A   1      41.327  23.949  27.558  1.00  0.00    -0.014 A 
BRANCH  39  40
ATOM     40  C   UNL A   1      41.776  25.342  27.800  1.00  0.00     0.031 A 
ATOM     41  C   UNL A   1      43.155  25.745  27.347  1.00  0.00     0.074 A 
ATOM     42  C   UNL A   1      40.959  26.241  28.375  1.00  0.00     0.049 A 
ATOM     43  N   UNL A   1      43.770  26.891  27.477  1.00  0.00    -0.248 NA
ATOM     44  C   UNL A   1      43.941  24.712  26.656  1.00  0.00     0.031 C 
ATOM     45  C   UNL A   1      39.587  25.978  28.806  1.00  0.00     0.029 A 
ATOM     46  N   UNL A   1      41.170  27.557  28.700  1.00  0.00    -0.354 N 
ATOM     47  C   UNL A   1      45.017  26.720  26.882  1.00  0.00     0.074 A 
ATOM     48  C   UNL A   1      45.080  25.348  26.426  1.00  0.00     0.031 C 
ATOM     49  C   UNL A   1      39.083  27.098  29.356  1.00  0.00     0.029 A 
ATOM     50  C   UNL A   1      40.106  28.142  29.345  1.00  0.00     0.049 A 
ATOM     51  H   UNL A   1      42.005  28.037  28.492  1.00  0.00     0.167 HD
ATOM     52  C   UNL A   1      46.014  27.627  26.726  1.00  0.00     0.034 A 
ATOM     53  C   UNL A   1      39.984  29.371  29.887  1.00  0.00     0.034 A 
ATOM     54  C   UNL A   1      45.944  28.986  27.204  1.00  0.00     0.049 A 
ATOM     55  C   UNL A   1      41.141  30.335  29.784  1.00  0.00     0.074 A 
ATOM     56  C   UNL A   1      46.890  29.990  27.095  1.00  0.00     0.029 A 
ATOM     57  N   UNL A   1      44.868  29.529  27.896  1.00  0.00    -0.354 N 
ATOM     58  N   UNL A   1      42.314  30.163  29.216  1.00  0.00    -0.248 NA
ATOM     59  C   UNL A   1      40.954  31.661  30.388  1.00  0.00     0.031 C 
ATOM     60  C   UNL A   1      46.415  31.117  27.776  1.00  0.00     0.029 A 
ATOM     61  C   UNL A   1      45.142  30.842  28.249  1.00  0.00     0.049 A 
ATOM     62  H   UNL A   1      44.033  29.051  28.105  1.00  0.00     0.167 HD
ATOM     63  C   UNL A   1      42.992  31.369  29.374  1.00  0.00     0.074 A 
ATOM     64  C   UNL A   1      42.095  32.261  30.079  1.00  0.00     0.031 C 
ATOM     65  C   UNL A   1      44.241  31.712  28.966  1.00  0.00     0.034 A 
BRANCH  52  66
ATOM     66  C   UNL A   1      47.280  27.150  26.058  1.00  0.00     0.023 A 
ATOM     67  C   UNL A   1      48.251  26.410  26.756  1.00  0.00     0.031 A 
ATOM     68  C   UNL A   1      47.537  27.475  24.715  1.00  0.00     0.131 A 
ATOM     69  C   UNL A   1      49.462  26.081  26.129  1.00  0.00     0.055 A 
ATOM     70  C   UNL A   1      48.714  27.080  24.075  1.00  0.00     0.041 A 
ATOM     71  F   UNL A   1      46.657  28.199  24.006  1.00  0.00    -0.206 F 
ATOM     72  C   UNL A   1      49.690  26.391  24.786  1.00  0.00     0.022 A 
BRANCH  69  73
ATOM     73  S   UNL A   1      50.793  25.363  27.132  1.00  0.00     0.124 S 
ATOM     74  O   UNL A   1      51.688  24.839  26.104  1.00  0.00    -0.237 OA
ATOM     75  O   UNL A   1      51.282  26.517  27.878  1.00  0.00    -0.237 OA
ATOM     76  O   UNL A   1      50.111  24.347  27.931  1.00  0.00    -0.744 OA
ENDBRANCH  69  73
ENDBRANCH  52  66
BRANCH  53  77
ATOM     77  C   UNL A   1      38.743  29.750  30.619  1.00  0.00     0.023 A 
ATOM     78  C   UNL A   1      37.765  30.561  30.026  1.00  0.00     0.031 A 
ATOM     79  C   UNL A   1      38.546  29.342  31.951  1.00  0.00     0.131 A 
ATOM     80  C   UNL A   1      36.651  30.973  30.775  1.00  0.00     0.055 A 
ATOM     81  C   UNL A   1      37.414  29.715  32.677  1.00  0.00     0.041 A 
ATOM     82  F   UNL A   1      39.453  28.564  32.565  1.00  0.00    -0.206 F 
ATOM     83  C   UNL A   1      36.464  30.546  32.092  1.00  0.00     0.022 A 
BRANCH  80  84
ATOM     84  S   UNL A   1      35.484  32.142  30.025  1.00  0.00     0.124 S 
ATOM     85  O   UNL A   1      34.507  32.313  31.094  1.00  0.00    -0.237 OA
ATOM     86  O   UNL A   1      36.342  33.290  29.749  1.00  0.00    -0.237 OA
ATOM     87  O   UNL A   1      35.001  31.430  28.844  1.00  0.00    -0.744 OA
ENDBRANCH  80  84
ENDBRANCH  53  77
BRANCH  65  88
ATOM     88  C   UNL A   1      44.685  33.127  29.239  1.00  0.00     0.023 A 
ATOM     89  C   UNL A   1      44.551  34.143  28.277  1.00  0.00     0.031 A 
ATOM     90  C   UNL A   1      45.256  33.460  30.480  1.00  0.00     0.131 A 
ATOM     91  C   UNL A   1      45.026  35.434  28.555  1.00  0.00     0.055 A 
ATOM     92  C   UNL A   1      45.680  34.757  30.769  1.00  0.00     0.041 A 
ATOM     93  F   UNL A   1      45.408  32.527  31.434  1.00  0.00    -0.206 F 
ATOM     94  C   UNL A   1      45.576  35.751  29.799  1.00  0.00     0.022 A 
BRANCH  91  95
ATOM     95  S   UNL A   1      44.984  36.681  27.238  1.00  0.00     0.124 S 
ATOM     96  O   UNL A   1      45.791  36.051  26.197  1.00  0.00    -0.237 OA
ATOM     97  O   UNL A   1      43.556  36.793  26.958  1.00  0.00    -0.237 OA
ATOM     98  O   UNL A   1      45.587  37.858  27.861  1.00  0.00    -0.744 OA
ENDBRANCH  91  95
ENDBRANCH  65  88
ENDBRANCH  39  40
ENDBRANCH  32  34
ENDBRANCH  31  32
ENDBRANCH  30  31
ENDBRANCH  29  30
ENDBRANCH  28  29
ENDBRANCH   1  28
TORSDOF 23
ENDMDL
