MODEL 1
REMARK VINA RESULT:     -10.7      0.000      0.000
REMARK SMILES CCCc1cc(OCC(=O)OCCOCCOC(=O)c2ccc(-c3c4nc(c(-c5cc(S(=O)(=O)[O-])ccc5F)c5ccc([nH]5)c(-c5cc(S(=O)(=O)[O-])ccc5F)c5nc(c(-c6cc(S(=O)(=O)[O-])ccc6F)c6ccc3[nH]6)C=C5)C=C4)cc2)nc(Nc2ccc(C#N)cc2)n1
REMARK SMILES IDX 13 1 12 2 11 3 9 4 10 5 8 6 7 7 6 8 4 9 5 10 94 11 84 12
REMARK SMILES IDX 83 13 3 14 2 15 1 16 85 17 86 19 87 20 93 21 88 22 92 23
REMARK SMILES IDX 89 24 90 25 91 26 14 27 15 28 16 29 17 30 18 31 19 32 20 33
REMARK SMILES IDX 21 34 82 35 22 36 81 37 23 38 24 39 25 40 75 41 26 42 80 43
REMARK SMILES IDX 74 44 76 45 27 46 79 47 73 48 72 49 28 51 60 52 40 53 59 54
REMARK SMILES IDX 41 55 44 56 58 57 77 58 42 59 43 60 57 62 78 63 45 64 29 65
REMARK SMILES IDX 30 66 38 67 31 68 37 69 39 70 36 71 32 72 33 73 34 74 35 75
REMARK SMILES IDX 61 76 62 77 70 78 63 79 69 80 71 81 68 82 64 83 65 84 66 85
REMARK SMILES IDX 67 86 46 87 47 88 55 89 48 90 54 91 56 92 53 93 49 94 50 95
REMARK SMILES IDX 51 96 52 97
REMARK H PARENT 85 18 76 50 44 61
REMARK Flexibility Score: inf
ROOT
ATOM      1  C   UNL A   1      31.703  26.998  26.250  1.00  0.00     0.202 C 
ENDROOT
BRANCH   1   2
ATOM      2  C   UNL A   1      30.674  25.859  26.310  1.00  0.00     0.261 C 
BRANCH   2   3
ATOM      3  O   UNL A   1      31.122  24.694  27.042  1.00  0.00    -0.461 OA
BRANCH   3   4
ATOM      4  C   UNL A   1      30.403  23.556  26.842  1.00  0.00     0.344 C 
ATOM      5  O   UNL A   1      29.566  23.110  27.621  1.00  0.00    -0.248 OA
BRANCH   4   6
ATOM      6  C   UNL A   1      30.725  22.838  25.524  1.00  0.00     0.353 C 
BRANCH   6   7
ATOM      7  O   UNL A   1      31.992  22.271  25.269  1.00  0.00    -0.466 OA
BRANCH   7   8
ATOM      8  C   UNL A   1      32.969  22.961  24.611  1.00  0.00     0.218 A 
ATOM      9  C   UNL A   1      35.099  23.310  23.693  1.00  0.00     0.050 A 
ATOM     10  C   UNL A   1      34.325  22.703  24.669  1.00  0.00     0.092 A 
ATOM     11  N   UNL A   1      34.571  24.188  22.830  1.00  0.00    -0.218 NA
ATOM     12  C   UNL A   1      33.265  24.461  22.892  1.00  0.00     0.230 A 
ATOM     13  N   UNL A   1      32.445  23.874  23.768  1.00  0.00    -0.177 NA
BRANCH   9  14
ATOM     14  C   UNL A   1      36.517  22.858  23.412  1.00  0.00     0.056 C 
BRANCH  14  15
ATOM     15  C   UNL A   1      37.292  22.306  24.628  1.00  0.00     0.003 C 
ATOM     16  C   UNL A   1      37.476  23.320  25.750  1.00  0.00     0.004 C 
ENDBRANCH  14  15
ENDBRANCH   9  14
BRANCH  12  17
ATOM     17  N   UNL A   1      32.736  25.392  22.005  1.00  0.00    -0.324 N 
ATOM     18  H   UNL A   1      32.866  25.204  21.048  1.00  0.00     0.170 HD
BRANCH  17  19
ATOM     19  C   UNL A   1      32.042  26.563  22.318  1.00  0.00     0.041 A 
ATOM     20  C   UNL A   1      30.653  26.531  22.476  1.00  0.00     0.027 A 
ATOM     21  C   UNL A   1      32.710  27.782  22.511  1.00  0.00     0.027 A 
ATOM     22  C   UNL A   1      29.951  27.680  22.862  1.00  0.00     0.021 A 
ATOM     23  C   UNL A   1      32.009  28.940  22.869  1.00  0.00     0.021 A 
ATOM     24  C   UNL A   1      30.627  28.888  23.060  1.00  0.00     0.052 A 
BRANCH  24  25
ATOM     25  C   UNL A   1      29.903  30.051  23.479  1.00  0.00     0.099 C 
ATOM     26  N   UNL A   1      29.329  31.015  23.788  1.00  0.00    -0.192 NA
ENDBRANCH  24  25
ENDBRANCH  17  19
ENDBRANCH  12  17
ENDBRANCH   7   8
ENDBRANCH   6   7
ENDBRANCH   4   6
ENDBRANCH   3   4
ENDBRANCH   2   3
ENDBRANCH   1   2
BRANCH   1  27
ATOM     27  O   UNL A   1      32.043  27.665  27.461  1.00  0.00    -0.374 OA
BRANCH  27  28
ATOM     28  C   UNL A   1      31.575  28.993  27.637  1.00  0.00     0.202 C 
BRANCH  28  29
ATOM     29  C   UNL A   1      31.828  30.028  26.538  1.00  0.00     0.261 C 
BRANCH  29  30
ATOM     30  O   UNL A   1      33.185  30.399  26.378  1.00  0.00    -0.460 OA
BRANCH  30  31
ATOM     31  C   UNL A   1      33.543  31.416  27.189  1.00  0.00     0.338 C 
ATOM     32  O   UNL A   1      32.878  32.373  27.537  1.00  0.00    -0.246 OA
BRANCH  31  33
ATOM     33  C   UNL A   1      34.849  31.084  27.746  1.00  0.00     0.060 A 
ATOM     34  C   UNL A   1      35.136  29.728  27.903  1.00  0.00     0.016 A 
ATOM     35  C   UNL A   1      35.737  32.087  28.136  1.00  0.00     0.016 A 
ATOM     36  C   UNL A   1      36.309  29.363  28.535  1.00  0.00     0.010 A 
ATOM     37  C   UNL A   1      36.917  31.717  28.766  1.00  0.00     0.010 A 
ATOM     38  C   UNL A   1      37.177  30.357  29.008  1.00  0.00    -0.014 A 
BRANCH  38  39
ATOM     39  C   UNL A   1      38.277  29.959  29.899  1.00  0.00     0.031 A 
ATOM     40  C   UNL A   1      39.316  29.013  29.377  1.00  0.00     0.074 A 
ATOM     41  C   UNL A   1      38.366  30.506  31.121  1.00  0.00     0.049 A 
ATOM     42  N   UNL A   1      40.375  28.536  29.974  1.00  0.00    -0.248 NA
ATOM     43  C   UNL A   1      39.131  28.535  27.998  1.00  0.00     0.031 C 
ATOM     44  C   UNL A   1      37.425  31.481  31.675  1.00  0.00     0.029 A 
ATOM     45  N   UNL A   1      39.298  30.336  32.105  1.00  0.00    -0.354 N 
ATOM     46  C   UNL A   1      40.983  27.701  29.044  1.00  0.00     0.074 A 
ATOM     47  C   UNL A   1      40.140  27.689  27.870  1.00  0.00     0.031 C 
ATOM     48  C   UNL A   1      37.845  31.841  32.897  1.00  0.00     0.029 A 
ATOM     49  C   UNL A   1      39.048  31.082  33.228  1.00  0.00     0.049 A 
ATOM     50  H   UNL A   1      40.074  29.736  32.016  1.00  0.00     0.167 HD
ATOM     51  C   UNL A   1      42.151  27.024  29.164  1.00  0.00     0.034 A 
ATOM     52  C   UNL A   1      39.713  31.128  34.396  1.00  0.00     0.034 A 
ATOM     53  C   UNL A   1      42.952  27.045  30.362  1.00  0.00     0.049 A 
ATOM     54  C   UNL A   1      40.944  30.270  34.548  1.00  0.00     0.074 A 
ATOM     55  C   UNL A   1      44.147  26.397  30.615  1.00  0.00     0.029 A 
ATOM     56  N   UNL A   1      42.626  27.745  31.520  1.00  0.00    -0.354 N 
ATOM     57  N   UNL A   1      41.514  29.477  33.668  1.00  0.00    -0.248 NA
ATOM     58  C   UNL A   1      41.621  30.319  35.848  1.00  0.00     0.031 C 
ATOM     59  C   UNL A   1      44.493  26.629  31.950  1.00  0.00     0.029 A 
ATOM     60  C   UNL A   1      43.573  27.507  32.503  1.00  0.00     0.049 A 
ATOM     61  H   UNL A   1      41.836  28.323  31.626  1.00  0.00     0.167 HD
ATOM     62  C   UNL A   1      42.642  28.961  34.299  1.00  0.00     0.074 A 
ATOM     63  C   UNL A   1      42.673  29.546  35.626  1.00  0.00     0.031 C 
ATOM     64  C   UNL A   1      43.573  28.092  33.825  1.00  0.00     0.034 A 
BRANCH  51  65
ATOM     65  C   UNL A   1      42.576  26.169  27.992  1.00  0.00     0.023 A 
ATOM     66  C   UNL A   1      42.046  24.883  27.785  1.00  0.00     0.031 A 
ATOM     67  C   UNL A   1      43.573  26.617  27.108  1.00  0.00     0.131 A 
ATOM     68  C   UNL A   1      42.586  24.055  26.788  1.00  0.00     0.055 A 
ATOM     69  C   UNL A   1      44.033  25.825  26.053  1.00  0.00     0.041 A 
ATOM     70  F   UNL A   1      44.140  27.823  27.269  1.00  0.00    -0.206 F 
ATOM     71  C   UNL A   1      43.554  24.528  25.901  1.00  0.00     0.022 A 
BRANCH  68  72
ATOM     72  S   UNL A   1      42.144  22.295  26.798  1.00  0.00     0.124 S 
ATOM     73  O   UNL A   1      42.792  21.825  25.575  1.00  0.00    -0.237 OA
ATOM     74  O   UNL A   1      42.730  21.829  28.050  1.00  0.00    -0.237 OA
ATOM     75  O   UNL A   1      40.684  22.307  26.756  1.00  0.00    -0.744 OA
ENDBRANCH  68  72
ENDBRANCH  51  65
BRANCH  52  76
ATOM     76  C   UNL A   1      39.231  31.997  35.502  1.00  0.00     0.023 A 
ATOM     77  C   UNL A   1      39.685  33.319  35.623  1.00  0.00     0.031 A 
ATOM     78  C   UNL A   1      38.333  31.516  36.472  1.00  0.00     0.131 A 
ATOM     79  C   UNL A   1      39.279  34.098  36.716  1.00  0.00     0.055 A 
ATOM     80  C   UNL A   1      37.883  32.315  37.523  1.00  0.00     0.041 A 
ATOM     81  F   UNL A   1      37.868  30.258  36.403  1.00  0.00    -0.206 F 
ATOM     82  C   UNL A   1      38.368  33.613  37.657  1.00  0.00     0.022 A 
BRANCH  79  83
ATOM     83  S   UNL A   1      40.044  35.725  36.944  1.00  0.00     0.124 S 
ATOM     84  O   UNL A   1      39.404  36.182  38.173  1.00  0.00    -0.237 OA
ATOM     85  O   UNL A   1      41.459  35.383  37.046  1.00  0.00    -0.237 OA
ATOM     86  O   UNL A   1      39.665  36.450  35.734  1.00  0.00    -0.744 OA
ENDBRANCH  79  83
ENDBRANCH  52  76
BRANCH  64  87
ATOM     87  C   UNL A   1      44.729  27.764  34.740  1.00  0.00     0.023 A 
ATOM     88  C   UNL A   1      44.688  26.673  35.625  1.00  0.00     0.031 A 
ATOM     89  C   UNL A   1      45.885  28.566  34.732  1.00  0.00     0.131 A 
ATOM     90  C   UNL A   1      45.753  26.455  36.512  1.00  0.00     0.055 A 
ATOM     91  C   UNL A   1      46.975  28.294  35.559  1.00  0.00     0.041 A 
ATOM     92  F   UNL A   1      45.976  29.627  33.913  1.00  0.00    -0.206 F 
ATOM     93  C   UNL A   1      46.906  27.242  36.466  1.00  0.00     0.022 A 
BRANCH  90  94
ATOM     94  S   UNL A   1      45.558  25.203  37.808  1.00  0.00     0.124 S 
ATOM     95  O   UNL A   1      44.406  25.712  38.547  1.00  0.00    -0.237 OA
ATOM     96  O   UNL A   1      45.333  23.985  37.038  1.00  0.00    -0.237 OA
ATOM     97  O   UNL A   1      46.828  25.254  38.528  1.00  0.00    -0.744 OA
ENDBRANCH  90  94
ENDBRANCH  64  87
ENDBRANCH  38  39
ENDBRANCH  31  33
ENDBRANCH  30  31
ENDBRANCH  29  30
ENDBRANCH  28  29
ENDBRANCH  27  28
ENDBRANCH   1  27
TORSDOF 24
ENDMDL
MODEL 2
REMARK VINA RESULT:      -9.8      0.768      7.614
REMARK SMILES CCCc1cc(OCC(=O)OCCOCCOC(=O)c2ccc(-c3c4nc(c(-c5cc(S(=O)(=O)[O-])ccc5F)c5ccc([nH]5)c(-c5cc(S(=O)(=O)[O-])ccc5F)c5nc(c(-c6cc(S(=O)(=O)[O-])ccc6F)c6ccc3[nH]6)C=C5)C=C4)cc2)nc(Nc2ccc(C#N)cc2)n1
REMARK SMILES IDX 13 1 12 2 11 3 9 4 10 5 8 6 7 7 6 8 4 9 5 10 94 11 84 12
REMARK SMILES IDX 83 13 3 14 2 15 1 16 85 17 86 19 87 20 93 21 88 22 92 23
REMARK SMILES IDX 89 24 90 25 91 26 14 27 15 28 16 29 17 30 18 31 19 32 20 33
REMARK SMILES IDX 21 34 82 35 22 36 81 37 23 38 24 39 25 40 75 41 26 42 80 43
REMARK SMILES IDX 74 44 76 45 27 46 79 47 73 48 72 49 28 51 60 52 40 53 59 54
REMARK SMILES IDX 41 55 44 56 58 57 77 58 42 59 43 60 57 62 78 63 45 64 29 65
REMARK SMILES IDX 30 66 38 67 31 68 37 69 39 70 36 71 32 72 33 73 34 74 35 75
REMARK SMILES IDX 61 76 62 77 70 78 63 79 69 80 71 81 68 82 64 83 65 84 66 85
REMARK SMILES IDX 67 86 46 87 47 88 55 89 48 90 54 91 56 92 53 93 49 94 50 95
REMARK SMILES IDX 51 96 52 97
REMARK H PARENT 85 18 76 50 44 61
REMARK Flexibility Score: inf
ROOT
ATOM      1  C   UNL A   1      31.614  27.288  26.364  1.00  0.00     0.202 C 
ENDROOT
BRANCH   1   2
ATOM      2  C   UNL A   1      30.790  25.992  26.356  1.00  0.00     0.261 C 
BRANCH   2   3
ATOM      3  O   UNL A   1      31.405  24.894  27.070  1.00  0.00    -0.461 OA
BRANCH   3   4
ATOM      4  C   UNL A   1      30.789  23.687  26.945  1.00  0.00     0.344 C 
ATOM      5  O   UNL A   1      29.615  23.466  27.231  1.00  0.00    -0.248 OA
BRANCH   4   6
ATOM      6  C   UNL A   1      31.698  22.575  26.403  1.00  0.00     0.353 C 
BRANCH   6   7
ATOM      7  O   UNL A   1      33.031  22.418  26.839  1.00  0.00    -0.466 OA
BRANCH   7   8
ATOM      8  C   UNL A   1      34.076  22.996  26.178  1.00  0.00     0.218 A 
ATOM      9  C   UNL A   1      36.324  23.321  25.593  1.00  0.00     0.050 A 
ATOM     10  C   UNL A   1      35.404  22.944  26.557  1.00  0.00     0.092 A 
ATOM     11  N   UNL A   1      35.932  23.820  24.413  1.00  0.00    -0.218 NA
ATOM     12  C   UNL A   1      34.627  23.929  24.150  1.00  0.00     0.230 A 
ATOM     13  N   UNL A   1      33.682  23.535  25.007  1.00  0.00    -0.177 NA
BRANCH   9  14
ATOM     14  C   UNL A   1      37.796  22.992  25.729  1.00  0.00     0.056 C 
BRANCH  14  15
ATOM     15  C   UNL A   1      38.208  21.579  25.263  1.00  0.00     0.003 C 
ATOM     16  C   UNL A   1      37.028  20.666  24.959  1.00  0.00     0.004 C 
ENDBRANCH  14  15
ENDBRANCH   9  14
BRANCH  12  17
ATOM     17  N   UNL A   1      34.236  24.471  22.930  1.00  0.00    -0.324 N 
ATOM     18  H   UNL A   1      34.577  24.021  22.124  1.00  0.00     0.170 HD
BRANCH  17  19
ATOM     19  C   UNL A   1      33.415  25.582  22.720  1.00  0.00     0.041 A 
ATOM     20  C   UNL A   1      32.344  25.500  21.825  1.00  0.00     0.027 A 
ATOM     21  C   UNL A   1      33.618  26.786  23.412  1.00  0.00     0.027 A 
ATOM     22  C   UNL A   1      31.468  26.579  21.658  1.00  0.00     0.021 A 
ATOM     23  C   UNL A   1      32.762  27.878  23.227  1.00  0.00     0.021 A 
ATOM     24  C   UNL A   1      31.674  27.771  22.359  1.00  0.00     0.052 A 
BRANCH  24  25
ATOM     25  C   UNL A   1      30.758  28.862  22.199  1.00  0.00     0.099 C 
ATOM     26  N   UNL A   1      30.000  29.729  22.038  1.00  0.00    -0.192 NA
ENDBRANCH  24  25
ENDBRANCH  17  19
ENDBRANCH  12  17
ENDBRANCH   7   8
ENDBRANCH   6   7
ENDBRANCH   4   6
ENDBRANCH   3   4
ENDBRANCH   2   3
ENDBRANCH   1   2
BRANCH   1  27
ATOM     27  O   UNL A   1      31.724  28.011  27.585  1.00  0.00    -0.374 OA
BRANCH  27  28
ATOM     28  C   UNL A   1      31.373  29.386  27.571  1.00  0.00     0.202 C 
BRANCH  28  29
ATOM     29  C   UNL A   1      31.992  30.306  26.516  1.00  0.00     0.261 C 
BRANCH  29  30
ATOM     30  O   UNL A   1      33.404  30.399  26.569  1.00  0.00    -0.460 OA
BRANCH  30  31
ATOM     31  C   UNL A   1      33.827  31.423  27.341  1.00  0.00     0.338 C 
ATOM     32  O   UNL A   1      33.198  32.395  27.713  1.00  0.00    -0.246 OA
BRANCH  31  33
ATOM     33  C   UNL A   1      35.159  31.079  27.822  1.00  0.00     0.060 A 
ATOM     34  C   UNL A   1      35.436  29.720  27.980  1.00  0.00     0.016 A 
ATOM     35  C   UNL A   1      36.083  32.073  28.146  1.00  0.00     0.016 A 
ATOM     36  C   UNL A   1      36.639  29.346  28.545  1.00  0.00     0.010 A 
ATOM     37  C   UNL A   1      37.293  31.693  28.708  1.00  0.00     0.010 A 
ATOM     38  C   UNL A   1      37.548  30.333  28.952  1.00  0.00    -0.014 A 
BRANCH  38  39
ATOM     39  C   UNL A   1      38.695  29.929  29.780  1.00  0.00     0.031 A 
ATOM     40  C   UNL A   1      38.809  30.487  31.167  1.00  0.00     0.074 A 
ATOM     41  C   UNL A   1      39.561  29.020  29.307  1.00  0.00     0.049 A 
ATOM     42  N   UNL A   1      39.720  30.264  32.075  1.00  0.00    -0.248 NA
ATOM     43  C   UNL A   1      37.758  31.428  31.581  1.00  0.00     0.031 C 
ATOM     44  C   UNL A   1      39.479  28.388  27.989  1.00  0.00     0.029 A 
ATOM     45  N   UNL A   1      40.664  28.460  29.885  1.00  0.00    -0.354 N 
ATOM     46  C   UNL A   1      39.354  31.038  33.169  1.00  0.00     0.074 A 
ATOM     47  C   UNL A   1      38.174  31.782  32.786  1.00  0.00     0.031 C 
ATOM     48  C   UNL A   1      40.482  27.504  27.871  1.00  0.00     0.029 A 
ATOM     49  C   UNL A   1      41.301  27.551  29.078  1.00  0.00     0.049 A 
ATOM     50  H   UNL A   1      40.972  28.685  30.793  1.00  0.00     0.167 HD
ATOM     51  C   UNL A   1      39.945  31.101  34.387  1.00  0.00     0.034 A 
ATOM     52  C   UNL A   1      42.431  26.854  29.293  1.00  0.00     0.034 A 
ATOM     53  C   UNL A   1      41.135  30.360  34.721  1.00  0.00     0.049 A 
ATOM     54  C   UNL A   1      43.139  27.035  30.612  1.00  0.00     0.074 A 
ATOM     55  C   UNL A   1      41.837  30.342  35.913  1.00  0.00     0.029 A 
ATOM     56  N   UNL A   1      41.810  29.511  33.849  1.00  0.00    -0.354 N 
ATOM     57  N   UNL A   1      42.792  27.771  31.644  1.00  0.00    -0.248 NA
ATOM     58  C   UNL A   1      44.386  26.286  30.795  1.00  0.00     0.031 C 
ATOM     59  C   UNL A   1      42.982  29.560  35.731  1.00  0.00     0.029 A 
ATOM     60  C   UNL A   1      42.944  29.001  34.462  1.00  0.00     0.049 A 
ATOM     61  H   UNL A   1      41.525  29.303  32.930  1.00  0.00     0.167 HD
ATOM     62  C   UNL A   1      43.762  27.543  32.615  1.00  0.00     0.074 A 
ATOM     63  C   UNL A   1      44.696  26.591  32.046  1.00  0.00     0.031 C 
ATOM     64  C   UNL A   1      43.869  28.063  33.866  1.00  0.00     0.034 A 
BRANCH  51  65
ATOM     65  C   UNL A   1      39.341  32.046  35.399  1.00  0.00     0.023 A 
ATOM     66  C   UNL A   1      39.753  33.388  35.497  1.00  0.00     0.031 A 
ATOM     67  C   UNL A   1      38.389  31.586  36.325  1.00  0.00     0.131 A 
ATOM     68  C   UNL A   1      39.294  34.187  36.555  1.00  0.00     0.055 A 
ATOM     69  C   UNL A   1      37.858  32.418  37.314  1.00  0.00     0.041 A 
ATOM     70  F   UNL A   1      37.976  30.308  36.305  1.00  0.00    -0.206 F 
ATOM     71  C   UNL A   1      38.326  33.721  37.446  1.00  0.00     0.022 A 
BRANCH  68  72
ATOM     72  S   UNL A   1      40.126  35.770  36.862  1.00  0.00     0.124 S 
ATOM     73  O   UNL A   1      41.530  35.366  36.869  1.00  0.00    -0.237 OA
ATOM     74  O   UNL A   1      39.698  36.578  35.726  1.00  0.00    -0.237 OA
ATOM     75  O   UNL A   1      39.600  36.188  38.160  1.00  0.00    -0.744 OA
ENDBRANCH  68  72
ENDBRANCH  51  65
BRANCH  52  76
ATOM     76  C   UNL A   1      42.961  25.941  28.245  1.00  0.00     0.023 A 
ATOM     77  C   UNL A   1      42.355  24.700  28.006  1.00  0.00     0.031 A 
ATOM     78  C   UNL A   1      44.097  26.280  27.488  1.00  0.00     0.131 A 
ATOM     79  C   UNL A   1      42.916  23.820  27.069  1.00  0.00     0.055 A 
ATOM     80  C   UNL A   1      44.613  25.428  26.511  1.00  0.00     0.041 A 
ATOM     81  F   UNL A   1      44.715  27.457  27.678  1.00  0.00    -0.206 F 
ATOM     82  C   UNL A   1      44.029  24.181  26.307  1.00  0.00     0.022 A 
BRANCH  79  83
ATOM     83  S   UNL A   1      42.224  22.150  26.935  1.00  0.00     0.124 S 
ATOM     84  O   UNL A   1      42.982  21.434  27.955  1.00  0.00    -0.237 OA
ATOM     85  O   UNL A   1      40.813  22.382  27.228  1.00  0.00    -0.237 OA
ATOM     86  O   UNL A   1      42.518  21.771  25.555  1.00  0.00    -0.744 OA
ENDBRANCH  79  83
ENDBRANCH  52  76
BRANCH  64  87
ATOM     87  C   UNL A   1      45.015  27.569  34.715  1.00  0.00     0.023 A 
ATOM     88  C   UNL A   1      44.862  26.510  35.627  1.00  0.00     0.031 A 
ATOM     89  C   UNL A   1      46.280  28.178  34.616  1.00  0.00     0.131 A 
ATOM     90  C   UNL A   1      45.933  26.138  36.450  1.00  0.00     0.055 A 
ATOM     91  C   UNL A   1      47.365  27.748  35.380  1.00  0.00     0.041 A 
ATOM     92  F   UNL A   1      46.484  29.200  33.769  1.00  0.00    -0.206 F 
ATOM     93  C   UNL A   1      47.191  26.732  36.315  1.00  0.00     0.022 A 
BRANCH  90  94
ATOM     94  S   UNL A   1      45.629  24.951  37.785  1.00  0.00     0.124 S 
ATOM     95  O   UNL A   1      44.750  25.711  38.670  1.00  0.00    -0.237 OA
ATOM     96  O   UNL A   1      45.010  23.835  37.078  1.00  0.00    -0.237 OA
ATOM     97  O   UNL A   1      46.963  24.683  38.317  1.00  0.00    -0.744 OA
ENDBRANCH  90  94
ENDBRANCH  64  87
ENDBRANCH  38  39
ENDBRANCH  31  33
ENDBRANCH  30  31
ENDBRANCH  29  30
ENDBRANCH  28  29
ENDBRANCH  27  28
ENDBRANCH   1  27
TORSDOF 24
ENDMDL
MODEL 3
REMARK VINA RESULT:      -9.6      2.623      7.931
REMARK SMILES CCCc1cc(OCC(=O)OCCOCCOC(=O)c2ccc(-c3c4nc(c(-c5cc(S(=O)(=O)[O-])ccc5F)c5ccc([nH]5)c(-c5cc(S(=O)(=O)[O-])ccc5F)c5nc(c(-c6cc(S(=O)(=O)[O-])ccc6F)c6ccc3[nH]6)C=C5)C=C4)cc2)nc(Nc2ccc(C#N)cc2)n1
REMARK SMILES IDX 13 1 12 2 11 3 9 4 10 5 8 6 7 7 6 8 4 9 5 10 94 11 84 12
REMARK SMILES IDX 83 13 3 14 2 15 1 16 85 17 86 19 87 20 93 21 88 22 92 23
REMARK SMILES IDX 89 24 90 25 91 26 14 27 15 28 16 29 17 30 18 31 19 32 20 33
REMARK SMILES IDX 21 34 82 35 22 36 81 37 23 38 24 39 25 40 75 41 26 42 80 43
REMARK SMILES IDX 74 44 76 45 27 46 79 47 73 48 72 49 28 51 60 52 40 53 59 54
REMARK SMILES IDX 41 55 44 56 58 57 77 58 42 59 43 60 57 62 78 63 45 64 29 65
REMARK SMILES IDX 30 66 38 67 31 68 37 69 39 70 36 71 32 72 33 73 34 74 35 75
REMARK SMILES IDX 61 76 62 77 70 78 63 79 69 80 71 81 68 82 64 83 65 84 66 85
REMARK SMILES IDX 67 86 46 87 47 88 55 89 48 90 54 91 56 92 53 93 49 94 50 95
REMARK SMILES IDX 51 96 52 97
REMARK H PARENT 85 18 76 50 44 61
REMARK Flexibility Score: inf
ROOT
ATOM      1  C   UNL A   1      32.062  27.523  26.293  1.00  0.00     0.202 C 
ENDROOT
BRANCH   1   2
ATOM      2  C   UNL A   1      31.121  26.354  25.971  1.00  0.00     0.261 C 
BRANCH   2   3
ATOM      3  O   UNL A   1      31.218  25.243  26.893  1.00  0.00    -0.461 OA
BRANCH   3   4
ATOM      4  C   UNL A   1      30.205  24.335  26.836  1.00  0.00     0.344 C 
ATOM      5  O   UNL A   1      29.010  24.614  26.891  1.00  0.00    -0.248 OA
BRANCH   4   6
ATOM      6  C   UNL A   1      30.677  22.882  26.694  1.00  0.00     0.353 C 
BRANCH   6   7
ATOM      7  O   UNL A   1      31.973  22.474  27.075  1.00  0.00    -0.466 OA
BRANCH   7   8
ATOM      8  C   UNL A   1      32.879  22.015  26.163  1.00  0.00     0.218 A 
ATOM      9  C   UNL A   1      34.047  20.396  24.931  1.00  0.00     0.050 A 
ATOM     10  C   UNL A   1      33.395  20.734  26.106  1.00  0.00     0.092 A 
ATOM     11  N   UNL A   1      34.265  21.302  23.969  1.00  0.00    -0.218 NA
ATOM     12  C   UNL A   1      33.818  22.551  24.133  1.00  0.00     0.230 A 
ATOM     13  N   UNL A   1      33.134  22.937  25.213  1.00  0.00    -0.177 NA
BRANCH   9  14
ATOM     14  C   UNL A   1      34.352  18.954  24.580  1.00  0.00     0.056 C 
BRANCH  14  15
ATOM     15  C   UNL A   1      33.292  18.243  23.713  1.00  0.00     0.003 C 
ATOM     16  C   UNL A   1      33.318  16.725  23.835  1.00  0.00     0.004 C 
ENDBRANCH  14  15
ENDBRANCH   9  14
BRANCH  12  17
ATOM     17  N   UNL A   1      34.074  23.486  23.136  1.00  0.00    -0.324 N 
ATOM     18  H   UNL A   1      34.812  23.276  22.521  1.00  0.00     0.170 HD
BRANCH  17  19
ATOM     19  C   UNL A   1      33.401  24.690  22.910  1.00  0.00     0.041 A 
ATOM     20  C   UNL A   1      32.096  24.677  22.409  1.00  0.00     0.027 A 
ATOM     21  C   UNL A   1      33.994  25.928  23.203  1.00  0.00     0.027 A 
ATOM     22  C   UNL A   1      31.382  25.870  22.246  1.00  0.00     0.021 A 
ATOM     23  C   UNL A   1      33.294  27.126  23.015  1.00  0.00     0.021 A 
ATOM     24  C   UNL A   1      31.978  27.098  22.549  1.00  0.00     0.052 A 
BRANCH  24  25
ATOM     25  C   UNL A   1      31.230  28.312  22.402  1.00  0.00     0.099 C 
ATOM     26  N   UNL A   1      30.608  29.290  22.316  1.00  0.00    -0.192 NA
ENDBRANCH  24  25
ENDBRANCH  17  19
ENDBRANCH  12  17
ENDBRANCH   7   8
ENDBRANCH   6   7
ENDBRANCH   4   6
ENDBRANCH   3   4
ENDBRANCH   2   3
ENDBRANCH   1   2
BRANCH   1  27
ATOM     27  O   UNL A   1      31.760  28.344  27.417  1.00  0.00    -0.374 OA
BRANCH  27  28
ATOM     28  C   UNL A   1      31.822  29.750  27.243  1.00  0.00     0.202 C 
BRANCH  28  29
ATOM     29  C   UNL A   1      32.945  30.351  26.394  1.00  0.00     0.261 C 
BRANCH  29  30
ATOM     30  O   UNL A   1      34.246  30.173  26.924  1.00  0.00    -0.460 OA
BRANCH  30  31
ATOM     31  C   UNL A   1      34.688  31.262  27.587  1.00  0.00     0.338 C 
ATOM     32  O   UNL A   1      34.172  32.361  27.661  1.00  0.00    -0.246 OA
BRANCH  31  33
ATOM     33  C   UNL A   1      35.840  30.848  28.378  1.00  0.00     0.060 A 
ATOM     34  C   UNL A   1      37.026  31.557  28.178  1.00  0.00     0.016 A 
ATOM     35  C   UNL A   1      35.756  29.765  29.254  1.00  0.00     0.016 A 
ATOM     36  C   UNL A   1      38.175  31.129  28.813  1.00  0.00     0.010 A 
ATOM     37  C   UNL A   1      36.911  29.341  29.895  1.00  0.00     0.010 A 
ATOM     38  C   UNL A   1      38.128  29.994  29.634  1.00  0.00    -0.014 A 
BRANCH  38  39
ATOM     39  C   UNL A   1      39.398  29.406  30.087  1.00  0.00     0.031 A 
ATOM     40  C   UNL A   1      40.026  29.932  31.342  1.00  0.00     0.074 A 
ATOM     41  C   UNL A   1      39.921  28.370  29.413  1.00  0.00     0.049 A 
ATOM     42  N   UNL A   1      41.128  29.561  31.934  1.00  0.00    -0.248 NA
ATOM     43  C   UNL A   1      39.316  31.030  32.016  1.00  0.00     0.031 C 
ATOM     44  C   UNL A   1      39.335  27.765  28.216  1.00  0.00     0.029 A 
ATOM     45  N   UNL A   1      41.048  27.636  29.648  1.00  0.00    -0.354 N 
ATOM     46  C   UNL A   1      41.246  30.380  33.051  1.00  0.00     0.074 A 
ATOM     47  C   UNL A   1      40.137  31.307  33.016  1.00  0.00     0.031 C 
ATOM     48  C   UNL A   1      40.100  26.730  27.836  1.00  0.00     0.029 A 
ATOM     49  C   UNL A   1      41.252  26.639  28.728  1.00  0.00     0.049 A 
ATOM     50  H   UNL A   1      41.655  27.804  30.405  1.00  0.00     0.167 HD
ATOM     51  C   UNL A   1      42.191  30.341  34.023  1.00  0.00     0.034 A 
ATOM     52  C   UNL A   1      42.269  25.766  28.616  1.00  0.00     0.034 A 
ATOM     53  C   UNL A   1      43.294  29.414  34.008  1.00  0.00     0.049 A 
ATOM     54  C   UNL A   1      43.372  25.824  29.642  1.00  0.00     0.074 A 
ATOM     55  C   UNL A   1      44.321  29.279  34.924  1.00  0.00     0.029 A 
ATOM     56  N   UNL A   1      43.522  28.471  33.011  1.00  0.00    -0.354 N 
ATOM     57  N   UNL A   1      43.484  26.603  30.695  1.00  0.00    -0.248 NA
ATOM     58  C   UNL A   1      44.482  24.882  29.466  1.00  0.00     0.031 C 
ATOM     59  C   UNL A   1      45.216  28.321  34.435  1.00  0.00     0.029 A 
ATOM     60  C   UNL A   1      44.697  27.781  33.268  1.00  0.00     0.049 A 
ATOM     61  H   UNL A   1      42.936  28.316  32.236  1.00  0.00     0.167 HD
ATOM     62  C   UNL A   1      44.661  26.216  31.329  1.00  0.00     0.074 A 
ATOM     63  C   UNL A   1      45.210  25.127  30.545  1.00  0.00     0.031 C 
ATOM     64  C   UNL A   1      45.232  26.708  32.460  1.00  0.00     0.034 A 
BRANCH  51  65
ATOM     65  C   UNL A   1      42.087  31.368  35.126  1.00  0.00     0.023 A 
ATOM     66  C   UNL A   1      41.016  31.368  36.038  1.00  0.00     0.031 A 
ATOM     67  C   UNL A   1      43.034  32.402  35.229  1.00  0.00     0.131 A 
ATOM     68  C   UNL A   1      40.863  32.432  36.939  1.00  0.00     0.055 A 
ATOM     69  C   UNL A   1      42.931  33.402  36.198  1.00  0.00     0.041 A 
ATOM     70  F   UNL A   1      44.063  32.475  34.371  1.00  0.00    -0.206 F 
ATOM     71  C   UNL A   1      41.830  33.434  37.047  1.00  0.00     0.022 A 
BRANCH  68  72
ATOM     72  S   UNL A   1      39.288  32.590  37.827  1.00  0.00     0.124 S 
ATOM     73  O   UNL A   1      39.730  32.533  39.219  1.00  0.00    -0.237 OA
ATOM     74  O   UNL A   1      38.794  33.883  37.366  1.00  0.00    -0.237 OA
ATOM     75  O   UNL A   1      38.522  31.431  37.376  1.00  0.00    -0.744 OA
ENDBRANCH  68  72
ENDBRANCH  51  65
BRANCH  52  76
ATOM     76  C   UNL A   1      42.297  24.784  27.500  1.00  0.00     0.023 A 
ATOM     77  C   UNL A   1      41.477  23.647  27.528  1.00  0.00     0.031 A 
ATOM     78  C   UNL A   1      43.162  24.948  26.403  1.00  0.00     0.131 A 
ATOM     79  C   UNL A   1      41.574  22.692  26.505  1.00  0.00     0.055 A 
ATOM     80  C   UNL A   1      43.209  24.027  25.356  1.00  0.00     0.041 A 
ATOM     81  F   UNL A   1      43.968  26.019  26.327  1.00  0.00    -0.206 F 
ATOM     82  C   UNL A   1      42.420  22.882  25.411  1.00  0.00     0.022 A 
BRANCH  79  83
ATOM     83  S   UNL A   1      40.647  21.144  26.682  1.00  0.00     0.124 S 
ATOM     84  O   UNL A   1      41.383  20.256  25.788  1.00  0.00    -0.237 OA
ATOM     85  O   UNL A   1      40.781  20.873  28.110  1.00  0.00    -0.237 OA
ATOM     86  O   UNL A   1      39.302  21.502  26.240  1.00  0.00    -0.744 OA
ENDBRANCH  79  83
ENDBRANCH  52  76
BRANCH  64  87
ATOM     87  C   UNL A   1      46.495  26.030  32.937  1.00  0.00     0.023 A 
ATOM     88  C   UNL A   1      47.756  26.355  32.409  1.00  0.00     0.031 A 
ATOM     89  C   UNL A   1      46.430  25.034  33.928  1.00  0.00     0.131 A 
ATOM     90  C   UNL A   1      48.890  25.644  32.825  1.00  0.00     0.055 A 
ATOM     91  C   UNL A   1      47.573  24.387  34.397  1.00  0.00     0.041 A 
ATOM     92  F   UNL A   1      45.251  24.675  34.462  1.00  0.00    -0.206 F 
ATOM     93  C   UNL A   1      48.811  24.680  33.834  1.00  0.00     0.022 A 
BRANCH  90  94
ATOM     94  S   UNL A   1      50.452  25.910  31.943  1.00  0.00     0.124 S 
ATOM     95  O   UNL A   1      51.424  25.357  32.881  1.00  0.00    -0.237 OA
ATOM     96  O   UNL A   1      50.251  25.153  30.713  1.00  0.00    -0.237 OA
ATOM     97  O   UNL A   1      50.508  27.361  31.775  1.00  0.00    -0.744 OA
ENDBRANCH  90  94
ENDBRANCH  64  87
ENDBRANCH  38  39
ENDBRANCH  31  33
ENDBRANCH  30  31
ENDBRANCH  29  30
ENDBRANCH  28  29
ENDBRANCH  27  28
ENDBRANCH   1  27
TORSDOF 24
ENDMDL
