MODEL 1
REMARK VINA RESULT:     -11.1      0.000      0.000
REMARK SMILES NS(=O)(=O)c1ccc(-n2nc(C(F)(F)F)cc2-c2ccc(C(=O)OCCOCCOC(=O)c3ccc(-c4c5nc(c(-c6cc(S(=O)(=O)[O-])ccc6F)c6ccc([nH]6)c(-c6cc(S(=O)(=O)[O-])ccc6F)c6nc(c(-c7cc(S(=O)(=O)[O-])ccc7F)c7ccc4[nH]7)C=C6)C=C5)cc3)cc2)cc1
REMARK SMILES IDX 26 1 25 2 24 3 22 4 23 5 21 6 18 7 19 8 97 9 20 10 96 11
REMARK SMILES IDX 17 12 9 13 10 14 11 15 16 16 8 17 5 18 6 19 99 20 7 21 98 22
REMARK SMILES IDX 2 23 3 24 4 25 1 26 12 29 13 30 14 31 15 32 27 33 28 34
REMARK SMILES IDX 29 35 30 36 31 37 32 38 33 39 34 40 95 41 35 42 94 43 36 44
REMARK SMILES IDX 37 45 38 46 88 47 39 48 93 49 87 50 89 51 40 52 92 53 86 54
REMARK SMILES IDX 85 55 41 57 73 58 53 59 72 60 54 61 57 62 71 63 90 64 55 65
REMARK SMILES IDX 56 66 70 68 91 69 58 70 42 71 43 72 51 73 44 74 50 75 52 76
REMARK SMILES IDX 49 77 45 78 46 79 47 80 48 81 74 82 75 83 83 84 76 85 82 86
REMARK SMILES IDX 84 87 81 88 77 89 78 90 79 91 80 92 59 93 60 94 68 95 61 96
REMARK SMILES IDX 67 97 69 98 66 99 62 100 63 101 64 102 65 103
REMARK H PARENT 1 27 1 28 89 56 57 67
REMARK Flexibility Score: inf
ROOT
ATOM      1  C   UNL A   1      41.083  28.475  34.540  1.00  0.00     0.202 C 
ENDROOT
BRANCH   1   2
ATOM      2  C   UNL A   1      41.085  29.658  35.507  1.00  0.00     0.261 C 
BRANCH   2   3
ATOM      3  O   UNL A   1      39.777  30.202  35.727  1.00  0.00    -0.460 OA
BRANCH   3   4
ATOM      4  C   UNL A   1      39.664  31.512  35.403  1.00  0.00     0.338 C 
ATOM      5  O   UNL A   1      40.301  32.443  35.869  1.00  0.00    -0.246 OA
BRANCH   4   6
ATOM      6  C   UNL A   1      38.749  31.685  34.257  1.00  0.00     0.060 A 
ATOM      7  C   UNL A   1      37.158  31.720  31.962  1.00  0.00     0.000 A 
ATOM      8  C   UNL A   1      36.984  30.715  32.921  1.00  0.00     0.011 A 
ATOM      9  C   UNL A   1      38.085  32.747  32.197  1.00  0.00     0.011 A 
ATOM     10  C   UNL A   1      37.781  30.694  34.062  1.00  0.00     0.016 A 
ATOM     11  C   UNL A   1      38.873  32.740  33.352  1.00  0.00     0.016 A 
BRANCH   7  12
ATOM     12  C   UNL A   1      36.486  31.606  30.669  1.00  0.00     0.075 A 
ATOM     13  N   UNL A   1      35.303  32.231  30.295  1.00  0.00    -0.233 N 
ATOM     14  N   UNL A   1      34.734  31.623  29.220  1.00  0.00    -0.163 NA
ATOM     15  C   UNL A   1      35.676  30.774  28.763  1.00  0.00     0.167 A 
ATOM     16  C   UNL A   1      36.770  30.712  29.656  1.00  0.00     0.064 A 
BRANCH  13  17
ATOM     17  C   UNL A   1      34.686  33.365  30.887  1.00  0.00     0.065 A 
ATOM     18  C   UNL A   1      33.530  35.614  32.056  1.00  0.00     0.082 A 
ATOM     19  C   UNL A   1      33.731  35.583  30.674  1.00  0.00     0.024 A 
ATOM     20  C   UNL A   1      33.876  34.516  32.853  1.00  0.00     0.024 A 
ATOM     21  C   UNL A   1      34.326  34.463  30.092  1.00  0.00     0.030 A 
ATOM     22  C   UNL A   1      34.431  33.376  32.264  1.00  0.00     0.030 A 
BRANCH  18  23
ATOM     23  S   UNL A   1      32.854  37.042  32.856  1.00  0.00     0.238 S 
ATOM     24  O   UNL A   1      33.716  37.363  33.971  1.00  0.00    -0.207 OA
ATOM     25  O   UNL A   1      31.433  36.841  33.002  1.00  0.00    -0.207 OA
BRANCH  23  26
ATOM     26  N   UNL A   1      33.050  38.286  31.749  1.00  0.00    -0.225 NA
ATOM     27  H   UNL A   1      32.144  38.528  31.346  1.00  0.00     0.137 HD
ATOM     28  H   UNL A   1      33.683  37.984  31.008  1.00  0.00     0.137 HD
ENDBRANCH  23  26
ENDBRANCH  18  23
ENDBRANCH  13  17
BRANCH  15  29
ATOM     29  C   UNL A   1      35.533  29.982  27.491  1.00  0.00     0.435 C 
ATOM     30  F   UNL A   1      34.591  30.483  26.650  1.00  0.00    -0.164 F 
ATOM     31  F   UNL A   1      36.699  29.914  26.795  1.00  0.00    -0.164 F 
ATOM     32  F   UNL A   1      35.169  28.692  27.745  1.00  0.00    -0.164 F 
ENDBRANCH  15  29
ENDBRANCH   7  12
ENDBRANCH   4   6
ENDBRANCH   3   4
ENDBRANCH   2   3
ENDBRANCH   1   2
BRANCH   1  33
ATOM     33  O   UNL A   1      42.139  27.518  34.609  1.00  0.00    -0.374 OA
BRANCH  33  34
ATOM     34  C   UNL A   1      41.932  26.238  35.201  1.00  0.00     0.202 C 
BRANCH  34  35
ATOM     35  C   UNL A   1      42.748  25.834  36.422  1.00  0.00     0.261 C 
BRANCH  35  36
ATOM     36  O   UNL A   1      44.132  25.788  36.126  1.00  0.00    -0.460 OA
BRANCH  36  37
ATOM     37  C   UNL A   1      44.531  24.620  35.577  1.00  0.00     0.338 C 
ATOM     38  O   UNL A   1      44.217  23.491  35.935  1.00  0.00    -0.246 OA
BRANCH  37  39
ATOM     39  C   UNL A   1      45.485  24.912  34.505  1.00  0.00     0.060 A 
ATOM     40  C   UNL A   1      45.445  26.221  34.027  1.00  0.00     0.016 A 
ATOM     41  C   UNL A   1      45.980  23.842  33.747  1.00  0.00     0.016 A 
ATOM     42  C   UNL A   1      45.528  26.394  32.669  1.00  0.00     0.010 A 
ATOM     43  C   UNL A   1      46.038  24.013  32.393  1.00  0.00     0.010 A 
ATOM     44  C   UNL A   1      45.681  25.256  31.876  1.00  0.00    -0.014 A 
BRANCH  44  45
ATOM     45  C   UNL A   1      45.520  25.382  30.449  1.00  0.00     0.031 A 
ATOM     46  C   UNL A   1      46.608  26.184  29.858  1.00  0.00     0.074 A 
ATOM     47  C   UNL A   1      44.561  24.714  29.782  1.00  0.00     0.049 A 
ATOM     48  N   UNL A   1      46.545  27.399  29.429  1.00  0.00    -0.248 NA
ATOM     49  C   UNL A   1      47.983  25.678  30.026  1.00  0.00     0.031 C 
ATOM     50  C   UNL A   1      43.603  23.721  30.279  1.00  0.00     0.029 A 
ATOM     51  N   UNL A   1      44.302  24.731  28.452  1.00  0.00    -0.354 N 
ATOM     52  C   UNL A   1      47.840  27.702  29.033  1.00  0.00     0.074 A 
ATOM     53  C   UNL A   1      48.689  26.758  29.698  1.00  0.00     0.031 C 
ATOM     54  C   UNL A   1      43.041  23.075  29.229  1.00  0.00     0.029 A 
ATOM     55  C   UNL A   1      43.502  23.689  27.994  1.00  0.00     0.049 A 
ATOM     56  H   UNL A   1      44.655  25.430  27.855  1.00  0.00     0.167 HD
ATOM     57  C   UNL A   1      48.079  28.484  27.947  1.00  0.00     0.034 A 
ATOM     58  C   UNL A   1      43.324  23.336  26.687  1.00  0.00     0.034 A 
ATOM     59  C   UNL A   1      46.898  29.240  27.592  1.00  0.00     0.049 A 
ATOM     60  C   UNL A   1      43.697  24.538  25.885  1.00  0.00     0.074 A 
ATOM     61  C   UNL A   1      46.134  30.191  28.243  1.00  0.00     0.029 A 
ATOM     62  N   UNL A   1      46.097  28.750  26.583  1.00  0.00    -0.354 N 
ATOM     63  N   UNL A   1      43.030  25.662  25.947  1.00  0.00    -0.248 NA
ATOM     64  C   UNL A   1      45.086  24.674  25.465  1.00  0.00     0.031 C 
ATOM     65  C   UNL A   1      44.784  29.862  27.920  1.00  0.00     0.029 A 
ATOM     66  C   UNL A   1      44.792  28.792  27.020  1.00  0.00     0.049 A 
ATOM     67  H   UNL A   1      46.404  28.426  25.705  1.00  0.00     0.167 HD
ATOM     68  C   UNL A   1      43.993  26.661  25.987  1.00  0.00     0.074 A 
ATOM     69  C   UNL A   1      45.243  25.995  25.614  1.00  0.00     0.031 C 
ATOM     70  C   UNL A   1      43.758  27.854  26.614  1.00  0.00     0.034 A 
BRANCH  57  71
ATOM     71  C   UNL A   1      49.237  28.274  26.999  1.00  0.00     0.023 A 
ATOM     72  C   UNL A   1      50.111  29.357  26.814  1.00  0.00     0.031 A 
ATOM     73  C   UNL A   1      49.392  27.201  26.084  1.00  0.00     0.131 A 
ATOM     74  C   UNL A   1      51.002  29.388  25.728  1.00  0.00     0.055 A 
ATOM     75  C   UNL A   1      50.328  27.207  25.049  1.00  0.00     0.041 A 
ATOM     76  F   UNL A   1      48.599  26.125  26.066  1.00  0.00    -0.206 F 
ATOM     77  C   UNL A   1      51.119  28.319  24.844  1.00  0.00     0.022 A 
BRANCH  74  78
ATOM     78  S   UNL A   1      51.883  30.930  25.390  1.00  0.00     0.124 S 
ATOM     79  O   UNL A   1      51.204  31.860  26.286  1.00  0.00    -0.237 OA
ATOM     80  O   UNL A   1      53.252  30.574  25.746  1.00  0.00    -0.237 OA
ATOM     81  O   UNL A   1      51.643  31.148  23.966  1.00  0.00    -0.744 OA
ENDBRANCH  74  78
ENDBRANCH  57  71
BRANCH  58  82
ATOM     82  C   UNL A   1      43.303  21.942  26.139  1.00  0.00     0.023 A 
ATOM     83  C   UNL A   1      44.429  21.300  25.570  1.00  0.00     0.031 A 
ATOM     84  C   UNL A   1      42.178  21.122  26.388  1.00  0.00     0.131 A 
ATOM     85  C   UNL A   1      44.388  19.912  25.270  1.00  0.00     0.055 A 
ATOM     86  C   UNL A   1      42.145  19.756  26.093  1.00  0.00     0.041 A 
ATOM     87  F   UNL A   1      41.089  21.604  27.007  1.00  0.00    -0.206 F 
ATOM     88  C   UNL A   1      43.254  19.143  25.538  1.00  0.00     0.022 A 
BRANCH  85  89
ATOM     89  S   UNL A   1      45.844  19.052  24.577  1.00  0.00     0.124 S 
ATOM     90  O   UNL A   1      45.933  17.865  25.417  1.00  0.00    -0.237 OA
ATOM     91  O   UNL A   1      45.451  18.840  23.189  1.00  0.00    -0.237 OA
ATOM     92  O   UNL A   1      46.932  20.016  24.762  1.00  0.00    -0.744 OA
ENDBRANCH  85  89
ENDBRANCH  58  82
BRANCH  70  93
ATOM     93  C   UNL A   1      42.344  28.144  27.098  1.00  0.00     0.023 A 
ATOM     94  C   UNL A   1      41.905  28.028  28.440  1.00  0.00     0.031 A 
ATOM     95  C   UNL A   1      41.448  28.701  26.171  1.00  0.00     0.131 A 
ATOM     96  C   UNL A   1      40.609  28.456  28.803  1.00  0.00     0.055 A 
ATOM     97  C   UNL A   1      40.178  29.147  26.539  1.00  0.00     0.041 A 
ATOM     98  F   UNL A   1      41.813  28.866  24.889  1.00  0.00    -0.206 F 
ATOM     99  C   UNL A   1      39.752  29.023  27.856  1.00  0.00     0.022 A 
BRANCH  96 100
ATOM    100  S   UNL A   1      40.013  28.282  30.520  1.00  0.00     0.124 S 
ATOM    101  O   UNL A   1      41.163  27.723  31.221  1.00  0.00    -0.237 OA
ATOM    102  O   UNL A   1      39.655  29.653  30.873  1.00  0.00    -0.237 OA
ATOM    103  O   UNL A   1      38.874  27.370  30.395  1.00  0.00    -0.744 OA
ENDBRANCH  96 100
ENDBRANCH  70  93
ENDBRANCH  44  45
ENDBRANCH  37  39
ENDBRANCH  36  37
ENDBRANCH  35  36
ENDBRANCH  34  35
ENDBRANCH  33  34
ENDBRANCH   1  33
TORSDOF 22
ENDMDL
MODEL 2
REMARK VINA RESULT:     -11.1      5.634     10.915
REMARK SMILES NS(=O)(=O)c1ccc(-n2nc(C(F)(F)F)cc2-c2ccc(C(=O)OCCOCCOC(=O)c3ccc(-c4c5nc(c(-c6cc(S(=O)(=O)[O-])ccc6F)c6ccc([nH]6)c(-c6cc(S(=O)(=O)[O-])ccc6F)c6nc(c(-c7cc(S(=O)(=O)[O-])ccc7F)c7ccc4[nH]7)C=C6)C=C5)cc3)cc2)cc1
REMARK SMILES IDX 26 1 25 2 24 3 22 4 23 5 21 6 18 7 19 8 97 9 20 10 96 11
REMARK SMILES IDX 17 12 9 13 10 14 11 15 16 16 8 17 5 18 6 19 99 20 7 21 98 22
REMARK SMILES IDX 2 23 3 24 4 25 1 26 12 29 13 30 14 31 15 32 27 33 28 34
REMARK SMILES IDX 29 35 30 36 31 37 32 38 33 39 34 40 95 41 35 42 94 43 36 44
REMARK SMILES IDX 37 45 38 46 88 47 39 48 93 49 87 50 89 51 40 52 92 53 86 54
REMARK SMILES IDX 85 55 41 57 73 58 53 59 72 60 54 61 57 62 71 63 90 64 55 65
REMARK SMILES IDX 56 66 70 68 91 69 58 70 42 71 43 72 51 73 44 74 50 75 52 76
REMARK SMILES IDX 49 77 45 78 46 79 47 80 48 81 74 82 75 83 83 84 76 85 82 86
REMARK SMILES IDX 84 87 81 88 77 89 78 90 79 91 80 92 59 93 60 94 68 95 61 96
REMARK SMILES IDX 67 97 69 98 66 99 62 100 63 101 64 102 65 103
REMARK H PARENT 1 27 1 28 89 56 57 67
REMARK Flexibility Score: inf
ROOT
ATOM      1  C   UNL A   1      34.716  33.778  27.946  1.00  0.00     0.202 C 
ENDROOT
BRANCH   1   2
ATOM      2  C   UNL A   1      35.448  32.440  27.857  1.00  0.00     0.261 C 
BRANCH   2   3
ATOM      3  O   UNL A   1      34.709  31.359  28.443  1.00  0.00    -0.460 OA
BRANCH   3   4
ATOM      4  C   UNL A   1      34.841  30.183  27.785  1.00  0.00     0.338 C 
ATOM      5  O   UNL A   1      35.719  29.348  27.938  1.00  0.00    -0.246 OA
BRANCH   4   6
ATOM      6  C   UNL A   1      33.666  29.936  26.926  1.00  0.00     0.060 A 
ATOM      7  C   UNL A   1      31.630  29.609  25.042  1.00  0.00     0.000 A 
ATOM      8  C   UNL A   1      32.816  28.872  24.929  1.00  0.00     0.011 A 
ATOM      9  C   UNL A   1      31.445  30.455  26.147  1.00  0.00     0.011 A 
ATOM     10  C   UNL A   1      33.833  29.040  25.864  1.00  0.00     0.016 A 
ATOM     11  C   UNL A   1      32.457  30.611  27.099  1.00  0.00     0.016 A 
BRANCH   7  12
ATOM     12  C   UNL A   1      30.670  29.602  23.940  1.00  0.00     0.075 A 
ATOM     13  N   UNL A   1      30.662  28.732  22.858  1.00  0.00    -0.233 N 
ATOM     14  N   UNL A   1      29.923  29.223  21.826  1.00  0.00    -0.163 NA
ATOM     15  C   UNL A   1      29.265  30.279  22.344  1.00  0.00     0.167 A 
ATOM     16  C   UNL A   1      29.726  30.565  23.649  1.00  0.00     0.064 A 
BRANCH  13  17
ATOM     17  C   UNL A   1      31.303  27.470  22.743  1.00  0.00     0.065 A 
ATOM     18  C   UNL A   1      32.532  24.985  22.467  1.00  0.00     0.082 A 
ATOM     19  C   UNL A   1      33.154  26.122  21.947  1.00  0.00     0.024 A 
ATOM     20  C   UNL A   1      31.314  25.086  23.150  1.00  0.00     0.024 A 
ATOM     21  C   UNL A   1      32.530  27.364  22.071  1.00  0.00     0.030 A 
ATOM     22  C   UNL A   1      30.710  26.336  23.313  1.00  0.00     0.030 A 
BRANCH  18  23
ATOM     23  S   UNL A   1      33.241  23.375  22.267  1.00  0.00     0.238 S 
ATOM     24  O   UNL A   1      32.321  22.421  22.846  1.00  0.00    -0.207 OA
ATOM     25  O   UNL A   1      34.630  23.448  22.648  1.00  0.00    -0.207 OA
BRANCH  23  26
ATOM     26  N   UNL A   1      33.213  23.097  20.614  1.00  0.00    -0.225 NA
ATOM     27  H   UNL A   1      34.166  22.962  20.276  1.00  0.00     0.137 HD
ATOM     28  H   UNL A   1      32.794  23.899  20.142  1.00  0.00     0.137 HD
ENDBRANCH  23  26
ENDBRANCH  18  23
ENDBRANCH  13  17
BRANCH  15  29
ATOM     29  C   UNL A   1      28.215  31.053  21.592  1.00  0.00     0.435 C 
ATOM     30  F   UNL A   1      28.692  32.192  21.027  1.00  0.00    -0.164 F 
ATOM     31  F   UNL A   1      27.648  30.319  20.599  1.00  0.00    -0.164 F 
ATOM     32  F   UNL A   1      27.194  31.433  22.412  1.00  0.00    -0.164 F 
ENDBRANCH  15  29
ENDBRANCH   7  12
ENDBRANCH   4   6
ENDBRANCH   3   4
ENDBRANCH   2   3
ENDBRANCH   1   2
BRANCH   1  33
ATOM     33  O   UNL A   1      33.708  33.954  28.940  1.00  0.00    -0.374 OA
BRANCH  33  34
ATOM     34  C   UNL A   1      33.257  35.256  29.306  1.00  0.00     0.202 C 
BRANCH  34  35
ATOM     35  C   UNL A   1      32.915  35.552  30.761  1.00  0.00     0.261 C 
BRANCH  35  36
ATOM     36  O   UNL A   1      33.473  34.584  31.629  1.00  0.00    -0.460 OA
BRANCH  36  37
ATOM     37  C   UNL A   1      34.001  35.107  32.758  1.00  0.00     0.338 C 
ATOM     38  O   UNL A   1      33.863  36.251  33.175  1.00  0.00    -0.246 OA
BRANCH  37  39
ATOM     39  C   UNL A   1      34.850  34.094  33.388  1.00  0.00     0.060 A 
ATOM     40  C   UNL A   1      35.931  34.602  34.108  1.00  0.00     0.016 A 
ATOM     41  C   UNL A   1      34.828  32.793  32.869  1.00  0.00     0.016 A 
ATOM     42  C   UNL A   1      37.133  33.958  33.967  1.00  0.00     0.010 A 
ATOM     43  C   UNL A   1      36.032  32.166  32.709  1.00  0.00     0.010 A 
ATOM     44  C   UNL A   1      37.176  32.829  33.149  1.00  0.00    -0.014 A 
BRANCH  44  45
ATOM     45  C   UNL A   1      38.461  32.286  32.785  1.00  0.00     0.031 A 
ATOM     46  C   UNL A   1      39.361  32.223  33.952  1.00  0.00     0.074 A 
ATOM     47  C   UNL A   1      38.699  31.788  31.558  1.00  0.00     0.049 A 
ATOM     48  N   UNL A   1      40.363  32.993  34.214  1.00  0.00    -0.248 NA
ATOM     49  C   UNL A   1      38.926  31.396  35.093  1.00  0.00     0.031 C 
ATOM     50  C   UNL A   1      37.776  31.606  30.434  1.00  0.00     0.029 A 
ATOM     51  N   UNL A   1      39.847  31.244  31.086  1.00  0.00    -0.354 N 
ATOM     52  C   UNL A   1      40.833  32.555  35.445  1.00  0.00     0.074 A 
ATOM     53  C   UNL A   1      39.756  31.823  36.043  1.00  0.00     0.031 C 
ATOM     54  C   UNL A   1      38.345  30.789  29.514  1.00  0.00     0.029 A 
ATOM     55  C   UNL A   1      39.710  30.495  29.922  1.00  0.00     0.049 A 
ATOM     56  H   UNL A   1      40.715  31.369  31.536  1.00  0.00     0.167 HD
ATOM     57  C   UNL A   1      42.162  32.549  35.728  1.00  0.00     0.034 A 
ATOM     58  C   UNL A   1      40.643  29.641  29.409  1.00  0.00     0.034 A 
ATOM     59  C   UNL A   1      42.884  33.409  34.815  1.00  0.00     0.049 A 
ATOM     60  C   UNL A   1      41.947  30.055  30.005  1.00  0.00     0.074 A 
ATOM     61  C   UNL A   1      42.841  34.761  34.532  1.00  0.00     0.029 A 
ATOM     62  N   UNL A   1      43.504  32.824  33.733  1.00  0.00    -0.354 N 
ATOM     63  N   UNL A   1      42.495  31.218  29.764  1.00  0.00    -0.248 NA
ATOM     64  C   UNL A   1      42.348  29.439  31.264  1.00  0.00     0.031 C 
ATOM     65  C   UNL A   1      42.972  34.845  33.115  1.00  0.00     0.029 A 
ATOM     66  C   UNL A   1      43.180  33.557  32.613  1.00  0.00     0.049 A 
ATOM     67  H   UNL A   1      44.077  32.023  33.755  1.00  0.00     0.167 HD
ATOM     68  C   UNL A   1      42.963  31.667  30.991  1.00  0.00     0.074 A 
ATOM     69  C   UNL A   1      42.908  30.495  31.867  1.00  0.00     0.031 C 
ATOM     70  C   UNL A   1      43.057  33.002  31.274  1.00  0.00     0.034 A 
BRANCH  57  71
ATOM     71  C   UNL A   1      42.837  31.487  36.566  1.00  0.00     0.023 A 
ATOM     72  C   UNL A   1      43.570  31.927  37.679  1.00  0.00     0.031 A 
ATOM     73  C   UNL A   1      43.026  30.127  36.209  1.00  0.00     0.131 A 
ATOM     74  C   UNL A   1      44.494  31.081  38.316  1.00  0.00     0.055 A 
ATOM     75  C   UNL A   1      43.893  29.271  36.889  1.00  0.00     0.041 A 
ATOM     76  F   UNL A   1      42.468  29.561  35.134  1.00  0.00    -0.206 F 
ATOM     77  C   UNL A   1      44.660  29.754  37.930  1.00  0.00     0.022 A 
BRANCH  74  78
ATOM     78  S   UNL A   1      45.604  31.801  39.548  1.00  0.00     0.124 S 
ATOM     79  O   UNL A   1      44.965  33.088  39.803  1.00  0.00    -0.237 OA
ATOM     80  O   UNL A   1      45.530  30.819  40.624  1.00  0.00    -0.237 OA
ATOM     81  O   UNL A   1      46.884  31.867  38.848  1.00  0.00    -0.744 OA
ENDBRANCH  74  78
ENDBRANCH  57  71
BRANCH  58  82
ATOM     82  C   UNL A   1      40.382  28.281  28.837  1.00  0.00     0.023 A 
ATOM     83  C   UNL A   1      41.153  27.698  27.803  1.00  0.00     0.031 A 
ATOM     84  C   UNL A   1      39.466  27.424  29.491  1.00  0.00     0.131 A 
ATOM     85  C   UNL A   1      40.980  26.329  27.464  1.00  0.00     0.055 A 
ATOM     86  C   UNL A   1      39.303  26.078  29.154  1.00  0.00     0.041 A 
ATOM     87  F   UNL A   1      38.749  27.845  30.544  1.00  0.00    -0.206 F 
ATOM     88  C   UNL A   1      40.065  25.522  28.142  1.00  0.00     0.022 A 
BRANCH  85  89
ATOM     89  S   UNL A   1      41.995  25.543  26.163  1.00  0.00     0.124 S 
ATOM     90  O   UNL A   1      43.352  25.835  26.609  1.00  0.00    -0.237 OA
ATOM     91  O   UNL A   1      41.573  24.150  26.234  1.00  0.00    -0.237 OA
ATOM     92  O   UNL A   1      41.589  26.243  24.942  1.00  0.00    -0.744 OA
ENDBRANCH  85  89
ENDBRANCH  58  82
BRANCH  70  93
ATOM     93  C   UNL A   1      42.824  33.993  30.143  1.00  0.00     0.023 A 
ATOM     94  C   UNL A   1      43.757  34.292  29.119  1.00  0.00     0.031 A 
ATOM     95  C   UNL A   1      41.538  34.547  30.026  1.00  0.00     0.131 A 
ATOM     96  C   UNL A   1      43.384  35.122  28.039  1.00  0.00     0.055 A 
ATOM     97  C   UNL A   1      41.166  35.345  28.945  1.00  0.00     0.041 A 
ATOM     98  F   UNL A   1      40.599  34.279  30.948  1.00  0.00    -0.206 F 
ATOM     99  C   UNL A   1      42.089  35.640  27.948  1.00  0.00     0.022 A 
BRANCH  96 100
ATOM    100  S   UNL A   1      44.582  35.547  26.728  1.00  0.00     0.124 S 
ATOM    101  O   UNL A   1      45.750  34.741  27.065  1.00  0.00    -0.237 OA
ATOM    102  O   UNL A   1      43.873  35.164  25.511  1.00  0.00    -0.237 OA
ATOM    103  O   UNL A   1      44.770  36.990  26.893  1.00  0.00    -0.744 OA
ENDBRANCH  96 100
ENDBRANCH  70  93
ENDBRANCH  44  45
ENDBRANCH  37  39
ENDBRANCH  36  37
ENDBRANCH  35  36
ENDBRANCH  34  35
ENDBRANCH  33  34
ENDBRANCH   1  33
TORSDOF 22
ENDMDL
MODEL 3
REMARK VINA RESULT:     -11.0      5.189     10.473
REMARK SMILES NS(=O)(=O)c1ccc(-n2nc(C(F)(F)F)cc2-c2ccc(C(=O)OCCOCCOC(=O)c3ccc(-c4c5nc(c(-c6cc(S(=O)(=O)[O-])ccc6F)c6ccc([nH]6)c(-c6cc(S(=O)(=O)[O-])ccc6F)c6nc(c(-c7cc(S(=O)(=O)[O-])ccc7F)c7ccc4[nH]7)C=C6)C=C5)cc3)cc2)cc1
REMARK SMILES IDX 26 1 25 2 24 3 22 4 23 5 21 6 18 7 19 8 97 9 20 10 96 11
REMARK SMILES IDX 17 12 9 13 10 14 11 15 16 16 8 17 5 18 6 19 99 20 7 21 98 22
REMARK SMILES IDX 2 23 3 24 4 25 1 26 12 29 13 30 14 31 15 32 27 33 28 34
REMARK SMILES IDX 29 35 30 36 31 37 32 38 33 39 34 40 95 41 35 42 94 43 36 44
REMARK SMILES IDX 37 45 38 46 88 47 39 48 93 49 87 50 89 51 40 52 92 53 86 54
REMARK SMILES IDX 85 55 41 57 73 58 53 59 72 60 54 61 57 62 71 63 90 64 55 65
REMARK SMILES IDX 56 66 70 68 91 69 58 70 42 71 43 72 51 73 44 74 50 75 52 76
REMARK SMILES IDX 49 77 45 78 46 79 47 80 48 81 74 82 75 83 83 84 76 85 82 86
REMARK SMILES IDX 84 87 81 88 77 89 78 90 79 91 80 92 59 93 60 94 68 95 61 96
REMARK SMILES IDX 67 97 69 98 66 99 62 100 63 101 64 102 65 103
REMARK H PARENT 1 27 1 28 89 56 57 67
REMARK Flexibility Score: inf
ROOT
ATOM      1  C   UNL A   1      35.722  20.953  24.807  1.00  0.00     0.202 C 
ENDROOT
BRANCH   1   2
ATOM      2  C   UNL A   1      34.264  21.159  25.215  1.00  0.00     0.261 C 
BRANCH   2   3
ATOM      3  O   UNL A   1      33.618  22.200  24.470  1.00  0.00    -0.460 OA
BRANCH   3   4
ATOM      4  C   UNL A   1      32.511  22.698  25.070  1.00  0.00     0.338 C 
ATOM      5  O   UNL A   1      31.557  22.067  25.498  1.00  0.00    -0.246 OA
BRANCH   4   6
ATOM      6  C   UNL A   1      32.656  24.150  25.300  1.00  0.00     0.060 A 
ATOM      7  C   UNL A   1      33.221  26.817  25.907  1.00  0.00     0.000 A 
ATOM      8  C   UNL A   1      34.049  26.106  25.029  1.00  0.00     0.011 A 
ATOM      9  C   UNL A   1      32.068  26.203  26.420  1.00  0.00     0.011 A 
ATOM     10  C   UNL A   1      33.771  24.775  24.732  1.00  0.00     0.016 A 
ATOM     11  C   UNL A   1      31.775  24.872  26.107  1.00  0.00     0.016 A 
BRANCH   7  12
ATOM     12  C   UNL A   1      33.645  28.128  26.393  1.00  0.00     0.075 A 
ATOM     13  N   UNL A   1      33.225  29.362  25.914  1.00  0.00    -0.233 N 
ATOM     14  N   UNL A   1      34.080  30.357  26.275  1.00  0.00    -0.163 NA
ATOM     15  C   UNL A   1      34.900  29.796  27.185  1.00  0.00     0.167 A 
ATOM     16  C   UNL A   1      34.681  28.401  27.264  1.00  0.00     0.064 A 
BRANCH  13  17
ATOM     17  C   UNL A   1      32.068  29.655  25.145  1.00  0.00     0.065 A 
ATOM     18  C   UNL A   1      29.766  30.196  23.672  1.00  0.00     0.082 A 
ATOM     19  C   UNL A   1      30.114  31.030  24.737  1.00  0.00     0.024 A 
ATOM     20  C   UNL A   1      30.577  29.111  23.320  1.00  0.00     0.024 A 
ATOM     21  C   UNL A   1      31.258  30.749  25.484  1.00  0.00     0.030 A 
ATOM     22  C   UNL A   1      31.747  28.854  24.041  1.00  0.00     0.030 A 
BRANCH  18  23
ATOM     23  S   UNL A   1      28.282  30.461  22.742  1.00  0.00     0.238 S 
ATOM     24  O   UNL A   1      27.732  29.162  22.425  1.00  0.00    -0.207 OA
ATOM     25  O   UNL A   1      28.558  31.457  21.736  1.00  0.00    -0.207 OA
BRANCH  23  26
ATOM     26  N   UNL A   1      27.215  31.161  23.829  1.00  0.00    -0.225 NA
ATOM     27  H   UNL A   1      26.535  30.464  24.133  1.00  0.00     0.137 HD
ATOM     28  H   UNL A   1      26.729  31.936  23.376  1.00  0.00     0.137 HD
ENDBRANCH  23  26
ENDBRANCH  18  23
ENDBRANCH  13  17
BRANCH  15  29
ATOM     29  C   UNL A   1      35.929  30.569  27.965  1.00  0.00     0.435 C 
ATOM     30  F   UNL A   1      35.974  31.886  27.633  1.00  0.00    -0.164 F 
ATOM     31  F   UNL A   1      35.717  30.500  29.305  1.00  0.00    -0.164 F 
ATOM     32  F   UNL A   1      37.185  30.081  27.755  1.00  0.00    -0.164 F 
ENDBRANCH  15  29
ENDBRANCH   7  12
ENDBRANCH   4   6
ENDBRANCH   3   4
ENDBRANCH   2   3
ENDBRANCH   1   2
BRANCH   1  33
ATOM     33  O   UNL A   1      36.758  21.390  25.685  1.00  0.00    -0.374 OA
BRANCH  33  34
ATOM     34  C   UNL A   1      37.505  22.573  25.409  1.00  0.00     0.202 C 
BRANCH  34  35
ATOM     35  C   UNL A   1      38.713  22.918  26.271  1.00  0.00     0.261 C 
BRANCH  35  36
ATOM     36  O   UNL A   1      38.932  24.315  26.315  1.00  0.00    -0.460 OA
BRANCH  36  37
ATOM     37  C   UNL A   1      40.199  24.656  26.643  1.00  0.00     0.338 C 
ATOM     38  O   UNL A   1      41.204  24.499  25.961  1.00  0.00    -0.246 OA
BRANCH  37  39
ATOM     39  C   UNL A   1      40.200  25.185  28.008  1.00  0.00     0.060 A 
ATOM     40  C   UNL A   1      39.027  25.840  28.382  1.00  0.00     0.016 A 
ATOM     41  C   UNL A   1      41.434  25.426  28.626  1.00  0.00     0.016 A 
ATOM     42  C   UNL A   1      39.162  27.007  29.091  1.00  0.00     0.010 A 
ATOM     43  C   UNL A   1      41.569  26.601  29.310  1.00  0.00     0.010 A 
ATOM     44  C   UNL A   1      40.453  27.428  29.413  1.00  0.00    -0.014 A 
BRANCH  44  45
ATOM     45  C   UNL A   1      40.636  28.761  29.930  1.00  0.00     0.031 A 
ATOM     46  C   UNL A   1      41.658  29.495  29.160  1.00  0.00     0.074 A 
ATOM     47  C   UNL A   1      39.847  29.261  30.899  1.00  0.00     0.049 A 
ATOM     48  N   UNL A   1      42.866  29.771  29.520  1.00  0.00    -0.248 NA
ATOM     49  C   UNL A   1      41.401  29.695  27.721  1.00  0.00     0.031 C 
ATOM     50  C   UNL A   1      38.667  28.667  31.535  1.00  0.00     0.029 A 
ATOM     51  N   UNL A   1      39.899  30.489  31.468  1.00  0.00    -0.354 N 
ATOM     52  C   UNL A   1      43.423  30.415  28.425  1.00  0.00     0.074 A 
ATOM     53  C   UNL A   1      42.610  30.059  27.299  1.00  0.00     0.031 C 
ATOM     54  C   UNL A   1      37.996  29.625  32.219  1.00  0.00     0.029 A 
ATOM     55  C   UNL A   1      38.760  30.862  32.174  1.00  0.00     0.049 A 
ATOM     56  H   UNL A   1      40.687  31.076  31.387  1.00  0.00     0.167 HD
ATOM     57  C   UNL A   1      44.302  31.440  28.583  1.00  0.00     0.034 A 
ATOM     58  C   UNL A   1      38.463  32.124  32.600  1.00  0.00     0.034 A 
ATOM     59  C   UNL A   1      44.851  31.440  29.922  1.00  0.00     0.049 A 
ATOM     60  C   UNL A   1      39.761  32.861  32.630  1.00  0.00     0.074 A 
ATOM     61  C   UNL A   1      45.604  30.539  30.652  1.00  0.00     0.029 A 
ATOM     62  N   UNL A   1      44.287  32.288  30.850  1.00  0.00    -0.354 N 
ATOM     63  N   UNL A   1      40.738  32.535  33.436  1.00  0.00    -0.248 NA
ATOM     64  C   UNL A   1      40.173  33.566  31.423  1.00  0.00     0.031 C 
ATOM     65  C   UNL A   1      45.056  30.583  31.968  1.00  0.00     0.029 A 
ATOM     66  C   UNL A   1      44.064  31.567  32.002  1.00  0.00     0.049 A 
ATOM     67  H   UNL A   1      44.080  33.242  30.714  1.00  0.00     0.167 HD
ATOM     68  C   UNL A   1      41.891  32.609  32.667  1.00  0.00     0.074 A 
ATOM     69  C   UNL A   1      41.488  33.320  31.452  1.00  0.00     0.031 C 
ATOM     70  C   UNL A   1      42.980  31.825  32.936  1.00  0.00     0.034 A 
BRANCH  57  71
ATOM     71  C   UNL A   1      44.366  32.641  27.668  1.00  0.00     0.023 A 
ATOM     72  C   UNL A   1      43.750  33.818  28.122  1.00  0.00     0.031 A 
ATOM     73  C   UNL A   1      44.750  32.640  26.302  1.00  0.00     0.131 A 
ATOM     74  C   UNL A   1      43.460  34.869  27.234  1.00  0.00     0.055 A 
ATOM     75  C   UNL A   1      44.522  33.714  25.442  1.00  0.00     0.041 A 
ATOM     76  F   UNL A   1      45.279  31.579  25.685  1.00  0.00    -0.206 F 
ATOM     77  C   UNL A   1      43.844  34.827  25.897  1.00  0.00     0.022 A 
BRANCH  74  78
ATOM     78  S   UNL A   1      42.413  36.220  27.824  1.00  0.00     0.124 S 
ATOM     79  O   UNL A   1      43.157  36.681  28.992  1.00  0.00    -0.237 OA
ATOM     80  O   UNL A   1      42.404  37.114  26.671  1.00  0.00    -0.237 OA
ATOM     81  O   UNL A   1      41.143  35.559  28.113  1.00  0.00    -0.744 OA
ENDBRANCH  74  78
ENDBRANCH  57  71
BRANCH  58  82
ATOM     82  C   UNL A   1      37.125  32.794  32.525  1.00  0.00     0.023 A 
ATOM     83  C   UNL A   1      36.507  33.189  31.314  1.00  0.00     0.031 A 
ATOM     84  C   UNL A   1      36.317  32.850  33.685  1.00  0.00     0.131 A 
ATOM     85  C   UNL A   1      35.153  33.620  31.308  1.00  0.00     0.055 A 
ATOM     86  C   UNL A   1      34.986  33.273  33.671  1.00  0.00     0.041 A 
ATOM     87  F   UNL A   1      36.772  32.415  34.871  1.00  0.00    -0.206 F 
ATOM     88  C   UNL A   1      34.395  33.654  32.480  1.00  0.00     0.022 A 
BRANCH  85  89
ATOM     89  S   UNL A   1      34.319  34.092  29.751  1.00  0.00     0.124 S 
ATOM     90  O   UNL A   1      33.391  35.124  30.196  1.00  0.00    -0.237 OA
ATOM     91  O   UNL A   1      35.433  34.533  28.920  1.00  0.00    -0.237 OA
ATOM     92  O   UNL A   1      33.686  32.847  29.311  1.00  0.00    -0.744 OA
ENDBRANCH  85  89
ENDBRANCH  58  82
BRANCH  70  93
ATOM     93  C   UNL A   1      42.976  31.008  34.220  1.00  0.00     0.023 A 
ATOM     94  C   UNL A   1      42.413  29.716  34.360  1.00  0.00     0.031 A 
ATOM     95  C   UNL A   1      43.708  31.514  35.308  1.00  0.00     0.131 A 
ATOM     96  C   UNL A   1      42.589  28.990  35.558  1.00  0.00     0.055 A 
ATOM     97  C   UNL A   1      43.902  30.783  36.480  1.00  0.00     0.041 A 
ATOM     98  F   UNL A   1      44.292  32.721  35.229  1.00  0.00    -0.206 F 
ATOM     99  C   UNL A   1      43.340  29.519  36.612  1.00  0.00     0.022 A 
BRANCH  96 100
ATOM    100  S   UNL A   1      41.841  27.337  35.769  1.00  0.00     0.124 S 
ATOM    101  O   UNL A   1      41.053  27.478  36.988  1.00  0.00    -0.237 OA
ATOM    102  O   UNL A   1      41.082  27.171  34.534  1.00  0.00    -0.237 OA
ATOM    103  O   UNL A   1      43.001  26.451  35.893  1.00  0.00    -0.744 OA
ENDBRANCH  96 100
ENDBRANCH  70  93
ENDBRANCH  44  45
ENDBRANCH  37  39
ENDBRANCH  36  37
ENDBRANCH  35  36
ENDBRANCH  34  35
ENDBRANCH  33  34
ENDBRANCH   1  33
TORSDOF 22
ENDMDL
