MODEL 1
REMARK VINA RESULT:      -9.0      0.000      0.000
REMARK SMILES CC1(C(=O)N[C@H](C(=O)OCCOCCOC(=O)c2ccc(-c3c4nc(c(-c5cc(S(=O)(=O)[O-])ccc5F)c5ccc([nH]5)c(-c5cc(S(=O)(=O)[O-])ccc5F)c5nc(c(-c6cc(S(=O)(=O)[O-])ccc6F)c6ccc3[nH]6)C=C5)C=C4)cc2)C2CC2)CCCC1
REMARK SMILES IDX 13 1 12 2 11 3 10 4 9 5 7 6 8 7 6 8 5 9 3 10 4 11 2 13 1 14
REMARK SMILES IDX 84 15 87 16 85 17 86 18 81 19 82 20 83 21 14 22 15 23 16 24
REMARK SMILES IDX 17 25 18 26 19 27 80 28 20 29 79 30 21 31 22 32 23 33 73 34
REMARK SMILES IDX 24 35 78 36 72 37 74 38 25 39 77 40 71 41 70 42 26 44 58 45
REMARK SMILES IDX 38 46 57 47 39 48 42 49 56 50 75 51 40 52 41 53 55 55 76 56
REMARK SMILES IDX 43 57 27 58 28 59 36 60 29 61 35 62 37 63 34 64 30 65 31 66
REMARK SMILES IDX 32 67 33 68 59 69 60 70 68 71 61 72 67 73 69 74 66 75 62 76
REMARK SMILES IDX 63 77 64 78 65 79 44 80 45 81 53 82 46 83 52 84 54 85 51 86
REMARK SMILES IDX 47 87 48 88 49 89 50 90
REMARK H PARENT 5 12 74 43 42 54
REMARK Flexibility Score: inf
ROOT
ATOM      1  C   UNL A   1      41.170  19.804  27.366  1.00  0.00     0.202 C 
ENDROOT
BRANCH   1   2
ATOM      2  O   UNL A   1      42.534  19.474  27.141  1.00  0.00    -0.374 OA
BRANCH   2   3
ATOM      3  C   UNL A   1      42.981  19.003  25.881  1.00  0.00     0.202 C 
BRANCH   3   4
ATOM      4  C   UNL A   1      44.007  19.854  25.140  1.00  0.00     0.261 C 
BRANCH   4   5
ATOM      5  O   UNL A   1      43.795  21.270  25.284  1.00  0.00    -0.462 OA
BRANCH   5   6
ATOM      6  C   UNL A   1      44.843  21.988  25.781  1.00  0.00     0.329 C 
ATOM      7  O   UNL A   1      46.015  21.625  25.751  1.00  0.00    -0.250 OA
BRANCH   6   8
ATOM      8  C   UNL A   1      44.378  23.230  26.588  1.00  0.00     0.195 C 
BRANCH   8   9
ATOM      9  N   UNL A   1      43.759  24.276  25.785  1.00  0.00    -0.342 N 
ATOM     10  C   UNL A   1      44.200  25.461  25.300  1.00  0.00     0.226 C 
ATOM     11  O   UNL A   1      43.342  26.152  24.737  1.00  0.00    -0.274 OA
ATOM     12  H   UNL A   1      42.824  24.081  25.544  1.00  0.00     0.164 HD
BRANCH  10  13
ATOM     13  C   UNL A   1      45.641  25.994  25.472  1.00  0.00     0.046 C 
ATOM     14  C   UNL A   1      45.727  27.449  24.997  1.00  0.00     0.022 C 
ATOM     15  C   UNL A   1      46.573  25.088  24.627  1.00  0.00     0.016 C 
ATOM     16  C   UNL A   1      46.247  25.872  26.878  1.00  0.00     0.016 C 
ATOM     17  C   UNL A   1      47.951  25.199  25.249  1.00  0.00     0.001 C 
ATOM     18  C   UNL A   1      47.694  25.394  26.732  1.00  0.00     0.001 C 
ENDBRANCH  10  13
ENDBRANCH   8   9
BRANCH   8  19
ATOM     19  C   UNL A   1      43.375  22.768  27.639  1.00  0.00     0.023 C 
ATOM     20  C   UNL A   1      43.806  22.606  29.077  1.00  0.00     0.007 C 
ATOM     21  C   UNL A   1      42.817  23.674  28.719  1.00  0.00     0.007 C 
ENDBRANCH   8  19
ENDBRANCH   6   8
ENDBRANCH   5   6
ENDBRANCH   4   5
ENDBRANCH   3   4
ENDBRANCH   2   3
ENDBRANCH   1   2
BRANCH   1  22
ATOM     22  C   UNL A   1      40.425  20.830  26.501  1.00  0.00     0.261 C 
BRANCH  22  23
ATOM     23  O   UNL A   1      40.106  22.056  27.121  1.00  0.00    -0.460 OA
BRANCH  23  24
ATOM     24  C   UNL A   1      39.204  22.837  26.503  1.00  0.00     0.338 C 
ATOM     25  O   UNL A   1      38.294  22.513  25.770  1.00  0.00    -0.246 OA
BRANCH  24  26
ATOM     26  C   UNL A   1      39.546  24.167  27.009  1.00  0.00     0.060 A 
ATOM     27  C   UNL A   1      40.075  25.108  26.125  1.00  0.00     0.016 A 
ATOM     28  C   UNL A   1      39.168  24.507  28.313  1.00  0.00     0.016 A 
ATOM     29  C   UNL A   1      40.268  26.410  26.568  1.00  0.00     0.010 A 
ATOM     30  C   UNL A   1      39.351  25.811  28.749  1.00  0.00     0.010 A 
ATOM     31  C   UNL A   1      39.932  26.755  27.886  1.00  0.00    -0.014 A 
BRANCH  31  32
ATOM     32  C   UNL A   1      40.373  28.047  28.440  1.00  0.00     0.031 A 
ATOM     33  C   UNL A   1      41.851  28.293  28.517  1.00  0.00     0.074 A 
ATOM     34  C   UNL A   1      39.474  28.949  28.867  1.00  0.00     0.049 A 
ATOM     35  N   UNL A   1      42.500  29.316  28.999  1.00  0.00    -0.248 NA
ATOM     36  C   UNL A   1      42.714  27.221  27.991  1.00  0.00     0.031 C 
ATOM     37  C   UNL A   1      38.021  28.781  28.820  1.00  0.00     0.029 A 
ATOM     38  N   UNL A   1      39.653  30.182  29.434  1.00  0.00    -0.354 N 
ATOM     39  C   UNL A   1      43.847  29.011  28.837  1.00  0.00     0.074 A 
ATOM     40  C   UNL A   1      43.920  27.686  28.264  1.00  0.00     0.031 C 
ATOM     41  C   UNL A   1      37.440  29.874  29.343  1.00  0.00     0.029 A 
ATOM     42  C   UNL A   1      38.478  30.801  29.787  1.00  0.00     0.049 A 
ATOM     43  H   UNL A   1      40.539  30.587  29.575  1.00  0.00     0.167 HD
ATOM     44  C   UNL A   1      44.923  29.778  29.133  1.00  0.00     0.034 A 
ATOM     45  C   UNL A   1      38.279  31.978  30.412  1.00  0.00     0.034 A 
ATOM     46  C   UNL A   1      44.806  31.084  29.731  1.00  0.00     0.049 A 
ATOM     47  C   UNL A   1      39.490  32.801  30.773  1.00  0.00     0.074 A 
ATOM     48  C   UNL A   1      45.806  31.969  30.086  1.00  0.00     0.029 A 
ATOM     49  N   UNL A   1      43.599  31.686  30.074  1.00  0.00    -0.354 N 
ATOM     50  N   UNL A   1      40.763  32.519  30.594  1.00  0.00    -0.248 NA
ATOM     51  C   UNL A   1      39.245  34.102  31.403  1.00  0.00     0.031 C 
ATOM     52  C   UNL A   1      45.208  33.076  30.697  1.00  0.00     0.029 A 
ATOM     53  C   UNL A   1      43.829  32.918  30.659  1.00  0.00     0.049 A 
ATOM     54  H   UNL A   1      42.709  31.291  29.924  1.00  0.00     0.167 HD
ATOM     55  C   UNL A   1      41.468  33.622  31.064  1.00  0.00     0.074 A 
ATOM     56  C   UNL A   1      40.476  34.577  31.523  1.00  0.00     0.031 C 
ATOM     57  C   UNL A   1      42.809  33.837  31.110  1.00  0.00     0.034 A 
BRANCH  44  58
ATOM     58  C   UNL A   1      46.285  29.184  28.864  1.00  0.00     0.023 A 
ATOM     59  C   UNL A   1      46.925  28.351  29.801  1.00  0.00     0.031 A 
ATOM     60  C   UNL A   1      46.990  29.521  27.698  1.00  0.00     0.131 A 
ATOM     61  C   UNL A   1      48.258  27.959  29.597  1.00  0.00     0.055 A 
ATOM     62  C   UNL A   1      48.287  29.059  27.460  1.00  0.00     0.041 A 
ATOM     63  F   UNL A   1      46.445  30.336  26.780  1.00  0.00    -0.206 F 
ATOM     64  C   UNL A   1      48.934  28.288  28.421  1.00  0.00     0.022 A 
BRANCH  61  65
ATOM     65  S   UNL A   1      49.145  27.153  30.960  1.00  0.00     0.124 S 
ATOM     66  O   UNL A   1      48.214  26.088  31.329  1.00  0.00    -0.237 OA
ATOM     67  O   UNL A   1      50.384  26.727  30.324  1.00  0.00    -0.237 OA
ATOM     68  O   UNL A   1      49.286  28.217  31.953  1.00  0.00    -0.744 OA
ENDBRANCH  61  65
ENDBRANCH  44  58
BRANCH  45  69
ATOM     69  C   UNL A   1      36.899  32.433  30.746  1.00  0.00     0.023 A 
ATOM     70  C   UNL A   1      36.075  33.036  29.782  1.00  0.00     0.031 A 
ATOM     71  C   UNL A   1      36.386  32.283  32.047  1.00  0.00     0.131 A 
ATOM     72  C   UNL A   1      34.797  33.495  30.140  1.00  0.00     0.055 A 
ATOM     73  C   UNL A   1      35.099  32.702  32.388  1.00  0.00     0.041 A 
ATOM     74  F   UNL A   1      37.127  31.707  33.007  1.00  0.00    -0.206 F 
ATOM     75  C   UNL A   1      34.299  33.322  31.434  1.00  0.00     0.022 A 
BRANCH  72  76
ATOM     76  S   UNL A   1      33.808  34.379  28.901  1.00  0.00     0.124 S 
ATOM     77  O   UNL A   1      34.775  35.337  28.376  1.00  0.00    -0.237 OA
ATOM     78  O   UNL A   1      33.420  33.299  28.000  1.00  0.00    -0.237 OA
ATOM     79  O   UNL A   1      32.718  34.956  29.685  1.00  0.00    -0.744 OA
ENDBRANCH  72  76
ENDBRANCH  45  69
BRANCH  57  80
ATOM     80  C   UNL A   1      43.262  35.175  31.635  1.00  0.00     0.023 A 
ATOM     81  C   UNL A   1      43.519  36.256  30.776  1.00  0.00     0.031 A 
ATOM     82  C   UNL A   1      43.433  35.366  33.017  1.00  0.00     0.131 A 
ATOM     83  C   UNL A   1      43.986  37.467  31.304  1.00  0.00     0.055 A 
ATOM     84  C   UNL A   1      43.841  36.590  33.542  1.00  0.00     0.041 A 
ATOM     85  F   UNL A   1      43.198  34.363  33.879  1.00  0.00    -0.206 F 
ATOM     86  C   UNL A   1      44.131  37.646  32.683  1.00  0.00     0.022 A 
BRANCH  83  87
ATOM     87  S   UNL A   1      44.482  38.782  30.158  1.00  0.00     0.124 S 
ATOM     88  O   UNL A   1      45.461  38.097  29.320  1.00  0.00    -0.237 OA
ATOM     89  O   UNL A   1      43.220  39.125  29.512  1.00  0.00    -0.237 OA
ATOM     90  O   UNL A   1      45.029  39.813  31.037  1.00  0.00    -0.744 OA
ENDBRANCH  83  87
ENDBRANCH  57  80
ENDBRANCH  31  32
ENDBRANCH  24  26
ENDBRANCH  23  24
ENDBRANCH  22  23
ENDBRANCH   1  22
TORSDOF 20
ENDMDL
MODEL 2
REMARK VINA RESULT:      -8.8      3.710      6.422
REMARK SMILES CC1(C(=O)N[C@H](C(=O)OCCOCCOC(=O)c2ccc(-c3c4nc(c(-c5cc(S(=O)(=O)[O-])ccc5F)c5ccc([nH]5)c(-c5cc(S(=O)(=O)[O-])ccc5F)c5nc(c(-c6cc(S(=O)(=O)[O-])ccc6F)c6ccc3[nH]6)C=C5)C=C4)cc2)C2CC2)CCCC1
REMARK SMILES IDX 13 1 12 2 11 3 10 4 9 5 7 6 8 7 6 8 5 9 3 10 4 11 2 13 1 14
REMARK SMILES IDX 84 15 87 16 85 17 86 18 81 19 82 20 83 21 14 22 15 23 16 24
REMARK SMILES IDX 17 25 18 26 19 27 80 28 20 29 79 30 21 31 22 32 23 33 73 34
REMARK SMILES IDX 24 35 78 36 72 37 74 38 25 39 77 40 71 41 70 42 26 44 58 45
REMARK SMILES IDX 38 46 57 47 39 48 42 49 56 50 75 51 40 52 41 53 55 55 76 56
REMARK SMILES IDX 43 57 27 58 28 59 36 60 29 61 35 62 37 63 34 64 30 65 31 66
REMARK SMILES IDX 32 67 33 68 59 69 60 70 68 71 61 72 67 73 69 74 66 75 62 76
REMARK SMILES IDX 63 77 64 78 65 79 44 80 45 81 53 82 46 83 52 84 54 85 51 86
REMARK SMILES IDX 47 87 48 88 49 89 50 90
REMARK H PARENT 5 12 74 43 42 54
REMARK Flexibility Score: inf
ROOT
ATOM      1  C   UNL A   1      37.579  21.624  25.106  1.00  0.00     0.202 C 
ENDROOT
BRANCH   1   2
ATOM      2  O   UNL A   1      36.298  21.104  24.777  1.00  0.00    -0.374 OA
BRANCH   2   3
ATOM      3  C   UNL A   1      35.112  21.688  25.287  1.00  0.00     0.202 C 
BRANCH   3   4
ATOM      4  C   UNL A   1      35.038  23.212  25.317  1.00  0.00     0.261 C 
BRANCH   4   5
ATOM      5  O   UNL A   1      35.176  23.822  24.021  1.00  0.00    -0.462 OA
BRANCH   5   6
ATOM      6  C   UNL A   1      34.048  23.871  23.256  1.00  0.00     0.329 C 
ATOM      7  O   UNL A   1      33.993  23.558  22.071  1.00  0.00    -0.250 OA
BRANCH   6   8
ATOM      8  C   UNL A   1      32.871  24.574  23.985  1.00  0.00     0.195 C 
BRANCH   8   9
ATOM      9  N   UNL A   1      32.506  25.872  23.431  1.00  0.00    -0.342 N 
ATOM     10  C   UNL A   1      32.194  27.067  23.987  1.00  0.00     0.226 C 
ATOM     11  O   UNL A   1      31.824  27.938  23.191  1.00  0.00    -0.274 OA
ATOM     12  H   UNL A   1      32.481  25.883  22.447  1.00  0.00     0.164 HD
BRANCH  10  13
ATOM     13  C   UNL A   1      32.212  27.355  25.506  1.00  0.00     0.046 C 
ATOM     14  C   UNL A   1      31.260  26.401  26.236  1.00  0.00     0.022 C 
ATOM     15  C   UNL A   1      31.768  28.827  25.703  1.00  0.00     0.016 C 
ATOM     16  C   UNL A   1      33.589  27.331  26.186  1.00  0.00     0.016 C 
ATOM     17  C   UNL A   1      32.352  29.273  27.028  1.00  0.00     0.001 C 
ATOM     18  C   UNL A   1      33.664  28.520  27.149  1.00  0.00     0.001 C 
ENDBRANCH  10  13
ENDBRANCH   8   9
BRANCH   8  19
ATOM     19  C   UNL A   1      31.653  23.660  23.917  1.00  0.00     0.023 C 
ATOM     20  C   UNL A   1      31.811  22.173  24.127  1.00  0.00     0.007 C 
ATOM     21  C   UNL A   1      31.046  22.983  25.130  1.00  0.00     0.007 C 
ENDBRANCH   8  19
ENDBRANCH   6   8
ENDBRANCH   5   6
ENDBRANCH   4   5
ENDBRANCH   3   4
ENDBRANCH   2   3
ENDBRANCH   1   2
BRANCH   1  22
ATOM     22  C   UNL A   1      38.703  20.736  25.658  1.00  0.00     0.261 C 
BRANCH  22  23
ATOM     23  O   UNL A   1      39.955  21.357  25.845  1.00  0.00    -0.460 OA
BRANCH  23  24
ATOM     24  C   UNL A   1      40.499  21.277  27.071  1.00  0.00     0.338 C 
ATOM     25  O   UNL A   1      40.739  20.290  27.733  1.00  0.00    -0.246 OA
BRANCH  24  26
ATOM     26  C   UNL A   1      40.810  22.677  27.365  1.00  0.00     0.060 A 
ATOM     27  C   UNL A   1      40.107  23.678  26.694  1.00  0.00     0.016 A 
ATOM     28  C   UNL A   1      41.671  22.965  28.431  1.00  0.00     0.016 A 
ATOM     29  C   UNL A   1      40.300  25.001  27.071  1.00  0.00     0.010 A 
ATOM     30  C   UNL A   1      41.852  24.286  28.812  1.00  0.00     0.010 A 
ATOM     31  C   UNL A   1      41.191  25.306  28.111  1.00  0.00    -0.014 A 
BRANCH  31  32
ATOM     32  C   UNL A   1      41.599  26.704  28.338  1.00  0.00     0.031 A 
ATOM     33  C   UNL A   1      42.991  27.088  27.935  1.00  0.00     0.074 A 
ATOM     34  C   UNL A   1      40.748  27.580  28.898  1.00  0.00     0.049 A 
ATOM     35  N   UNL A   1      43.611  28.228  28.067  1.00  0.00    -0.248 NA
ATOM     36  C   UNL A   1      43.802  26.026  27.315  1.00  0.00     0.031 C 
ATOM     37  C   UNL A   1      39.376  27.280  29.310  1.00  0.00     0.029 A 
ATOM     38  N   UNL A   1      40.917  28.899  29.223  1.00  0.00    -0.354 N 
ATOM     39  C   UNL A   1      44.885  28.021  27.548  1.00  0.00     0.074 A 
ATOM     40  C   UNL A   1      44.964  26.633  27.152  1.00  0.00     0.031 C 
ATOM     41  C   UNL A   1      38.830  28.387  29.842  1.00  0.00     0.029 A 
ATOM     42  C   UNL A   1      39.820  29.460  29.832  1.00  0.00     0.049 A 
ATOM     43  H   UNL A   1      41.746  29.397  29.040  1.00  0.00     0.167 HD
ATOM     44  C   UNL A   1      45.890  28.917  27.408  1.00  0.00     0.034 A 
ATOM     45  C   UNL A   1      39.655  30.699  30.334  1.00  0.00     0.034 A 
ATOM     46  C   UNL A   1      45.777  30.286  27.842  1.00  0.00     0.049 A 
ATOM     47  C   UNL A   1      40.800  31.674  30.207  1.00  0.00     0.074 A 
ATOM     48  C   UNL A   1      46.712  31.301  27.766  1.00  0.00     0.029 A 
ATOM     49  N   UNL A   1      44.650  30.826  28.454  1.00  0.00    -0.354 N 
ATOM     50  N   UNL A   1      41.995  31.480  29.691  1.00  0.00    -0.248 NA
ATOM     51  C   UNL A   1      40.575  33.031  30.711  1.00  0.00     0.031 C 
ATOM     52  C   UNL A   1      46.173  32.435  28.383  1.00  0.00     0.029 A 
ATOM     53  C   UNL A   1      44.873  32.152  28.781  1.00  0.00     0.049 A 
ATOM     54  H   UNL A   1      43.814  30.336  28.629  1.00  0.00     0.167 HD
ATOM     55  C   UNL A   1      42.653  32.701  29.784  1.00  0.00     0.074 A 
ATOM     56  C   UNL A   1      41.717  33.626  30.395  1.00  0.00     0.031 C 
ATOM     57  C   UNL A   1      43.912  33.038  29.398  1.00  0.00     0.034 A 
BRANCH  44  58
ATOM     58  C   UNL A   1      47.185  28.410  26.820  1.00  0.00     0.023 A 
ATOM     59  C   UNL A   1      47.354  28.252  25.431  1.00  0.00     0.031 A 
ATOM     60  C   UNL A   1      48.233  27.996  27.658  1.00  0.00     0.131 A 
ATOM     61  C   UNL A   1      48.501  27.616  24.931  1.00  0.00     0.055 A 
ATOM     62  C   UNL A   1      49.410  27.441  27.149  1.00  0.00     0.041 A 
ATOM     63  F   UNL A   1      48.121  28.093  28.993  1.00  0.00    -0.206 F 
ATOM     64  C   UNL A   1      49.540  27.231  25.779  1.00  0.00     0.022 A 
BRANCH  61  65
ATOM     65  S   UNL A   1      48.542  27.154  23.176  1.00  0.00     0.124 S 
ATOM     66  O   UNL A   1      47.551  28.065  22.608  1.00  0.00    -0.237 OA
ATOM     67  O   UNL A   1      49.930  27.412  22.813  1.00  0.00    -0.237 OA
ATOM     68  O   UNL A   1      48.150  25.745  23.184  1.00  0.00    -0.744 OA
ENDBRANCH  61  65
ENDBRANCH  44  58
BRANCH  45  69
ATOM     69  C   UNL A   1      38.379  31.079  31.006  1.00  0.00     0.023 A 
ATOM     70  C   UNL A   1      37.345  31.718  30.304  1.00  0.00     0.031 A 
ATOM     71  C   UNL A   1      38.181  30.818  32.375  1.00  0.00     0.131 A 
ATOM     72  C   UNL A   1      36.175  32.104  30.978  1.00  0.00     0.055 A 
ATOM     73  C   UNL A   1      36.998  31.164  33.030  1.00  0.00     0.041 A 
ATOM     74  F   UNL A   1      39.133  30.202  33.093  1.00  0.00    -0.206 F 
ATOM     75  C   UNL A   1      35.989  31.821  32.334  1.00  0.00     0.022 A 
BRANCH  72  76
ATOM     76  S   UNL A   1      34.911  33.037  30.068  1.00  0.00     0.124 S 
ATOM     77  O   UNL A   1      34.380  32.020  29.168  1.00  0.00    -0.237 OA
ATOM     78  O   UNL A   1      34.024  33.470  31.143  1.00  0.00    -0.237 OA
ATOM     79  O   UNL A   1      35.675  34.105  29.425  1.00  0.00    -0.744 OA
ENDBRANCH  72  76
ENDBRANCH  45  69
BRANCH  57  80
ATOM     80  C   UNL A   1      44.316  34.476  29.589  1.00  0.00     0.023 A 
ATOM     81  C   UNL A   1      43.959  35.472  28.664  1.00  0.00     0.031 A 
ATOM     82  C   UNL A   1      45.066  34.852  30.718  1.00  0.00     0.131 A 
ATOM     83  C   UNL A   1      44.400  36.788  28.857  1.00  0.00     0.055 A 
ATOM     84  C   UNL A   1      45.450  36.173  30.934  1.00  0.00     0.041 A 
ATOM     85  F   UNL A   1      45.429  33.937  31.631  1.00  0.00    -0.206 F 
ATOM     86  C   UNL A   1      45.127  37.148  29.995  1.00  0.00     0.022 A 
BRANCH  83  87
ATOM     87  S   UNL A   1      44.079  38.011  27.557  1.00  0.00     0.124 S 
ATOM     88  O   UNL A   1      43.596  39.151  28.328  1.00  0.00    -0.237 OA
ATOM     89  O   UNL A   1      45.395  38.168  26.944  1.00  0.00    -0.237 OA
ATOM     90  O   UNL A   1      43.078  37.361  26.715  1.00  0.00    -0.744 OA
ENDBRANCH  83  87
ENDBRANCH  57  80
ENDBRANCH  31  32
ENDBRANCH  24  26
ENDBRANCH  23  24
ENDBRANCH  22  23
ENDBRANCH   1  22
TORSDOF 20
ENDMDL
MODEL 3
REMARK VINA RESULT:      -8.8      5.297     11.355
REMARK SMILES CC1(C(=O)N[C@H](C(=O)OCCOCCOC(=O)c2ccc(-c3c4nc(c(-c5cc(S(=O)(=O)[O-])ccc5F)c5ccc([nH]5)c(-c5cc(S(=O)(=O)[O-])ccc5F)c5nc(c(-c6cc(S(=O)(=O)[O-])ccc6F)c6ccc3[nH]6)C=C5)C=C4)cc2)C2CC2)CCCC1
REMARK SMILES IDX 13 1 12 2 11 3 10 4 9 5 7 6 8 7 6 8 5 9 3 10 4 11 2 13 1 14
REMARK SMILES IDX 84 15 87 16 85 17 86 18 81 19 82 20 83 21 14 22 15 23 16 24
REMARK SMILES IDX 17 25 18 26 19 27 80 28 20 29 79 30 21 31 22 32 23 33 73 34
REMARK SMILES IDX 24 35 78 36 72 37 74 38 25 39 77 40 71 41 70 42 26 44 58 45
REMARK SMILES IDX 38 46 57 47 39 48 42 49 56 50 75 51 40 52 41 53 55 55 76 56
REMARK SMILES IDX 43 57 27 58 28 59 36 60 29 61 35 62 37 63 34 64 30 65 31 66
REMARK SMILES IDX 32 67 33 68 59 69 60 70 68 71 61 72 67 73 69 74 66 75 62 76
REMARK SMILES IDX 63 77 64 78 65 79 44 80 45 81 53 82 46 83 52 84 54 85 51 86
REMARK SMILES IDX 47 87 48 88 49 89 50 90
REMARK H PARENT 5 12 74 43 42 54
REMARK Flexibility Score: inf
ROOT
ATOM      1  C   UNL A   1      31.626  31.569  26.541  1.00  0.00     0.202 C 
ENDROOT
BRANCH   1   2
ATOM      2  O   UNL A   1      32.423  30.534  27.103  1.00  0.00    -0.374 OA
BRANCH   2   3
ATOM      3  C   UNL A   1      33.556  30.023  26.421  1.00  0.00     0.202 C 
BRANCH   3   4
ATOM      4  C   UNL A   1      33.427  28.640  25.790  1.00  0.00     0.261 C 
BRANCH   4   5
ATOM      5  O   UNL A   1      33.199  27.588  26.745  1.00  0.00    -0.462 OA
BRANCH   5   6
ATOM      6  C   UNL A   1      31.902  27.207  26.921  1.00  0.00     0.329 C 
ATOM      7  O   UNL A   1      31.141  27.682  27.759  1.00  0.00    -0.250 OA
BRANCH   6   8
ATOM      8  C   UNL A   1      31.539  25.947  26.091  1.00  0.00     0.195 C 
BRANCH   8   9
ATOM      9  N   UNL A   1      31.328  24.741  26.882  1.00  0.00    -0.342 N 
ATOM     10  C   UNL A   1      31.889  23.509  26.868  1.00  0.00     0.226 C 
ATOM     11  O   UNL A   1      31.372  22.685  27.632  1.00  0.00    -0.274 OA
ATOM     12  H   UNL A   1      30.632  24.843  27.571  1.00  0.00     0.164 HD
BRANCH  10  13
ATOM     13  C   UNL A   1      33.046  23.086  25.933  1.00  0.00     0.046 C 
ATOM     14  C   UNL A   1      34.215  24.069  26.061  1.00  0.00     0.022 C 
ATOM     15  C   UNL A   1      32.492  23.081  24.486  1.00  0.00     0.016 C 
ATOM     16  C   UNL A   1      33.560  21.647  26.096  1.00  0.00     0.016 C 
ATOM     17  C   UNL A   1      33.368  22.126  23.699  1.00  0.00     0.001 C 
ATOM     18  C   UNL A   1      33.777  21.060  24.699  1.00  0.00     0.001 C 
ENDBRANCH  10  13
ENDBRANCH   8   9
BRANCH   8  19
ATOM     19  C   UNL A   1      30.264  26.241  25.309  1.00  0.00     0.023 C 
ATOM     20  C   UNL A   1      30.289  27.225  24.164  1.00  0.00     0.007 C 
ATOM     21  C   UNL A   1      30.028  25.774  23.886  1.00  0.00     0.007 C 
ENDBRANCH   8  19
ENDBRANCH   6   8
ENDBRANCH   5   6
ENDBRANCH   4   5
ENDBRANCH   3   4
ENDBRANCH   2   3
ENDBRANCH   1   2
BRANCH   1  22
ATOM     22  C   UNL A   1      31.819  33.043  26.920  1.00  0.00     0.261 C 
BRANCH  22  23
ATOM     23  O   UNL A   1      33.140  33.449  27.201  1.00  0.00    -0.460 OA
BRANCH  23  24
ATOM     24  C   UNL A   1      33.323  34.227  28.281  1.00  0.00     0.338 C 
ATOM     25  O   UNL A   1      32.672  35.181  28.651  1.00  0.00    -0.246 OA
BRANCH  24  26
ATOM     26  C   UNL A   1      34.454  33.576  28.944  1.00  0.00     0.060 A 
ATOM     27  C   UNL A   1      35.718  34.159  28.848  1.00  0.00     0.016 A 
ATOM     28  C   UNL A   1      34.202  32.494  29.796  1.00  0.00     0.016 A 
ATOM     29  C   UNL A   1      36.763  33.624  29.590  1.00  0.00     0.010 A 
ATOM     30  C   UNL A   1      35.245  31.968  30.544  1.00  0.00     0.010 A 
ATOM     31  C   UNL A   1      36.533  32.513  30.416  1.00  0.00    -0.014 A 
BRANCH  31  32
ATOM     32  C   UNL A   1      37.674  31.783  30.994  1.00  0.00     0.031 A 
ATOM     33  C   UNL A   1      38.067  32.123  32.401  1.00  0.00     0.074 A 
ATOM     34  C   UNL A   1      38.333  30.863  30.269  1.00  0.00     0.049 A 
ATOM     35  N   UNL A   1      39.053  31.667  33.123  1.00  0.00    -0.248 NA
ATOM     36  C   UNL A   1      37.239  33.137  33.077  1.00  0.00     0.031 C 
ATOM     37  C   UNL A   1      38.005  30.476  28.897  1.00  0.00     0.029 A 
ATOM     38  N   UNL A   1      39.421  30.094  30.587  1.00  0.00    -0.354 N 
ATOM     39  C   UNL A   1      38.965  32.339  34.338  1.00  0.00     0.074 A 
ATOM     40  C   UNL A   1      37.865  33.271  34.232  1.00  0.00     0.031 C 
ATOM     41  C   UNL A   1      38.882  29.542  28.487  1.00  0.00     0.029 A 
ATOM     42  C   UNL A   1      39.845  29.290  29.556  1.00  0.00     0.049 A 
ATOM     43  H   UNL A   1      39.858  30.117  31.468  1.00  0.00     0.167 HD
ATOM     44  C   UNL A   1      39.731  32.179  35.443  1.00  0.00     0.034 A 
ATOM     45  C   UNL A   1      40.904  28.460  29.492  1.00  0.00     0.034 A 
ATOM     46  C   UNL A   1      40.837  31.256  35.496  1.00  0.00     0.049 A 
ATOM     47  C   UNL A   1      41.773  28.325  30.718  1.00  0.00     0.074 A 
ATOM     48  C   UNL A   1      41.698  30.992  36.544  1.00  0.00     0.029 A 
ATOM     49  N   UNL A   1      41.240  30.452  34.434  1.00  0.00    -0.354 N 
ATOM     50  N   UNL A   1      41.669  28.944  31.875  1.00  0.00    -0.248 NA
ATOM     51  C   UNL A   1      42.886  27.374  30.642  1.00  0.00     0.031 C 
ATOM     52  C   UNL A   1      42.656  30.075  36.097  1.00  0.00     0.029 A 
ATOM     53  C   UNL A   1      42.351  29.709  34.793  1.00  0.00     0.049 A 
ATOM     54  H   UNL A   1      40.799  30.416  33.554  1.00  0.00     0.167 HD
ATOM     55  C   UNL A   1      42.689  28.435  32.672  1.00  0.00     0.074 A 
ATOM     56  C   UNL A   1      43.386  27.450  31.867  1.00  0.00     0.031 C 
ATOM     57  C   UNL A   1      43.021  28.742  33.954  1.00  0.00     0.034 A 
BRANCH  44  58
ATOM     58  C   UNL A   1      39.419  33.060  36.628  1.00  0.00     0.023 A 
ATOM     59  C   UNL A   1      40.061  34.299  36.817  1.00  0.00     0.031 A 
ATOM     60  C   UNL A   1      38.534  32.622  37.627  1.00  0.00     0.131 A 
ATOM     61  C   UNL A   1      39.878  35.010  38.014  1.00  0.00     0.055 A 
ATOM     62  C   UNL A   1      38.291  33.375  38.779  1.00  0.00     0.041 A 
ATOM     63  F   UNL A   1      37.913  31.437  37.519  1.00  0.00    -0.206 F 
ATOM     64  C   UNL A   1      38.979  34.567  38.985  1.00  0.00     0.022 A 
BRANCH  61  65
ATOM     65  S   UNL A   1      40.953  36.432  38.352  1.00  0.00     0.124 S 
ATOM     66  O   UNL A   1      39.977  37.463  38.701  1.00  0.00    -0.237 OA
ATOM     67  O   UNL A   1      41.788  35.947  39.444  1.00  0.00    -0.237 OA
ATOM     68  O   UNL A   1      41.647  36.647  37.083  1.00  0.00    -0.744 OA
ENDBRANCH  61  65
ENDBRANCH  44  58
BRANCH  45  69
ATOM     69  C   UNL A   1      41.207  27.716  28.236  1.00  0.00     0.023 A 
ATOM     70  C   UNL A   1      40.936  26.343  28.117  1.00  0.00     0.031 A 
ATOM     71  C   UNL A   1      41.789  28.369  27.135  1.00  0.00     0.131 A 
ATOM     72  C   UNL A   1      41.275  25.662  26.937  1.00  0.00     0.055 A 
ATOM     73  C   UNL A   1      42.086  27.696  25.947  1.00  0.00     0.041 A 
ATOM     74  F   UNL A   1      42.063  29.681  27.191  1.00  0.00    -0.206 F 
ATOM     75  C   UNL A   1      41.838  26.331  25.847  1.00  0.00     0.022 A 
BRANCH  72  76
ATOM     76  S   UNL A   1      41.023  23.866  26.863  1.00  0.00     0.124 S 
ATOM     77  O   UNL A   1      39.618  23.778  26.480  1.00  0.00    -0.237 OA
ATOM     78  O   UNL A   1      41.992  23.467  25.847  1.00  0.00    -0.237 OA
ATOM     79  O   UNL A   1      41.330  23.423  28.221  1.00  0.00    -0.744 OA
ENDBRANCH  72  76
ENDBRANCH  45  69
BRANCH  57  80
ATOM     80  C   UNL A   1      44.160  27.965  34.562  1.00  0.00     0.023 A 
ATOM     81  C   UNL A   1      43.969  26.688  35.115  1.00  0.00     0.031 A 
ATOM     82  C   UNL A   1      45.454  28.515  34.582  1.00  0.00     0.131 A 
ATOM     83  C   UNL A   1      45.048  26.024  35.715  1.00  0.00     0.055 A 
ATOM     84  C   UNL A   1      46.534  27.824  35.126  1.00  0.00     0.041 A 
ATOM     85  F   UNL A   1      45.686  29.732  34.063  1.00  0.00    -0.206 F 
ATOM     86  C   UNL A   1      46.332  26.576  35.707  1.00  0.00     0.022 A 
BRANCH  83  87
ATOM     87  S   UNL A   1      44.733  24.461  36.579  1.00  0.00     0.124 S 
ATOM     88  O   UNL A   1      43.540  23.973  35.895  1.00  0.00    -0.237 OA
ATOM     89  O   UNL A   1      45.961  23.713  36.330  1.00  0.00    -0.237 OA
ATOM     90  O   UNL A   1      44.530  24.872  37.967  1.00  0.00    -0.744 OA
ENDBRANCH  83  87
ENDBRANCH  57  80
ENDBRANCH  31  32
ENDBRANCH  24  26
ENDBRANCH  23  24
ENDBRANCH  22  23
ENDBRANCH   1  22
TORSDOF 20
ENDMDL
