MODEL 1
REMARK VINA RESULT:     -11.5      0.000      0.000
REMARK SMILES Cc1ccc2c(c1)[C@]1([NH2+][C@@H](CCC(=O)OCCOCCOC(=O)c3ccc(-c4c5nc(c(-c6cc(S(=O)(=O)[O-])ccc6F)c6ccc([nH]6)c(-c6cc(S(=O)(=O)[O-])ccc6F)c6nc(c(-c7cc(S(=O)(=O)[O-])ccc7F)c7ccc4[nH]7)C=C6)C=C5)cc3)[C@@H]3C(=O)N(Cc4ccccc4)C(=O)[C@@H]31)C(=O)N2
REMARK SMILES IDX 17 1 16 2 15 3 13 4 14 5 12 6 11 7 10 8 1 9 2 10 3 11 7 12
REMARK SMILES IDX 4 13 6 14 5 15 8 16 103 17 9 18 100 19 101 20 87 24 98 25
REMARK SMILES IDX 102 26 88 27 90 28 99 29 89 30 91 31 92 32 93 33 97 34 94 35
REMARK SMILES IDX 96 36 95 37 18 38 19 39 20 40 21 41 22 42 23 43 24 44 25 45
REMARK SMILES IDX 86 46 26 47 85 48 27 49 28 50 29 51 79 52 30 53 84 54 78 55
REMARK SMILES IDX 80 56 31 57 83 58 77 59 76 60 32 62 64 63 44 64 63 65 45 66
REMARK SMILES IDX 48 67 62 68 81 69 46 70 47 71 61 73 82 74 49 75 33 76 34 77
REMARK SMILES IDX 42 78 35 79 41 80 43 81 40 82 36 83 37 84 38 85 39 86 65 87
REMARK SMILES IDX 66 88 74 89 67 90 73 91 75 92 72 93 68 94 69 95 70 96 71 97
REMARK SMILES IDX 50 98 51 99 59 100 52 101 58 102 60 103 57 104 53 105 54 106
REMARK SMILES IDX 55 107 56 108
REMARK H PARENT 103 21 9 22 9 23 80 61 48 72
REMARK Flexibility Score: inf
ROOT
ATOM      1  C   UNL A   1      40.487  20.010  26.478  1.00  0.00     0.202 C 
ENDROOT
BRANCH   1   2
ATOM      2  C   UNL A   1      39.671  21.154  25.873  1.00  0.00     0.261 C 
BRANCH   2   3
ATOM      3  O   UNL A   1      40.034  22.426  26.432  1.00  0.00    -0.463 OA
BRANCH   3   4
ATOM      4  C   UNL A   1      39.020  23.318  26.542  1.00  0.00     0.306 C 
ATOM      5  O   UNL A   1      39.068  24.371  27.169  1.00  0.00    -0.252 OA
BRANCH   4   6
ATOM      6  C   UNL A   1      37.785  22.916  25.770  1.00  0.00     0.129 C 
BRANCH   6   7
ATOM      7  C   UNL A   1      36.411  23.377  26.267  1.00  0.00     0.077 C 
BRANCH   7   8
ATOM      8  C   UNL A   1      35.229  23.181  25.307  1.00  0.00     0.197 C 
ATOM      9  C   UNL A   1      34.368  29.069  26.914  1.00  0.00     0.044 C 
ATOM     10  C   UNL A   1      33.877  28.281  25.735  1.00  0.00    -0.050 A 
ATOM     11  C   UNL A   1      33.274  28.953  24.647  1.00  0.00     0.005 A 
ATOM     12  C   UNL A   1      34.018  26.884  25.708  1.00  0.00     0.016 A 
ATOM     13  C   UNL A   1      32.862  28.257  23.508  1.00  0.00     0.027 A 
ATOM     14  C   UNL A   1      33.614  26.200  24.572  1.00  0.00     0.047 A 
ATOM     15  C   UNL A   1      33.066  26.895  23.493  1.00  0.00     0.051 A 
ATOM     16  C   UNL A   1      33.765  24.736  24.209  1.00  0.00     0.216 C 
ATOM     17  N   UNL A   1      32.884  26.043  22.418  1.00  0.00    -0.320 N 
ATOM     18  N   UNL A   1      35.185  24.327  24.382  1.00  0.00    -0.326 N 
ATOM     19  C   UNL A   1      32.911  23.804  25.051  1.00  0.00     0.174 C 
ATOM     20  C   UNL A   1      33.375  24.779  22.701  1.00  0.00     0.291 C 
ATOM     21  H   UNL A   1      32.464  26.301  21.566  1.00  0.00     0.170 HD
ATOM     22  H   UNL A   1      35.723  25.102  24.767  1.00  0.00     0.347 HD
ATOM     23  H   UNL A   1      35.587  24.065  23.481  1.00  0.00     0.347 HD
ATOM     24  C   UNL A   1      33.879  23.147  26.012  1.00  0.00     0.157 C 
ATOM     25  C   UNL A   1      32.291  22.621  24.342  1.00  0.00     0.240 C 
ATOM     26  O   UNL A   1      33.567  23.897  21.884  1.00  0.00    -0.267 OA
ATOM     27  C   UNL A   1      33.378  21.736  26.092  1.00  0.00     0.239 C 
ATOM     28  N   UNL A   1      32.723  21.460  24.932  1.00  0.00    -0.277 N 
ATOM     29  O   UNL A   1      31.418  22.725  23.495  1.00  0.00    -0.274 OA
ATOM     30  O   UNL A   1      33.558  21.017  27.061  1.00  0.00    -0.274 OA
BRANCH  28  31
ATOM     31  C   UNL A   1      32.151  20.176  24.574  1.00  0.00     0.164 C 
BRANCH  31  32
ATOM     32  C   UNL A   1      33.030  18.957  24.776  1.00  0.00    -0.028 A 
ATOM     33  C   UNL A   1      34.328  18.892  24.252  1.00  0.00     0.005 A 
ATOM     34  C   UNL A   1      32.525  17.822  25.425  1.00  0.00     0.005 A 
ATOM     35  C   UNL A   1      35.051  17.694  24.262  1.00  0.00     0.000 A 
ATOM     36  C   UNL A   1      33.267  16.640  25.488  1.00  0.00     0.000 A 
ATOM     37  C   UNL A   1      34.518  16.566  24.880  1.00  0.00     0.000 A 
ENDBRANCH  31  32
ENDBRANCH  28  31
ENDBRANCH   7   8
ENDBRANCH   6   7
ENDBRANCH   4   6
ENDBRANCH   3   4
ENDBRANCH   2   3
ENDBRANCH   1   2
BRANCH   1  38
ATOM     38  O   UNL A   1      41.344  19.320  25.567  1.00  0.00    -0.374 OA
BRANCH  38  39
ATOM     39  C   UNL A   1      42.715  19.195  25.933  1.00  0.00     0.202 C 
BRANCH  39  40
ATOM     40  C   UNL A   1      43.672  20.274  25.407  1.00  0.00     0.261 C 
BRANCH  40  41
ATOM     41  O   UNL A   1      43.052  21.557  25.181  1.00  0.00    -0.460 OA
BRANCH  41  42
ATOM     42  C   UNL A   1      43.910  22.544  24.795  1.00  0.00     0.338 C 
ATOM     43  O   UNL A   1      44.738  22.469  23.901  1.00  0.00    -0.246 OA
BRANCH  42  44
ATOM     44  C   UNL A   1      43.645  23.807  25.523  1.00  0.00     0.060 A 
ATOM     45  C   UNL A   1      43.403  23.833  26.895  1.00  0.00     0.016 A 
ATOM     46  C   UNL A   1      43.744  25.015  24.818  1.00  0.00     0.016 A 
ATOM     47  C   UNL A   1      43.273  25.064  27.557  1.00  0.00     0.010 A 
ATOM     48  C   UNL A   1      43.609  26.242  25.483  1.00  0.00     0.010 A 
ATOM     49  C   UNL A   1      43.377  26.278  26.865  1.00  0.00    -0.014 A 
BRANCH  49  50
ATOM     50  C   UNL A   1      43.424  27.561  27.617  1.00  0.00     0.031 A 
ATOM     51  C   UNL A   1      42.191  28.320  28.005  1.00  0.00     0.074 A 
ATOM     52  C   UNL A   1      44.628  28.056  27.952  1.00  0.00     0.049 A 
ATOM     53  N   UNL A   1      42.056  29.325  28.829  1.00  0.00    -0.248 NA
ATOM     54  C   UNL A   1      40.934  27.887  27.397  1.00  0.00     0.031 C 
ATOM     55  C   UNL A   1      45.908  27.427  27.632  1.00  0.00     0.029 A 
ATOM     56  N   UNL A   1      44.971  29.208  28.613  1.00  0.00    -0.354 N 
ATOM     57  C   UNL A   1      40.689  29.570  28.912  1.00  0.00     0.074 A 
ATOM     58  C   UNL A   1      40.039  28.650  28.008  1.00  0.00     0.031 C 
ATOM     59  C   UNL A   1      46.899  28.217  28.070  1.00  0.00     0.029 A 
ATOM     60  C   UNL A   1      46.325  29.413  28.685  1.00  0.00     0.049 A 
ATOM     61  H   UNL A   1      44.309  29.827  28.998  1.00  0.00     0.167 HD
ATOM     62  C   UNL A   1      40.038  30.489  29.662  1.00  0.00     0.034 A 
ATOM     63  C   UNL A   1      47.026  30.456  29.174  1.00  0.00     0.034 A 
ATOM     64  C   UNL A   1      40.707  31.517  30.411  1.00  0.00     0.049 A 
ATOM     65  C   UNL A   1      46.285  31.580  29.851  1.00  0.00     0.074 A 
ATOM     66  C   UNL A   1      40.148  32.505  31.199  1.00  0.00     0.029 A 
ATOM     67  N   UNL A   1      42.077  31.736  30.400  1.00  0.00    -0.354 N 
ATOM     68  N   UNL A   1      45.000  31.692  30.089  1.00  0.00    -0.248 NA
ATOM     69  C   UNL A   1      47.083  32.714  30.336  1.00  0.00     0.031 C 
ATOM     70  C   UNL A   1      41.167  33.382  31.575  1.00  0.00     0.029 A 
ATOM     71  C   UNL A   1      42.374  32.893  31.097  1.00  0.00     0.049 A 
ATOM     72  H   UNL A   1      42.739  31.154  29.962  1.00  0.00     0.167 HD
ATOM     73  C   UNL A   1      44.836  32.894  30.772  1.00  0.00     0.074 A 
ATOM     74  C   UNL A   1      46.158  33.468  30.920  1.00  0.00     0.031 C 
ATOM     75  C   UNL A   1      43.695  33.464  31.237  1.00  0.00     0.034 A 
BRANCH  62  76
ATOM     76  C   UNL A   1      38.531  30.451  29.707  1.00  0.00     0.023 A 
ATOM     77  C   UNL A   1      37.767  31.479  29.126  1.00  0.00     0.031 A 
ATOM     78  C   UNL A   1      37.863  29.460  30.450  1.00  0.00     0.131 A 
ATOM     79  C   UNL A   1      36.381  31.511  29.326  1.00  0.00     0.055 A 
ATOM     80  C   UNL A   1      36.478  29.486  30.628  1.00  0.00     0.041 A 
ATOM     81  F   UNL A   1      38.549  28.459  31.023  1.00  0.00    -0.206 F 
ATOM     82  C   UNL A   1      35.732  30.520  30.073  1.00  0.00     0.022 A 
BRANCH  79  83
ATOM     83  S   UNL A   1      35.366  32.860  28.664  1.00  0.00     0.124 S 
ATOM     84  O   UNL A   1      36.283  33.996  28.750  1.00  0.00    -0.237 OA
ATOM     85  O   UNL A   1      35.081  32.392  27.310  1.00  0.00    -0.237 OA
ATOM     86  O   UNL A   1      34.223  32.918  29.568  1.00  0.00    -0.744 OA
ENDBRANCH  79  83
ENDBRANCH  62  76
BRANCH  63  87
ATOM     87  C   UNL A   1      48.511  30.426  29.059  1.00  0.00     0.023 A 
ATOM     88  C   UNL A   1      49.151  30.954  27.920  1.00  0.00     0.031 A 
ATOM     89  C   UNL A   1      49.293  29.744  30.003  1.00  0.00     0.131 A 
ATOM     90  C   UNL A   1      50.517  30.719  27.717  1.00  0.00     0.055 A 
ATOM     91  C   UNL A   1      50.667  29.570  29.828  1.00  0.00     0.041 A 
ATOM     92  F   UNL A   1      48.722  29.213  31.095  1.00  0.00    -0.206 F 
ATOM     93  C   UNL A   1      51.281  30.040  28.671  1.00  0.00     0.022 A 
BRANCH  90  94
ATOM     94  S   UNL A   1      51.310  31.150  26.143  1.00  0.00     0.124 S 
ATOM     95  O   UNL A   1      51.063  29.956  25.342  1.00  0.00    -0.237 OA
ATOM     96  O   UNL A   1      50.562  32.341  25.747  1.00  0.00    -0.237 OA
ATOM     97  O   UNL A   1      52.702  31.387  26.511  1.00  0.00    -0.744 OA
ENDBRANCH  90  94
ENDBRANCH  63  87
BRANCH  75  98
ATOM     98  C   UNL A   1      43.776  34.796  31.940  1.00  0.00     0.023 A 
ATOM     99  C   UNL A   1      43.724  35.989  31.192  1.00  0.00     0.031 A 
ATOM    100  C   UNL A   1      44.104  34.879  33.304  1.00  0.00     0.131 A 
ATOM    101  C   UNL A   1      44.061  37.205  31.797  1.00  0.00     0.055 A 
ATOM    102  C   UNL A   1      44.388  36.102  33.914  1.00  0.00     0.041 A 
ATOM    103  F   UNL A   1      44.175  33.769  34.056  1.00  0.00    -0.206 F 
ATOM    104  C   UNL A   1      44.387  37.269  33.156  1.00  0.00     0.022 A 
BRANCH 101 105
ATOM    105  S   UNL A   1      44.198  38.728  30.819  1.00  0.00     0.124 S 
ATOM    106  O   UNL A   1      45.646  38.900  30.728  1.00  0.00    -0.237 OA
ATOM    107  O   UNL A   1      43.533  38.354  29.575  1.00  0.00    -0.237 OA
ATOM    108  O   UNL A   1      43.504  39.728  31.626  1.00  0.00    -0.744 OA
ENDBRANCH 101 105
ENDBRANCH  75  98
ENDBRANCH  49  50
ENDBRANCH  42  44
ENDBRANCH  41  42
ENDBRANCH  40  41
ENDBRANCH  39  40
ENDBRANCH  38  39
ENDBRANCH   1  38
TORSDOF 21
ENDMDL
MODEL 2
REMARK VINA RESULT:     -11.5      2.638      7.462
REMARK SMILES Cc1ccc2c(c1)[C@]1([NH2+][C@@H](CCC(=O)OCCOCCOC(=O)c3ccc(-c4c5nc(c(-c6cc(S(=O)(=O)[O-])ccc6F)c6ccc([nH]6)c(-c6cc(S(=O)(=O)[O-])ccc6F)c6nc(c(-c7cc(S(=O)(=O)[O-])ccc7F)c7ccc4[nH]7)C=C6)C=C5)cc3)[C@@H]3C(=O)N(Cc4ccccc4)C(=O)[C@@H]31)C(=O)N2
REMARK SMILES IDX 17 1 16 2 15 3 13 4 14 5 12 6 11 7 10 8 1 9 2 10 3 11 7 12
REMARK SMILES IDX 4 13 6 14 5 15 8 16 103 17 9 18 100 19 101 20 87 24 98 25
REMARK SMILES IDX 102 26 88 27 90 28 99 29 89 30 91 31 92 32 93 33 97 34 94 35
REMARK SMILES IDX 96 36 95 37 18 38 19 39 20 40 21 41 22 42 23 43 24 44 25 45
REMARK SMILES IDX 86 46 26 47 85 48 27 49 28 50 29 51 79 52 30 53 84 54 78 55
REMARK SMILES IDX 80 56 31 57 83 58 77 59 76 60 32 62 64 63 44 64 63 65 45 66
REMARK SMILES IDX 48 67 62 68 81 69 46 70 47 71 61 73 82 74 49 75 33 76 34 77
REMARK SMILES IDX 42 78 35 79 41 80 43 81 40 82 36 83 37 84 38 85 39 86 65 87
REMARK SMILES IDX 66 88 74 89 67 90 73 91 75 92 72 93 68 94 69 95 70 96 71 97
REMARK SMILES IDX 50 98 51 99 59 100 52 101 58 102 60 103 57 104 53 105 54 106
REMARK SMILES IDX 55 107 56 108
REMARK H PARENT 103 21 9 22 9 23 80 61 48 72
REMARK Flexibility Score: inf
ROOT
ATOM      1  C   UNL A   1      41.913  21.173  26.136  1.00  0.00     0.202 C 
ENDROOT
BRANCH   1   2
ATOM      2  C   UNL A   1      40.459  20.922  26.538  1.00  0.00     0.261 C 
BRANCH   2   3
ATOM      3  O   UNL A   1      39.673  22.123  26.484  1.00  0.00    -0.463 OA
BRANCH   3   4
ATOM      4  C   UNL A   1      38.509  22.021  25.798  1.00  0.00     0.306 C 
ATOM      5  O   UNL A   1      38.063  20.989  25.308  1.00  0.00    -0.252 OA
BRANCH   4   6
ATOM      6  C   UNL A   1      37.752  23.325  25.711  1.00  0.00     0.129 C 
BRANCH   6   7
ATOM      7  C   UNL A   1      36.361  23.425  26.343  1.00  0.00     0.077 C 
BRANCH   7   8
ATOM      8  C   UNL A   1      35.161  23.212  25.409  1.00  0.00     0.197 C 
ATOM      9  C   UNL A   1      34.501  29.206  26.684  1.00  0.00     0.044 C 
ATOM     10  C   UNL A   1      33.971  28.368  25.558  1.00  0.00    -0.050 A 
ATOM     11  C   UNL A   1      33.376  28.995  24.439  1.00  0.00     0.005 A 
ATOM     12  C   UNL A   1      34.069  26.968  25.609  1.00  0.00     0.016 A 
ATOM     13  C   UNL A   1      32.928  28.248  23.346  1.00  0.00     0.027 A 
ATOM     14  C   UNL A   1      33.630  26.232  24.519  1.00  0.00     0.047 A 
ATOM     15  C   UNL A   1      33.091  26.882  23.408  1.00  0.00     0.051 A 
ATOM     16  C   UNL A   1      33.732  24.747  24.239  1.00  0.00     0.216 C 
ATOM     17  N   UNL A   1      32.870  25.976  22.386  1.00  0.00    -0.320 N 
ATOM     18  N   UNL A   1      35.140  24.304  24.420  1.00  0.00    -0.326 N 
ATOM     19  C   UNL A   1      32.860  23.891  25.142  1.00  0.00     0.174 C 
ATOM     20  C   UNL A   1      33.324  24.716  22.736  1.00  0.00     0.291 C 
ATOM     21  H   UNL A   1      32.447  26.198  21.525  1.00  0.00     0.170 HD
ATOM     22  H   UNL A   1      35.707  25.083  24.755  1.00  0.00     0.347 HD
ATOM     23  H   UNL A   1      35.523  23.979  23.532  1.00  0.00     0.347 HD
ATOM     24  C   UNL A   1      33.819  23.260  26.129  1.00  0.00     0.157 C 
ATOM     25  C   UNL A   1      32.196  22.690  24.509  1.00  0.00     0.240 C 
ATOM     26  O   UNL A   1      33.479  23.783  21.968  1.00  0.00    -0.267 OA
ATOM     27  C   UNL A   1      33.277  21.872  26.295  1.00  0.00     0.239 C 
ATOM     28  N   UNL A   1      32.599  21.551  25.160  1.00  0.00    -0.277 N 
ATOM     29  O   UNL A   1      31.316  22.773  23.667  1.00  0.00    -0.274 OA
ATOM     30  O   UNL A   1      33.446  21.205  27.302  1.00  0.00    -0.274 OA
BRANCH  28  31
ATOM     31  C   UNL A   1      31.984  20.267  24.883  1.00  0.00     0.164 C 
BRANCH  31  32
ATOM     32  C   UNL A   1      32.863  19.214  24.240  1.00  0.00    -0.028 A 
ATOM     33  C   UNL A   1      32.413  18.439  23.162  1.00  0.00     0.005 A 
ATOM     34  C   UNL A   1      34.128  18.929  24.771  1.00  0.00     0.005 A 
ATOM     35  C   UNL A   1      33.145  17.334  22.712  1.00  0.00     0.000 A 
ATOM     36  C   UNL A   1      34.889  17.861  24.285  1.00  0.00     0.000 A 
ATOM     37  C   UNL A   1      34.385  17.045  23.276  1.00  0.00     0.000 A 
ENDBRANCH  31  32
ENDBRANCH  28  31
ENDBRANCH   7   8
ENDBRANCH   6   7
ENDBRANCH   4   6
ENDBRANCH   3   4
ENDBRANCH   2   3
ENDBRANCH   1   2
BRANCH   1  38
ATOM     38  O   UNL A   1      42.684  21.933  27.069  1.00  0.00    -0.374 OA
BRANCH  38  39
ATOM     39  C   UNL A   1      43.267  23.144  26.594  1.00  0.00     0.202 C 
BRANCH  39  40
ATOM     40  C   UNL A   1      42.759  23.673  25.246  1.00  0.00     0.261 C 
BRANCH  40  41
ATOM     41  O   UNL A   1      42.736  25.111  25.143  1.00  0.00    -0.460 OA
BRANCH  41  42
ATOM     42  C   UNL A   1      41.752  25.719  25.863  1.00  0.00     0.338 C 
ATOM     43  O   UNL A   1      40.639  25.268  26.086  1.00  0.00    -0.246 OA
BRANCH  42  44
ATOM     44  C   UNL A   1      42.228  26.983  26.473  1.00  0.00     0.060 A 
ATOM     45  C   UNL A   1      41.951  28.226  25.908  1.00  0.00     0.016 A 
ATOM     46  C   UNL A   1      42.888  26.920  27.708  1.00  0.00     0.016 A 
ATOM     47  C   UNL A   1      42.323  29.398  26.584  1.00  0.00     0.010 A 
ATOM     48  C   UNL A   1      43.263  28.093  28.377  1.00  0.00     0.010 A 
ATOM     49  C   UNL A   1      42.978  29.348  27.823  1.00  0.00    -0.014 A 
BRANCH  49  50
ATOM     50  C   UNL A   1      43.191  30.597  28.602  1.00  0.00     0.031 A 
ATOM     51  C   UNL A   1      44.341  31.525  28.350  1.00  0.00     0.074 A 
ATOM     52  C   UNL A   1      42.313  30.895  29.576  1.00  0.00     0.049 A 
ATOM     53  N   UNL A   1      44.546  32.738  28.792  1.00  0.00    -0.248 NA
ATOM     54  C   UNL A   1      45.403  31.033  27.473  1.00  0.00     0.031 C 
ATOM     55  C   UNL A   1      41.155  30.079  29.935  1.00  0.00     0.029 A 
ATOM     56  N   UNL A   1      42.273  31.947  30.454  1.00  0.00    -0.354 N 
ATOM     57  C   UNL A   1      45.704  33.183  28.162  1.00  0.00     0.074 A 
ATOM     58  C   UNL A   1      46.192  32.090  27.354  1.00  0.00     0.031 C 
ATOM     59  C   UNL A   1      40.534  30.646  30.978  1.00  0.00     0.029 A 
ATOM     60  C   UNL A   1      41.259  31.852  31.373  1.00  0.00     0.049 A 
ATOM     61  H   UNL A   1      42.910  32.698  30.428  1.00  0.00     0.167 HD
ATOM     62  C   UNL A   1      46.311  34.388  28.261  1.00  0.00     0.034 A 
ATOM     63  C   UNL A   1      40.958  32.638  32.427  1.00  0.00     0.034 A 
ATOM     64  C   UNL A   1      45.920  35.396  29.209  1.00  0.00     0.049 A 
ATOM     65  C   UNL A   1      41.757  33.895  32.652  1.00  0.00     0.074 A 
ATOM     66  C   UNL A   1      46.468  36.649  29.402  1.00  0.00     0.029 A 
ATOM     67  N   UNL A   1      44.934  35.233  30.171  1.00  0.00    -0.354 N 
ATOM     68  N   UNL A   1      42.726  34.395  31.922  1.00  0.00    -0.248 NA
ATOM     69  C   UNL A   1      41.421  34.703  33.832  1.00  0.00     0.031 C 
ATOM     70  C   UNL A   1      45.889  37.199  30.547  1.00  0.00     0.029 A 
ATOM     71  C   UNL A   1      44.917  36.328  31.017  1.00  0.00     0.049 A 
ATOM     72  H   UNL A   1      44.336  34.455  30.242  1.00  0.00     0.167 HD
ATOM     73  C   UNL A   1      43.100  35.586  32.538  1.00  0.00     0.074 A 
ATOM     74  C   UNL A   1      42.243  35.738  33.696  1.00  0.00     0.031 C 
ATOM     75  C   UNL A   1      44.062  36.472  32.173  1.00  0.00     0.034 A 
BRANCH  62  76
ATOM     76  C   UNL A   1      47.471  34.692  27.347  1.00  0.00     0.023 A 
ATOM     77  C   UNL A   1      48.793  34.435  27.751  1.00  0.00     0.031 A 
ATOM     78  C   UNL A   1      47.263  35.366  26.129  1.00  0.00     0.131 A 
ATOM     79  C   UNL A   1      49.860  34.880  26.958  1.00  0.00     0.055 A 
ATOM     80  C   UNL A   1      48.330  35.788  25.333  1.00  0.00     0.041 A 
ATOM     81  F   UNL A   1      46.019  35.634  25.701  1.00  0.00    -0.206 F 
ATOM     82  C   UNL A   1      49.636  35.554  25.752  1.00  0.00     0.022 A 
BRANCH  79  83
ATOM     83  S   UNL A   1      51.581  34.641  27.478  1.00  0.00     0.124 S 
ATOM     84  O   UNL A   1      52.288  34.676  26.198  1.00  0.00    -0.237 OA
ATOM     85  O   UNL A   1      51.802  35.796  28.343  1.00  0.00    -0.237 OA
ATOM     86  O   UNL A   1      51.571  33.344  28.143  1.00  0.00    -0.744 OA
ENDBRANCH  79  83
ENDBRANCH  62  76
BRANCH  63  87
ATOM     87  C   UNL A   1      39.815  32.245  33.298  1.00  0.00     0.023 A 
ATOM     88  C   UNL A   1      38.568  32.890  33.177  1.00  0.00     0.031 A 
ATOM     89  C   UNL A   1      39.992  31.337  34.353  1.00  0.00     0.131 A 
ATOM     90  C   UNL A   1      37.577  32.677  34.142  1.00  0.00     0.055 A 
ATOM     91  C   UNL A   1      38.977  31.078  35.275  1.00  0.00     0.041 A 
ATOM     92  F   UNL A   1      41.168  30.711  34.515  1.00  0.00    -0.206 F 
ATOM     93  C   UNL A   1      37.770  31.765  35.184  1.00  0.00     0.022 A 
BRANCH  90  94
ATOM     94  S   UNL A   1      36.069  33.688  34.165  1.00  0.00     0.124 S 
ATOM     95  O   UNL A   1      35.771  33.755  35.592  1.00  0.00    -0.237 OA
ATOM     96  O   UNL A   1      36.535  34.933  33.559  1.00  0.00    -0.237 OA
ATOM     97  O   UNL A   1      35.126  32.920  33.358  1.00  0.00    -0.744 OA
ENDBRANCH  90  94
ENDBRANCH  63  87
BRANCH  75  98
ATOM     98  C   UNL A   1      44.290  37.697  33.025  1.00  0.00     0.023 A 
ATOM     99  C   UNL A   1      43.547  38.869  32.782  1.00  0.00     0.031 A 
ATOM    100  C   UNL A   1      45.366  37.764  33.925  1.00  0.00     0.131 A 
ATOM    101  C   UNL A   1      43.932  40.074  33.380  1.00  0.00     0.055 A 
ATOM    102  C   UNL A   1      45.712  38.958  34.561  1.00  0.00     0.041 A 
ATOM    103  F   UNL A   1      46.109  36.677  34.183  1.00  0.00    -0.206 F 
ATOM    104  C   UNL A   1      45.007  40.123  34.274  1.00  0.00     0.022 A 
BRANCH 101 105
ATOM    105  S   UNL A   1      43.124  41.637  32.937  1.00  0.00     0.124 S 
ATOM    106  O   UNL A   1      43.055  41.539  31.481  1.00  0.00    -0.237 OA
ATOM    107  O   UNL A   1      41.844  41.528  33.632  1.00  0.00    -0.237 OA
ATOM    108  O   UNL A   1      44.031  42.660  33.448  1.00  0.00    -0.744 OA
ENDBRANCH 101 105
ENDBRANCH  75  98
ENDBRANCH  49  50
ENDBRANCH  42  44
ENDBRANCH  41  42
ENDBRANCH  40  41
ENDBRANCH  39  40
ENDBRANCH  38  39
ENDBRANCH   1  38
TORSDOF 21
ENDMDL
MODEL 3
REMARK VINA RESULT:     -11.4      2.681      3.656
REMARK SMILES Cc1ccc2c(c1)[C@]1([NH2+][C@@H](CCC(=O)OCCOCCOC(=O)c3ccc(-c4c5nc(c(-c6cc(S(=O)(=O)[O-])ccc6F)c6ccc([nH]6)c(-c6cc(S(=O)(=O)[O-])ccc6F)c6nc(c(-c7cc(S(=O)(=O)[O-])ccc7F)c7ccc4[nH]7)C=C6)C=C5)cc3)[C@@H]3C(=O)N(Cc4ccccc4)C(=O)[C@@H]31)C(=O)N2
REMARK SMILES IDX 17 1 16 2 15 3 13 4 14 5 12 6 11 7 10 8 1 9 2 10 3 11 7 12
REMARK SMILES IDX 4 13 6 14 5 15 8 16 103 17 9 18 100 19 101 20 87 24 98 25
REMARK SMILES IDX 102 26 88 27 90 28 99 29 89 30 91 31 92 32 93 33 97 34 94 35
REMARK SMILES IDX 96 36 95 37 18 38 19 39 20 40 21 41 22 42 23 43 24 44 25 45
REMARK SMILES IDX 86 46 26 47 85 48 27 49 28 50 29 51 79 52 30 53 84 54 78 55
REMARK SMILES IDX 80 56 31 57 83 58 77 59 76 60 32 62 64 63 44 64 63 65 45 66
REMARK SMILES IDX 48 67 62 68 81 69 46 70 47 71 61 73 82 74 49 75 33 76 34 77
REMARK SMILES IDX 42 78 35 79 41 80 43 81 40 82 36 83 37 84 38 85 39 86 65 87
REMARK SMILES IDX 66 88 74 89 67 90 73 91 75 92 72 93 68 94 69 95 70 96 71 97
REMARK SMILES IDX 50 98 51 99 59 100 52 101 58 102 60 103 57 104 53 105 54 106
REMARK SMILES IDX 55 107 56 108
REMARK H PARENT 103 21 9 22 9 23 80 61 48 72
REMARK Flexibility Score: inf
ROOT
ATOM      1  C   UNL A   1      41.838  21.371  26.124  1.00  0.00     0.202 C 
ENDROOT
BRANCH   1   2
ATOM      2  C   UNL A   1      40.408  21.115  26.604  1.00  0.00     0.261 C 
BRANCH   2   3
ATOM      3  O   UNL A   1      39.615  22.312  26.590  1.00  0.00    -0.463 OA
BRANCH   3   4
ATOM      4  C   UNL A   1      38.505  22.260  25.816  1.00  0.00     0.306 C 
ATOM      5  O   UNL A   1      38.131  21.282  25.177  1.00  0.00    -0.252 OA
BRANCH   4   6
ATOM      6  C   UNL A   1      37.709  23.544  25.829  1.00  0.00     0.129 C 
BRANCH   6   7
ATOM      7  C   UNL A   1      36.286  23.534  26.397  1.00  0.00     0.077 C 
BRANCH   7   8
ATOM      8  C   UNL A   1      35.144  23.306  25.396  1.00  0.00     0.197 C 
ATOM      9  C   UNL A   1      34.314  29.282  26.654  1.00  0.00     0.044 C 
ATOM     10  C   UNL A   1      33.863  28.441  25.496  1.00  0.00    -0.050 A 
ATOM     11  C   UNL A   1      33.321  29.063  24.348  1.00  0.00     0.005 A 
ATOM     12  C   UNL A   1      33.981  27.043  25.548  1.00  0.00     0.016 A 
ATOM     13  C   UNL A   1      32.948  28.314  23.229  1.00  0.00     0.027 A 
ATOM     14  C   UNL A   1      33.617  26.305  24.432  1.00  0.00     0.047 A 
ATOM     15  C   UNL A   1      33.130  26.951  23.295  1.00  0.00     0.051 A 
ATOM     16  C   UNL A   1      33.758  24.822  24.153  1.00  0.00     0.216 C 
ATOM     17  N   UNL A   1      32.981  26.046  22.258  1.00  0.00    -0.320 N 
ATOM     18  N   UNL A   1      35.161  24.402  24.411  1.00  0.00    -0.326 N 
ATOM     19  C   UNL A   1      32.852  23.948  25.002  1.00  0.00     0.174 C 
ATOM     20  C   UNL A   1      33.437  24.792  22.629  1.00  0.00     0.291 C 
ATOM     21  H   UNL A   1      32.604  26.265  21.376  1.00  0.00     0.170 HD
ATOM     22  H   UNL A   1      35.696  25.188  24.780  1.00  0.00     0.347 HD
ATOM     23  H   UNL A   1      35.599  24.087  23.545  1.00  0.00     0.347 HD
ATOM     24  C   UNL A   1      33.764  23.329  26.039  1.00  0.00     0.157 C 
ATOM     25  C   UNL A   1      32.244  22.740  24.328  1.00  0.00     0.240 C 
ATOM     26  O   UNL A   1      33.650  23.865  21.868  1.00  0.00    -0.267 OA
ATOM     27  C   UNL A   1      33.236  21.932  26.169  1.00  0.00     0.239 C 
ATOM     28  N   UNL A   1      32.629  21.605  24.997  1.00  0.00    -0.277 N 
ATOM     29  O   UNL A   1      31.411  22.812  23.438  1.00  0.00    -0.274 OA
ATOM     30  O   UNL A   1      33.359  21.263  27.182  1.00  0.00    -0.274 OA
BRANCH  28  31
ATOM     31  C   UNL A   1      32.051  20.312  24.681  1.00  0.00     0.164 C 
BRANCH  31  32
ATOM     32  C   UNL A   1      33.006  19.237  24.202  1.00  0.00    -0.028 A 
ATOM     33  C   UNL A   1      32.614  18.269  23.267  1.00  0.00     0.005 A 
ATOM     34  C   UNL A   1      34.289  19.134  24.757  1.00  0.00     0.005 A 
ATOM     35  C   UNL A   1      33.426  17.163  22.989  1.00  0.00     0.000 A 
ATOM     36  C   UNL A   1      35.126  18.061  24.438  1.00  0.00     0.000 A 
ATOM     37  C   UNL A   1      34.684  17.059  23.577  1.00  0.00     0.000 A 
ENDBRANCH  31  32
ENDBRANCH  28  31
ENDBRANCH   7   8
ENDBRANCH   6   7
ENDBRANCH   4   6
ENDBRANCH   3   4
ENDBRANCH   2   3
ENDBRANCH   1   2
BRANCH   1  38
ATOM     38  O   UNL A   1      42.704  21.986  27.080  1.00  0.00    -0.374 OA
BRANCH  38  39
ATOM     39  C   UNL A   1      43.405  23.154  26.662  1.00  0.00     0.202 C 
BRANCH  39  40
ATOM     40  C   UNL A   1      43.059  23.707  25.273  1.00  0.00     0.261 C 
BRANCH  40  41
ATOM     41  O   UNL A   1      43.067  25.147  25.189  1.00  0.00    -0.460 OA
BRANCH  41  42
ATOM     42  C   UNL A   1      42.021  25.760  25.812  1.00  0.00     0.338 C 
ATOM     43  O   UNL A   1      40.907  25.291  25.979  1.00  0.00    -0.246 OA
BRANCH  42  44
ATOM     44  C   UNL A   1      42.424  27.063  26.393  1.00  0.00     0.060 A 
ATOM     45  C   UNL A   1      41.926  28.272  25.911  1.00  0.00     0.016 A 
ATOM     46  C   UNL A   1      43.253  27.061  27.522  1.00  0.00     0.016 A 
ATOM     47  C   UNL A   1      42.247  29.470  26.569  1.00  0.00     0.010 A 
ATOM     48  C   UNL A   1      43.576  28.260  28.173  1.00  0.00     0.010 A 
ATOM     49  C   UNL A   1      43.069  29.480  27.705  1.00  0.00    -0.014 A 
BRANCH  49  50
ATOM     50  C   UNL A   1      43.240  30.733  28.489  1.00  0.00     0.031 A 
ATOM     51  C   UNL A   1      42.298  31.141  29.581  1.00  0.00     0.074 A 
ATOM     52  C   UNL A   1      44.282  31.529  28.194  1.00  0.00     0.049 A 
ATOM     53  N   UNL A   1      42.425  32.078  30.484  1.00  0.00    -0.248 NA
ATOM     54  C   UNL A   1      41.049  30.389  29.687  1.00  0.00     0.031 C 
ATOM     55  C   UNL A   1      45.270  31.259  27.151  1.00  0.00     0.029 A 
ATOM     56  N   UNL A   1      44.668  32.733  28.725  1.00  0.00    -0.354 N 
ATOM     57  C   UNL A   1      41.319  31.953  31.320  1.00  0.00     0.074 A 
ATOM     58  C   UNL A   1      40.501  30.891  30.785  1.00  0.00     0.031 C 
ATOM     59  C   UNL A   1      46.132  32.284  27.098  1.00  0.00     0.029 A 
ATOM     60  C   UNL A   1      45.748  33.289  28.088  1.00  0.00     0.049 A 
ATOM     61  H   UNL A   1      44.213  33.157  29.488  1.00  0.00     0.167 HD
ATOM     62  C   UNL A   1      41.010  32.671  32.425  1.00  0.00     0.034 A 
ATOM     63  C   UNL A   1      46.351  34.482  28.269  1.00  0.00     0.034 A 
ATOM     64  C   UNL A   1      41.734  33.842  32.837  1.00  0.00     0.049 A 
ATOM     65  C   UNL A   1      45.883  35.373  29.391  1.00  0.00     0.074 A 
ATOM     66  C   UNL A   1      41.504  34.650  33.933  1.00  0.00     0.029 A 
ATOM     67  N   UNL A   1      42.778  34.414  32.125  1.00  0.00    -0.354 N 
ATOM     68  N   UNL A   1      44.960  35.142  30.294  1.00  0.00    -0.248 NA
ATOM     69  C   UNL A   1      46.541  36.679  29.529  1.00  0.00     0.031 C 
ATOM     70  C   UNL A   1      42.336  35.766  33.826  1.00  0.00     0.029 A 
ATOM     71  C   UNL A   1      43.147  35.612  32.711  1.00  0.00     0.049 A 
ATOM     72  H   UNL A   1      43.195  34.026  31.322  1.00  0.00     0.167 HD
ATOM     73  C   UNL A   1      44.941  36.261  31.123  1.00  0.00     0.074 A 
ATOM     74  C   UNL A   1      45.955  37.164  30.619  1.00  0.00     0.031 C 
ATOM     75  C   UNL A   1      44.157  36.511  32.202  1.00  0.00     0.034 A 
BRANCH  62  76
ATOM     76  C   UNL A   1      39.835  32.236  33.264  1.00  0.00     0.023 A 
ATOM     77  C   UNL A   1      38.647  32.989  33.285  1.00  0.00     0.031 A 
ATOM     78  C   UNL A   1      39.952  31.149  34.149  1.00  0.00     0.131 A 
ATOM     79  C   UNL A   1      37.635  32.663  34.197  1.00  0.00     0.055 A 
ATOM     80  C   UNL A   1      38.930  30.816  35.041  1.00  0.00     0.041 A 
ATOM     81  F   UNL A   1      41.066  30.400  34.166  1.00  0.00    -0.206 F 
ATOM     82  C   UNL A   1      37.769  31.581  35.075  1.00  0.00     0.022 A 
BRANCH  79  83
ATOM     83  S   UNL A   1      36.120  33.654  34.314  1.00  0.00     0.124 S 
ATOM     84  O   UNL A   1      35.175  32.848  33.542  1.00  0.00    -0.237 OA
ATOM     85  O   UNL A   1      35.882  33.681  35.754  1.00  0.00    -0.237 OA
ATOM     86  O   UNL A   1      36.485  34.928  33.707  1.00  0.00    -0.744 OA
ENDBRANCH  79  83
ENDBRANCH  62  76
BRANCH  63  87
ATOM     87  C   UNL A   1      47.484  34.844  27.373  1.00  0.00     0.023 A 
ATOM     88  C   UNL A   1      48.806  34.496  27.715  1.00  0.00     0.031 A 
ATOM     89  C   UNL A   1      47.283  35.664  26.253  1.00  0.00     0.131 A 
ATOM     90  C   UNL A   1      49.877  35.034  26.991  1.00  0.00     0.055 A 
ATOM     91  C   UNL A   1      48.352  36.144  25.494  1.00  0.00     0.041 A 
ATOM     92  F   UNL A   1      46.042  36.032  25.900  1.00  0.00    -0.206 F 
ATOM     93  C   UNL A   1      49.657  35.846  25.875  1.00  0.00     0.022 A 
BRANCH  90  94
ATOM     94  S   UNL A   1      51.586  34.823  27.565  1.00  0.00     0.124 S 
ATOM     95  O   UNL A   1      51.799  33.394  27.364  1.00  0.00    -0.237 OA
ATOM     96  O   UNL A   1      52.318  35.704  26.657  1.00  0.00    -0.237 OA
ATOM     97  O   UNL A   1      51.541  35.266  28.955  1.00  0.00    -0.744 OA
ENDBRANCH  90  94
ENDBRANCH  63  87
BRANCH  75  98
ATOM     98  C   UNL A   1      44.317  37.820  32.935  1.00  0.00     0.023 A 
ATOM     99  C   UNL A   1      43.440  38.889  32.663  1.00  0.00     0.031 A 
ATOM    100  C   UNL A   1      45.443  38.070  33.738  1.00  0.00     0.131 A 
ATOM    101  C   UNL A   1      43.740  40.172  33.133  1.00  0.00     0.055 A 
ATOM    102  C   UNL A   1      45.708  39.342  34.248  1.00  0.00     0.041 A 
ATOM    103  F   UNL A   1      46.312  37.087  34.018  1.00  0.00    -0.206 F 
ATOM    104  C   UNL A   1      44.866  40.403  33.930  1.00  0.00     0.022 A 
BRANCH 101 105
ATOM    105  S   UNL A   1      42.742  41.605  32.637  1.00  0.00     0.124 S 
ATOM    106  O   UNL A   1      43.753  42.496  32.072  1.00  0.00    -0.237 OA
ATOM    107  O   UNL A   1      41.819  41.017  31.672  1.00  0.00    -0.237 OA
ATOM    108  O   UNL A   1      42.140  42.064  33.885  1.00  0.00    -0.744 OA
ENDBRANCH 101 105
ENDBRANCH  75  98
ENDBRANCH  49  50
ENDBRANCH  42  44
ENDBRANCH  41  42
ENDBRANCH  40  41
ENDBRANCH  39  40
ENDBRANCH  38  39
ENDBRANCH   1  38
TORSDOF 21
ENDMDL
