MODEL 1
REMARK VINA RESULT:      -9.2      0.000      0.000
REMARK SMILES O=C(CNc1nc(-c2ccccc2)c(-c2ccccc2)s1)OCCOCCOC(=O)c1ccc(-c2c3nc(c(-c4cc(S(=O)(=O)[O-])ccc4F)c4ccc([nH]4)c(-c4cc(S(=O)(=O)[O-])ccc4F)c4nc(c(-c5cc(S(=O)(=O)[O-])ccc5F)c5ccc2[nH]5)C=C4)C=C3)cc1
REMARK SMILES IDX 25 1 24 2 23 3 22 4 2 5 1 6 3 7 4 8 5 10 6 11 21 12 7 13
REMARK SMILES IDX 14 14 8 15 9 16 13 17 10 18 12 19 11 20 15 21 16 22 20 23
REMARK SMILES IDX 17 24 19 25 18 26 26 27 27 28 28 29 29 30 30 31 31 32 32 33
REMARK SMILES IDX 93 34 33 35 92 36 34 37 35 38 36 39 86 40 37 41 91 42 85 43
REMARK SMILES IDX 87 44 38 45 90 46 84 47 83 48 39 50 71 51 51 52 70 53 52 54
REMARK SMILES IDX 55 55 69 56 88 57 53 58 54 59 68 61 89 62 56 63 40 64 41 65
REMARK SMILES IDX 49 66 42 67 48 68 50 69 47 70 43 71 44 72 45 73 46 74 72 75
REMARK SMILES IDX 73 76 81 77 74 78 80 79 82 80 79 81 75 82 76 83 77 84 78 85
REMARK SMILES IDX 57 86 58 87 66 88 59 89 65 90 67 91 64 92 60 93 61 94 62 95
REMARK SMILES IDX 63 96
REMARK H PARENT 4 9 87 49 55 60
REMARK Flexibility Score: inf
ROOT
ATOM      1  O   UNL A   1      34.234  33.393  28.762  1.00  0.00    -0.374 OA
ENDROOT
BRANCH   1   2
ATOM      2  C   UNL A   1      35.421  33.560  27.997  1.00  0.00     0.202 C 
BRANCH   2   3
ATOM      3  C   UNL A   1      36.742  33.218  28.683  1.00  0.00     0.261 C 
BRANCH   3   4
ATOM      4  O   UNL A   1      36.784  31.944  29.339  1.00  0.00    -0.462 OA
BRANCH   4   5
ATOM      5  C   UNL A   1      36.815  30.739  28.721  1.00  0.00     0.325 C 
ATOM      6  O   UNL A   1      37.811  30.441  28.057  1.00  0.00    -0.250 OA
BRANCH   5   7
ATOM      7  C   UNL A   1      35.626  29.781  28.800  1.00  0.00     0.238 C 
BRANCH   7   8
ATOM      8  N   UNL A   1      34.464  30.226  28.049  1.00  0.00    -0.351 N 
ATOM      9  H   UNL A   1      34.116  31.136  28.189  1.00  0.00     0.163 HD
BRANCH   8  10
ATOM     10  C   UNL A   1      33.857  29.409  27.164  1.00  0.00     0.184 A 
ATOM     11  N   UNL A   1      34.416  28.422  26.505  1.00  0.00    -0.220 NA
ATOM     12  S   UNL A   1      32.206  29.702  26.780  1.00  0.00    -0.096 S 
ATOM     13  C   UNL A   1      33.521  27.898  25.577  1.00  0.00     0.091 A 
ATOM     14  C   UNL A   1      32.281  28.518  25.545  1.00  0.00     0.064 A 
BRANCH  13  15
ATOM     15  C   UNL A   1      33.823  26.698  24.806  1.00  0.00     0.002 A 
ATOM     16  C   UNL A   1      33.709  26.669  23.409  1.00  0.00     0.010 A 
ATOM     17  C   UNL A   1      34.100  25.508  25.492  1.00  0.00     0.010 A 
ATOM     18  C   UNL A   1      33.800  25.457  22.720  1.00  0.00     0.001 A 
ATOM     19  C   UNL A   1      34.187  24.298  24.801  1.00  0.00     0.001 A 
ATOM     20  C   UNL A   1      34.020  24.271  23.417  1.00  0.00     0.000 A 
ENDBRANCH  13  15
BRANCH  14  21
ATOM     21  C   UNL A   1      31.080  28.246  24.765  1.00  0.00    -0.006 A 
ATOM     22  C   UNL A   1      30.450  26.995  24.830  1.00  0.00     0.009 A 
ATOM     23  C   UNL A   1      30.553  29.241  23.933  1.00  0.00     0.009 A 
ATOM     24  C   UNL A   1      29.319  26.740  24.054  1.00  0.00     0.001 A 
ATOM     25  C   UNL A   1      29.425  28.983  23.158  1.00  0.00     0.001 A 
ATOM     26  C   UNL A   1      28.813  27.731  23.214  1.00  0.00     0.000 A 
ENDBRANCH  14  21
ENDBRANCH   8  10
ENDBRANCH   7   8
ENDBRANCH   5   7
ENDBRANCH   4   5
ENDBRANCH   3   4
ENDBRANCH   2   3
ENDBRANCH   1   2
BRANCH   1  27
ATOM     27  C   UNL A   1      34.032  34.332  29.822  1.00  0.00     0.202 C 
BRANCH  27  28
ATOM     28  C   UNL A   1      33.935  33.735  31.230  1.00  0.00     0.261 C 
BRANCH  28  29
ATOM     29  O   UNL A   1      33.326  34.651  32.154  1.00  0.00    -0.460 OA
BRANCH  29  30
ATOM     30  C   UNL A   1      34.158  35.611  32.626  1.00  0.00     0.338 C 
ATOM     31  O   UNL A   1      33.925  36.808  32.708  1.00  0.00    -0.246 OA
BRANCH  30  32
ATOM     32  C   UNL A   1      35.340  34.980  33.246  1.00  0.00     0.060 A 
ATOM     33  C   UNL A   1      36.575  35.165  32.609  1.00  0.00     0.016 A 
ATOM     34  C   UNL A   1      35.251  34.214  34.412  1.00  0.00     0.016 A 
ATOM     35  C   UNL A   1      37.709  34.524  33.095  1.00  0.00     0.010 A 
ATOM     36  C   UNL A   1      36.393  33.572  34.900  1.00  0.00     0.010 A 
ATOM     37  C   UNL A   1      37.616  33.688  34.216  1.00  0.00    -0.014 A 
BRANCH  37  38
ATOM     38  C   UNL A   1      38.769  32.823  34.561  1.00  0.00     0.031 A 
ATOM     39  C   UNL A   1      39.137  31.701  33.627  1.00  0.00     0.074 A 
ATOM     40  C   UNL A   1      39.518  33.088  35.647  1.00  0.00     0.049 A 
ATOM     41  N   UNL A   1      40.114  30.836  33.713  1.00  0.00    -0.248 NA
ATOM     42  C   UNL A   1      38.286  31.530  32.439  1.00  0.00     0.031 C 
ATOM     43  C   UNL A   1      39.269  34.172  36.596  1.00  0.00     0.029 A 
ATOM     44  N   UNL A   1      40.643  32.471  36.129  1.00  0.00    -0.354 N 
ATOM     45  C   UNL A   1      40.003  30.027  32.587  1.00  0.00     0.074 A 
ATOM     46  C   UNL A   1      38.830  30.469  31.864  1.00  0.00     0.031 C 
ATOM     47  C   UNL A   1      40.216  34.143  37.549  1.00  0.00     0.029 A 
ATOM     48  C   UNL A   1      41.114  33.019  37.300  1.00  0.00     0.049 A 
ATOM     49  H   UNL A   1      41.073  31.707  35.681  1.00  0.00     0.167 HD
ATOM     50  C   UNL A   1      40.818  29.021  32.184  1.00  0.00     0.034 A 
ATOM     51  C   UNL A   1      42.139  32.640  38.089  1.00  0.00     0.034 A 
ATOM     52  C   UNL A   1      41.973  28.585  32.928  1.00  0.00     0.049 A 
ATOM     53  C   UNL A   1      42.983  31.463  37.658  1.00  0.00     0.074 A 
ATOM     54  C   UNL A   1      42.864  27.571  32.623  1.00  0.00     0.029 A 
ATOM     55  N   UNL A   1      42.396  29.133  34.134  1.00  0.00    -0.354 N 
ATOM     56  N   UNL A   1      42.872  30.712  36.585  1.00  0.00    -0.248 NA
ATOM     57  C   UNL A   1      44.101  31.098  38.534  1.00  0.00     0.031 C 
ATOM     58  C   UNL A   1      43.778  27.459  33.676  1.00  0.00     0.029 A 
ATOM     59  C   UNL A   1      43.516  28.459  34.598  1.00  0.00     0.049 A 
ATOM     60  H   UNL A   1      41.963  29.889  34.592  1.00  0.00     0.167 HD
ATOM     61  C   UNL A   1      43.924  29.801  36.648  1.00  0.00     0.074 A 
ATOM     62  C   UNL A   1      44.676  30.126  37.844  1.00  0.00     0.031 C 
ATOM     63  C   UNL A   1      44.241  28.784  35.804  1.00  0.00     0.034 A 
BRANCH  50  64
ATOM     64  C   UNL A   1      40.461  28.304  30.903  1.00  0.00     0.023 A 
ATOM     65  C   UNL A   1      41.183  28.511  29.714  1.00  0.00     0.031 A 
ATOM     66  C   UNL A   1      39.378  27.408  30.866  1.00  0.00     0.131 A 
ATOM     67  C   UNL A   1      40.781  27.875  28.529  1.00  0.00     0.055 A 
ATOM     68  C   UNL A   1      39.030  26.719  29.702  1.00  0.00     0.041 A 
ATOM     69  F   UNL A   1      38.634  27.190  31.962  1.00  0.00    -0.206 F 
ATOM     70  C   UNL A   1      39.726  26.960  28.521  1.00  0.00     0.022 A 
BRANCH  67  71
ATOM     71  S   UNL A   1      41.574  28.358  26.972  1.00  0.00     0.124 S 
ATOM     72  O   UNL A   1      42.008  27.064  26.448  1.00  0.00    -0.237 OA
ATOM     73  O   UNL A   1      40.486  29.007  26.250  1.00  0.00    -0.237 OA
ATOM     74  O   UNL A   1      42.656  29.243  27.398  1.00  0.00    -0.744 OA
ENDBRANCH  67  71
ENDBRANCH  50  64
BRANCH  51  75
ATOM     75  C   UNL A   1      42.403  33.337  39.382  1.00  0.00     0.023 A 
ATOM     76  C   UNL A   1      41.770  32.943  40.571  1.00  0.00     0.031 A 
ATOM     77  C   UNL A   1      43.244  34.465  39.430  1.00  0.00     0.131 A 
ATOM     78  C   UNL A   1      41.936  33.704  41.739  1.00  0.00     0.055 A 
ATOM     79  C   UNL A   1      43.459  35.178  40.610  1.00  0.00     0.041 A 
ATOM     80  F   UNL A   1      43.874  34.891  38.324  1.00  0.00    -0.206 F 
ATOM     81  C   UNL A   1      42.788  34.808  41.771  1.00  0.00     0.022 A 
BRANCH  78  82
ATOM     82  S   UNL A   1      40.925  33.297  43.190  1.00  0.00     0.124 S 
ATOM     83  O   UNL A   1      39.902  34.336  43.140  1.00  0.00    -0.237 OA
ATOM     84  O   UNL A   1      40.479  31.943  42.877  1.00  0.00    -0.237 OA
ATOM     85  O   UNL A   1      41.869  33.401  44.301  1.00  0.00    -0.744 OA
ENDBRANCH  78  82
ENDBRANCH  51  75
BRANCH  63  86
ATOM     86  C   UNL A   1      45.476  27.980  36.142  1.00  0.00     0.023 A 
ATOM     87  C   UNL A   1      45.405  26.819  36.931  1.00  0.00     0.031 A 
ATOM     88  C   UNL A   1      46.745  28.408  35.713  1.00  0.00     0.131 A 
ATOM     89  C   UNL A   1      46.583  26.182  37.346  1.00  0.00     0.055 A 
ATOM     90  C   UNL A   1      47.909  27.720  36.059  1.00  0.00     0.041 A 
ATOM     91  F   UNL A   1      46.878  29.511  34.958  1.00  0.00    -0.206 F 
ATOM     92  C   UNL A   1      47.834  26.614  36.900  1.00  0.00     0.022 A 
BRANCH  89  93
ATOM     93  S   UNL A   1      46.465  24.878  38.602  1.00  0.00     0.124 S 
ATOM     94  O   UNL A   1      47.742  24.190  38.441  1.00  0.00    -0.237 OA
ATOM     95  O   UNL A   1      46.305  25.645  39.833  1.00  0.00    -0.237 OA
ATOM     96  O   UNL A   1      45.291  24.112  38.191  1.00  0.00    -0.744 OA
ENDBRANCH  89  93
ENDBRANCH  63  86
ENDBRANCH  37  38
ENDBRANCH  30  32
ENDBRANCH  29  30
ENDBRANCH  28  29
ENDBRANCH  27  28
ENDBRANCH   1  27
TORSDOF 21
ENDMDL
MODEL 2
REMARK VINA RESULT:      -9.1      4.249     13.448
REMARK SMILES O=C(CNc1nc(-c2ccccc2)c(-c2ccccc2)s1)OCCOCCOC(=O)c1ccc(-c2c3nc(c(-c4cc(S(=O)(=O)[O-])ccc4F)c4ccc([nH]4)c(-c4cc(S(=O)(=O)[O-])ccc4F)c4nc(c(-c5cc(S(=O)(=O)[O-])ccc5F)c5ccc2[nH]5)C=C4)C=C3)cc1
REMARK SMILES IDX 25 1 24 2 23 3 22 4 2 5 1 6 3 7 4 8 5 10 6 11 21 12 7 13
REMARK SMILES IDX 14 14 8 15 9 16 13 17 10 18 12 19 11 20 15 21 16 22 20 23
REMARK SMILES IDX 17 24 19 25 18 26 26 27 27 28 28 29 29 30 30 31 31 32 32 33
REMARK SMILES IDX 93 34 33 35 92 36 34 37 35 38 36 39 86 40 37 41 91 42 85 43
REMARK SMILES IDX 87 44 38 45 90 46 84 47 83 48 39 50 71 51 51 52 70 53 52 54
REMARK SMILES IDX 55 55 69 56 88 57 53 58 54 59 68 61 89 62 56 63 40 64 41 65
REMARK SMILES IDX 49 66 42 67 48 68 50 69 47 70 43 71 44 72 45 73 46 74 72 75
REMARK SMILES IDX 73 76 81 77 74 78 80 79 82 80 79 81 75 82 76 83 77 84 78 85
REMARK SMILES IDX 57 86 58 87 66 88 59 89 65 90 67 91 64 92 60 93 61 94 62 95
REMARK SMILES IDX 63 96
REMARK H PARENT 4 9 87 49 55 60
REMARK Flexibility Score: inf
ROOT
ATOM      1  O   UNL A   1      45.941  24.060  39.641  1.00  0.00    -0.374 OA
ENDROOT
BRANCH   1   2
ATOM      2  C   UNL A   1      45.291  22.815  39.866  1.00  0.00     0.202 C 
BRANCH   2   3
ATOM      3  C   UNL A   1      46.138  21.686  40.450  1.00  0.00     0.261 C 
BRANCH   3   4
ATOM      4  O   UNL A   1      45.416  20.693  41.190  1.00  0.00    -0.462 OA
BRANCH   4   5
ATOM      5  C   UNL A   1      45.857  19.445  41.475  1.00  0.00     0.325 C 
ATOM      6  O   UNL A   1      46.610  19.291  42.441  1.00  0.00    -0.250 OA
BRANCH   5   7
ATOM      7  C   UNL A   1      45.474  18.253  40.599  1.00  0.00     0.238 C 
BRANCH   7   8
ATOM      8  N   UNL A   1      46.460  17.933  39.580  1.00  0.00    -0.351 N 
ATOM      9  H   UNL A   1      46.893  17.048  39.584  1.00  0.00     0.163 HD
BRANCH   8  10
ATOM     10  C   UNL A   1      46.789  18.831  38.629  1.00  0.00     0.184 A 
ATOM     11  N   UNL A   1      45.967  19.412  37.788  1.00  0.00    -0.220 NA
ATOM     12  S   UNL A   1      48.450  19.227  38.418  1.00  0.00    -0.096 S 
ATOM     13  C   UNL A   1      46.682  20.164  36.861  1.00  0.00     0.091 A 
ATOM     14  C   UNL A   1      48.059  20.128  37.016  1.00  0.00     0.064 A 
BRANCH  13  15
ATOM     15  C   UNL A   1      46.018  21.034  35.897  1.00  0.00     0.002 A 
ATOM     16  C   UNL A   1      46.259  20.929  34.520  1.00  0.00     0.010 A 
ATOM     17  C   UNL A   1      45.229  22.089  36.372  1.00  0.00     0.010 A 
ATOM     18  C   UNL A   1      45.776  21.905  33.644  1.00  0.00     0.001 A 
ATOM     19  C   UNL A   1      44.750  23.064  35.496  1.00  0.00     0.001 A 
ATOM     20  C   UNL A   1      45.038  22.981  34.134  1.00  0.00     0.000 A 
ENDBRANCH  13  15
BRANCH  14  21
ATOM     21  C   UNL A   1      49.134  20.800  36.296  1.00  0.00    -0.006 A 
ATOM     22  C   UNL A   1      49.625  22.039  36.730  1.00  0.00     0.009 A 
ATOM     23  C   UNL A   1      49.678  20.207  35.151  1.00  0.00     0.009 A 
ATOM     24  C   UNL A   1      50.633  22.683  36.013  1.00  0.00     0.001 A 
ATOM     25  C   UNL A   1      50.683  20.853  34.434  1.00  0.00     0.001 A 
ATOM     26  C   UNL A   1      51.155  22.094  34.862  1.00  0.00     0.000 A 
ENDBRANCH  14  21
ENDBRANCH   8  10
ENDBRANCH   7   8
ENDBRANCH   5   7
ENDBRANCH   4   5
ENDBRANCH   3   4
ENDBRANCH   2   3
ENDBRANCH   1   2
BRANCH   1  27
ATOM     27  C   UNL A   1      47.286  23.988  39.161  1.00  0.00     0.202 C 
BRANCH  27  28
ATOM     28  C   UNL A   1      47.493  24.393  37.697  1.00  0.00     0.261 C 
BRANCH  28  29
ATOM     29  O   UNL A   1      48.038  25.717  37.584  1.00  0.00    -0.460 OA
BRANCH  29  30
ATOM     30  C   UNL A   1      47.210  26.705  38.001  1.00  0.00     0.338 C 
ATOM     31  O   UNL A   1      47.346  27.407  38.992  1.00  0.00    -0.246 OA
BRANCH  30  32
ATOM     32  C   UNL A   1      46.202  26.978  36.957  1.00  0.00     0.060 A 
ATOM     33  C   UNL A   1      46.523  27.943  35.993  1.00  0.00     0.016 A 
ATOM     34  C   UNL A   1      44.968  26.323  36.921  1.00  0.00     0.016 A 
ATOM     35  C   UNL A   1      45.582  28.308  35.036  1.00  0.00     0.010 A 
ATOM     36  C   UNL A   1      44.024  26.690  35.958  1.00  0.00     0.010 A 
ATOM     37  C   UNL A   1      44.312  27.716  35.041  1.00  0.00    -0.014 A 
BRANCH  37  38
ATOM     38  C   UNL A   1      43.250  28.296  34.184  1.00  0.00     0.031 A 
ATOM     39  C   UNL A   1      43.132  27.824  32.759  1.00  0.00     0.074 A 
ATOM     40  C   UNL A   1      42.362  29.167  34.695  1.00  0.00     0.049 A 
ATOM     41  N   UNL A   1      42.272  28.171  31.838  1.00  0.00    -0.248 NA
ATOM     42  C   UNL A   1      44.120  26.828  32.313  1.00  0.00     0.031 C 
ATOM     43  C   UNL A   1      42.367  29.661  36.071  1.00  0.00     0.029 A 
ATOM     44  N   UNL A   1      41.282  29.784  34.120  1.00  0.00    -0.354 N 
ATOM     45  C   UNL A   1      42.606  27.430  30.709  1.00  0.00     0.074 A 
ATOM     46  C   UNL A   1      43.782  26.657  31.045  1.00  0.00     0.031 C 
ATOM     47  C   UNL A   1      41.336  30.508  36.234  1.00  0.00     0.029 A 
ATOM     48  C   UNL A   1      40.623  30.645  34.966  1.00  0.00     0.049 A 
ATOM     49  H   UNL A   1      41.005  29.628  33.188  1.00  0.00     0.167 HD
ATOM     50  C   UNL A   1      41.976  27.385  29.509  1.00  0.00     0.034 A 
ATOM     51  C   UNL A   1      39.578  31.464  34.735  1.00  0.00     0.034 A 
ATOM     52  C   UNL A   1      40.814  28.177  29.189  1.00  0.00     0.049 A 
ATOM     53  C   UNL A   1      38.944  31.454  33.364  1.00  0.00     0.074 A 
ATOM     54  C   UNL A   1      40.099  28.221  28.005  1.00  0.00     0.029 A 
ATOM     55  N   UNL A   1      40.199  29.072  30.056  1.00  0.00    -0.354 N 
ATOM     56  N   UNL A   1      39.264  30.741  32.308  1.00  0.00    -0.248 NA
ATOM     57  C   UNL A   1      37.796  32.345  33.162  1.00  0.00     0.031 C 
ATOM     58  C   UNL A   1      39.101  29.193  28.131  1.00  0.00     0.029 A 
ATOM     59  C   UNL A   1      39.132  29.693  29.423  1.00  0.00     0.049 A 
ATOM     60  H   UNL A   1      40.479  29.241  30.984  1.00  0.00     0.167 HD
ATOM     61  C   UNL A   1      38.338  31.081  31.324  1.00  0.00     0.074 A 
ATOM     62  C   UNL A   1      37.428  32.032  31.930  1.00  0.00     0.031 C 
ATOM     63  C   UNL A   1      38.247  30.656  30.037  1.00  0.00     0.034 A 
BRANCH  50  64
ATOM     64  C   UNL A   1      42.557  26.478  28.449  1.00  0.00     0.023 A 
ATOM     65  C   UNL A   1      43.708  26.832  27.724  1.00  0.00     0.031 A 
ATOM     66  C   UNL A   1      41.946  25.247  28.154  1.00  0.00     0.131 A 
ATOM     67  C   UNL A   1      44.181  25.992  26.704  1.00  0.00     0.055 A 
ATOM     68  C   UNL A   1      42.466  24.379  27.190  1.00  0.00     0.041 A 
ATOM     69  F   UNL A   1      40.829  24.867  28.793  1.00  0.00    -0.206 F 
ATOM     70  C   UNL A   1      43.583  24.755  26.451  1.00  0.00     0.022 A 
BRANCH  67  71
ATOM     71  S   UNL A   1      45.509  26.594  25.627  1.00  0.00     0.124 S 
ATOM     72  O   UNL A   1      44.956  27.863  25.157  1.00  0.00    -0.237 OA
ATOM     73  O   UNL A   1      46.639  26.691  26.543  1.00  0.00    -0.237 OA
ATOM     74  O   UNL A   1      45.621  25.555  24.605  1.00  0.00    -0.744 OA
ENDBRANCH  67  71
ENDBRANCH  50  64
BRANCH  51  75
ATOM     75  C   UNL A   1      39.089  32.394  35.797  1.00  0.00     0.023 A 
ATOM     76  C   UNL A   1      39.562  33.712  35.891  1.00  0.00     0.031 A 
ATOM     77  C   UNL A   1      38.191  31.947  36.784  1.00  0.00     0.131 A 
ATOM     78  C   UNL A   1      39.186  34.515  36.980  1.00  0.00     0.055 A 
ATOM     79  C   UNL A   1      37.767  32.772  37.827  1.00  0.00     0.041 A 
ATOM     80  F   UNL A   1      37.708  30.695  36.747  1.00  0.00    -0.206 F 
ATOM     81  C   UNL A   1      38.280  34.060  37.938  1.00  0.00     0.022 A 
BRANCH  78  82
ATOM     82  S   UNL A   1      39.993  36.127  37.189  1.00  0.00     0.124 S 
ATOM     83  O   UNL A   1      39.236  36.696  38.298  1.00  0.00    -0.237 OA
ATOM     84  O   UNL A   1      41.369  35.738  37.484  1.00  0.00    -0.237 OA
ATOM     85  O   UNL A   1      39.794  36.776  35.895  1.00  0.00    -0.744 OA
ENDBRANCH  78  82
ENDBRANCH  51  75
BRANCH  63  86
ATOM     86  C   UNL A   1      37.098  31.202  29.220  1.00  0.00     0.023 A 
ATOM     87  C   UNL A   1      36.036  30.381  28.803  1.00  0.00     0.031 A 
ATOM     88  C   UNL A   1      37.091  32.548  28.810  1.00  0.00     0.131 A 
ATOM     89  C   UNL A   1      35.065  30.885  27.926  1.00  0.00     0.055 A 
ATOM     90  C   UNL A   1      36.074  33.066  28.006  1.00  0.00     0.041 A 
ATOM     91  F   UNL A   1      38.079  33.381  29.175  1.00  0.00    -0.206 F 
ATOM     92  C   UNL A   1      35.066  32.228  27.540  1.00  0.00     0.022 A 
BRANCH  89  93
ATOM     93  S   UNL A   1      33.891  29.723  27.176  1.00  0.00     0.124 S 
ATOM     94  O   UNL A   1      32.777  30.602  26.831  1.00  0.00    -0.237 OA
ATOM     95  O   UNL A   1      34.655  29.193  26.051  1.00  0.00    -0.237 OA
ATOM     96  O   UNL A   1      33.621  28.769  28.248  1.00  0.00    -0.744 OA
ENDBRANCH  89  93
ENDBRANCH  63  86
ENDBRANCH  37  38
ENDBRANCH  30  32
ENDBRANCH  29  30
ENDBRANCH  28  29
ENDBRANCH  27  28
ENDBRANCH   1  27
TORSDOF 21
ENDMDL
MODEL 3
REMARK VINA RESULT:      -9.0      4.894     11.617
REMARK SMILES O=C(CNc1nc(-c2ccccc2)c(-c2ccccc2)s1)OCCOCCOC(=O)c1ccc(-c2c3nc(c(-c4cc(S(=O)(=O)[O-])ccc4F)c4ccc([nH]4)c(-c4cc(S(=O)(=O)[O-])ccc4F)c4nc(c(-c5cc(S(=O)(=O)[O-])ccc5F)c5ccc2[nH]5)C=C4)C=C3)cc1
REMARK SMILES IDX 25 1 24 2 23 3 22 4 2 5 1 6 3 7 4 8 5 10 6 11 21 12 7 13
REMARK SMILES IDX 14 14 8 15 9 16 13 17 10 18 12 19 11 20 15 21 16 22 20 23
REMARK SMILES IDX 17 24 19 25 18 26 26 27 27 28 28 29 29 30 30 31 31 32 32 33
REMARK SMILES IDX 93 34 33 35 92 36 34 37 35 38 36 39 86 40 37 41 91 42 85 43
REMARK SMILES IDX 87 44 38 45 90 46 84 47 83 48 39 50 71 51 51 52 70 53 52 54
REMARK SMILES IDX 55 55 69 56 88 57 53 58 54 59 68 61 89 62 56 63 40 64 41 65
REMARK SMILES IDX 49 66 42 67 48 68 50 69 47 70 43 71 44 72 45 73 46 74 72 75
REMARK SMILES IDX 73 76 81 77 74 78 80 79 82 80 79 81 75 82 76 83 77 84 78 85
REMARK SMILES IDX 57 86 58 87 66 88 59 89 65 90 67 91 64 92 60 93 61 94 62 95
REMARK SMILES IDX 63 96
REMARK H PARENT 4 9 87 49 55 60
REMARK Flexibility Score: inf
ROOT
ATOM      1  O   UNL A   1      42.215  32.841  43.632  1.00  0.00    -0.374 OA
ENDROOT
BRANCH   1   2
ATOM      2  C   UNL A   1      40.989  33.556  43.549  1.00  0.00     0.202 C 
BRANCH   2   3
ATOM      3  C   UNL A   1      39.731  32.836  44.031  1.00  0.00     0.261 C 
BRANCH   3   4
ATOM      4  O   UNL A   1      39.727  31.414  43.848  1.00  0.00    -0.462 OA
BRANCH   4   5
ATOM      5  C   UNL A   1      39.563  30.770  42.668  1.00  0.00     0.325 C 
ATOM      6  O   UNL A   1      40.566  30.461  42.020  1.00  0.00    -0.250 OA
BRANCH   5   7
ATOM      7  C   UNL A   1      38.168  30.470  42.119  1.00  0.00     0.238 C 
BRANCH   7   8
ATOM      8  N   UNL A   1      37.453  31.649  41.660  1.00  0.00    -0.351 N 
ATOM      9  H   UNL A   1      36.745  32.037  42.224  1.00  0.00     0.163 HD
BRANCH   8  10
ATOM     10  C   UNL A   1      37.746  32.217  40.472  1.00  0.00     0.184 A 
ATOM     11  N   UNL A   1      37.351  31.803  39.292  1.00  0.00    -0.220 NA
ATOM     12  S   UNL A   1      38.797  33.579  40.455  1.00  0.00    -0.096 S 
ATOM     13  C   UNL A   1      37.966  32.548  38.292  1.00  0.00     0.091 A 
ATOM     14  C   UNL A   1      38.841  33.525  38.744  1.00  0.00     0.064 A 
BRANCH  13  15
ATOM     15  C   UNL A   1      37.603  32.403  36.887  1.00  0.00     0.002 A 
ATOM     16  C   UNL A   1      38.101  31.356  36.099  1.00  0.00     0.010 A 
ATOM     17  C   UNL A   1      36.849  33.414  36.278  1.00  0.00     0.010 A 
ATOM     18  C   UNL A   1      37.907  31.361  34.715  1.00  0.00     0.001 A 
ATOM     19  C   UNL A   1      36.659  33.419  34.894  1.00  0.00     0.001 A 
ATOM     20  C   UNL A   1      37.202  32.401  34.112  1.00  0.00     0.000 A 
ENDBRANCH  13  15
BRANCH  14  21
ATOM     21  C   UNL A   1      39.630  34.525  38.034  1.00  0.00    -0.006 A 
ATOM     22  C   UNL A   1      40.217  34.229  36.796  1.00  0.00     0.009 A 
ATOM     23  C   UNL A   1      39.814  35.792  38.599  1.00  0.00     0.009 A 
ATOM     24  C   UNL A   1      40.995  35.186  36.144  1.00  0.00     0.001 A 
ATOM     25  C   UNL A   1      40.594  36.745  37.948  1.00  0.00     0.001 A 
ATOM     26  C   UNL A   1      41.189  36.439  36.724  1.00  0.00     0.000 A 
ENDBRANCH  14  21
ENDBRANCH   8  10
ENDBRANCH   7   8
ENDBRANCH   5   7
ENDBRANCH   4   5
ENDBRANCH   3   4
ENDBRANCH   2   3
ENDBRANCH   1   2
BRANCH   1  27
ATOM     27  C   UNL A   1      42.994  32.787  42.435  1.00  0.00     0.202 C 
BRANCH  27  28
ATOM     28  C   UNL A   1      43.027  34.073  41.603  1.00  0.00     0.261 C 
BRANCH  28  29
ATOM     29  O   UNL A   1      42.418  33.889  40.315  1.00  0.00    -0.460 OA
BRANCH  29  30
ATOM     30  C   UNL A   1      43.178  34.296  39.270  1.00  0.00     0.338 C 
ATOM     31  O   UNL A   1      43.862  35.308  39.210  1.00  0.00    -0.246 OA
BRANCH  30  32
ATOM     32  C   UNL A   1      43.247  33.221  38.261  1.00  0.00     0.060 A 
ATOM     33  C   UNL A   1      44.101  33.421  37.168  1.00  0.00     0.016 A 
ATOM     34  C   UNL A   1      42.490  32.051  38.364  1.00  0.00     0.016 A 
ATOM     35  C   UNL A   1      44.144  32.486  36.140  1.00  0.00     0.010 A 
ATOM     36  C   UNL A   1      42.535  31.111  37.330  1.00  0.00     0.010 A 
ATOM     37  C   UNL A   1      43.328  31.348  36.194  1.00  0.00    -0.014 A 
BRANCH  37  38
ATOM     38  C   UNL A   1      43.201  30.501  34.983  1.00  0.00     0.031 A 
ATOM     39  C   UNL A   1      42.248  30.929  33.898  1.00  0.00     0.074 A 
ATOM     40  C   UNL A   1      43.980  29.416  34.826  1.00  0.00     0.049 A 
ATOM     41  N   UNL A   1      41.991  30.361  32.749  1.00  0.00    -0.248 NA
ATOM     42  C   UNL A   1      41.482  32.161  34.146  1.00  0.00     0.031 C 
ATOM     43  C   UNL A   1      44.959  28.937  35.801  1.00  0.00     0.029 A 
ATOM     44  N   UNL A   1      44.076  28.527  33.788  1.00  0.00    -0.354 N 
ATOM     45  C   UNL A   1      41.043  31.171  32.131  1.00  0.00     0.074 A 
ATOM     46  C   UNL A   1      40.731  32.237  33.059  1.00  0.00     0.031 C 
ATOM     47  C   UNL A   1      45.558  27.837  35.312  1.00  0.00     0.029 A 
ATOM     48  C   UNL A   1      44.980  27.514  34.009  1.00  0.00     0.049 A 
ATOM     49  H   UNL A   1      43.548  28.605  32.960  1.00  0.00     0.167 HD
ATOM     50  C   UNL A   1      40.499  31.046  30.896  1.00  0.00     0.034 A 
ATOM     51  C   UNL A   1      45.286  26.440  33.256  1.00  0.00     0.034 A 
ATOM     52  C   UNL A   1      40.812  29.965  29.993  1.00  0.00     0.049 A 
ATOM     53  C   UNL A   1      44.605  26.280  31.917  1.00  0.00     0.074 A 
ATOM     54  C   UNL A   1      40.316  29.730  28.723  1.00  0.00     0.029 A 
ATOM     55  N   UNL A   1      41.699  28.931  30.268  1.00  0.00    -0.354 N 
ATOM     56  N   UNL A   1      43.717  27.059  31.341  1.00  0.00    -0.248 NA
ATOM     57  C   UNL A   1      44.984  25.108  31.121  1.00  0.00     0.031 C 
ATOM     58  C   UNL A   1      40.845  28.520  28.262  1.00  0.00     0.029 A 
ATOM     59  C   UNL A   1      41.741  28.042  29.205  1.00  0.00     0.049 A 
ATOM     60  H   UNL A   1      42.221  28.842  31.098  1.00  0.00     0.167 HD
ATOM     61  C   UNL A   1      43.452  26.481  30.102  1.00  0.00     0.074 A 
ATOM     62  C   UNL A   1      44.304  25.313  30.004  1.00  0.00     0.031 C 
ATOM     63  C   UNL A   1      42.582  26.870  29.133  1.00  0.00     0.034 A 
BRANCH  50  64
ATOM     64  C   UNL A   1      39.486  32.082  30.471  1.00  0.00     0.023 A 
ATOM     65  C   UNL A   1      38.103  31.845  30.562  1.00  0.00     0.031 A 
ATOM     66  C   UNL A   1      39.907  33.322  29.959  1.00  0.00     0.131 A 
ATOM     67  C   UNL A   1      37.193  32.808  30.098  1.00  0.00     0.055 A 
ATOM     68  C   UNL A   1      38.996  34.307  29.571  1.00  0.00     0.041 A 
ATOM     69  F   UNL A   1      41.214  33.597  29.822  1.00  0.00    -0.206 F 
ATOM     70  C   UNL A   1      37.630  34.049  29.629  1.00  0.00     0.022 A 
BRANCH  67  71
ATOM     71  S   UNL A   1      35.437  32.368  29.998  1.00  0.00     0.124 S 
ATOM     72  O   UNL A   1      35.190  31.835  31.336  1.00  0.00    -0.237 OA
ATOM     73  O   UNL A   1      34.807  33.648  29.694  1.00  0.00    -0.237 OA
ATOM     74  O   UNL A   1      35.391  31.379  28.923  1.00  0.00    -0.744 OA
ENDBRANCH  67  71
ENDBRANCH  50  64
BRANCH  51  75
ATOM     75  C   UNL A   1      46.242  25.406  33.756  1.00  0.00     0.023 A 
ATOM     76  C   UNL A   1      47.626  25.533  33.562  1.00  0.00     0.031 A 
ATOM     77  C   UNL A   1      45.770  24.232  34.373  1.00  0.00     0.131 A 
ATOM     78  C   UNL A   1      48.483  24.481  33.923  1.00  0.00     0.055 A 
ATOM     79  C   UNL A   1      46.634  23.219  34.792  1.00  0.00     0.041 A 
ATOM     80  F   UNL A   1      44.457  24.055  34.582  1.00  0.00    -0.206 F 
ATOM     81  C   UNL A   1      47.999  23.333  34.550  1.00  0.00     0.022 A 
BRANCH  78  82
ATOM     82  S   UNL A   1      50.232  24.586  33.450  1.00  0.00     0.124 S 
ATOM     83  O   UNL A   1      50.617  25.872  34.019  1.00  0.00    -0.237 OA
ATOM     84  O   UNL A   1      50.791  23.404  34.099  1.00  0.00    -0.237 OA
ATOM     85  O   UNL A   1      50.192  24.534  31.990  1.00  0.00    -0.744 OA
ENDBRANCH  78  82
ENDBRANCH  51  75
BRANCH  63  86
ATOM     86  C   UNL A   1      42.544  26.031  27.876  1.00  0.00     0.023 A 
ATOM     87  C   UNL A   1      41.763  24.866  27.792  1.00  0.00     0.031 A 
ATOM     88  C   UNL A   1      43.340  26.372  26.767  1.00  0.00     0.131 A 
ATOM     89  C   UNL A   1      41.865  24.035  26.667  1.00  0.00     0.055 A 
ATOM     90  C   UNL A   1      43.372  25.585  25.615  1.00  0.00     0.041 A 
ATOM     91  F   UNL A   1      44.109  27.473  26.788  1.00  0.00    -0.206 F 
ATOM     92  C   UNL A   1      42.650  24.396  25.569  1.00  0.00     0.022 A 
BRANCH  89  93
ATOM     93  S   UNL A   1      41.079  22.401  26.725  1.00  0.00     0.124 S 
ATOM     94  O   UNL A   1      41.728  21.716  25.611  1.00  0.00    -0.237 OA
ATOM     95  O   UNL A   1      41.438  21.930  28.058  1.00  0.00    -0.237 OA
ATOM     96  O   UNL A   1      39.661  22.696  26.532  1.00  0.00    -0.744 OA
ENDBRANCH  89  93
ENDBRANCH  63  86
ENDBRANCH  37  38
ENDBRANCH  30  32
ENDBRANCH  29  30
ENDBRANCH  28  29
ENDBRANCH  27  28
ENDBRANCH   1  27
TORSDOF 21
ENDMDL
