MODEL 1
REMARK VINA RESULT:     -12.0      0.000      0.000
REMARK SMILES O=C(OCCOCCOC(=O)[C@@H]1C[C@@H]1C(=O)N1CC2(CCCC2)c2c(F)cccc21)c1ccc(-c2c3nc(c(-c4cc(S(=O)(=O)[O-])ccc4F)c4ccc([nH]4)c(-c4cc(S(=O)(=O)[O-])ccc4F)c4nc(c(-c5cc(S(=O)(=O)[O-])ccc5F)c5ccc2[nH]5)C=C4)C=C3)cc1
REMARK SMILES IDX 5 1 4 2 3 3 2 4 1 5 31 6 32 7 93 8 33 9 92 10 34 11 35 12
REMARK SMILES IDX 36 13 86 14 37 15 91 16 85 17 87 18 38 19 90 20 84 21 83 22
REMARK SMILES IDX 39 24 71 25 51 26 70 27 52 28 55 29 69 30 88 31 53 32 54 33
REMARK SMILES IDX 68 35 89 36 56 37 40 38 41 39 49 40 42 41 48 42 50 43 47 44
REMARK SMILES IDX 43 45 44 46 45 47 46 48 72 49 73 50 81 51 74 52 80 53 82 54
REMARK SMILES IDX 79 55 75 56 76 57 77 58 78 59 57 60 58 61 66 62 59 63 65 64
REMARK SMILES IDX 67 65 64 66 60 67 61 68 62 69 63 70 6 71 7 72 8 73 9 74
REMARK SMILES IDX 10 75 11 76 12 77 13 78 14 79 15 80 16 81 17 82 18 83 30 84
REMARK SMILES IDX 19 85 24 86 29 87 20 88 23 89 25 90 28 91 21 92 22 93 26 94
REMARK SMILES IDX 27 95
REMARK H PARENT 87 23 55 34
REMARK Flexibility Score: inf
ROOT
ATOM      1  C   UNL A   1      31.440  30.883  25.706  1.00  0.00     0.202 C 
ENDROOT
BRANCH   1   2
ATOM      2  C   UNL A   1      31.489  31.659  27.023  1.00  0.00     0.261 C 
BRANCH   2   3
ATOM      3  O   UNL A   1      32.257  32.867  26.895  1.00  0.00    -0.460 OA
BRANCH   3   4
ATOM      4  C   UNL A   1      33.102  33.454  27.771  1.00  0.00     0.338 C 
ATOM      5  O   UNL A   1      32.860  34.616  28.099  1.00  0.00    -0.246 OA
BRANCH   4   6
ATOM      6  C   UNL A   1      34.349  32.820  28.315  1.00  0.00     0.060 A 
ATOM      7  C   UNL A   1      34.438  31.581  28.950  1.00  0.00     0.016 A 
ATOM      8  C   UNL A   1      35.551  33.536  28.130  1.00  0.00     0.016 A 
ATOM      9  C   UNL A   1      35.657  31.054  29.359  1.00  0.00     0.010 A 
ATOM     10  C   UNL A   1      36.781  33.032  28.569  1.00  0.00     0.010 A 
ATOM     11  C   UNL A   1      36.828  31.787  29.194  1.00  0.00    -0.014 A 
BRANCH  11  12
ATOM     12  C   UNL A   1      38.043  31.251  29.827  1.00  0.00     0.031 A 
ATOM     13  C   UNL A   1      38.335  31.667  31.237  1.00  0.00     0.074 A 
ATOM     14  C   UNL A   1      38.748  30.287  29.213  1.00  0.00     0.049 A 
ATOM     15  N   UNL A   1      39.212  31.183  32.071  1.00  0.00    -0.248 NA
ATOM     16  C   UNL A   1      37.493  32.740  31.798  1.00  0.00     0.031 C 
ATOM     17  C   UNL A   1      38.457  29.750  27.884  1.00  0.00     0.029 A 
ATOM     18  N   UNL A   1      39.827  29.560  29.643  1.00  0.00    -0.354 N 
ATOM     19  C   UNL A   1      39.000  31.857  33.265  1.00  0.00     0.074 A 
ATOM     20  C   UNL A   1      37.932  32.806  33.045  1.00  0.00     0.031 C 
ATOM     21  C   UNL A   1      39.339  28.773  27.607  1.00  0.00     0.029 A 
ATOM     22  C   UNL A   1      40.262  28.629  28.730  1.00  0.00     0.049 A 
ATOM     23  H   UNL A   1      40.251  29.693  30.521  1.00  0.00     0.167 HD
ATOM     24  C   UNL A   1      39.644  31.689  34.440  1.00  0.00     0.034 A 
ATOM     25  C   UNL A   1      41.291  27.761  28.804  1.00  0.00     0.034 A 
ATOM     26  C   UNL A   1      40.748  30.789  34.615  1.00  0.00     0.049 A 
ATOM     27  C   UNL A   1      42.089  27.708  30.085  1.00  0.00     0.074 A 
ATOM     28  C   UNL A   1      41.526  30.599  35.742  1.00  0.00     0.029 A 
ATOM     29  N   UNL A   1      41.242  29.943  33.633  1.00  0.00    -0.354 N 
ATOM     30  N   UNL A   1      41.874  28.338  31.218  1.00  0.00    -0.248 NA
ATOM     31  C   UNL A   1      43.267  26.830  30.103  1.00  0.00     0.031 C 
ATOM     32  C   UNL A   1      42.525  29.678  35.422  1.00  0.00     0.029 A 
ATOM     33  C   UNL A   1      42.335  29.249  34.117  1.00  0.00     0.049 A 
ATOM     34  H   UNL A   1      40.869  29.849  32.726  1.00  0.00     0.167 HD
ATOM     35  C   UNL A   1      42.874  27.915  32.088  1.00  0.00     0.074 A 
ATOM     36  C   UNL A   1      43.679  26.957  31.358  1.00  0.00     0.031 C 
ATOM     37  C   UNL A   1      43.112  28.289  33.371  1.00  0.00     0.034 A 
BRANCH  24  38
ATOM     38  C   UNL A   1      39.201  32.509  35.617  1.00  0.00     0.023 A 
ATOM     39  C   UNL A   1      39.699  33.810  35.793  1.00  0.00     0.031 A 
ATOM     40  C   UNL A   1      38.373  31.964  36.613  1.00  0.00     0.131 A 
ATOM     41  C   UNL A   1      39.397  34.514  36.963  1.00  0.00     0.055 A 
ATOM     42  C   UNL A   1      38.052  32.681  37.766  1.00  0.00     0.041 A 
ATOM     43  F   UNL A   1      37.860  30.730  36.473  1.00  0.00    -0.206 F 
ATOM     44  C   UNL A   1      38.575  33.959  37.950  1.00  0.00     0.022 A 
BRANCH  41  45
ATOM     45  S   UNL A   1      40.079  36.168  37.253  1.00  0.00     0.124 S 
ATOM     46  O   UNL A   1      41.457  35.868  37.638  1.00  0.00    -0.237 OA
ATOM     47  O   UNL A   1      39.917  36.795  35.946  1.00  0.00    -0.237 OA
ATOM     48  O   UNL A   1      39.245  36.704  38.324  1.00  0.00    -0.744 OA
ENDBRANCH  41  45
ENDBRANCH  24  38
BRANCH  25  49
ATOM     49  C   UNL A   1      41.603  26.872  27.649  1.00  0.00     0.023 A 
ATOM     50  C   UNL A   1      41.271  25.505  27.681  1.00  0.00     0.031 A 
ATOM     51  C   UNL A   1      42.266  27.362  26.512  1.00  0.00     0.131 A 
ATOM     52  C   UNL A   1      41.637  24.670  26.616  1.00  0.00     0.055 A 
ATOM     53  C   UNL A   1      42.581  26.538  25.429  1.00  0.00     0.041 A 
ATOM     54  F   UNL A   1      42.610  28.658  26.436  1.00  0.00    -0.206 F 
ATOM     55  C   UNL A   1      42.274  25.182  25.483  1.00  0.00     0.022 A 
BRANCH  52  56
ATOM     56  S   UNL A   1      41.365  22.879  26.702  1.00  0.00     0.124 S 
ATOM     57  O   UNL A   1      41.941  22.422  25.440  1.00  0.00    -0.237 OA
ATOM     58  O   UNL A   1      42.115  22.521  27.903  1.00  0.00    -0.237 OA
ATOM     59  O   UNL A   1      39.916  22.754  26.814  1.00  0.00    -0.744 OA
ENDBRANCH  52  56
ENDBRANCH  25  49
BRANCH  37  60
ATOM     60  C   UNL A   1      44.287  27.675  34.086  1.00  0.00     0.023 A 
ATOM     61  C   UNL A   1      44.131  26.457  34.774  1.00  0.00     0.031 A 
ATOM     62  C   UNL A   1      45.504  28.365  34.212  1.00  0.00     0.131 A 
ATOM     63  C   UNL A   1      45.165  25.985  35.590  1.00  0.00     0.055 A 
ATOM     64  C   UNL A   1      46.548  27.866  34.988  1.00  0.00     0.041 A 
ATOM     65  F   UNL A   1      45.690  29.536  33.582  1.00  0.00    -0.206 F 
ATOM     66  C   UNL A   1      46.376  26.677  35.693  1.00  0.00     0.022 A 
BRANCH  63  67
ATOM     67  S   UNL A   1      44.949  24.499  36.606  1.00  0.00     0.124 S 
ATOM     68  O   UNL A   1      46.306  23.957  36.643  1.00  0.00    -0.237 OA
ATOM     69  O   UNL A   1      44.466  25.057  37.867  1.00  0.00    -0.237 OA
ATOM     70  O   UNL A   1      43.981  23.699  35.863  1.00  0.00    -0.744 OA
ENDBRANCH  63  67
ENDBRANCH  37  60
ENDBRANCH  11  12
ENDBRANCH   4   6
ENDBRANCH   3   4
ENDBRANCH   2   3
ENDBRANCH   1   2
BRANCH   1  71
ATOM     71  O   UNL A   1      32.603  30.109  25.420  1.00  0.00    -0.374 OA
BRANCH  71  72
ATOM     72  C   UNL A   1      33.329  29.649  26.570  1.00  0.00     0.202 C 
BRANCH  72  73
ATOM     73  C   UNL A   1      33.740  28.181  26.405  1.00  0.00     0.261 C 
BRANCH  73  74
ATOM     74  O   UNL A   1      32.762  27.513  25.593  1.00  0.00    -0.463 OA
BRANCH  74  75
ATOM     75  C   UNL A   1      31.714  26.988  26.260  1.00  0.00     0.309 C 
ATOM     76  O   UNL A   1      31.452  27.146  27.439  1.00  0.00    -0.252 OA
BRANCH  75  77
ATOM     77  C   UNL A   1      30.775  26.253  25.377  1.00  0.00     0.112 C 
ATOM     78  C   UNL A   1      29.504  25.660  25.915  1.00  0.00     0.030 C 
ATOM     79  C   UNL A   1      30.562  24.755  25.322  1.00  0.00     0.094 C 
BRANCH  79  80
ATOM     80  C   UNL A   1      31.239  23.747  26.182  1.00  0.00     0.231 C 
ATOM     81  O   UNL A   1      31.272  23.846  27.402  1.00  0.00    -0.274 OA
BRANCH  80  82
ATOM     82  N   UNL A   1      31.957  22.810  25.479  1.00  0.00    -0.311 N 
ATOM     83  C   UNL A   1      31.593  21.392  25.484  1.00  0.00     0.137 C 
ATOM     84  C   UNL A   1      33.354  22.897  25.364  1.00  0.00     0.050 A 
ATOM     85  C   UNL A   1      32.816  20.609  24.926  1.00  0.00     0.018 C 
ATOM     86  C   UNL A   1      33.890  21.660  25.019  1.00  0.00     0.020 A 
ATOM     87  C   UNL A   1      34.157  24.004  25.599  1.00  0.00     0.027 A 
ATOM     88  C   UNL A   1      33.096  19.343  25.756  1.00  0.00     0.014 C 
ATOM     89  C   UNL A   1      32.596  20.117  23.476  1.00  0.00     0.014 C 
ATOM     90  C   UNL A   1      35.255  21.542  24.834  1.00  0.00     0.129 A 
ATOM     91  C   UNL A   1      35.538  23.870  25.439  1.00  0.00     0.005 A 
ATOM     92  C   UNL A   1      32.442  18.227  24.957  1.00  0.00     0.001 C 
ATOM     93  C   UNL A   1      32.778  18.600  23.525  1.00  0.00     0.001 C 
ATOM     94  F   UNL A   1      35.794  20.375  24.458  1.00  0.00    -0.207 F 
ATOM     95  C   UNL A   1      36.085  22.643  25.042  1.00  0.00     0.040 A 
ENDBRANCH  80  82
ENDBRANCH  79  80
ENDBRANCH  75  77
ENDBRANCH  74  75
ENDBRANCH  73  74
ENDBRANCH  72  73
ENDBRANCH  71  72
ENDBRANCH   1  71
TORSDOF 19
ENDMDL
MODEL 2
REMARK VINA RESULT:     -11.9      4.841     10.396
REMARK SMILES O=C(OCCOCCOC(=O)[C@@H]1C[C@@H]1C(=O)N1CC2(CCCC2)c2c(F)cccc21)c1ccc(-c2c3nc(c(-c4cc(S(=O)(=O)[O-])ccc4F)c4ccc([nH]4)c(-c4cc(S(=O)(=O)[O-])ccc4F)c4nc(c(-c5cc(S(=O)(=O)[O-])ccc5F)c5ccc2[nH]5)C=C4)C=C3)cc1
REMARK SMILES IDX 5 1 4 2 3 3 2 4 1 5 31 6 32 7 93 8 33 9 92 10 34 11 35 12
REMARK SMILES IDX 36 13 86 14 37 15 91 16 85 17 87 18 38 19 90 20 84 21 83 22
REMARK SMILES IDX 39 24 71 25 51 26 70 27 52 28 55 29 69 30 88 31 53 32 54 33
REMARK SMILES IDX 68 35 89 36 56 37 40 38 41 39 49 40 42 41 48 42 50 43 47 44
REMARK SMILES IDX 43 45 44 46 45 47 46 48 72 49 73 50 81 51 74 52 80 53 82 54
REMARK SMILES IDX 79 55 75 56 76 57 77 58 78 59 57 60 58 61 66 62 59 63 65 64
REMARK SMILES IDX 67 65 64 66 60 67 61 68 62 69 63 70 6 71 7 72 8 73 9 74
REMARK SMILES IDX 10 75 11 76 12 77 13 78 14 79 15 80 16 81 17 82 18 83 30 84
REMARK SMILES IDX 19 85 24 86 29 87 20 88 23 89 25 90 28 91 21 92 22 93 26 94
REMARK SMILES IDX 27 95
REMARK H PARENT 87 23 55 34
REMARK Flexibility Score: inf
ROOT
ATOM      1  C   UNL A   1      36.975  20.647  25.011  1.00  0.00     0.202 C 
ENDROOT
BRANCH   1   2
ATOM      2  C   UNL A   1      38.134  19.665  24.829  1.00  0.00     0.261 C 
BRANCH   2   3
ATOM      3  O   UNL A   1      38.981  19.630  25.989  1.00  0.00    -0.460 OA
BRANCH   3   4
ATOM      4  C   UNL A   1      40.254  20.056  26.146  1.00  0.00     0.338 C 
ATOM      5  O   UNL A   1      41.153  19.231  25.983  1.00  0.00    -0.246 OA
BRANCH   4   6
ATOM      6  C   UNL A   1      40.646  21.441  26.576  1.00  0.00     0.060 A 
ATOM      7  C   UNL A   1      40.407  22.623  25.875  1.00  0.00     0.016 A 
ATOM      8  C   UNL A   1      41.286  21.553  27.829  1.00  0.00     0.016 A 
ATOM      9  C   UNL A   1      40.754  23.865  26.395  1.00  0.00     0.010 A 
ATOM     10  C   UNL A   1      41.673  22.795  28.347  1.00  0.00     0.010 A 
ATOM     11  C   UNL A   1      41.411  23.953  27.618  1.00  0.00    -0.014 A 
BRANCH  11  12
ATOM     12  C   UNL A   1      41.919  25.278  28.005  1.00  0.00     0.031 A 
ATOM     13  C   UNL A   1      43.310  25.642  27.583  1.00  0.00     0.074 A 
ATOM     14  C   UNL A   1      41.089  26.180  28.555  1.00  0.00     0.049 A 
ATOM     15  N   UNL A   1      43.904  26.802  27.619  1.00  0.00    -0.248 NA
ATOM     16  C   UNL A   1      44.126  24.562  26.995  1.00  0.00     0.031 C 
ATOM     17  C   UNL A   1      39.687  25.934  28.893  1.00  0.00     0.029 A 
ATOM     18  N   UNL A   1      41.292  27.492  28.888  1.00  0.00    -0.354 N 
ATOM     19  C   UNL A   1      45.141  26.605  27.022  1.00  0.00     0.074 A 
ATOM     20  C   UNL A   1      45.230  25.210  26.656  1.00  0.00     0.031 C 
ATOM     21  C   UNL A   1      39.154  27.066  29.384  1.00  0.00     0.029 A 
ATOM     22  C   UNL A   1      40.179  28.106  29.410  1.00  0.00     0.049 A 
ATOM     23  H   UNL A   1      42.154  27.953  28.766  1.00  0.00     0.167 HD
ATOM     24  C   UNL A   1      46.111  27.517  26.799  1.00  0.00     0.034 A 
ATOM     25  C   UNL A   1      40.016  29.369  29.856  1.00  0.00     0.034 A 
ATOM     26  C   UNL A   1      46.026  28.883  27.234  1.00  0.00     0.049 A 
ATOM     27  C   UNL A   1      41.178  30.325  29.730  1.00  0.00     0.074 A 
ATOM     28  C   UNL A   1      46.985  29.874  27.133  1.00  0.00     0.029 A 
ATOM     29  N   UNL A   1      44.929  29.445  27.869  1.00  0.00    -0.354 N 
ATOM     30  N   UNL A   1      42.342  30.137  29.150  1.00  0.00    -0.248 NA
ATOM     31  C   UNL A   1      41.011  31.661  30.316  1.00  0.00     0.031 C 
ATOM     32  C   UNL A   1      46.487  31.018  27.756  1.00  0.00     0.029 A 
ATOM     33  C   UNL A   1      45.196  30.761  28.193  1.00  0.00     0.049 A 
ATOM     34  H   UNL A   1      44.083  28.975  28.059  1.00  0.00     0.167 HD
ATOM     35  C   UNL A   1      43.034  31.338  29.280  1.00  0.00     0.074 A 
ATOM     36  C   UNL A   1      42.149  32.251  29.972  1.00  0.00     0.031 C 
ATOM     37  C   UNL A   1      44.289  31.654  28.873  1.00  0.00     0.034 A 
BRANCH  24  38
ATOM     38  C   UNL A   1      47.354  27.074  26.086  1.00  0.00     0.023 A 
ATOM     39  C   UNL A   1      48.370  26.411  26.794  1.00  0.00     0.031 A 
ATOM     40  C   UNL A   1      47.575  27.400  24.737  1.00  0.00     0.131 A 
ATOM     41  C   UNL A   1      49.585  26.129  26.159  1.00  0.00     0.055 A 
ATOM     42  C   UNL A   1      48.778  27.092  24.101  1.00  0.00     0.041 A 
ATOM     43  F   UNL A   1      46.621  28.016  24.020  1.00  0.00    -0.206 F 
ATOM     44  C   UNL A   1      49.794  26.463  24.816  1.00  0.00     0.022 A 
BRANCH  41  45
ATOM     45  S   UNL A   1      50.941  25.337  27.062  1.00  0.00     0.124 S 
ATOM     46  O   UNL A   1      51.781  24.837  25.975  1.00  0.00    -0.237 OA
ATOM     47  O   UNL A   1      51.496  26.455  27.818  1.00  0.00    -0.237 OA
ATOM     48  O   UNL A   1      50.276  24.303  27.850  1.00  0.00    -0.744 OA
ENDBRANCH  41  45
ENDBRANCH  24  38
BRANCH  25  49
ATOM     49  C   UNL A   1      38.710  29.794  30.434  1.00  0.00     0.023 A 
ATOM     50  C   UNL A   1      37.861  30.668  29.732  1.00  0.00     0.031 A 
ATOM     51  C   UNL A   1      38.305  29.365  31.708  1.00  0.00     0.131 A 
ATOM     52  C   UNL A   1      36.670  31.115  30.322  1.00  0.00     0.055 A 
ATOM     53  C   UNL A   1      37.092  29.768  32.272  1.00  0.00     0.041 A 
ATOM     54  F   UNL A   1      39.082  28.535  32.422  1.00  0.00    -0.206 F 
ATOM     55  C   UNL A   1      36.273  30.656  31.581  1.00  0.00     0.022 A 
BRANCH  52  56
ATOM     56  S   UNL A   1      35.638  32.364  29.508  1.00  0.00     0.124 S 
ATOM     57  O   UNL A   1      35.456  31.790  28.178  1.00  0.00    -0.237 OA
ATOM     58  O   UNL A   1      34.451  32.370  30.359  1.00  0.00    -0.237 OA
ATOM     59  O   UNL A   1      36.450  33.574  29.565  1.00  0.00    -0.744 OA
ENDBRANCH  52  56
ENDBRANCH  25  49
BRANCH  37  60
ATOM     60  C   UNL A   1      44.801  33.043  29.158  1.00  0.00     0.023 A 
ATOM     61  C   UNL A   1      44.634  34.062  28.202  1.00  0.00     0.031 A 
ATOM     62  C   UNL A   1      45.580  33.311  30.295  1.00  0.00     0.131 A 
ATOM     63  C   UNL A   1      45.270  35.295  28.384  1.00  0.00     0.055 A 
ATOM     64  C   UNL A   1      46.174  34.557  30.495  1.00  0.00     0.041 A 
ATOM     65  F   UNL A   1      45.776  32.363  31.225  1.00  0.00    -0.206 F 
ATOM     66  C   UNL A   1      46.031  35.551  29.530  1.00  0.00     0.022 A 
BRANCH  63  67
ATOM     67  S   UNL A   1      45.199  36.581  27.109  1.00  0.00     0.124 S 
ATOM     68  O   UNL A   1      46.121  36.061  26.102  1.00  0.00    -0.237 OA
ATOM     69  O   UNL A   1      43.788  36.562  26.734  1.00  0.00    -0.237 OA
ATOM     70  O   UNL A   1      45.648  37.787  27.798  1.00  0.00    -0.744 OA
ENDBRANCH  63  67
ENDBRANCH  37  60
ENDBRANCH  11  12
ENDBRANCH   4   6
ENDBRANCH   3   4
ENDBRANCH   2   3
ENDBRANCH   1   2
BRANCH   1  71
ATOM     71  O   UNL A   1      37.246  21.983  24.594  1.00  0.00    -0.374 OA
BRANCH  71  72
ATOM     72  C   UNL A   1      36.148  22.661  23.965  1.00  0.00     0.202 C 
BRANCH  72  73
ATOM     73  C   UNL A   1      35.664  23.833  24.826  1.00  0.00     0.261 C 
BRANCH  73  74
ATOM     74  O   UNL A   1      34.229  23.841  24.835  1.00  0.00    -0.463 OA
BRANCH  74  75
ATOM     75  C   UNL A   1      33.647  22.949  25.663  1.00  0.00     0.309 C 
ATOM     76  O   UNL A   1      34.018  22.652  26.784  1.00  0.00    -0.252 OA
BRANCH  75  77
ATOM     77  C   UNL A   1      32.376  22.404  25.127  1.00  0.00     0.112 C 
ATOM     78  C   UNL A   1      31.619  23.119  24.045  1.00  0.00     0.030 C 
ATOM     79  C   UNL A   1      30.978  22.918  25.401  1.00  0.00     0.094 C 
BRANCH  79  80
ATOM     80  C   UNL A   1      30.633  24.099  26.238  1.00  0.00     0.231 C 
ATOM     81  O   UNL A   1      29.773  24.052  27.108  1.00  0.00    -0.274 OA
BRANCH  80  82
ATOM     82  N   UNL A   1      31.234  25.263  25.829  1.00  0.00    -0.311 N 
ATOM     83  C   UNL A   1      32.139  26.015  26.700  1.00  0.00     0.137 C 
ATOM     84  C   UNL A   1      30.561  26.184  25.009  1.00  0.00     0.050 A 
ATOM     85  C   UNL A   1      32.306  27.428  26.069  1.00  0.00     0.018 C 
ATOM     86  C   UNL A   1      31.159  27.437  25.093  1.00  0.00     0.020 A 
ATOM     87  C   UNL A   1      29.425  25.964  24.242  1.00  0.00     0.027 A 
ATOM     88  C   UNL A   1      32.234  28.531  27.141  1.00  0.00     0.014 C 
ATOM     89  C   UNL A   1      33.675  27.611  25.374  1.00  0.00     0.014 C 
ATOM     90  C   UNL A   1      30.655  28.481  24.338  1.00  0.00     0.129 A 
ATOM     91  C   UNL A   1      28.904  27.030  23.506  1.00  0.00     0.005 A 
ATOM     92  C   UNL A   1      33.689  28.858  27.432  1.00  0.00     0.001 C 
ATOM     93  C   UNL A   1      34.323  28.818  26.053  1.00  0.00     0.001 C 
ATOM     94  F   UNL A   1      31.239  29.685  24.365  1.00  0.00    -0.207 F 
ATOM     95  C   UNL A   1      29.528  28.283  23.542  1.00  0.00     0.040 A 
ENDBRANCH  80  82
ENDBRANCH  79  80
ENDBRANCH  75  77
ENDBRANCH  74  75
ENDBRANCH  73  74
ENDBRANCH  72  73
ENDBRANCH  71  72
ENDBRANCH   1  71
TORSDOF 19
ENDMDL
MODEL 3
REMARK VINA RESULT:     -11.7      4.893     10.171
REMARK SMILES O=C(OCCOCCOC(=O)[C@@H]1C[C@@H]1C(=O)N1CC2(CCCC2)c2c(F)cccc21)c1ccc(-c2c3nc(c(-c4cc(S(=O)(=O)[O-])ccc4F)c4ccc([nH]4)c(-c4cc(S(=O)(=O)[O-])ccc4F)c4nc(c(-c5cc(S(=O)(=O)[O-])ccc5F)c5ccc2[nH]5)C=C4)C=C3)cc1
REMARK SMILES IDX 5 1 4 2 3 3 2 4 1 5 31 6 32 7 93 8 33 9 92 10 34 11 35 12
REMARK SMILES IDX 36 13 86 14 37 15 91 16 85 17 87 18 38 19 90 20 84 21 83 22
REMARK SMILES IDX 39 24 71 25 51 26 70 27 52 28 55 29 69 30 88 31 53 32 54 33
REMARK SMILES IDX 68 35 89 36 56 37 40 38 41 39 49 40 42 41 48 42 50 43 47 44
REMARK SMILES IDX 43 45 44 46 45 47 46 48 72 49 73 50 81 51 74 52 80 53 82 54
REMARK SMILES IDX 79 55 75 56 76 57 77 58 78 59 57 60 58 61 66 62 59 63 65 64
REMARK SMILES IDX 67 65 64 66 60 67 61 68 62 69 63 70 6 71 7 72 8 73 9 74
REMARK SMILES IDX 10 75 11 76 12 77 13 78 14 79 15 80 16 81 17 82 18 83 30 84
REMARK SMILES IDX 19 85 24 86 29 87 20 88 23 89 25 90 28 91 21 92 22 93 26 94
REMARK SMILES IDX 27 95
REMARK H PARENT 87 23 55 34
REMARK Flexibility Score: inf
ROOT
ATOM      1  C   UNL A   1      36.002  19.882  24.969  1.00  0.00     0.202 C 
ENDROOT
BRANCH   1   2
ATOM      2  C   UNL A   1      37.427  20.356  24.682  1.00  0.00     0.261 C 
BRANCH   2   3
ATOM      3  O   UNL A   1      37.911  21.225  25.718  1.00  0.00    -0.460 OA
BRANCH   3   4
ATOM      4  C   UNL A   1      39.178  21.475  26.119  1.00  0.00     0.338 C 
ATOM      5  O   UNL A   1      39.983  20.545  26.069  1.00  0.00    -0.246 OA
BRANCH   4   6
ATOM      6  C   UNL A   1      39.655  22.781  26.687  1.00  0.00     0.060 A 
ATOM      7  C   UNL A   1      39.178  24.050  26.357  1.00  0.00     0.016 A 
ATOM      8  C   UNL A   1      40.659  22.707  27.675  1.00  0.00     0.016 A 
ATOM      9  C   UNL A   1      39.644  25.195  26.992  1.00  0.00     0.010 A 
ATOM     10  C   UNL A   1      41.163  23.856  28.298  1.00  0.00     0.010 A 
ATOM     11  C   UNL A   1      40.655  25.105  27.944  1.00  0.00    -0.014 A 
BRANCH  11  12
ATOM     12  C   UNL A   1      41.230  26.371  28.425  1.00  0.00     0.031 A 
ATOM     13  C   UNL A   1      42.664  26.655  28.094  1.00  0.00     0.074 A 
ATOM     14  C   UNL A   1      40.434  27.302  28.976  1.00  0.00     0.049 A 
ATOM     15  N   UNL A   1      43.332  27.768  28.221  1.00  0.00    -0.248 NA
ATOM     16  C   UNL A   1      43.436  25.549  27.496  1.00  0.00     0.031 C 
ATOM     17  C   UNL A   1      39.001  27.140  29.227  1.00  0.00     0.029 A 
ATOM     18  N   UNL A   1      40.707  28.580  29.386  1.00  0.00    -0.354 N 
ATOM     19  C   UNL A   1      44.584  27.512  27.679  1.00  0.00     0.074 A 
ATOM     20  C   UNL A   1      44.598  26.134  27.248  1.00  0.00     0.031 C 
ATOM     21  C   UNL A   1      38.520  28.283  29.748  1.00  0.00     0.029 A 
ATOM     22  C   UNL A   1      39.610  29.245  29.880  1.00  0.00     0.049 A 
ATOM     23  H   UNL A   1      41.603  28.983  29.332  1.00  0.00     0.167 HD
ATOM     24  C   UNL A   1      45.624  28.364  27.554  1.00  0.00     0.034 A 
ATOM     25  C   UNL A   1      39.510  30.494  30.380  1.00  0.00     0.034 A 
ATOM     26  C   UNL A   1      45.609  29.710  28.054  1.00  0.00     0.049 A 
ATOM     27  C   UNL A   1      40.739  31.370  30.364  1.00  0.00     0.074 A 
ATOM     28  C   UNL A   1      46.637  30.634  28.053  1.00  0.00     0.029 A 
ATOM     29  N   UNL A   1      44.518  30.317  28.658  1.00  0.00    -0.354 N 
ATOM     30  N   UNL A   1      41.918  31.129  29.836  1.00  0.00    -0.248 NA
ATOM     31  C   UNL A   1      40.631  32.686  31.008  1.00  0.00     0.031 C 
ATOM     32  C   UNL A   1      46.184  31.780  28.707  1.00  0.00     0.029 A 
ATOM     33  C   UNL A   1      44.856  31.594  29.063  1.00  0.00     0.049 A 
ATOM     34  H   UNL A   1      43.634  29.900  28.780  1.00  0.00     0.167 HD
ATOM     35  C   UNL A   1      42.681  32.270  30.064  1.00  0.00     0.074 A 
ATOM     36  C   UNL A   1      41.823  33.210  30.755  1.00  0.00     0.031 C 
ATOM     37  C   UNL A   1      43.976  32.516  29.739  1.00  0.00     0.034 A 
BRANCH  24  38
ATOM     38  C   UNL A   1      46.872  27.868  26.885  1.00  0.00     0.023 A 
ATOM     39  C   UNL A   1      47.016  27.986  25.493  1.00  0.00     0.031 A 
ATOM     40  C   UNL A   1      47.865  27.187  27.610  1.00  0.00     0.131 A 
ATOM     41  C   UNL A   1      48.114  27.394  24.858  1.00  0.00     0.055 A 
ATOM     42  C   UNL A   1      48.972  26.622  26.975  1.00  0.00     0.041 A 
ATOM     43  F   UNL A   1      47.775  27.069  28.945  1.00  0.00    -0.206 F 
ATOM     44  C   UNL A   1      49.094  26.715  25.591  1.00  0.00     0.022 A 
BRANCH  41  45
ATOM     45  S   UNL A   1      48.295  27.469  23.057  1.00  0.00     0.124 S 
ATOM     46  O   UNL A   1      48.248  26.056  22.686  1.00  0.00    -0.237 OA
ATOM     47  O   UNL A   1      47.130  28.257  22.668  1.00  0.00    -0.237 OA
ATOM     48  O   UNL A   1      49.591  28.112  22.865  1.00  0.00    -0.744 OA
ENDBRANCH  41  45
ENDBRANCH  24  38
BRANCH  25  49
ATOM     49  C   UNL A   1      38.205  30.982  30.911  1.00  0.00     0.023 A 
ATOM     50  C   UNL A   1      37.264  31.592  30.061  1.00  0.00     0.031 A 
ATOM     51  C   UNL A   1      37.892  30.882  32.276  1.00  0.00     0.131 A 
ATOM     52  C   UNL A   1      36.074  32.110  30.590  1.00  0.00     0.055 A 
ATOM     53  C   UNL A   1      36.681  31.351  32.792  1.00  0.00     0.041 A 
ATOM     54  F   UNL A   1      38.759  30.315  33.129  1.00  0.00    -0.206 F 
ATOM     55  C   UNL A   1      35.770  31.978  31.948  1.00  0.00     0.022 A 
BRANCH  52  56
ATOM     56  S   UNL A   1      34.918  33.041  29.547  1.00  0.00     0.124 S 
ATOM     57  O   UNL A   1      34.300  31.981  28.756  1.00  0.00    -0.237 OA
ATOM     58  O   UNL A   1      34.054  33.667  30.545  1.00  0.00    -0.237 OA
ATOM     59  O   UNL A   1      35.780  33.957  28.809  1.00  0.00    -0.744 OA
ENDBRANCH  52  56
ENDBRANCH  25  49
BRANCH  37  60
ATOM     60  C   UNL A   1      44.564  33.849  30.120  1.00  0.00     0.023 A 
ATOM     61  C   UNL A   1      44.618  34.889  29.174  1.00  0.00     0.031 A 
ATOM     62  C   UNL A   1      45.202  34.036  31.358  1.00  0.00     0.131 A 
ATOM     63  C   UNL A   1      45.331  36.058  29.467  1.00  0.00     0.055 A 
ATOM     64  C   UNL A   1      45.870  35.220  31.663  1.00  0.00     0.041 A 
ATOM     65  F   UNL A   1      45.186  33.064  32.285  1.00  0.00    -0.206 F 
ATOM     66  C   UNL A   1      45.948  36.233  30.710  1.00  0.00     0.022 A 
BRANCH  63  67
ATOM     67  S   UNL A   1      45.547  37.358  28.223  1.00  0.00     0.124 S 
ATOM     68  O   UNL A   1      45.407  36.610  26.976  1.00  0.00    -0.237 OA
ATOM     69  O   UNL A   1      44.445  38.266  28.534  1.00  0.00    -0.237 OA
ATOM     70  O   UNL A   1      46.883  37.882  28.487  1.00  0.00    -0.744 OA
ENDBRANCH  63  67
ENDBRANCH  37  60
ENDBRANCH  11  12
ENDBRANCH   4   6
ENDBRANCH   3   4
ENDBRANCH   2   3
ENDBRANCH   1   2
BRANCH   1  71
ATOM     71  O   UNL A   1      35.744  18.518  24.645  1.00  0.00    -0.374 OA
BRANCH  71  72
ATOM     72  C   UNL A   1      34.378  18.214  24.322  1.00  0.00     0.202 C 
BRANCH  72  73
ATOM     73  C   UNL A   1      33.447  19.350  24.761  1.00  0.00     0.261 C 
BRANCH  73  74
ATOM     74  O   UNL A   1      32.775  19.874  23.606  1.00  0.00    -0.463 OA
BRANCH  74  75
ATOM     75  C   UNL A   1      32.288  21.126  23.735  1.00  0.00     0.309 C 
ATOM     76  O   UNL A   1      31.769  21.795  22.860  1.00  0.00    -0.252 OA
BRANCH  75  77
ATOM     77  C   UNL A   1      32.323  21.620  25.133  1.00  0.00     0.112 C 
ATOM     78  C   UNL A   1      31.624  22.889  25.527  1.00  0.00     0.030 C 
ATOM     79  C   UNL A   1      33.127  22.786  25.666  1.00  0.00     0.094 C 
BRANCH  79  80
ATOM     80  C   UNL A   1      34.006  23.678  24.862  1.00  0.00     0.231 C 
ATOM     81  O   UNL A   1      35.047  23.283  24.355  1.00  0.00    -0.274 OA
BRANCH  80  82
ATOM     82  N   UNL A   1      33.633  24.999  24.893  1.00  0.00    -0.311 N 
ATOM     83  C   UNL A   1      33.247  25.666  26.139  1.00  0.00     0.137 C 
ATOM     84  C   UNL A   1      32.888  25.572  23.850  1.00  0.00     0.050 A 
ATOM     85  C   UNL A   1      32.532  26.990  25.741  1.00  0.00     0.018 C 
ATOM     86  C   UNL A   1      32.260  26.736  24.282  1.00  0.00     0.020 A 
ATOM     87  C   UNL A   1      32.712  25.080  22.563  1.00  0.00     0.027 A 
ATOM     88  C   UNL A   1      31.269  27.220  26.590  1.00  0.00     0.014 C 
ATOM     89  C   UNL A   1      33.420  28.235  25.968  1.00  0.00     0.014 C 
ATOM     90  C   UNL A   1      31.494  27.464  23.391  1.00  0.00     0.129 A 
ATOM     91  C   UNL A   1      31.914  25.805  21.677  1.00  0.00     0.005 A 
ATOM     92  C   UNL A   1      31.723  28.184  27.674  1.00  0.00     0.001 C 
ATOM     93  C   UNL A   1      32.628  29.138  26.915  1.00  0.00     0.001 C 
ATOM     94  F   UNL A   1      30.915  28.611  23.768  1.00  0.00    -0.207 F 
ATOM     95  C   UNL A   1      31.317  27.005  22.086  1.00  0.00     0.040 A 
ENDBRANCH  80  82
ENDBRANCH  79  80
ENDBRANCH  75  77
ENDBRANCH  74  75
ENDBRANCH  73  74
ENDBRANCH  72  73
ENDBRANCH  71  72
ENDBRANCH   1  71
TORSDOF 19
ENDMDL
