MODEL 1
REMARK VINA RESULT:     -11.0      0.000      0.000
REMARK SMILES CC(C)CSc1cc2c(cc1Cl)C=C(C(=O)OCCOCCOC(=O)c1ccc(-c3c4nc(c(-c5cc(S(=O)(=O)[O-])ccc5F)c5ccc([nH]5)c(-c5cc(S(=O)(=O)[O-])ccc5F)c5nc(c(-c6cc(S(=O)(=O)[O-])ccc6F)c6ccc3[nH]6)C=C5)C=C4)cc1)[C@H](C(F)(F)F)O2
REMARK SMILES IDX 20 1 19 2 18 3 17 4 15 5 16 6 14 7 6 8 7 9 11 10 8 11 10 12
REMARK SMILES IDX 12 13 9 14 94 15 13 16 89 17 5 18 4 19 2 20 1 21 3 22 90 23
REMARK SMILES IDX 91 24 92 25 93 26 21 27 22 28 23 29 24 30 25 31 26 32 27 33
REMARK SMILES IDX 88 34 28 35 87 36 29 37 30 38 31 39 81 40 32 41 86 42 80 43
REMARK SMILES IDX 82 44 33 45 85 46 79 47 78 48 34 50 66 51 46 52 65 53 47 54
REMARK SMILES IDX 50 55 64 56 83 57 48 58 49 59 63 61 84 62 51 63 35 64 36 65
REMARK SMILES IDX 44 66 37 67 43 68 45 69 42 70 38 71 39 72 40 73 41 74 67 75
REMARK SMILES IDX 68 76 76 77 69 78 75 79 77 80 74 81 70 82 71 83 72 84 73 85
REMARK SMILES IDX 52 86 53 87 61 88 54 89 60 90 62 91 59 92 55 93 56 94 57 95
REMARK SMILES IDX 58 96
REMARK H PARENT 82 49 50 60
REMARK Flexibility Score: inf
ROOT
ATOM      1  O   UNL A   1      32.479  29.918  25.711  1.00  0.00    -0.374 OA
ENDROOT
BRANCH   1   2
ATOM      2  C   UNL A   1      31.205  29.848  25.073  1.00  0.00     0.202 C 
BRANCH   2   3
ATOM      3  C   UNL A   1      31.152  29.135  23.718  1.00  0.00     0.261 C 
BRANCH   3   4
ATOM      4  O   UNL A   1      30.529  27.845  23.822  1.00  0.00    -0.460 OA
BRANCH   4   5
ATOM      5  C   UNL A   1      30.934  26.949  22.898  1.00  0.00     0.338 C 
ATOM      6  O   UNL A   1      30.947  27.100  21.687  1.00  0.00    -0.246 OA
BRANCH   5   7
ATOM      7  C   UNL A   1      31.530  25.783  23.563  1.00  0.00     0.087 C 
ATOM      8  C   UNL A   1      34.702  22.071  24.768  1.00  0.00     0.030 A 
ATOM      9  C   UNL A   1      33.299  22.179  24.625  1.00  0.00     0.063 A 
ATOM     10  C   UNL A   1      35.450  23.259  24.716  1.00  0.00     0.055 A 
ATOM     11  C   UNL A   1      32.691  23.398  24.325  1.00  0.00     0.129 A 
ATOM     12  C   UNL A   1      34.850  24.457  24.306  1.00  0.00     0.033 A 
ATOM     13  Cl  UNL A   1      37.104  23.397  25.195  1.00  0.00    -0.083 Cl
ATOM     14  C   UNL A   1      33.480  24.515  24.071  1.00  0.00     0.019 A 
ATOM     15  O   UNL A   1      31.323  23.427  24.224  1.00  0.00    -0.475 OA
ATOM     16  C   UNL A   1      32.866  25.694  23.491  1.00  0.00     0.027 C 
ATOM     17  C   UNL A   1      30.700  24.754  24.281  1.00  0.00     0.316 C 
BRANCH   8  18
ATOM     18  S   UNL A   1      35.270  20.386  25.008  1.00  0.00    -0.124 SA
BRANCH  18  19
ATOM     19  C   UNL A   1      33.875  19.259  24.624  1.00  0.00     0.078 C 
BRANCH  19  20
ATOM     20  C   UNL A   1      34.131  17.901  23.940  1.00  0.00    -0.007 C 
ATOM     21  C   UNL A   1      34.380  16.710  24.860  1.00  0.00     0.008 C 
ATOM     22  C   UNL A   1      32.919  17.581  23.048  1.00  0.00     0.008 C 
ENDBRANCH  19  20
ENDBRANCH  18  19
ENDBRANCH   8  18
BRANCH  17  23
ATOM     23  C   UNL A   1      30.370  25.148  25.738  1.00  0.00     0.430 C 
ATOM     24  F   UNL A   1      31.320  25.959  26.264  1.00  0.00    -0.167 F 
ATOM     25  F   UNL A   1      29.190  25.810  25.837  1.00  0.00    -0.167 F 
ATOM     26  F   UNL A   1      30.294  24.066  26.546  1.00  0.00    -0.167 F 
ENDBRANCH  17  23
ENDBRANCH   5   7
ENDBRANCH   4   5
ENDBRANCH   3   4
ENDBRANCH   2   3
ENDBRANCH   1   2
BRANCH   1  27
ATOM     27  C   UNL A   1      32.566  30.677  26.921  1.00  0.00     0.202 C 
BRANCH  27  28
ATOM     28  C   UNL A   1      32.044  32.119  26.895  1.00  0.00     0.261 C 
BRANCH  28  29
ATOM     29  O   UNL A   1      33.124  33.069  26.839  1.00  0.00    -0.460 OA
BRANCH  29  30
ATOM     30  C   UNL A   1      33.282  33.836  27.950  1.00  0.00     0.338 C 
ATOM     31  O   UNL A   1      32.518  34.682  28.368  1.00  0.00    -0.246 OA
BRANCH  30  32
ATOM     32  C   UNL A   1      34.420  33.304  28.731  1.00  0.00     0.060 A 
ATOM     33  C   UNL A   1      34.234  32.420  29.795  1.00  0.00     0.016 A 
ATOM     34  C   UNL A   1      35.708  33.712  28.363  1.00  0.00     0.016 A 
ATOM     35  C   UNL A   1      35.351  31.921  30.474  1.00  0.00     0.010 A 
ATOM     36  C   UNL A   1      36.820  33.223  29.048  1.00  0.00     0.010 A 
ATOM     37  C   UNL A   1      36.651  32.304  30.094  1.00  0.00    -0.014 A 
BRANCH  37  38
ATOM     38  C   UNL A   1      37.845  31.640  30.673  1.00  0.00     0.031 A 
ATOM     39  C   UNL A   1      38.583  30.564  29.935  1.00  0.00     0.074 A 
ATOM     40  C   UNL A   1      38.212  31.976  31.925  1.00  0.00     0.049 A 
ATOM     41  N   UNL A   1      39.626  29.875  30.320  1.00  0.00    -0.248 NA
ATOM     42  C   UNL A   1      38.088  30.210  28.595  1.00  0.00     0.031 C 
ATOM     43  C   UNL A   1      37.539  32.984  32.744  1.00  0.00     0.029 A 
ATOM     44  N   UNL A   1      39.218  31.506  32.733  1.00  0.00    -0.354 N 
ATOM     45  C   UNL A   1      39.925  29.015  29.271  1.00  0.00     0.074 A 
ATOM     46  C   UNL A   1      38.924  29.238  28.249  1.00  0.00     0.031 C 
ATOM     47  C   UNL A   1      38.155  33.066  33.931  1.00  0.00     0.029 A 
ATOM     48  C   UNL A   1      39.238  32.086  33.981  1.00  0.00     0.049 A 
ATOM     49  H   UNL A   1      39.864  30.821  32.447  1.00  0.00     0.167 HD
ATOM     50  C   UNL A   1      40.953  28.137  29.172  1.00  0.00     0.034 A 
ATOM     51  C   UNL A   1      40.026  31.850  35.052  1.00  0.00     0.034 A 
ATOM     52  C   UNL A   1      41.934  27.930  30.210  1.00  0.00     0.049 A 
ATOM     53  C   UNL A   1      41.129  30.830  34.934  1.00  0.00     0.074 A 
ATOM     54  C   UNL A   1      43.047  27.108  30.174  1.00  0.00     0.029 A 
ATOM     55  N   UNL A   1      41.922  28.528  31.462  1.00  0.00    -0.354 N 
ATOM     56  N   UNL A   1      41.472  30.107  33.893  1.00  0.00    -0.248 NA
ATOM     57  C   UNL A   1      41.962  30.594  36.122  1.00  0.00     0.031 C 
ATOM     58  C   UNL A   1      43.656  27.142  31.428  1.00  0.00     0.029 A 
ATOM     59  C   UNL A   1      42.981  28.056  32.221  1.00  0.00     0.049 A 
ATOM     60  H   UNL A   1      41.260  29.189  31.768  1.00  0.00     0.167 HD
ATOM     61  C   UNL A   1      42.572  29.354  34.292  1.00  0.00     0.074 A 
ATOM     62  C   UNL A   1      42.852  29.723  35.663  1.00  0.00     0.031 C 
ATOM     63  C   UNL A   1      43.279  28.440  33.582  1.00  0.00     0.034 A 
BRANCH  50  64
ATOM     64  C   UNL A   1      41.122  27.339  27.901  1.00  0.00     0.023 A 
ATOM     65  C   UNL A   1      40.996  25.936  27.927  1.00  0.00     0.031 A 
ATOM     66  C   UNL A   1      41.594  27.943  26.722  1.00  0.00     0.131 A 
ATOM     67  C   UNL A   1      41.388  25.181  26.814  1.00  0.00     0.055 A 
ATOM     68  C   UNL A   1      41.939  27.188  25.599  1.00  0.00     0.041 A 
ATOM     69  F   UNL A   1      41.741  29.275  26.649  1.00  0.00    -0.206 F 
ATOM     70  C   UNL A   1      41.853  25.800  25.648  1.00  0.00     0.022 A 
BRANCH  67  71
ATOM     71  S   UNL A   1      41.397  23.368  26.864  1.00  0.00     0.124 S 
ATOM     72  O   UNL A   1      41.703  23.110  28.271  1.00  0.00    -0.237 OA
ATOM     73  O   UNL A   1      40.035  23.044  26.454  1.00  0.00    -0.237 OA
ATOM     74  O   UNL A   1      42.448  22.997  25.923  1.00  0.00    -0.744 OA
ENDBRANCH  67  71
ENDBRANCH  50  64
BRANCH  51  75
ATOM     75  C   UNL A   1      39.812  32.645  36.296  1.00  0.00     0.023 A 
ATOM     76  C   UNL A   1      38.951  32.186  37.310  1.00  0.00     0.031 A 
ATOM     77  C   UNL A   1      40.369  33.927  36.435  1.00  0.00     0.131 A 
ATOM     78  C   UNL A   1      38.612  33.031  38.375  1.00  0.00     0.055 A 
ATOM     79  C   UNL A   1      40.090  34.737  37.538  1.00  0.00     0.041 A 
ATOM     80  F   UNL A   1      41.185  34.416  35.488  1.00  0.00    -0.206 F 
ATOM     81  C   UNL A   1      39.191  34.297  38.505  1.00  0.00     0.022 A 
BRANCH  78  82
ATOM     82  S   UNL A   1      37.300  32.575  39.542  1.00  0.00     0.124 S 
ATOM     83  O   UNL A   1      37.469  33.570  40.596  1.00  0.00    -0.237 OA
ATOM     84  O   UNL A   1      36.104  32.726  38.717  1.00  0.00    -0.237 OA
ATOM     85  O   UNL A   1      37.628  31.203  39.910  1.00  0.00    -0.744 OA
ENDBRANCH  78  82
ENDBRANCH  51  75
BRANCH  63  86
ATOM     86  C   UNL A   1      44.450  27.743  34.235  1.00  0.00     0.023 A 
ATOM     87  C   UNL A   1      44.233  26.582  35.004  1.00  0.00     0.031 A 
ATOM     88  C   UNL A   1      45.723  28.337  34.275  1.00  0.00     0.131 A 
ATOM     89  C   UNL A   1      45.246  26.099  35.841  1.00  0.00     0.055 A 
ATOM     90  C   UNL A   1      46.749  27.817  35.065  1.00  0.00     0.041 A 
ATOM     91  F   UNL A   1      45.979  29.449  33.566  1.00  0.00    -0.206 F 
ATOM     92  C   UNL A   1      46.506  26.706  35.870  1.00  0.00     0.022 A 
BRANCH  89  93
ATOM     93  S   UNL A   1      44.932  24.742  37.004  1.00  0.00     0.124 S 
ATOM     94  O   UNL A   1      44.489  23.673  36.110  1.00  0.00    -0.237 OA
ATOM     95  O   UNL A   1      46.247  24.545  37.607  1.00  0.00    -0.237 OA
ATOM     96  O   UNL A   1      43.903  25.271  37.893  1.00  0.00    -0.744 OA
ENDBRANCH  89  93
ENDBRANCH  63  86
ENDBRANCH  37  38
ENDBRANCH  30  32
ENDBRANCH  29  30
ENDBRANCH  28  29
ENDBRANCH  27  28
ENDBRANCH   1  27
TORSDOF 21
ENDMDL
MODEL 2
REMARK VINA RESULT:     -11.0      5.063      8.636
REMARK SMILES CC(C)CSc1cc2c(cc1Cl)C=C(C(=O)OCCOCCOC(=O)c1ccc(-c3c4nc(c(-c5cc(S(=O)(=O)[O-])ccc5F)c5ccc([nH]5)c(-c5cc(S(=O)(=O)[O-])ccc5F)c5nc(c(-c6cc(S(=O)(=O)[O-])ccc6F)c6ccc3[nH]6)C=C5)C=C4)cc1)[C@H](C(F)(F)F)O2
REMARK SMILES IDX 20 1 19 2 18 3 17 4 15 5 16 6 14 7 6 8 7 9 11 10 8 11 10 12
REMARK SMILES IDX 12 13 9 14 94 15 13 16 89 17 5 18 4 19 2 20 1 21 3 22 90 23
REMARK SMILES IDX 91 24 92 25 93 26 21 27 22 28 23 29 24 30 25 31 26 32 27 33
REMARK SMILES IDX 88 34 28 35 87 36 29 37 30 38 31 39 81 40 32 41 86 42 80 43
REMARK SMILES IDX 82 44 33 45 85 46 79 47 78 48 34 50 66 51 46 52 65 53 47 54
REMARK SMILES IDX 50 55 64 56 83 57 48 58 49 59 63 61 84 62 51 63 35 64 36 65
REMARK SMILES IDX 44 66 37 67 43 68 45 69 42 70 38 71 39 72 40 73 41 74 67 75
REMARK SMILES IDX 68 76 76 77 69 78 75 79 77 80 74 81 70 82 71 83 72 84 73 85
REMARK SMILES IDX 52 86 53 87 61 88 54 89 60 90 62 91 59 92 55 93 56 94 57 95
REMARK SMILES IDX 58 96
REMARK H PARENT 82 49 50 60
REMARK Flexibility Score: inf
ROOT
ATOM      1  O   UNL A   1      36.430  20.784  25.318  1.00  0.00    -0.374 OA
ENDROOT
BRANCH   1   2
ATOM      2  C   UNL A   1      35.200  21.034  24.640  1.00  0.00     0.202 C 
BRANCH   2   3
ATOM      3  C   UNL A   1      33.917  20.614  25.364  1.00  0.00     0.261 C 
BRANCH   3   4
ATOM      4  O   UNL A   1      33.260  21.737  25.971  1.00  0.00    -0.460 OA
BRANCH   4   5
ATOM      5  C   UNL A   1      31.991  21.936  25.557  1.00  0.00     0.338 C 
ATOM      6  O   UNL A   1      31.034  21.202  25.744  1.00  0.00    -0.246 OA
BRANCH   5   7
ATOM      7  C   UNL A   1      31.865  23.276  24.968  1.00  0.00     0.087 C 
ATOM      8  C   UNL A   1      31.099  28.219  24.454  1.00  0.00     0.030 A 
ATOM      9  C   UNL A   1      30.734  27.071  23.715  1.00  0.00     0.063 A 
ATOM     10  C   UNL A   1      32.003  28.045  25.515  1.00  0.00     0.055 A 
ATOM     11  C   UNL A   1      31.157  25.796  24.096  1.00  0.00     0.129 A 
ATOM     12  C   UNL A   1      32.334  26.758  25.959  1.00  0.00     0.033 A 
ATOM     13  Cl  UNL A   1      32.830  29.330  26.319  1.00  0.00    -0.083 Cl
ATOM     14  C   UNL A   1      31.878  25.636  25.275  1.00  0.00     0.019 A 
ATOM     15  O   UNL A   1      30.780  24.733  23.315  1.00  0.00    -0.475 OA
ATOM     16  C   UNL A   1      32.069  24.301  25.807  1.00  0.00     0.027 C 
ATOM     17  C   UNL A   1      31.529  23.488  23.516  1.00  0.00     0.316 C 
BRANCH   8  18
ATOM     18  S   UNL A   1      30.322  29.726  23.865  1.00  0.00    -0.124 SA
BRANCH  18  19
ATOM     19  C   UNL A   1      28.788  29.261  22.975  1.00  0.00     0.078 C 
BRANCH  19  20
ATOM     20  C   UNL A   1      27.810  30.345  22.480  1.00  0.00    -0.007 C 
ATOM     21  C   UNL A   1      27.453  31.447  23.473  1.00  0.00     0.008 C 
ATOM     22  C   UNL A   1      28.417  30.998  21.227  1.00  0.00     0.008 C 
ENDBRANCH  19  20
ENDBRANCH  18  19
ENDBRANCH   8  18
BRANCH  17  23
ATOM     23  C   UNL A   1      32.766  23.431  22.592  1.00  0.00     0.430 C 
ATOM     24  F   UNL A   1      33.903  23.743  23.259  1.00  0.00    -0.167 F 
ATOM     25  F   UNL A   1      32.951  22.199  22.056  1.00  0.00    -0.167 F 
ATOM     26  F   UNL A   1      32.666  24.306  21.565  1.00  0.00    -0.167 F 
ENDBRANCH  17  23
ENDBRANCH   5   7
ENDBRANCH   4   5
ENDBRANCH   3   4
ENDBRANCH   2   3
ENDBRANCH   1   2
BRANCH   1  27
ATOM     27  C   UNL A   1      37.233  19.699  24.843  1.00  0.00     0.202 C 
BRANCH  27  28
ATOM     28  C   UNL A   1      38.670  19.594  25.370  1.00  0.00     0.261 C 
BRANCH  28  29
ATOM     29  O   UNL A   1      39.079  20.808  26.026  1.00  0.00    -0.460 OA
BRANCH  29  30
ATOM     30  C   UNL A   1      40.286  20.753  26.649  1.00  0.00     0.338 C 
ATOM     31  O   UNL A   1      41.058  19.816  26.666  1.00  0.00    -0.246 OA
BRANCH  30  32
ATOM     32  C   UNL A   1      40.645  22.117  27.099  1.00  0.00     0.060 A 
ATOM     33  C   UNL A   1      41.571  22.335  28.120  1.00  0.00     0.016 A 
ATOM     34  C   UNL A   1      40.028  23.197  26.457  1.00  0.00     0.016 A 
ATOM     35  C   UNL A   1      41.899  23.647  28.478  1.00  0.00     0.010 A 
ATOM     36  C   UNL A   1      40.347  24.504  26.823  1.00  0.00     0.010 A 
ATOM     37  C   UNL A   1      41.303  24.740  27.821  1.00  0.00    -0.014 A 
BRANCH  37  38
ATOM     38  C   UNL A   1      41.779  26.126  28.053  1.00  0.00     0.031 A 
ATOM     39  C   UNL A   1      43.171  26.550  27.695  1.00  0.00     0.074 A 
ATOM     40  C   UNL A   1      40.947  26.986  28.672  1.00  0.00     0.049 A 
ATOM     41  N   UNL A   1      43.739  27.717  27.860  1.00  0.00    -0.248 NA
ATOM     42  C   UNL A   1      44.042  25.539  27.075  1.00  0.00     0.031 C 
ATOM     43  C   UNL A   1      39.585  26.661  29.096  1.00  0.00     0.029 A 
ATOM     44  N   UNL A   1      41.118  28.290  29.065  1.00  0.00    -0.354 N 
ATOM     45  C   UNL A   1      45.027  27.591  27.356  1.00  0.00     0.074 A 
ATOM     46  C   UNL A   1      45.172  26.219  26.919  1.00  0.00     0.031 C 
ATOM     47  C   UNL A   1      39.040  27.738  29.679  1.00  0.00     0.029 A 
ATOM     48  C   UNL A   1      40.025  28.817  29.715  1.00  0.00     0.049 A 
ATOM     49  H   UNL A   1      41.943  28.800  28.898  1.00  0.00     0.167 HD
ATOM     50  C   UNL A   1      45.985  28.544  27.255  1.00  0.00     0.034 A 
ATOM     51  C   UNL A   1      39.836  30.024  30.289  1.00  0.00     0.034 A 
ATOM     52  C   UNL A   1      45.816  29.904  27.704  1.00  0.00     0.049 A 
ATOM     53  C   UNL A   1      40.939  31.049  30.209  1.00  0.00     0.074 A 
ATOM     54  C   UNL A   1      46.709  30.955  27.585  1.00  0.00     0.029 A 
ATOM     55  N   UNL A   1      44.701  30.403  28.362  1.00  0.00    -0.354 N 
ATOM     56  N   UNL A   1      42.110  30.952  29.625  1.00  0.00    -0.248 NA
ATOM     57  C   UNL A   1      40.701  32.349  30.852  1.00  0.00     0.031 C 
ATOM     58  C   UNL A   1      46.173  32.060  28.246  1.00  0.00     0.029 A 
ATOM     59  C   UNL A   1      44.904  31.733  28.696  1.00  0.00     0.049 A 
ATOM     60  H   UNL A   1      43.885  29.890  28.563  1.00  0.00     0.167 HD
ATOM     61  C   UNL A   1      42.735  32.182  29.806  1.00  0.00     0.074 A 
ATOM     62  C   UNL A   1      41.805  33.016  30.537  1.00  0.00     0.031 C 
ATOM     63  C   UNL A   1      43.969  32.576  29.404  1.00  0.00     0.034 A 
BRANCH  50  64
ATOM     64  C   UNL A   1      47.306  28.195  26.610  1.00  0.00     0.023 A 
ATOM     65  C   UNL A   1      47.395  28.066  25.210  1.00  0.00     0.031 A 
ATOM     66  C   UNL A   1      48.413  27.806  27.385  1.00  0.00     0.131 A 
ATOM     67  C   UNL A   1      48.545  27.511  24.633  1.00  0.00     0.055 A 
ATOM     68  C   UNL A   1      49.574  27.297  26.801  1.00  0.00     0.041 A 
ATOM     69  F   UNL A   1      48.375  27.901  28.723  1.00  0.00    -0.206 F 
ATOM     70  C   UNL A   1      49.638  27.132  25.421  1.00  0.00     0.022 A 
BRANCH  67  71
ATOM     71  S   UNL A   1      48.636  27.175  22.853  1.00  0.00     0.124 S 
ATOM     72  O   UNL A   1      48.265  25.761  22.797  1.00  0.00    -0.237 OA
ATOM     73  O   UNL A   1      47.643  28.100  22.316  1.00  0.00    -0.237 OA
ATOM     74  O   UNL A   1      50.024  27.466  22.511  1.00  0.00    -0.744 OA
ENDBRANCH  67  71
ENDBRANCH  50  64
BRANCH  51  75
ATOM     75  C   UNL A   1      38.524  30.322  30.934  1.00  0.00     0.023 A 
ATOM     76  C   UNL A   1      37.508  30.997  30.231  1.00  0.00     0.031 A 
ATOM     77  C   UNL A   1      38.312  30.044  32.294  1.00  0.00     0.131 A 
ATOM     78  C   UNL A   1      36.365  31.439  30.910  1.00  0.00     0.055 A 
ATOM     79  C   UNL A   1      37.136  30.418  32.949  1.00  0.00     0.041 A 
ATOM     80  F   UNL A   1      39.256  29.415  33.012  1.00  0.00    -0.206 F 
ATOM     81  C   UNL A   1      36.164  31.137  32.260  1.00  0.00     0.022 A 
BRANCH  78  82
ATOM     82  S   UNL A   1      35.175  32.544  30.102  1.00  0.00     0.124 S 
ATOM     83  O   UNL A   1      34.139  32.675  31.122  1.00  0.00    -0.237 OA
ATOM     84  O   UNL A   1      35.987  33.737  29.871  1.00  0.00    -0.237 OA
ATOM     85  O   UNL A   1      34.789  31.815  28.899  1.00  0.00    -0.744 OA
ENDBRANCH  78  82
ENDBRANCH  51  75
BRANCH  63  86
ATOM     86  C   UNL A   1      44.435  33.979  29.718  1.00  0.00     0.023 A 
ATOM     87  C   UNL A   1      45.005  34.261  30.976  1.00  0.00     0.031 A 
ATOM     88  C   UNL A   1      44.122  35.058  28.874  1.00  0.00     0.131 A 
ATOM     89  C   UNL A   1      45.171  35.590  31.385  1.00  0.00     0.055 A 
ATOM     90  C   UNL A   1      44.345  36.380  29.263  1.00  0.00     0.041 A 
ATOM     91  F   UNL A   1      43.571  34.843  27.669  1.00  0.00    -0.206 F 
ATOM     92  C   UNL A   1      44.851  36.651  30.532  1.00  0.00     0.022 A 
BRANCH  89  93
ATOM     93  S   UNL A   1      45.696  35.990  33.076  1.00  0.00     0.124 S 
ATOM     94  O   UNL A   1      47.126  36.234  32.898  1.00  0.00    -0.237 OA
ATOM     95  O   UNL A   1      44.894  37.173  33.373  1.00  0.00    -0.237 OA
ATOM     96  O   UNL A   1      45.363  34.793  33.840  1.00  0.00    -0.744 OA
ENDBRANCH  89  93
ENDBRANCH  63  86
ENDBRANCH  37  38
ENDBRANCH  30  32
ENDBRANCH  29  30
ENDBRANCH  28  29
ENDBRANCH  27  28
ENDBRANCH   1  27
TORSDOF 21
ENDMDL
MODEL 3
REMARK VINA RESULT:     -10.9      5.320     10.485
REMARK SMILES CC(C)CSc1cc2c(cc1Cl)C=C(C(=O)OCCOCCOC(=O)c1ccc(-c3c4nc(c(-c5cc(S(=O)(=O)[O-])ccc5F)c5ccc([nH]5)c(-c5cc(S(=O)(=O)[O-])ccc5F)c5nc(c(-c6cc(S(=O)(=O)[O-])ccc6F)c6ccc3[nH]6)C=C5)C=C4)cc1)[C@H](C(F)(F)F)O2
REMARK SMILES IDX 20 1 19 2 18 3 17 4 15 5 16 6 14 7 6 8 7 9 11 10 8 11 10 12
REMARK SMILES IDX 12 13 9 14 94 15 13 16 89 17 5 18 4 19 2 20 1 21 3 22 90 23
REMARK SMILES IDX 91 24 92 25 93 26 21 27 22 28 23 29 24 30 25 31 26 32 27 33
REMARK SMILES IDX 88 34 28 35 87 36 29 37 30 38 31 39 81 40 32 41 86 42 80 43
REMARK SMILES IDX 82 44 33 45 85 46 79 47 78 48 34 50 66 51 46 52 65 53 47 54
REMARK SMILES IDX 50 55 64 56 83 57 48 58 49 59 63 61 84 62 51 63 35 64 36 65
REMARK SMILES IDX 44 66 37 67 43 68 45 69 42 70 38 71 39 72 40 73 41 74 67 75
REMARK SMILES IDX 68 76 76 77 69 78 75 79 77 80 74 81 70 82 71 83 72 84 73 85
REMARK SMILES IDX 52 86 53 87 61 88 54 89 60 90 62 91 59 92 55 93 56 94 57 95
REMARK SMILES IDX 58 96
REMARK H PARENT 82 49 50 60
REMARK Flexibility Score: inf
ROOT
ATOM      1  O   UNL A   1      38.248  21.391  24.867  1.00  0.00    -0.374 OA
ENDROOT
BRANCH   1   2
ATOM      2  C   UNL A   1      37.505  22.282  25.698  1.00  0.00     0.202 C 
BRANCH   2   3
ATOM      3  C   UNL A   1      36.054  21.893  25.999  1.00  0.00     0.261 C 
BRANCH   3   4
ATOM      4  O   UNL A   1      35.398  22.882  26.807  1.00  0.00    -0.460 OA
BRANCH   4   5
ATOM      5  C   UNL A   1      34.099  22.623  27.068  1.00  0.00     0.338 C 
ATOM      6  O   UNL A   1      33.656  21.726  27.767  1.00  0.00    -0.246 OA
BRANCH   5   7
ATOM      7  C   UNL A   1      33.258  23.692  26.513  1.00  0.00     0.087 C 
ATOM      8  C   UNL A   1      31.768  28.105  24.617  1.00  0.00     0.030 A 
ATOM      9  C   UNL A   1      31.248  27.202  25.572  1.00  0.00     0.063 A 
ATOM     10  C   UNL A   1      32.885  27.687  23.874  1.00  0.00     0.055 A 
ATOM     11  C   UNL A   1      31.886  25.994  25.854  1.00  0.00     0.129 A 
ATOM     12  C   UNL A   1      33.583  26.527  24.235  1.00  0.00     0.033 A 
ATOM     13  Cl  UNL A   1      33.465  28.474  22.450  1.00  0.00    -0.083 Cl
ATOM     14  C   UNL A   1      33.106  25.705  25.251  1.00  0.00     0.019 A 
ATOM     15  O   UNL A   1      31.307  25.160  26.778  1.00  0.00    -0.475 OA
ATOM     16  C   UNL A   1      33.893  24.594  25.752  1.00  0.00     0.027 C 
ATOM     17  C   UNL A   1      31.779  23.771  26.777  1.00  0.00     0.316 C 
BRANCH   8  18
ATOM     18  S   UNL A   1      30.865  29.653  24.528  1.00  0.00    -0.124 SA
BRANCH  18  19
ATOM     19  C   UNL A   1      29.590  29.490  23.221  1.00  0.00     0.078 C 
BRANCH  19  20
ATOM     20  C   UNL A   1      28.849  30.733  22.689  1.00  0.00    -0.007 C 
ATOM     21  C   UNL A   1      28.324  30.655  21.259  1.00  0.00     0.008 C 
ATOM     22  C   UNL A   1      27.664  31.019  23.628  1.00  0.00     0.008 C 
ENDBRANCH  19  20
ENDBRANCH  18  19
ENDBRANCH   8  18
BRANCH  17  23
ATOM     23  C   UNL A   1      30.941  22.903  25.811  1.00  0.00     0.430 C 
ATOM     24  F   UNL A   1      29.844  22.393  26.421  1.00  0.00    -0.167 F 
ATOM     25  F   UNL A   1      30.501  23.607  24.738  1.00  0.00    -0.167 F 
ATOM     26  F   UNL A   1      31.648  21.851  25.341  1.00  0.00    -0.167 F 
ENDBRANCH  17  23
ENDBRANCH   5   7
ENDBRANCH   4   5
ENDBRANCH   3   4
ENDBRANCH   2   3
ENDBRANCH   1   2
BRANCH   1  27
ATOM     27  C   UNL A   1      38.069  19.988  25.086  1.00  0.00     0.202 C 
BRANCH  27  28
ATOM     28  C   UNL A   1      39.244  19.207  25.688  1.00  0.00     0.261 C 
BRANCH  28  29
ATOM     29  O   UNL A   1      40.504  19.827  25.374  1.00  0.00    -0.460 OA
BRANCH  29  30
ATOM     30  C   UNL A   1      41.415  19.837  26.382  1.00  0.00     0.338 C 
ATOM     31  O   UNL A   1      42.125  18.917  26.736  1.00  0.00    -0.246 OA
BRANCH  30  32
ATOM     32  C   UNL A   1      41.604  21.235  26.832  1.00  0.00     0.060 A 
ATOM     33  C   UNL A   1      41.958  21.543  28.146  1.00  0.00     0.016 A 
ATOM     34  C   UNL A   1      41.422  22.251  25.887  1.00  0.00     0.016 A 
ATOM     35  C   UNL A   1      42.160  22.881  28.504  1.00  0.00     0.010 A 
ATOM     36  C   UNL A   1      41.612  23.585  26.248  1.00  0.00     0.010 A 
ATOM     37  C   UNL A   1      42.005  23.909  27.554  1.00  0.00    -0.014 A 
BRANCH  37  38
ATOM     38  C   UNL A   1      42.400  25.305  27.865  1.00  0.00     0.031 A 
ATOM     39  C   UNL A   1      41.418  26.298  28.409  1.00  0.00     0.074 A 
ATOM     40  C   UNL A   1      43.658  25.687  27.573  1.00  0.00     0.049 A 
ATOM     41  N   UNL A   1      41.607  27.558  28.706  1.00  0.00    -0.248 NA
ATOM     42  C   UNL A   1      40.046  25.823  28.648  1.00  0.00     0.031 C 
ATOM     43  C   UNL A   1      44.681  24.808  27.006  1.00  0.00     0.029 A 
ATOM     44  N   UNL A   1      44.289  26.901  27.692  1.00  0.00    -0.354 N 
ATOM     45  C   UNL A   1      40.389  28.028  29.179  1.00  0.00     0.074 A 
ATOM     46  C   UNL A   1      39.453  26.927  29.087  1.00  0.00     0.031 C 
ATOM     47  C   UNL A   1      45.813  25.505  26.838  1.00  0.00     0.029 A 
ATOM     48  C   UNL A   1      45.588  26.893  27.238  1.00  0.00     0.049 A 
ATOM     49  H   UNL A   1      43.854  27.700  28.067  1.00  0.00     0.167 HD
ATOM     50  C   UNL A   1      40.094  29.260  29.660  1.00  0.00     0.034 A 
ATOM     51  C   UNL A   1      46.496  27.887  27.140  1.00  0.00     0.034 A 
ATOM     52  C   UNL A   1      41.046  30.342  29.734  1.00  0.00     0.049 A 
ATOM     53  C   UNL A   1      46.125  29.263  27.633  1.00  0.00     0.074 A 
ATOM     54  C   UNL A   1      40.855  31.606  30.265  1.00  0.00     0.029 A 
ATOM     55  N   UNL A   1      42.350  30.303  29.261  1.00  0.00    -0.354 N 
ATOM     56  N   UNL A   1      45.004  29.662  28.186  1.00  0.00    -0.248 NA
ATOM     57  C   UNL A   1      47.135  30.323  27.503  1.00  0.00     0.031 C 
ATOM     58  C   UNL A   1      42.008  32.355  30.035  1.00  0.00     0.029 A 
ATOM     59  C   UNL A   1      42.957  31.534  29.446  1.00  0.00     0.049 A 
ATOM     60  H   UNL A   1      42.781  29.517  28.854  1.00  0.00     0.167 HD
ATOM     61  C   UNL A   1      45.183  31.008  28.494  1.00  0.00     0.074 A 
ATOM     62  C   UNL A   1      46.528  31.351  28.083  1.00  0.00     0.031 C 
ATOM     63  C   UNL A   1      44.308  31.875  29.061  1.00  0.00     0.034 A 
BRANCH  50  64
ATOM     64  C   UNL A   1      38.704  29.534  30.184  1.00  0.00     0.023 A 
ATOM     65  C   UNL A   1      37.771  30.220  29.382  1.00  0.00     0.031 A 
ATOM     66  C   UNL A   1      38.374  29.292  31.529  1.00  0.00     0.131 A 
ATOM     67  C   UNL A   1      36.577  30.686  29.946  1.00  0.00     0.055 A 
ATOM     68  C   UNL A   1      37.161  29.717  32.074  1.00  0.00     0.041 A 
ATOM     69  F   UNL A   1      39.232  28.650  32.337  1.00  0.00    -0.206 F 
ATOM     70  C   UNL A   1      36.264  30.433  31.286  1.00  0.00     0.022 A 
BRANCH  67  71
ATOM     71  S   UNL A   1      35.425  31.714  28.994  1.00  0.00     0.124 S 
ATOM     72  O   UNL A   1      34.778  30.723  28.136  1.00  0.00    -0.237 OA
ATOM     73  O   UNL A   1      34.579  32.277  30.043  1.00  0.00    -0.237 OA
ATOM     74  O   UNL A   1      36.291  32.662  28.302  1.00  0.00    -0.744 OA
ENDBRANCH  67  71
ENDBRANCH  50  64
BRANCH  51  75
ATOM     75  C   UNL A   1      47.851  27.580  26.597  1.00  0.00     0.023 A 
ATOM     76  C   UNL A   1      48.944  27.364  27.459  1.00  0.00     0.031 A 
ATOM     77  C   UNL A   1      48.099  27.617  25.215  1.00  0.00     0.131 A 
ATOM     78  C   UNL A   1      50.239  27.273  26.933  1.00  0.00     0.055 A 
ATOM     79  C   UNL A   1      49.381  27.446  24.691  1.00  0.00     0.041 A 
ATOM     80  F   UNL A   1      47.092  27.834  24.354  1.00  0.00    -0.206 F 
ATOM     81  C   UNL A   1      50.463  27.294  25.553  1.00  0.00     0.022 A 
BRANCH  78  82
ATOM     82  S   UNL A   1      51.687  27.272  28.027  1.00  0.00     0.124 S 
ATOM     83  O   UNL A   1      51.371  28.355  28.953  1.00  0.00    -0.237 OA
ATOM     84  O   UNL A   1      51.633  25.925  28.589  1.00  0.00    -0.237 OA
ATOM     85  O   UNL A   1      52.803  27.521  27.121  1.00  0.00    -0.744 OA
ENDBRANCH  78  82
ENDBRANCH  51  75
BRANCH  63  86
ATOM     86  C   UNL A   1      44.735  33.304  29.301  1.00  0.00     0.023 A 
ATOM     87  C   UNL A   1      45.243  33.680  30.561  1.00  0.00     0.031 A 
ATOM     88  C   UNL A   1      44.443  34.318  28.373  1.00  0.00     0.131 A 
ATOM     89  C   UNL A   1      45.367  35.036  30.887  1.00  0.00     0.055 A 
ATOM     90  C   UNL A   1      44.625  35.667  28.682  1.00  0.00     0.041 A 
ATOM     91  F   UNL A   1      43.950  34.012  27.162  1.00  0.00    -0.206 F 
ATOM     92  C   UNL A   1      45.069  36.032  29.951  1.00  0.00     0.022 A 
BRANCH  89  93
ATOM     93  S   UNL A   1      45.809  35.558  32.568  1.00  0.00     0.124 S 
ATOM     94  O   UNL A   1      44.814  36.595  32.835  1.00  0.00    -0.237 OA
ATOM     95  O   UNL A   1      45.638  34.322  33.326  1.00  0.00    -0.237 OA
ATOM     96  O   UNL A   1      47.182  36.035  32.439  1.00  0.00    -0.744 OA
ENDBRANCH  89  93
ENDBRANCH  63  86
ENDBRANCH  37  38
ENDBRANCH  30  32
ENDBRANCH  29  30
ENDBRANCH  28  29
ENDBRANCH  27  28
ENDBRANCH   1  27
TORSDOF 21
ENDMDL
