MODEL 1
REMARK VINA RESULT:     -10.5      0.000      0.000
REMARK SMILES C=CCOC(=O)N[C@@H](Cc1ccccc1)C(=O)OCCOCCOC(=O)c1ccc(-c2c3nc(c(-c4cc(S(=O)(=O)[O-])ccc4F)c4ccc([nH]4)c(-c4cc(S(=O)(=O)[O-])ccc4F)c4nc(c(-c5cc(S(=O)(=O)[O-])ccc5F)c5ccc2[nH]5)C=C4)C=C3)cc1
REMARK SMILES IDX 20 1 19 2 18 3 16 4 17 5 8 6 7 7 5 8 6 9 4 11 3 12 2 13 1 14
REMARK SMILES IDX 9 15 10 16 11 17 15 18 12 19 14 20 13 21 21 22 22 23 23 24
REMARK SMILES IDX 24 25 25 26 26 27 27 28 28 29 89 30 29 31 88 32 30 33 31 34
REMARK SMILES IDX 32 35 82 36 33 37 87 38 81 39 83 40 34 41 86 42 80 43 79 44
REMARK SMILES IDX 35 46 67 47 47 48 66 49 48 50 51 51 65 52 84 53 49 54 50 55
REMARK SMILES IDX 64 57 85 58 52 59 36 60 37 61 45 62 38 63 44 64 46 65 43 66
REMARK SMILES IDX 39 67 40 68 41 69 42 70 68 71 69 72 77 73 70 74 76 75 78 76
REMARK SMILES IDX 75 77 71 78 72 79 73 80 74 81 53 82 54 83 62 84 55 85 61 86
REMARK SMILES IDX 63 87 60 88 56 89 57 90 58 91 59 92
REMARK H PARENT 7 10 83 45 51 56
REMARK Flexibility Score: inf
ROOT
ATOM      1  C   UNL A   1      33.555  22.585  22.993  1.00  0.00     0.202 C 
ENDROOT
BRANCH   1   2
ATOM      2  C   UNL A   1      33.414  23.657  21.910  1.00  0.00     0.261 C 
BRANCH   2   3
ATOM      3  O   UNL A   1      33.913  24.926  22.353  1.00  0.00    -0.462 OA
BRANCH   3   4
ATOM      4  C   UNL A   1      33.247  26.017  21.886  1.00  0.00     0.329 C 
ATOM      5  O   UNL A   1      33.293  26.437  20.734  1.00  0.00    -0.250 OA
BRANCH   4   6
ATOM      6  C   UNL A   1      32.481  26.745  22.995  1.00  0.00     0.199 C 
BRANCH   6   7
ATOM      7  N   UNL A   1      31.133  26.234  23.277  1.00  0.00    -0.308 N 
ATOM      8  C   UNL A   1      30.000  26.966  23.447  1.00  0.00     0.408 C 
ATOM      9  O   UNL A   1      29.001  26.480  23.969  1.00  0.00    -0.225 OA
ATOM     10  H   UNL A   1      31.040  25.257  23.349  1.00  0.00     0.168 HD
BRANCH   8  11
ATOM     11  O   UNL A   1      30.108  28.235  22.991  1.00  0.00    -0.445 OA
BRANCH  11  12
ATOM     12  C   UNL A   1      28.879  28.956  22.813  1.00  0.00     0.262 C 
BRANCH  12  13
ATOM     13  C   UNL A   1      28.958  30.360  23.338  1.00  0.00     0.006 C 
ATOM     14  C   UNL A   1      27.882  31.138  23.531  1.00  0.00     0.007 C 
ENDBRANCH  12  13
ENDBRANCH  11  12
ENDBRANCH   8  11
ENDBRANCH   6   7
BRANCH   6  15
ATOM     15  C   UNL A   1      33.349  26.721  24.270  1.00  0.00     0.072 C 
BRANCH  15  16
ATOM     16  C   UNL A   1      32.902  27.726  25.314  1.00  0.00    -0.045 A 
ATOM     17  C   UNL A   1      33.003  29.102  25.064  1.00  0.00     0.004 A 
ATOM     18  C   UNL A   1      32.304  27.295  26.507  1.00  0.00     0.004 A 
ATOM     19  C   UNL A   1      32.495  30.025  25.979  1.00  0.00     0.000 A 
ATOM     20  C   UNL A   1      31.795  28.220  27.419  1.00  0.00     0.000 A 
ATOM     21  C   UNL A   1      31.888  29.584  27.152  1.00  0.00     0.000 A 
ENDBRANCH  15  16
ENDBRANCH   6  15
ENDBRANCH   4   6
ENDBRANCH   3   4
ENDBRANCH   2   3
ENDBRANCH   1   2
BRANCH   1  22
ATOM     22  O   UNL A   1      34.767  22.560  23.743  1.00  0.00    -0.374 OA
BRANCH  22  23
ATOM     23  C   UNL A   1      34.847  21.706  24.883  1.00  0.00     0.202 C 
BRANCH  23  24
ATOM     24  C   UNL A   1      36.159  20.960  25.174  1.00  0.00     0.261 C 
BRANCH  24  25
ATOM     25  O   UNL A   1      37.353  21.690  24.847  1.00  0.00    -0.460 OA
BRANCH  25  26
ATOM     26  C   UNL A   1      38.445  21.295  25.552  1.00  0.00     0.338 C 
ATOM     27  O   UNL A   1      38.968  20.192  25.530  1.00  0.00    -0.246 OA
BRANCH  26  28
ATOM     28  C   UNL A   1      39.069  22.436  26.248  1.00  0.00     0.060 A 
ATOM     29  C   UNL A   1      38.469  23.690  26.081  1.00  0.00     0.016 A 
ATOM     30  C   UNL A   1      40.283  22.313  26.926  1.00  0.00     0.016 A 
ATOM     31  C   UNL A   1      39.112  24.836  26.540  1.00  0.00     0.010 A 
ATOM     32  C   UNL A   1      40.928  23.471  27.387  1.00  0.00     0.010 A 
ATOM     33  C   UNL A   1      40.366  24.740  27.158  1.00  0.00    -0.014 A 
BRANCH  33  34
ATOM     34  C   UNL A   1      41.121  25.990  27.436  1.00  0.00     0.031 A 
ATOM     35  C   UNL A   1      40.503  27.055  28.303  1.00  0.00     0.074 A 
ATOM     36  C   UNL A   1      42.383  26.130  26.988  1.00  0.00     0.049 A 
ATOM     37  N   UNL A   1      41.012  28.188  28.718  1.00  0.00    -0.248 NA
ATOM     38  C   UNL A   1      39.127  26.812  28.759  1.00  0.00     0.031 C 
ATOM     39  C   UNL A   1      43.099  25.149  26.172  1.00  0.00     0.029 A 
ATOM     40  N   UNL A   1      43.291  27.142  27.169  1.00  0.00    -0.354 N 
ATOM     41  C   UNL A   1      40.020  28.792  29.487  1.00  0.00     0.074 A 
ATOM     42  C   UNL A   1      38.865  27.919  29.436  1.00  0.00     0.031 C 
ATOM     43  C   UNL A   1      44.340  25.602  25.935  1.00  0.00     0.029 A 
ATOM     44  C   UNL A   1      44.498  26.919  26.549  1.00  0.00     0.049 A 
ATOM     45  H   UNL A   1      43.097  27.953  27.693  1.00  0.00     0.167 HD
ATOM     46  C   UNL A   1      40.074  29.958  30.180  1.00  0.00     0.034 A 
ATOM     47  C   UNL A   1      45.600  27.691  26.476  1.00  0.00     0.034 A 
ATOM     48  C   UNL A   1      41.232  30.822  30.208  1.00  0.00     0.049 A 
ATOM     49  C   UNL A   1      45.613  29.014  27.202  1.00  0.00     0.074 A 
ATOM     50  C   UNL A   1      41.397  32.019  30.884  1.00  0.00     0.029 A 
ATOM     51  N   UNL A   1      42.420  30.589  29.526  1.00  0.00    -0.354 N 
ATOM     52  N   UNL A   1      44.674  29.566  27.937  1.00  0.00    -0.248 NA
ATOM     53  C   UNL A   1      46.845  29.806  27.106  1.00  0.00     0.031 C 
ATOM     54  C   UNL A   1      42.650  32.547  30.546  1.00  0.00     0.029 A 
ATOM     55  C   UNL A   1      43.307  31.635  29.736  1.00  0.00     0.049 A 
ATOM     56  H   UNL A   1      42.605  29.796  28.972  1.00  0.00     0.167 HD
ATOM     57  C   UNL A   1      45.217  30.756  28.417  1.00  0.00     0.074 A 
ATOM     58  C   UNL A   1      46.572  30.823  27.908  1.00  0.00     0.031 C 
ATOM     59  C   UNL A   1      44.651  31.704  29.209  1.00  0.00     0.034 A 
BRANCH  46  60
ATOM     60  C   UNL A   1      38.825  30.388  30.917  1.00  0.00     0.023 A 
ATOM     61  C   UNL A   1      37.766  31.049  30.268  1.00  0.00     0.031 A 
ATOM     62  C   UNL A   1      38.701  30.150  32.299  1.00  0.00     0.131 A 
ATOM     63  C   UNL A   1      36.667  31.510  31.011  1.00  0.00     0.055 A 
ATOM     64  C   UNL A   1      37.565  30.538  33.015  1.00  0.00     0.041 A 
ATOM     65  F   UNL A   1      39.685  29.545  32.980  1.00  0.00    -0.206 F 
ATOM     66  C   UNL A   1      36.547  31.235  32.374  1.00  0.00     0.022 A 
BRANCH  63  67
ATOM     67  S   UNL A   1      35.465  32.601  30.199  1.00  0.00     0.124 S 
ATOM     68  O   UNL A   1      34.359  32.584  31.153  1.00  0.00    -0.237 OA
ATOM     69  O   UNL A   1      36.200  33.857  30.093  1.00  0.00    -0.237 OA
ATOM     70  O   UNL A   1      35.194  31.928  28.930  1.00  0.00    -0.744 OA
ENDBRANCH  63  67
ENDBRANCH  46  60
BRANCH  47  71
ATOM     71  C   UNL A   1      46.778  27.254  25.670  1.00  0.00     0.023 A 
ATOM     72  C   UNL A   1      47.050  27.812  24.411  1.00  0.00     0.031 A 
ATOM     73  C   UNL A   1      47.620  26.226  26.130  1.00  0.00     0.131 A 
ATOM     74  C   UNL A   1      48.103  27.305  23.633  1.00  0.00     0.055 A 
ATOM     75  C   UNL A   1      48.704  25.766  25.378  1.00  0.00     0.041 A 
ATOM     76  F   UNL A   1      47.408  25.656  27.327  1.00  0.00    -0.206 F 
ATOM     77  C   UNL A   1      48.940  26.297  24.115  1.00  0.00     0.022 A 
BRANCH  74  78
ATOM     78  S   UNL A   1      48.307  27.920  21.938  1.00  0.00     0.124 S 
ATOM     79  O   UNL A   1      49.630  28.529  22.000  1.00  0.00    -0.237 OA
ATOM     80  O   UNL A   1      48.200  26.692  21.158  1.00  0.00    -0.237 OA
ATOM     81  O   UNL A   1      47.194  28.854  21.781  1.00  0.00    -0.744 OA
ENDBRANCH  74  78
ENDBRANCH  47  71
BRANCH  59  82
ATOM     82  C   UNL A   1      45.527  32.873  29.608  1.00  0.00     0.023 A 
ATOM     83  C   UNL A   1      45.533  34.079  28.884  1.00  0.00     0.031 A 
ATOM     84  C   UNL A   1      46.409  32.758  30.699  1.00  0.00     0.131 A 
ATOM     85  C   UNL A   1      46.463  35.081  29.198  1.00  0.00     0.055 A 
ATOM     86  C   UNL A   1      47.276  33.791  31.058  1.00  0.00     0.041 A 
ATOM     87  F   UNL A   1      46.452  31.631  31.428  1.00  0.00    -0.206 F 
ATOM     88  C   UNL A   1      47.322  34.952  30.293  1.00  0.00     0.022 A 
BRANCH  85  89
ATOM     89  S   UNL A   1      46.640  36.488  28.067  1.00  0.00     0.124 S 
ATOM     90  O   UNL A   1      48.035  36.865  28.269  1.00  0.00    -0.237 OA
ATOM     91  O   UNL A   1      46.323  35.889  26.775  1.00  0.00    -0.237 OA
ATOM     92  O   UNL A   1      45.659  37.452  28.562  1.00  0.00    -0.744 OA
ENDBRANCH  85  89
ENDBRANCH  59  82
ENDBRANCH  33  34
ENDBRANCH  26  28
ENDBRANCH  25  26
ENDBRANCH  24  25
ENDBRANCH  23  24
ENDBRANCH  22  23
ENDBRANCH   1  22
TORSDOF 23
ENDMDL
MODEL 2
REMARK VINA RESULT:     -10.5      1.599      7.672
REMARK SMILES C=CCOC(=O)N[C@@H](Cc1ccccc1)C(=O)OCCOCCOC(=O)c1ccc(-c2c3nc(c(-c4cc(S(=O)(=O)[O-])ccc4F)c4ccc([nH]4)c(-c4cc(S(=O)(=O)[O-])ccc4F)c4nc(c(-c5cc(S(=O)(=O)[O-])ccc5F)c5ccc2[nH]5)C=C4)C=C3)cc1
REMARK SMILES IDX 20 1 19 2 18 3 16 4 17 5 8 6 7 7 5 8 6 9 4 11 3 12 2 13 1 14
REMARK SMILES IDX 9 15 10 16 11 17 15 18 12 19 14 20 13 21 21 22 22 23 23 24
REMARK SMILES IDX 24 25 25 26 26 27 27 28 28 29 89 30 29 31 88 32 30 33 31 34
REMARK SMILES IDX 32 35 82 36 33 37 87 38 81 39 83 40 34 41 86 42 80 43 79 44
REMARK SMILES IDX 35 46 67 47 47 48 66 49 48 50 51 51 65 52 84 53 49 54 50 55
REMARK SMILES IDX 64 57 85 58 52 59 36 60 37 61 45 62 38 63 44 64 46 65 43 66
REMARK SMILES IDX 39 67 40 68 41 69 42 70 68 71 69 72 77 73 70 74 76 75 78 76
REMARK SMILES IDX 75 77 71 78 72 79 73 80 74 81 53 82 54 83 62 84 55 85 61 86
REMARK SMILES IDX 63 87 60 88 56 89 57 90 58 91 59 92
REMARK H PARENT 7 10 83 45 51 56
REMARK Flexibility Score: inf
ROOT
ATOM      1  C   UNL A   1      33.770  22.059  23.260  1.00  0.00     0.202 C 
ENDROOT
BRANCH   1   2
ATOM      2  C   UNL A   1      33.090  23.299  22.676  1.00  0.00     0.261 C 
BRANCH   2   3
ATOM      3  O   UNL A   1      33.637  24.508  23.219  1.00  0.00    -0.462 OA
BRANCH   3   4
ATOM      4  C   UNL A   1      33.206  25.662  22.640  1.00  0.00     0.329 C 
ATOM      5  O   UNL A   1      33.587  26.099  21.560  1.00  0.00    -0.250 OA
BRANCH   4   6
ATOM      6  C   UNL A   1      32.235  26.432  23.542  1.00  0.00     0.199 C 
BRANCH   6   7
ATOM      7  N   UNL A   1      30.808  26.206  23.276  1.00  0.00    -0.308 N 
ATOM      8  C   UNL A   1      29.795  27.098  23.436  1.00  0.00     0.408 C 
ATOM      9  O   UNL A   1      28.624  26.731  23.478  1.00  0.00    -0.225 OA
ATOM     10  H   UNL A   1      30.559  25.313  22.944  1.00  0.00     0.168 HD
BRANCH   8  11
ATOM     11  O   UNL A   1      30.219  28.379  23.539  1.00  0.00    -0.445 OA
BRANCH  11  12
ATOM     12  C   UNL A   1      30.133  29.177  22.350  1.00  0.00     0.262 C 
BRANCH  12  13
ATOM     13  C   UNL A   1      28.929  30.075  22.349  1.00  0.00     0.006 C 
ATOM     14  C   UNL A   1      28.631  30.909  21.342  1.00  0.00     0.007 C 
ENDBRANCH  12  13
ENDBRANCH  11  12
ENDBRANCH   8  11
ENDBRANCH   6   7
BRANCH   6  15
ATOM     15  C   UNL A   1      32.575  26.096  25.008  1.00  0.00     0.072 C 
BRANCH  15  16
ATOM     16  C   UNL A   1      32.760  27.328  25.873  1.00  0.00    -0.045 A 
ATOM     17  C   UNL A   1      33.986  28.006  25.890  1.00  0.00     0.004 A 
ATOM     18  C   UNL A   1      31.683  27.853  26.603  1.00  0.00     0.004 A 
ATOM     19  C   UNL A   1      34.124  29.198  26.602  1.00  0.00     0.000 A 
ATOM     20  C   UNL A   1      31.823  29.046  27.313  1.00  0.00     0.000 A 
ATOM     21  C   UNL A   1      33.043  29.719  27.309  1.00  0.00     0.000 A 
ENDBRANCH  15  16
ENDBRANCH   6  15
ENDBRANCH   4   6
ENDBRANCH   3   4
ENDBRANCH   2   3
ENDBRANCH   1   2
BRANCH   1  22
ATOM     22  O   UNL A   1      35.001  22.246  23.954  1.00  0.00    -0.374 OA
BRANCH  22  23
ATOM     23  C   UNL A   1      35.268  21.442  25.102  1.00  0.00     0.202 C 
BRANCH  23  24
ATOM     24  C   UNL A   1      36.605  20.692  25.202  1.00  0.00     0.261 C 
BRANCH  24  25
ATOM     25  O   UNL A   1      37.769  21.497  24.948  1.00  0.00    -0.460 OA
BRANCH  25  26
ATOM     26  C   UNL A   1      38.852  21.139  25.686  1.00  0.00     0.338 C 
ATOM     27  O   UNL A   1      39.463  20.084  25.620  1.00  0.00    -0.246 OA
BRANCH  26  28
ATOM     28  C   UNL A   1      39.345  22.274  26.489  1.00  0.00     0.060 A 
ATOM     29  C   UNL A   1      38.744  23.519  26.269  1.00  0.00     0.016 A 
ATOM     30  C   UNL A   1      40.455  22.158  27.327  1.00  0.00     0.016 A 
ATOM     31  C   UNL A   1      39.289  24.665  26.840  1.00  0.00     0.010 A 
ATOM     32  C   UNL A   1      41.001  23.315  27.902  1.00  0.00     0.010 A 
ATOM     33  C   UNL A   1      40.446  24.578  27.626  1.00  0.00    -0.014 A 
BRANCH  33  34
ATOM     34  C   UNL A   1      41.125  25.836  28.036  1.00  0.00     0.031 A 
ATOM     35  C   UNL A   1      42.530  26.110  27.565  1.00  0.00     0.074 A 
ATOM     36  C   UNL A   1      40.458  26.762  28.749  1.00  0.00     0.049 A 
ATOM     37  N   UNL A   1      43.278  27.167  27.755  1.00  0.00    -0.248 NA
ATOM     38  C   UNL A   1      43.176  25.049  26.780  1.00  0.00     0.031 C 
ATOM     39  C   UNL A   1      39.082  26.624  29.228  1.00  0.00     0.029 A 
ATOM     40  N   UNL A   1      40.839  28.008  29.180  1.00  0.00    -0.354 N 
ATOM     41  C   UNL A   1      44.484  26.901  27.110  1.00  0.00     0.074 A 
ATOM     42  C   UNL A   1      44.378  25.561  26.569  1.00  0.00     0.031 C 
ATOM     43  C   UNL A   1      38.731  27.747  29.875  1.00  0.00     0.029 A 
ATOM     44  C   UNL A   1      39.864  28.670  29.889  1.00  0.00     0.049 A 
ATOM     45  H   UNL A   1      41.728  28.392  28.999  1.00  0.00     0.167 HD
ATOM     46  C   UNL A   1      45.569  27.704  26.972  1.00  0.00     0.034 A 
ATOM     47  C   UNL A   1      39.886  29.876  30.489  1.00  0.00     0.034 A 
ATOM     48  C   UNL A   1      45.661  29.033  27.530  1.00  0.00     0.049 A 
ATOM     49  C   UNL A   1      41.129  30.725  30.377  1.00  0.00     0.074 A 
ATOM     50  C   UNL A   1      46.708  29.935  27.443  1.00  0.00     0.029 A 
ATOM     51  N   UNL A   1      44.672  29.651  28.287  1.00  0.00    -0.354 N 
ATOM     52  N   UNL A   1      42.256  30.466  29.752  1.00  0.00    -0.248 NA
ATOM     53  C   UNL A   1      41.092  32.037  31.032  1.00  0.00     0.031 C 
ATOM     54  C   UNL A   1      46.386  31.060  28.212  1.00  0.00     0.029 A 
ATOM     55  C   UNL A   1      45.100  30.905  28.701  1.00  0.00     0.049 A 
ATOM     56  H   UNL A   1      43.796  29.257  28.500  1.00  0.00     0.167 HD
ATOM     57  C   UNL A   1      43.048  31.601  29.914  1.00  0.00     0.074 A 
ATOM     58  C   UNL A   1      42.258  32.550  30.670  1.00  0.00     0.031 C 
ATOM     59  C   UNL A   1      44.312  31.839  29.473  1.00  0.00     0.034 A 
BRANCH  46  60
ATOM     60  C   UNL A   1      46.762  27.140  26.233  1.00  0.00     0.023 A 
ATOM     61  C   UNL A   1      47.814  26.486  26.902  1.00  0.00     0.031 A 
ATOM     62  C   UNL A   1      46.860  27.277  24.835  1.00  0.00     0.131 A 
ATOM     63  C   UNL A   1      48.944  26.060  26.185  1.00  0.00     0.055 A 
ATOM     64  C   UNL A   1      47.949  26.774  24.119  1.00  0.00     0.041 A 
ATOM     65  F   UNL A   1      45.902  27.910  24.142  1.00  0.00    -0.206 F 
ATOM     66  C   UNL A   1      49.006  26.175  24.795  1.00  0.00     0.022 A 
BRANCH  63  67
ATOM     67  S   UNL A   1      50.394  25.484  27.111  1.00  0.00     0.124 S 
ATOM     68  O   UNL A   1      49.912  24.218  27.658  1.00  0.00    -0.237 OA
ATOM     69  O   UNL A   1      51.413  25.386  26.073  1.00  0.00    -0.237 OA
ATOM     70  O   UNL A   1      50.611  26.538  28.100  1.00  0.00    -0.744 OA
ENDBRANCH  63  67
ENDBRANCH  46  60
BRANCH  47  71
ATOM     71  C   UNL A   1      38.708  30.352  31.272  1.00  0.00     0.023 A 
ATOM     72  C   UNL A   1      37.702  31.132  30.679  1.00  0.00     0.031 A 
ATOM     73  C   UNL A   1      38.601  30.076  32.647  1.00  0.00     0.131 A 
ATOM     74  C   UNL A   1      36.663  31.652  31.468  1.00  0.00     0.055 A 
ATOM     75  C   UNL A   1      37.534  30.545  33.415  1.00  0.00     0.041 A 
ATOM     76  F   UNL A   1      39.533  29.335  33.266  1.00  0.00    -0.206 F 
ATOM     77  C   UNL A   1      36.565  31.351  32.828  1.00  0.00     0.022 A 
BRANCH  74  78
ATOM     78  S   UNL A   1      35.490  32.808  30.708  1.00  0.00     0.124 S 
ATOM     79  O   UNL A   1      34.315  32.639  31.555  1.00  0.00    -0.237 OA
ATOM     80  O   UNL A   1      36.195  34.079  30.834  1.00  0.00    -0.237 OA
ATOM     81  O   UNL A   1      35.354  32.305  29.342  1.00  0.00    -0.744 OA
ENDBRANCH  74  78
ENDBRANCH  47  71
BRANCH  59  82
ATOM     82  C   UNL A   1      44.890  33.207  29.766  1.00  0.00     0.023 A 
ATOM     83  C   UNL A   1      44.760  34.279  28.864  1.00  0.00     0.031 A 
ATOM     84  C   UNL A   1      45.629  33.427  30.943  1.00  0.00     0.131 A 
ATOM     85  C   UNL A   1      45.434  35.485  29.107  1.00  0.00     0.055 A 
ATOM     86  C   UNL A   1      46.230  34.656  31.218  1.00  0.00     0.041 A 
ATOM     87  F   UNL A   1      45.791  32.443  31.843  1.00  0.00    -0.206 F 
ATOM     88  C   UNL A   1      46.153  35.687  30.287  1.00  0.00     0.022 A 
BRANCH  85  89
ATOM     89  S   UNL A   1      45.485  36.732  27.789  1.00  0.00     0.124 S 
ATOM     90  O   UNL A   1      44.675  37.805  28.357  1.00  0.00    -0.237 OA
ATOM     91  O   UNL A   1      46.914  37.004  27.674  1.00  0.00    -0.237 OA
ATOM     92  O   UNL A   1      44.890  36.045  26.644  1.00  0.00    -0.744 OA
ENDBRANCH  85  89
ENDBRANCH  59  82
ENDBRANCH  33  34
ENDBRANCH  26  28
ENDBRANCH  25  26
ENDBRANCH  24  25
ENDBRANCH  23  24
ENDBRANCH  22  23
ENDBRANCH   1  22
TORSDOF 23
ENDMDL
MODEL 3
REMARK VINA RESULT:     -10.0      2.013      7.947
REMARK SMILES C=CCOC(=O)N[C@@H](Cc1ccccc1)C(=O)OCCOCCOC(=O)c1ccc(-c2c3nc(c(-c4cc(S(=O)(=O)[O-])ccc4F)c4ccc([nH]4)c(-c4cc(S(=O)(=O)[O-])ccc4F)c4nc(c(-c5cc(S(=O)(=O)[O-])ccc5F)c5ccc2[nH]5)C=C4)C=C3)cc1
REMARK SMILES IDX 20 1 19 2 18 3 16 4 17 5 8 6 7 7 5 8 6 9 4 11 3 12 2 13 1 14
REMARK SMILES IDX 9 15 10 16 11 17 15 18 12 19 14 20 13 21 21 22 22 23 23 24
REMARK SMILES IDX 24 25 25 26 26 27 27 28 28 29 89 30 29 31 88 32 30 33 31 34
REMARK SMILES IDX 32 35 82 36 33 37 87 38 81 39 83 40 34 41 86 42 80 43 79 44
REMARK SMILES IDX 35 46 67 47 47 48 66 49 48 50 51 51 65 52 84 53 49 54 50 55
REMARK SMILES IDX 64 57 85 58 52 59 36 60 37 61 45 62 38 63 44 64 46 65 43 66
REMARK SMILES IDX 39 67 40 68 41 69 42 70 68 71 69 72 77 73 70 74 76 75 78 76
REMARK SMILES IDX 75 77 71 78 72 79 73 80 74 81 53 82 54 83 62 84 55 85 61 86
REMARK SMILES IDX 63 87 60 88 56 89 57 90 58 91 59 92
REMARK H PARENT 7 10 83 45 51 56
REMARK Flexibility Score: inf
ROOT
ATOM      1  C   UNL A   1      34.779  23.973  23.842  1.00  0.00     0.202 C 
ENDROOT
BRANCH   1   2
ATOM      2  C   UNL A   1      34.378  25.326  24.433  1.00  0.00     0.261 C 
BRANCH   2   3
ATOM      3  O   UNL A   1      33.102  25.758  23.945  1.00  0.00    -0.462 OA
BRANCH   3   4
ATOM      4  C   UNL A   1      33.003  27.082  23.643  1.00  0.00     0.329 C 
ATOM      5  O   UNL A   1      33.839  27.733  23.025  1.00  0.00    -0.250 OA
BRANCH   4   6
ATOM      6  C   UNL A   1      31.748  27.720  24.248  1.00  0.00     0.199 C 
BRANCH   6   7
ATOM      7  N   UNL A   1      31.801  27.977  25.693  1.00  0.00    -0.308 N 
ATOM      8  C   UNL A   1      31.469  27.114  26.690  1.00  0.00     0.408 C 
ATOM      9  O   UNL A   1      31.259  27.511  27.832  1.00  0.00    -0.225 OA
ATOM     10  H   UNL A   1      32.110  28.869  25.970  1.00  0.00     0.168 HD
BRANCH   8  11
ATOM     11  O   UNL A   1      31.404  25.825  26.283  1.00  0.00    -0.445 OA
BRANCH  11  12
ATOM     12  C   UNL A   1      30.090  25.278  26.101  1.00  0.00     0.262 C 
BRANCH  12  13
ATOM     13  C   UNL A   1      29.971  23.882  26.640  1.00  0.00     0.006 C 
ATOM     14  C   UNL A   1      30.786  22.879  26.281  1.00  0.00     0.007 C 
ENDBRANCH  12  13
ENDBRANCH  11  12
ENDBRANCH   8  11
ENDBRANCH   6   7
BRANCH   6  15
ATOM     15  C   UNL A   1      31.453  29.022  23.474  1.00  0.00     0.072 C 
BRANCH  15  16
ATOM     16  C   UNL A   1      29.971  29.279  23.286  1.00  0.00    -0.045 A 
ATOM     17  C   UNL A   1      29.090  28.215  23.047  1.00  0.00     0.004 A 
ATOM     18  C   UNL A   1      29.449  30.573  23.430  1.00  0.00     0.004 A 
ATOM     19  C   UNL A   1      27.715  28.438  22.978  1.00  0.00     0.000 A 
ATOM     20  C   UNL A   1      28.073  30.792  23.363  1.00  0.00     0.000 A 
ATOM     21  C   UNL A   1      27.207  29.725  23.141  1.00  0.00     0.000 A 
ENDBRANCH  15  16
ENDBRANCH   6  15
ENDBRANCH   4   6
ENDBRANCH   3   4
ENDBRANCH   2   3
ENDBRANCH   1   2
BRANCH   1  22
ATOM     22  O   UNL A   1      35.828  23.255  24.488  1.00  0.00    -0.374 OA
BRANCH  22  23
ATOM     23  C   UNL A   1      36.116  21.927  24.054  1.00  0.00     0.202 C 
BRANCH  23  24
ATOM     24  C   UNL A   1      37.428  21.259  24.493  1.00  0.00     0.261 C 
BRANCH  24  25
ATOM     25  O   UNL A   1      37.764  21.443  25.878  1.00  0.00    -0.460 OA
BRANCH  25  26
ATOM     26  C   UNL A   1      39.094  21.333  26.137  1.00  0.00     0.338 C 
ATOM     27  O   UNL A   1      39.846  20.461  25.732  1.00  0.00    -0.246 OA
BRANCH  26  28
ATOM     28  C   UNL A   1      39.597  22.524  26.847  1.00  0.00     0.060 A 
ATOM     29  C   UNL A   1      39.004  23.752  26.530  1.00  0.00     0.016 A 
ATOM     30  C   UNL A   1      40.708  22.467  27.690  1.00  0.00     0.016 A 
ATOM     31  C   UNL A   1      39.559  24.936  27.007  1.00  0.00     0.010 A 
ATOM     32  C   UNL A   1      41.264  23.662  28.170  1.00  0.00     0.010 A 
ATOM     33  C   UNL A   1      40.717  24.904  27.796  1.00  0.00    -0.014 A 
BRANCH  33  34
ATOM     34  C   UNL A   1      41.406  26.185  28.103  1.00  0.00     0.031 A 
ATOM     35  C   UNL A   1      42.811  26.410  27.611  1.00  0.00     0.074 A 
ATOM     36  C   UNL A   1      40.746  27.170  28.741  1.00  0.00     0.049 A 
ATOM     37  N   UNL A   1      43.568  27.473  27.714  1.00  0.00    -0.248 NA
ATOM     38  C   UNL A   1      43.449  25.285  26.911  1.00  0.00     0.031 C 
ATOM     39  C   UNL A   1      39.371  27.081  29.231  1.00  0.00     0.029 A 
ATOM     40  N   UNL A   1      41.137  28.443  29.071  1.00  0.00    -0.354 N 
ATOM     41  C   UNL A   1      44.770  27.147  27.091  1.00  0.00     0.074 A 
ATOM     42  C   UNL A   1      44.654  25.770  26.658  1.00  0.00     0.031 C 
ATOM     43  C   UNL A   1      39.029  28.254  29.787  1.00  0.00     0.029 A 
ATOM     44  C   UNL A   1      40.169  29.166  29.726  1.00  0.00     0.049 A 
ATOM     45  H   UNL A   1      42.028  28.804  28.858  1.00  0.00     0.167 HD
ATOM     46  C   UNL A   1      45.861  27.929  26.888  1.00  0.00     0.034 A 
ATOM     47  C   UNL A   1      40.200  30.416  30.228  1.00  0.00     0.034 A 
ATOM     48  C   UNL A   1      45.964  29.298  27.339  1.00  0.00     0.049 A 
ATOM     49  C   UNL A   1      41.449  31.244  30.047  1.00  0.00     0.074 A 
ATOM     50  C   UNL A   1      47.017  30.182  27.179  1.00  0.00     0.029 A 
ATOM     51  N   UNL A   1      44.981  29.981  28.045  1.00  0.00    -0.354 N 
ATOM     52  N   UNL A   1      42.573  30.928  29.444  1.00  0.00    -0.248 NA
ATOM     53  C   UNL A   1      41.423  32.605  30.596  1.00  0.00     0.031 C 
ATOM     54  C   UNL A   1      46.705  31.367  27.856  1.00  0.00     0.029 A 
ATOM     55  C   UNL A   1      45.419  31.261  28.358  1.00  0.00     0.049 A 
ATOM     56  H   UNL A   1      44.102  29.611  28.290  1.00  0.00     0.167 HD
ATOM     57  C   UNL A   1      43.374  32.066  29.514  1.00  0.00     0.074 A 
ATOM     58  C   UNL A   1      42.592  33.078  30.193  1.00  0.00     0.031 C 
ATOM     59  C   UNL A   1      44.638  32.260  29.053  1.00  0.00     0.034 A 
BRANCH  46  60
ATOM     60  C   UNL A   1      47.049  27.299  26.195  1.00  0.00     0.023 A 
ATOM     61  C   UNL A   1      48.001  26.533  26.893  1.00  0.00     0.031 A 
ATOM     62  C   UNL A   1      47.245  27.486  24.814  1.00  0.00     0.131 A 
ATOM     63  C   UNL A   1      49.136  26.044  26.225  1.00  0.00     0.055 A 
ATOM     64  C   UNL A   1      48.332  26.925  24.140  1.00  0.00     0.041 A 
ATOM     65  F   UNL A   1      46.386  28.225  24.096  1.00  0.00    -0.206 F 
ATOM     66  C   UNL A   1      49.293  26.212  24.849  1.00  0.00     0.022 A 
BRANCH  63  67
ATOM     67  S   UNL A   1      50.474  25.312  27.207  1.00  0.00     0.124 S 
ATOM     68  O   UNL A   1      51.447  24.972  26.172  1.00  0.00    -0.237 OA
ATOM     69  O   UNL A   1      50.845  26.404  28.100  1.00  0.00    -0.237 OA
ATOM     70  O   UNL A   1      49.838  24.165  27.854  1.00  0.00    -0.744 OA
ENDBRANCH  63  67
ENDBRANCH  46  60
BRANCH  47  71
ATOM     71  C   UNL A   1      39.027  30.962  30.972  1.00  0.00     0.023 A 
ATOM     72  C   UNL A   1      38.000  31.655  30.312  1.00  0.00     0.031 A 
ATOM     73  C   UNL A   1      38.946  30.843  32.372  1.00  0.00     0.131 A 
ATOM     74  C   UNL A   1      36.965  32.247  31.054  1.00  0.00     0.055 A 
ATOM     75  C   UNL A   1      37.883  31.381  33.099  1.00  0.00     0.041 A 
ATOM     76  F   UNL A   1      39.899  30.190  33.054  1.00  0.00    -0.206 F 
ATOM     77  C   UNL A   1      36.893  32.102  32.441  1.00  0.00     0.022 A 
BRANCH  74  78
ATOM     78  S   UNL A   1      35.762  33.293  30.188  1.00  0.00     0.124 S 
ATOM     79  O   UNL A   1      36.624  34.066  29.301  1.00  0.00    -0.237 OA
ATOM     80  O   UNL A   1      34.906  32.300  29.548  1.00  0.00    -0.237 OA
ATOM     81  O   UNL A   1      35.134  34.051  31.267  1.00  0.00    -0.744 OA
ENDBRANCH  74  78
ENDBRANCH  47  71
BRANCH  59  82
ATOM     82  C   UNL A   1      45.228  33.642  29.236  1.00  0.00     0.023 A 
ATOM     83  C   UNL A   1      45.118  34.634  28.245  1.00  0.00     0.031 A 
ATOM     84  C   UNL A   1      45.956  33.954  30.399  1.00  0.00     0.131 A 
ATOM     85  C   UNL A   1      45.801  35.851  28.392  1.00  0.00     0.055 A 
ATOM     86  C   UNL A   1      46.567  35.197  30.575  1.00  0.00     0.041 A 
ATOM     87  F   UNL A   1      46.099  33.049  31.381  1.00  0.00    -0.206 F 
ATOM     88  C   UNL A   1      46.509  36.146  29.559  1.00  0.00     0.022 A 
BRANCH  85  89
ATOM     89  S   UNL A   1      45.878  36.981  26.974  1.00  0.00     0.124 S 
ATOM     90  O   UNL A   1      46.857  37.965  27.424  1.00  0.00    -0.237 OA
ATOM     91  O   UNL A   1      46.312  36.098  25.897  1.00  0.00    -0.237 OA
ATOM     92  O   UNL A   1      44.508  37.476  26.856  1.00  0.00    -0.744 OA
ENDBRANCH  85  89
ENDBRANCH  59  82
ENDBRANCH  33  34
ENDBRANCH  26  28
ENDBRANCH  25  26
ENDBRANCH  24  25
ENDBRANCH  23  24
ENDBRANCH  22  23
ENDBRANCH   1  22
TORSDOF 23
ENDMDL
