MODEL 1
REMARK VINA RESULT:     -10.1      0.000      0.000
REMARK SMILES COCCCN(C)C(=O)N1CCC(CC(=O)OCCOCCOC(=O)c2ccc(-c3c4nc(c(-c5cc(S(=O)(=O)[O-])ccc5F)c5ccc([nH]5)c(-c5cc(S(=O)(=O)[O-])ccc5F)c5nc(c(-c6cc(S(=O)(=O)[O-])ccc6F)c6ccc3[nH]6)C=C5)C=C4)cc2)CC1
REMARK SMILES IDX 18 1 17 2 15 3 16 4 14 5 13 6 8 7 9 8 10 9 11 10 90 11 12 12
REMARK SMILES IDX 89 13 6 14 7 15 5 16 4 17 3 18 2 19 1 20 19 21 20 22 21 23
REMARK SMILES IDX 22 24 23 25 24 26 25 27 26 28 27 29 88 30 28 31 87 32 29 33
REMARK SMILES IDX 30 34 31 35 81 36 32 37 86 38 80 39 82 40 33 41 85 42 79 43
REMARK SMILES IDX 78 44 34 46 66 47 46 48 65 49 47 50 50 51 64 52 83 53 48 54
REMARK SMILES IDX 49 55 63 57 84 58 51 59 35 60 36 61 44 62 37 63 43 64 45 65
REMARK SMILES IDX 42 66 38 67 39 68 40 69 41 70 67 71 68 72 76 73 69 74 75 75
REMARK SMILES IDX 77 76 74 77 70 78 71 79 72 80 73 81 52 82 53 83 61 84 54 85
REMARK SMILES IDX 60 86 62 87 59 88 55 89 56 90 57 91 58 92
REMARK H PARENT 82 45 50 56
REMARK Flexibility Score: inf
ROOT
ATOM      1  C   UNL A   1      31.592  27.949  24.254  1.00  0.00     0.261 C 
ENDROOT
BRANCH   1   2
ATOM      2  O   UNL A   1      31.073  27.228  25.389  1.00  0.00    -0.463 OA
BRANCH   2   3
ATOM      3  C   UNL A   1      31.896  26.313  25.958  1.00  0.00     0.306 C 
ATOM      4  O   UNL A   1      31.562  25.503  26.815  1.00  0.00    -0.252 OA
BRANCH   3   5
ATOM      5  C   UNL A   1      33.321  26.420  25.455  1.00  0.00     0.126 C 
BRANCH   5   6
ATOM      6  C   UNL A   1      33.869  25.266  24.589  1.00  0.00     0.003 C 
ATOM      7  C   UNL A   1      33.402  21.461  24.889  1.00  0.00     0.319 C 
ATOM      8  O   UNL A   1      33.328  21.663  26.098  1.00  0.00    -0.248 OA
ATOM      9  N   UNL A   1      33.988  22.398  24.062  1.00  0.00    -0.325 N 
ATOM     10  C   UNL A   1      35.169  23.082  24.571  1.00  0.00     0.121 C 
ATOM     11  C   UNL A   1      33.128  23.223  23.231  1.00  0.00     0.121 C 
ATOM     12  C   UNL A   1      34.799  24.326  25.380  1.00  0.00     0.026 C 
ATOM     13  C   UNL A   1      32.681  24.471  23.998  1.00  0.00     0.026 C 
BRANCH   7  14
ATOM     14  N   UNL A   1      32.932  20.305  24.293  1.00  0.00    -0.328 N 
ATOM     15  C   UNL A   1      32.249  20.266  23.009  1.00  0.00     0.148 C 
BRANCH  14  16
ATOM     16  C   UNL A   1      33.082  19.033  25.005  1.00  0.00     0.123 C 
BRANCH  16  17
ATOM     17  C   UNL A   1      34.222  18.136  24.497  1.00  0.00     0.050 C 
BRANCH  17  18
ATOM     18  C   UNL A   1      33.849  16.975  23.568  1.00  0.00     0.161 C 
BRANCH  18  19
ATOM     19  O   UNL A   1      33.910  15.698  24.206  1.00  0.00    -0.385 OA
ATOM     20  C   UNL A   1      32.909  15.474  25.186  1.00  0.00     0.194 C 
ENDBRANCH  18  19
ENDBRANCH  17  18
ENDBRANCH  16  17
ENDBRANCH  14  16
ENDBRANCH   7  14
ENDBRANCH   5   6
ENDBRANCH   3   5
ENDBRANCH   2   3
ENDBRANCH   1   2
BRANCH   1  21
ATOM     21  C   UNL A   1      31.265  29.443  24.342  1.00  0.00     0.202 C 
BRANCH  21  22
ATOM     22  O   UNL A   1      31.183  29.997  25.656  1.00  0.00    -0.374 OA
BRANCH  22  23
ATOM     23  C   UNL A   1      30.991  31.406  25.753  1.00  0.00     0.202 C 
BRANCH  23  24
ATOM     24  C   UNL A   1      31.522  32.094  27.018  1.00  0.00     0.261 C 
BRANCH  24  25
ATOM     25  O   UNL A   1      32.596  33.011  26.743  1.00  0.00    -0.460 OA
BRANCH  25  26
ATOM     26  C   UNL A   1      33.145  33.576  27.846  1.00  0.00     0.338 C 
ATOM     27  O   UNL A   1      32.621  34.408  28.579  1.00  0.00    -0.246 OA
BRANCH  26  28
ATOM     28  C   UNL A   1      34.421  32.919  28.186  1.00  0.00     0.060 A 
ATOM     29  C   UNL A   1      34.372  31.569  28.554  1.00  0.00     0.016 A 
ATOM     30  C   UNL A   1      35.632  33.617  28.220  1.00  0.00     0.016 A 
ATOM     31  C   UNL A   1      35.519  30.922  29.006  1.00  0.00     0.010 A 
ATOM     32  C   UNL A   1      36.784  32.966  28.680  1.00  0.00     0.010 A 
ATOM     33  C   UNL A   1      36.726  31.627  29.109  1.00  0.00    -0.014 A 
BRANCH  33  34
ATOM     34  C   UNL A   1      37.879  30.998  29.805  1.00  0.00     0.031 A 
ATOM     35  C   UNL A   1      38.177  31.390  31.228  1.00  0.00     0.074 A 
ATOM     36  C   UNL A   1      38.623  30.056  29.195  1.00  0.00     0.049 A 
ATOM     37  N   UNL A   1      39.144  30.996  32.015  1.00  0.00    -0.248 NA
ATOM     38  C   UNL A   1      37.258  32.361  31.841  1.00  0.00     0.031 C 
ATOM     39  C   UNL A   1      38.401  29.554  27.840  1.00  0.00     0.029 A 
ATOM     40  N   UNL A   1      39.718  29.355  29.638  1.00  0.00    -0.354 N 
ATOM     41  C   UNL A   1      38.956  31.673  33.216  1.00  0.00     0.074 A 
ATOM     42  C   UNL A   1      37.804  32.531  33.037  1.00  0.00     0.031 C 
ATOM     43  C   UNL A   1      39.336  28.630  27.559  1.00  0.00     0.029 A 
ATOM     44  C   UNL A   1      40.248  28.505  28.696  1.00  0.00     0.049 A 
ATOM     45  H   UNL A   1      40.089  29.453  30.545  1.00  0.00     0.167 HD
ATOM     46  C   UNL A   1      39.673  31.580  34.363  1.00  0.00     0.034 A 
ATOM     47  C   UNL A   1      41.356  27.737  28.734  1.00  0.00     0.034 A 
ATOM     48  C   UNL A   1      40.826  30.726  34.524  1.00  0.00     0.049 A 
ATOM     49  C   UNL A   1      42.195  27.724  29.991  1.00  0.00     0.074 A 
ATOM     50  C   UNL A   1      41.612  30.543  35.649  1.00  0.00     0.029 A 
ATOM     51  N   UNL A   1      41.367  29.921  33.529  1.00  0.00    -0.354 N 
ATOM     52  N   UNL A   1      42.004  28.362  31.122  1.00  0.00    -0.248 NA
ATOM     53  C   UNL A   1      43.397  26.878  29.976  1.00  0.00     0.031 C 
ATOM     54  C   UNL A   1      42.672  29.694  35.310  1.00  0.00     0.029 A 
ATOM     55  C   UNL A   1      42.499  29.274  34.002  1.00  0.00     0.049 A 
ATOM     56  H   UNL A   1      41.000  29.826  32.620  1.00  0.00     0.167 HD
ATOM     57  C   UNL A   1      43.043  27.969  31.962  1.00  0.00     0.074 A 
ATOM     58  C   UNL A   1      43.850  27.029  31.213  1.00  0.00     0.031 C 
ATOM     59  C   UNL A   1      43.303  28.345  33.241  1.00  0.00     0.034 A 
BRANCH  46  60
ATOM     60  C   UNL A   1      39.261  32.469  35.513  1.00  0.00     0.023 A 
ATOM     61  C   UNL A   1      39.719  33.793  35.632  1.00  0.00     0.031 A 
ATOM     62  C   UNL A   1      38.414  31.975  36.522  1.00  0.00     0.131 A 
ATOM     63  C   UNL A   1      39.385  34.552  36.765  1.00  0.00     0.055 A 
ATOM     64  C   UNL A   1      38.020  32.761  37.606  1.00  0.00     0.041 A 
ATOM     65  F   UNL A   1      37.964  30.711  36.477  1.00  0.00    -0.206 F 
ATOM     66  C   UNL A   1      38.517  34.054  37.739  1.00  0.00     0.022 A 
BRANCH  63  67
ATOM     67  S   UNL A   1      40.215  36.144  37.020  1.00  0.00     0.124 S 
ATOM     68  O   UNL A   1      39.497  36.669  38.179  1.00  0.00    -0.237 OA
ATOM     69  O   UNL A   1      41.598  35.744  37.252  1.00  0.00    -0.237 OA
ATOM     70  O   UNL A   1      39.973  36.862  35.771  1.00  0.00    -0.744 OA
ENDBRANCH  63  67
ENDBRANCH  46  60
BRANCH  47  71
ATOM     71  C   UNL A   1      41.774  26.953  27.535  1.00  0.00     0.023 A 
ATOM     72  C   UNL A   1      41.541  25.571  27.451  1.00  0.00     0.031 A 
ATOM     73  C   UNL A   1      42.472  27.569  26.481  1.00  0.00     0.131 A 
ATOM     74  C   UNL A   1      42.040  24.843  26.358  1.00  0.00     0.055 A 
ATOM     75  C   UNL A   1      42.917  26.851  25.370  1.00  0.00     0.041 A 
ATOM     76  F   UNL A   1      42.727  28.887  26.514  1.00  0.00    -0.206 F 
ATOM     77  C   UNL A   1      42.714  25.476  25.311  1.00  0.00     0.022 A 
BRANCH  74  78
ATOM     78  S   UNL A   1      41.878  23.037  26.370  1.00  0.00     0.124 S 
ATOM     79  O   UNL A   1      42.596  22.666  25.158  1.00  0.00    -0.237 OA
ATOM     80  O   UNL A   1      42.521  22.684  27.632  1.00  0.00    -0.237 OA
ATOM     81  O   UNL A   1      40.432  22.825  26.331  1.00  0.00    -0.744 OA
ENDBRANCH  74  78
ENDBRANCH  47  71
BRANCH  59  82
ATOM     82  C   UNL A   1      44.484  27.696  33.926  1.00  0.00     0.023 A 
ATOM     83  C   UNL A   1      45.765  28.276  33.911  1.00  0.00     0.031 A 
ATOM     84  C   UNL A   1      44.321  26.472  34.601  1.00  0.00     0.131 A 
ATOM     85  C   UNL A   1      46.843  27.605  34.511  1.00  0.00     0.055 A 
ATOM     86  C   UNL A   1      45.384  25.841  35.250  1.00  0.00     0.041 A 
ATOM     87  F   UNL A   1      43.122  25.870  34.645  1.00  0.00    -0.206 F 
ATOM     88  C   UNL A   1      46.657  26.402  35.196  1.00  0.00     0.022 A 
BRANCH  85  89
ATOM     89  S   UNL A   1      48.515  28.281  34.308  1.00  0.00     0.124 S 
ATOM     90  O   UNL A   1      48.343  29.655  34.767  1.00  0.00    -0.237 OA
ATOM     91  O   UNL A   1      49.310  27.415  35.173  1.00  0.00    -0.237 OA
ATOM     92  O   UNL A   1      48.774  28.132  32.877  1.00  0.00    -0.744 OA
ENDBRANCH  85  89
ENDBRANCH  59  82
ENDBRANCH  33  34
ENDBRANCH  26  28
ENDBRANCH  25  26
ENDBRANCH  24  25
ENDBRANCH  23  24
ENDBRANCH  22  23
ENDBRANCH  21  22
ENDBRANCH   1  21
TORSDOF 23
ENDMDL
MODEL 2
REMARK VINA RESULT:     -10.0      2.582      7.861
REMARK SMILES COCCCN(C)C(=O)N1CCC(CC(=O)OCCOCCOC(=O)c2ccc(-c3c4nc(c(-c5cc(S(=O)(=O)[O-])ccc5F)c5ccc([nH]5)c(-c5cc(S(=O)(=O)[O-])ccc5F)c5nc(c(-c6cc(S(=O)(=O)[O-])ccc6F)c6ccc3[nH]6)C=C5)C=C4)cc2)CC1
REMARK SMILES IDX 18 1 17 2 15 3 16 4 14 5 13 6 8 7 9 8 10 9 11 10 90 11 12 12
REMARK SMILES IDX 89 13 6 14 7 15 5 16 4 17 3 18 2 19 1 20 19 21 20 22 21 23
REMARK SMILES IDX 22 24 23 25 24 26 25 27 26 28 27 29 88 30 28 31 87 32 29 33
REMARK SMILES IDX 30 34 31 35 81 36 32 37 86 38 80 39 82 40 33 41 85 42 79 43
REMARK SMILES IDX 78 44 34 46 66 47 46 48 65 49 47 50 50 51 64 52 83 53 48 54
REMARK SMILES IDX 49 55 63 57 84 58 51 59 35 60 36 61 44 62 37 63 43 64 45 65
REMARK SMILES IDX 42 66 38 67 39 68 40 69 41 70 67 71 68 72 76 73 69 74 75 75
REMARK SMILES IDX 77 76 74 77 70 78 71 79 72 80 73 81 52 82 53 83 61 84 54 85
REMARK SMILES IDX 60 86 62 87 59 88 55 89 56 90 57 91 58 92
REMARK H PARENT 82 45 50 56
REMARK Flexibility Score: inf
ROOT
ATOM      1  C   UNL A   1      32.758  28.822  25.137  1.00  0.00     0.261 C 
ENDROOT
BRANCH   1   2
ATOM      2  O   UNL A   1      31.420  28.331  25.352  1.00  0.00    -0.463 OA
BRANCH   2   3
ATOM      3  C   UNL A   1      31.297  27.203  26.092  1.00  0.00     0.306 C 
ATOM      4  O   UNL A   1      31.020  27.171  27.286  1.00  0.00    -0.252 OA
BRANCH   3   5
ATOM      5  C   UNL A   1      31.586  25.947  25.293  1.00  0.00     0.126 C 
BRANCH   5   6
ATOM      6  C   UNL A   1      32.528  24.896  25.917  1.00  0.00     0.003 C 
ATOM      7  C   UNL A   1      32.641  21.073  25.510  1.00  0.00     0.319 C 
ATOM      8  O   UNL A   1      31.425  21.151  25.359  1.00  0.00    -0.248 OA
ATOM      9  N   UNL A   1      33.332  22.098  26.127  1.00  0.00    -0.325 N 
ATOM     10  C   UNL A   1      32.684  22.744  27.259  1.00  0.00     0.121 C 
ATOM     11  C   UNL A   1      34.128  22.991  25.302  1.00  0.00     0.121 C 
ATOM     12  C   UNL A   1      31.779  23.893  26.815  1.00  0.00     0.026 C 
ATOM     13  C   UNL A   1      33.269  24.148  24.784  1.00  0.00     0.026 C 
BRANCH   7  14
ATOM     14  N   UNL A   1      33.379  19.977  25.102  1.00  0.00    -0.328 N 
ATOM     15  C   UNL A   1      34.808  20.009  24.828  1.00  0.00     0.148 C 
BRANCH  14  16
ATOM     16  C   UNL A   1      32.688  18.704  24.881  1.00  0.00     0.123 C 
BRANCH  16  17
ATOM     17  C   UNL A   1      33.081  17.968  23.590  1.00  0.00     0.050 C 
BRANCH  17  18
ATOM     18  C   UNL A   1      33.921  16.693  23.730  1.00  0.00     0.161 C 
BRANCH  18  19
ATOM     19  O   UNL A   1      34.969  16.808  24.694  1.00  0.00    -0.385 OA
ATOM     20  C   UNL A   1      35.368  15.584  25.289  1.00  0.00     0.194 C 
ENDBRANCH  18  19
ENDBRANCH  17  18
ENDBRANCH  16  17
ENDBRANCH  14  16
ENDBRANCH   7  14
ENDBRANCH   5   6
ENDBRANCH   3   5
ENDBRANCH   2   3
ENDBRANCH   1   2
BRANCH   1  21
ATOM     21  C   UNL A   1      33.167  29.827  26.217  1.00  0.00     0.202 C 
BRANCH  21  22
ATOM     22  O   UNL A   1      32.103  30.444  26.944  1.00  0.00    -0.374 OA
BRANCH  22  23
ATOM     23  C   UNL A   1      31.511  31.603  26.365  1.00  0.00     0.202 C 
BRANCH  23  24
ATOM     24  C   UNL A   1      31.770  32.942  27.069  1.00  0.00     0.261 C 
BRANCH  24  25
ATOM     25  O   UNL A   1      33.149  33.119  27.438  1.00  0.00    -0.460 OA
BRANCH  25  26
ATOM     26  C   UNL A   1      33.366  34.122  28.323  1.00  0.00     0.338 C 
ATOM     27  O   UNL A   1      32.707  35.150  28.439  1.00  0.00    -0.246 OA
BRANCH  26  28
ATOM     28  C   UNL A   1      34.413  33.744  29.291  1.00  0.00     0.060 A 
ATOM     29  C   UNL A   1      35.702  34.244  29.071  1.00  0.00     0.016 A 
ATOM     30  C   UNL A   1      34.167  32.864  30.349  1.00  0.00     0.016 A 
ATOM     31  C   UNL A   1      36.762  33.828  29.873  1.00  0.00     0.010 A 
ATOM     32  C   UNL A   1      35.236  32.443  31.150  1.00  0.00     0.010 A 
ATOM     33  C   UNL A   1      36.544  32.895  30.894  1.00  0.00    -0.014 A 
BRANCH  33  34
ATOM     34  C   UNL A   1      37.710  32.288  31.588  1.00  0.00     0.031 A 
ATOM     35  C   UNL A   1      38.466  31.175  30.911  1.00  0.00     0.074 A 
ATOM     36  C   UNL A   1      38.121  32.751  32.783  1.00  0.00     0.049 A 
ATOM     37  N   UNL A   1      39.489  30.482  31.339  1.00  0.00    -0.248 NA
ATOM     38  C   UNL A   1      37.999  30.794  29.569  1.00  0.00     0.031 C 
ATOM     39  C   UNL A   1      37.505  33.857  33.514  1.00  0.00     0.029 A 
ATOM     40  N   UNL A   1      39.153  32.346  33.594  1.00  0.00    -0.354 N 
ATOM     41  C   UNL A   1      39.787  29.578  30.324  1.00  0.00     0.074 A 
ATOM     42  C   UNL A   1      38.811  29.788  29.276  1.00  0.00     0.031 C 
ATOM     43  C   UNL A   1      38.168  34.039  34.669  1.00  0.00     0.029 A 
ATOM     44  C   UNL A   1      39.227  33.037  34.781  1.00  0.00     0.049 A 
ATOM     45  H   UNL A   1      39.781  31.630  33.347  1.00  0.00     0.167 HD
ATOM     46  C   UNL A   1      40.788  28.665  30.269  1.00  0.00     0.034 A 
ATOM     47  C   UNL A   1      40.035  32.861  35.846  1.00  0.00     0.034 A 
ATOM     48  C   UNL A   1      41.750  28.461  31.326  1.00  0.00     0.049 A 
ATOM     49  C   UNL A   1      41.081  31.772  35.802  1.00  0.00     0.074 A 
ATOM     50  C   UNL A   1      42.813  27.575  31.364  1.00  0.00     0.029 A 
ATOM     51  N   UNL A   1      41.758  29.140  32.538  1.00  0.00    -0.354 N 
ATOM     52  N   UNL A   1      41.359  30.929  34.834  1.00  0.00    -0.248 NA
ATOM     53  C   UNL A   1      41.928  31.617  36.992  1.00  0.00     0.031 C 
ATOM     54  C   UNL A   1      43.412  27.662  32.626  1.00  0.00     0.029 A 
ATOM     55  C   UNL A   1      42.781  28.664  33.345  1.00  0.00     0.049 A 
ATOM     56  H   UNL A   1      41.128  29.854  32.788  1.00  0.00     0.167 HD
ATOM     57  C   UNL A   1      42.433  30.166  35.289  1.00  0.00     0.074 A 
ATOM     58  C   UNL A   1      42.761  30.659  36.611  1.00  0.00     0.031 C 
ATOM     59  C   UNL A   1      43.093  29.156  34.667  1.00  0.00     0.034 A 
BRANCH  46  60
ATOM     60  C   UNL A   1      40.854  27.780  29.046  1.00  0.00     0.023 A 
ATOM     61  C   UNL A   1      41.786  28.000  28.016  1.00  0.00     0.031 A 
ATOM     62  C   UNL A   1      39.953  26.710  28.897  1.00  0.00     0.131 A 
ATOM     63  C   UNL A   1      41.749  27.210  26.856  1.00  0.00     0.055 A 
ATOM     64  C   UNL A   1      39.974  25.876  27.778  1.00  0.00     0.041 A 
ATOM     65  F   UNL A   1      39.024  26.464  29.835  1.00  0.00    -0.206 F 
ATOM     66  C   UNL A   1      40.867  26.133  26.742  1.00  0.00     0.022 A 
BRANCH  63  67
ATOM     67  S   UNL A   1      42.771  27.698  25.440  1.00  0.00     0.124 S 
ATOM     68  O   UNL A   1      42.876  26.440  24.705  1.00  0.00    -0.237 OA
ATOM     69  O   UNL A   1      41.966  28.740  24.814  1.00  0.00    -0.237 OA
ATOM     70  O   UNL A   1      44.015  28.155  26.056  1.00  0.00    -0.744 OA
ENDBRANCH  63  67
ENDBRANCH  46  60
BRANCH  47  71
ATOM     71  C   UNL A   1      39.864  33.697  37.070  1.00  0.00     0.023 A 
ATOM     72  C   UNL A   1      39.174  33.214  38.193  1.00  0.00     0.031 A 
ATOM     73  C   UNL A   1      40.337  35.021  37.108  1.00  0.00     0.131 A 
ATOM     74  C   UNL A   1      38.937  34.061  39.288  1.00  0.00     0.055 A 
ATOM     75  C   UNL A   1      40.150  35.842  38.221  1.00  0.00     0.041 A 
ATOM     76  F   UNL A   1      40.999  35.536  36.060  1.00  0.00    -0.206 F 
ATOM     77  C   UNL A   1      39.433  35.367  39.316  1.00  0.00     0.022 A 
BRANCH  74  78
ATOM     78  S   UNL A   1      37.889  33.461  40.641  1.00  0.00     0.124 S 
ATOM     79  O   UNL A   1      37.789  34.645  41.486  1.00  0.00    -0.237 OA
ATOM     80  O   UNL A   1      36.674  33.072  39.933  1.00  0.00    -0.237 OA
ATOM     81  O   UNL A   1      38.660  32.355  41.203  1.00  0.00    -0.744 OA
ENDBRANCH  74  78
ENDBRANCH  47  71
BRANCH  59  82
ATOM     82  C   UNL A   1      44.273  28.551  35.394  1.00  0.00     0.023 A 
ATOM     83  C   UNL A   1      44.115  27.535  36.352  1.00  0.00     0.031 A 
ATOM     84  C   UNL A   1      45.576  29.006  35.122  1.00  0.00     0.131 A 
ATOM     85  C   UNL A   1      45.236  27.046  37.044  1.00  0.00     0.055 A 
ATOM     86  C   UNL A   1      46.693  28.472  35.767  1.00  0.00     0.041 A 
ATOM     87  F   UNL A   1      45.787  29.978  34.220  1.00  0.00    -0.206 F 
ATOM     88  C   UNL A   1      46.524  27.495  36.744  1.00  0.00     0.022 A 
BRANCH  85  89
ATOM     89  S   UNL A   1      44.979  25.877  38.409  1.00  0.00     0.124 S 
ATOM     90  O   UNL A   1      43.883  26.504  39.141  1.00  0.00    -0.237 OA
ATOM     91  O   UNL A   1      44.651  24.642  37.704  1.00  0.00    -0.237 OA
ATOM     92  O   UNL A   1      46.266  25.871  39.102  1.00  0.00    -0.744 OA
ENDBRANCH  85  89
ENDBRANCH  59  82
ENDBRANCH  33  34
ENDBRANCH  26  28
ENDBRANCH  25  26
ENDBRANCH  24  25
ENDBRANCH  23  24
ENDBRANCH  22  23
ENDBRANCH  21  22
ENDBRANCH   1  21
TORSDOF 23
ENDMDL
MODEL 3
REMARK VINA RESULT:      -9.6      1.821      2.229
REMARK SMILES COCCCN(C)C(=O)N1CCC(CC(=O)OCCOCCOC(=O)c2ccc(-c3c4nc(c(-c5cc(S(=O)(=O)[O-])ccc5F)c5ccc([nH]5)c(-c5cc(S(=O)(=O)[O-])ccc5F)c5nc(c(-c6cc(S(=O)(=O)[O-])ccc6F)c6ccc3[nH]6)C=C5)C=C4)cc2)CC1
REMARK SMILES IDX 18 1 17 2 15 3 16 4 14 5 13 6 8 7 9 8 10 9 11 10 90 11 12 12
REMARK SMILES IDX 89 13 6 14 7 15 5 16 4 17 3 18 2 19 1 20 19 21 20 22 21 23
REMARK SMILES IDX 22 24 23 25 24 26 25 27 26 28 27 29 88 30 28 31 87 32 29 33
REMARK SMILES IDX 30 34 31 35 81 36 32 37 86 38 80 39 82 40 33 41 85 42 79 43
REMARK SMILES IDX 78 44 34 46 66 47 46 48 65 49 47 50 50 51 64 52 83 53 48 54
REMARK SMILES IDX 49 55 63 57 84 58 51 59 35 60 36 61 44 62 37 63 43 64 45 65
REMARK SMILES IDX 42 66 38 67 39 68 40 69 41 70 67 71 68 72 76 73 69 74 75 75
REMARK SMILES IDX 77 76 74 77 70 78 71 79 72 80 73 81 52 82 53 83 61 84 54 85
REMARK SMILES IDX 60 86 62 87 59 88 55 89 56 90 57 91 58 92
REMARK H PARENT 82 45 50 56
REMARK Flexibility Score: inf
ROOT
ATOM      1  C   UNL A   1      30.422  26.383  24.840  1.00  0.00     0.261 C 
ENDROOT
BRANCH   1   2
ATOM      2  O   UNL A   1      30.581  26.021  26.226  1.00  0.00    -0.463 OA
BRANCH   2   3
ATOM      3  C   UNL A   1      31.628  25.215  26.529  1.00  0.00     0.306 C 
ATOM      4  O   UNL A   1      31.557  24.193  27.202  1.00  0.00    -0.252 OA
BRANCH   3   5
ATOM      5  C   UNL A   1      32.942  25.735  25.981  1.00  0.00     0.126 C 
BRANCH   5   6
ATOM      6  C   UNL A   1      33.929  24.712  25.381  1.00  0.00     0.003 C 
ATOM      7  C   UNL A   1      34.142  20.893  25.785  1.00  0.00     0.319 C 
ATOM      8  O   UNL A   1      33.685  21.084  26.909  1.00  0.00    -0.248 OA
ATOM      9  N   UNL A   1      34.749  21.926  25.096  1.00  0.00    -0.325 N 
ATOM     10  C   UNL A   1      35.576  22.840  25.871  1.00  0.00     0.121 C 
ATOM     11  C   UNL A   1      34.022  22.552  24.006  1.00  0.00     0.121 C 
ATOM     12  C   UNL A   1      34.755  23.987  26.461  1.00  0.00     0.026 C 
ATOM     13  C   UNL A   1      33.140  23.687  24.533  1.00  0.00     0.026 C 
BRANCH   7  14
ATOM     14  N   UNL A   1      34.098  19.662  25.158  1.00  0.00    -0.328 N 
ATOM     15  C   UNL A   1      35.255  19.001  24.572  1.00  0.00     0.148 C 
BRANCH  14  16
ATOM     16  C   UNL A   1      32.806  18.985  25.022  1.00  0.00     0.123 C 
BRANCH  16  17
ATOM     17  C   UNL A   1      32.724  17.604  25.693  1.00  0.00     0.050 C 
BRANCH  17  18
ATOM     18  C   UNL A   1      32.393  16.402  24.802  1.00  0.00     0.161 C 
BRANCH  18  19
ATOM     19  O   UNL A   1      33.441  15.433  24.746  1.00  0.00    -0.385 OA
ATOM     20  C   UNL A   1      34.671  15.853  25.316  1.00  0.00     0.194 C 
ENDBRANCH  18  19
ENDBRANCH  17  18
ENDBRANCH  16  17
ENDBRANCH  14  16
ENDBRANCH   7  14
ENDBRANCH   5   6
ENDBRANCH   3   5
ENDBRANCH   2   3
ENDBRANCH   1   2
BRANCH   1  21
ATOM     21  C   UNL A   1      30.743  27.861  24.605  1.00  0.00     0.202 C 
BRANCH  21  22
ATOM     22  O   UNL A   1      31.112  28.620  25.759  1.00  0.00    -0.374 OA
BRANCH  22  23
ATOM     23  C   UNL A   1      31.871  29.805  25.537  1.00  0.00     0.202 C 
BRANCH  23  24
ATOM     24  C   UNL A   1      32.290  30.605  26.778  1.00  0.00     0.261 C 
BRANCH  24  25
ATOM     25  O   UNL A   1      33.527  31.316  26.591  1.00  0.00    -0.460 OA
BRANCH  25  26
ATOM     26  C   UNL A   1      34.014  31.896  27.715  1.00  0.00     0.338 C 
ATOM     27  O   UNL A   1      33.406  32.647  28.472  1.00  0.00    -0.246 OA
BRANCH  26  28
ATOM     28  C   UNL A   1      35.349  31.360  28.041  1.00  0.00     0.060 A 
ATOM     29  C   UNL A   1      35.453  29.980  28.252  1.00  0.00     0.016 A 
ATOM     30  C   UNL A   1      36.462  32.187  28.210  1.00  0.00     0.016 A 
ATOM     31  C   UNL A   1      36.656  29.425  28.684  1.00  0.00     0.010 A 
ATOM     32  C   UNL A   1      37.669  31.628  28.650  1.00  0.00     0.010 A 
ATOM     33  C   UNL A   1      37.762  30.251  28.923  1.00  0.00    -0.014 A 
BRANCH  33  34
ATOM     34  C   UNL A   1      38.960  29.686  29.599  1.00  0.00     0.031 A 
ATOM     35  C   UNL A   1      39.327  30.183  30.972  1.00  0.00     0.074 A 
ATOM     36  C   UNL A   1      39.684  28.711  29.019  1.00  0.00     0.049 A 
ATOM     37  N   UNL A   1      40.340  29.857  31.732  1.00  0.00    -0.248 NA
ATOM     38  C   UNL A   1      38.428  31.186  31.563  1.00  0.00     0.031 C 
ATOM     39  C   UNL A   1      39.397  28.109  27.718  1.00  0.00     0.029 A 
ATOM     40  N   UNL A   1      40.811  28.055  29.451  1.00  0.00    -0.354 N 
ATOM     41  C   UNL A   1      40.207  30.617  32.889  1.00  0.00     0.074 A 
ATOM     42  C   UNL A   1      39.034  31.448  32.712  1.00  0.00     0.031 C 
ATOM     43  C   UNL A   1      40.329  27.178  27.453  1.00  0.00     0.029 A 
ATOM     44  C   UNL A   1      41.302  27.144  28.545  1.00  0.00     0.049 A 
ATOM     45  H   UNL A   1      41.227  28.222  30.327  1.00  0.00     0.167 HD
ATOM     46  C   UNL A   1      40.985  30.615  34.000  1.00  0.00     0.034 A 
ATOM     47  C   UNL A   1      42.422  26.393  28.578  1.00  0.00     0.034 A 
ATOM     48  C   UNL A   1      42.156  29.787  34.159  1.00  0.00     0.049 A 
ATOM     49  C   UNL A   1      43.326  26.480  29.785  1.00  0.00     0.074 A 
ATOM     50  C   UNL A   1      43.004  29.695  35.250  1.00  0.00     0.029 A 
ATOM     51  N   UNL A   1      42.655  28.918  33.196  1.00  0.00    -0.354 N 
ATOM     52  N   UNL A   1      43.186  27.196  30.877  1.00  0.00    -0.248 NA
ATOM     53  C   UNL A   1      44.538  25.648  29.767  1.00  0.00     0.031 C 
ATOM     54  C   UNL A   1      44.057  28.835  34.916  1.00  0.00     0.029 A 
ATOM     55  C   UNL A   1      43.821  28.319  33.653  1.00  0.00     0.049 A 
ATOM     56  H   UNL A   1      42.242  28.754  32.318  1.00  0.00     0.167 HD
ATOM     57  C   UNL A   1      44.274  26.876  31.686  1.00  0.00     0.074 A 
ATOM     58  C   UNL A   1      45.053  25.892  30.962  1.00  0.00     0.031 C 
ATOM     59  C   UNL A   1      44.596  27.347  32.918  1.00  0.00     0.034 A 
BRANCH  46  60
ATOM     60  C   UNL A   1      40.622  31.581  35.104  1.00  0.00     0.023 A 
ATOM     61  C   UNL A   1      39.607  31.301  36.036  1.00  0.00     0.031 A 
ATOM     62  C   UNL A   1      41.289  32.815  35.212  1.00  0.00     0.131 A 
ATOM     63  C   UNL A   1      39.242  32.267  36.987  1.00  0.00     0.055 A 
ATOM     64  C   UNL A   1      40.976  33.739  36.210  1.00  0.00     0.041 A 
ATOM     65  F   UNL A   1      42.251  33.151  34.336  1.00  0.00    -0.206 F 
ATOM     66  C   UNL A   1      39.937  33.473  37.097  1.00  0.00     0.022 A 
BRANCH  63  67
ATOM     67  S   UNL A   1      37.752  31.986  37.982  1.00  0.00     0.124 S 
ATOM     68  O   UNL A   1      37.422  30.606  37.635  1.00  0.00    -0.237 OA
ATOM     69  O   UNL A   1      38.234  32.205  39.340  1.00  0.00    -0.237 OA
ATOM     70  O   UNL A   1      36.812  32.987  37.483  1.00  0.00    -0.744 OA
ENDBRANCH  63  67
ENDBRANCH  46  60
BRANCH  47  71
ATOM     71  C   UNL A   1      42.786  25.529  27.418  1.00  0.00     0.023 A 
ATOM     72  C   UNL A   1      42.283  24.224  27.294  1.00  0.00     0.031 A 
ATOM     73  C   UNL A   1      43.699  25.977  26.446  1.00  0.00     0.131 A 
ATOM     74  C   UNL A   1      42.728  23.399  26.248  1.00  0.00     0.055 A 
ATOM     75  C   UNL A   1      44.094  25.174  25.376  1.00  0.00     0.041 A 
ATOM     76  F   UNL A   1      44.215  27.215  26.519  1.00  0.00    -0.206 F 
ATOM     77  C   UNL A   1      43.619  23.869  25.281  1.00  0.00     0.022 A 
BRANCH  74  78
ATOM     78  S   UNL A   1      42.195  21.665  26.223  1.00  0.00     0.124 S 
ATOM     79  O   UNL A   1      42.504  21.240  27.583  1.00  0.00    -0.237 OA
ATOM     80  O   UNL A   1      40.778  21.789  25.894  1.00  0.00    -0.237 OA
ATOM     81  O   UNL A   1      43.025  21.070  25.178  1.00  0.00    -0.744 OA
ENDBRANCH  74  78
ENDBRANCH  47  71
BRANCH  59  82
ATOM     82  C   UNL A   1      45.821  26.761  33.583  1.00  0.00     0.023 A 
ATOM     83  C   UNL A   1      47.115  27.243  33.317  1.00  0.00     0.031 A 
ATOM     84  C   UNL A   1      45.687  25.698  34.495  1.00  0.00     0.131 A 
ATOM     85  C   UNL A   1      48.227  26.627  33.915  1.00  0.00     0.055 A 
ATOM     86  C   UNL A   1      46.791  25.131  35.134  1.00  0.00     0.041 A 
ATOM     87  F   UNL A   1      44.476  25.194  34.785  1.00  0.00    -0.206 F 
ATOM     88  C   UNL A   1      48.072  25.588  34.835  1.00  0.00     0.022 A 
BRANCH  85  89
ATOM     89  S   UNL A   1      49.890  27.142  33.404  1.00  0.00     0.124 S 
ATOM     90  O   UNL A   1      49.606  27.963  32.231  1.00  0.00    -0.237 OA
ATOM     91  O   UNL A   1      50.371  27.859  34.581  1.00  0.00    -0.237 OA
ATOM     92  O   UNL A   1      50.571  25.879  33.127  1.00  0.00    -0.744 OA
ENDBRANCH  85  89
ENDBRANCH  59  82
ENDBRANCH  33  34
ENDBRANCH  26  28
ENDBRANCH  25  26
ENDBRANCH  24  25
ENDBRANCH  23  24
ENDBRANCH  22  23
ENDBRANCH  21  22
ENDBRANCH   1  21
TORSDOF 23
ENDMDL
