MODEL 1
REMARK VINA RESULT:     -12.4      0.000      0.000
REMARK SMILES O=C(OCCOCCOC(=O)c1ccc(-c2c3nc(c(-c4cc(S(=O)(=O)[O-])ccc4F)c4ccc([nH]4)c(-c4cc(S(=O)(=O)[O-])ccc4F)c4nc(c(-c5cc(S(=O)(=O)[O-])ccc5F)c5ccc2[nH]5)C=C4)C=C3)cc1)C1=Cc2cc(Cl)c(Cl)cc2O[C@@H]1C(F)(F)F
REMARK SMILES IDX 7 1 6 2 5 3 4 4 3 5 2 6 1 7 75 8 76 9 86 10 77 11 85 12
REMARK SMILES IDX 78 13 84 14 79 15 83 16 80 17 81 18 82 19 87 20 88 21 89 22
REMARK SMILES IDX 90 23 8 24 9 25 10 26 11 27 12 28 13 29 74 30 14 31 73 32
REMARK SMILES IDX 15 33 16 34 17 35 67 36 18 37 72 38 66 39 68 40 19 41 71 42
REMARK SMILES IDX 65 43 64 44 20 46 52 47 32 48 51 49 33 50 36 51 50 52 69 53
REMARK SMILES IDX 34 54 35 55 49 57 70 58 37 59 21 60 22 61 30 62 23 63 29 64
REMARK SMILES IDX 31 65 28 66 24 67 25 68 26 69 27 70 53 71 54 72 62 73 55 74
REMARK SMILES IDX 61 75 63 76 60 77 56 78 57 79 58 80 59 81 38 82 39 83 47 84
REMARK SMILES IDX 40 85 46 86 48 87 45 88 41 89 42 90 43 91 44 92
REMARK H PARENT 68 45 36 56
REMARK Flexibility Score: inf
ROOT
ATOM      1  C   UNL A   1      35.315  20.787  25.374  1.00  0.00     0.202 C 
ENDROOT
BRANCH   1   2
ATOM      2  O   UNL A   1      34.888  21.690  26.413  1.00  0.00    -0.374 OA
BRANCH   2   3
ATOM      3  C   UNL A   1      33.422  21.997  27.023  1.00  0.00     0.202 C 
BRANCH   3   4
ATOM      4  C   UNL A   1      31.472  21.969  26.077  1.00  0.00     0.261 C 
BRANCH   4   5
ATOM      5  O   UNL A   1      30.927  23.018  25.067  1.00  0.00    -0.460 OA
BRANCH   5   6
ATOM      6  C   UNL A   1      31.053  24.273  25.503  1.00  0.00     0.338 C 
ATOM      7  O   UNL A   1      30.667  24.794  26.517  1.00  0.00    -0.246 OA
BRANCH   6   8
ATOM      8  C   UNL A   1      31.493  24.809  24.241  1.00  0.00     0.087 C 
ATOM      9  C   UNL A   1      30.374  25.499  23.551  1.00  0.00     0.027 C 
ATOM     10  C   UNL A   1      33.099  25.682  24.890  1.00  0.00     0.316 C 
ATOM     11  C   UNL A   1      30.251  27.302  23.406  1.00  0.00     0.019 A 
ATOM     12  O   UNL A   1      32.961  27.603  24.789  1.00  0.00    -0.475 OA
ATOM     13  C   UNL A   1      29.071  27.840  22.971  1.00  0.00     0.034 A 
ATOM     14  C   UNL A   1      31.466  28.354  24.057  1.00  0.00     0.129 A 
ATOM     15  C   UNL A   1      28.928  29.221  23.184  1.00  0.00     0.060 A 
ATOM     16  C   UNL A   1      31.208  29.674  24.309  1.00  0.00     0.069 A 
ATOM     17  Cl  UNL A   1      27.406  29.873  22.629  1.00  0.00    -0.083 Cl
ATOM     18  C   UNL A   1      29.913  30.074  23.858  1.00  0.00     0.063 A 
ATOM     19  Cl  UNL A   1      29.415  31.696  24.236  1.00  0.00    -0.083 Cl
BRANCH  10  20
ATOM     20  C   UNL A   1      34.184  24.690  24.302  1.00  0.00     0.430 C 
ATOM     21  F   UNL A   1      33.810  23.399  24.246  1.00  0.00    -0.167 F 
ATOM     22  F   UNL A   1      34.403  25.051  23.002  1.00  0.00    -0.167 F 
ATOM     23  F   UNL A   1      35.400  24.765  24.886  1.00  0.00    -0.167 F 
ENDBRANCH  10  20
ENDBRANCH   6   8
ENDBRANCH   5   6
ENDBRANCH   4   5
ENDBRANCH   3   4
ENDBRANCH   2   3
ENDBRANCH   1   2
BRANCH   1  24
ATOM     24  C   UNL A   1      36.790  20.913  24.999  1.00  0.00     0.261 C 
BRANCH  24  25
ATOM     25  O   UNL A   1      37.481  21.780  25.890  1.00  0.00    -0.460 OA
BRANCH  25  26
ATOM     26  C   UNL A   1      38.779  21.449  26.082  1.00  0.00     0.338 C 
ATOM     27  O   UNL A   1      39.306  20.368  25.886  1.00  0.00    -0.246 OA
BRANCH  26  28
ATOM     28  C   UNL A   1      39.495  22.643  26.562  1.00  0.00     0.060 A 
ATOM     29  C   UNL A   1      38.934  23.894  26.294  1.00  0.00     0.016 A 
ATOM     30  C   UNL A   1      40.691  22.535  27.287  1.00  0.00     0.016 A 
ATOM     31  C   UNL A   1      39.546  25.038  26.791  1.00  0.00     0.010 A 
ATOM     32  C   UNL A   1      41.305  23.681  27.778  1.00  0.00     0.010 A 
ATOM     33  C   UNL A   1      40.723  24.932  27.542  1.00  0.00    -0.014 A 
BRANCH  33  34
ATOM     34  C   UNL A   1      41.451  26.152  27.932  1.00  0.00     0.031 A 
ATOM     35  C   UNL A   1      40.684  27.197  28.676  1.00  0.00     0.074 A 
ATOM     36  C   UNL A   1      42.744  26.317  27.603  1.00  0.00     0.049 A 
ATOM     37  N   UNL A   1      41.069  28.380  29.064  1.00  0.00    -0.248 NA
ATOM     38  C   UNL A   1      39.288  26.868  29.013  1.00  0.00     0.031 C 
ATOM     39  C   UNL A   1      43.566  25.336  26.897  1.00  0.00     0.029 A 
ATOM     40  N   UNL A   1      43.594  27.374  27.809  1.00  0.00    -0.354 N 
ATOM     41  C   UNL A   1      39.962  28.942  29.685  1.00  0.00     0.074 A 
ATOM     42  C   UNL A   1      38.889  27.977  29.614  1.00  0.00     0.031 C 
ATOM     43  C   UNL A   1      44.807  25.827  26.746  1.00  0.00     0.029 A 
ATOM     44  C   UNL A   1      44.844  27.192  27.262  1.00  0.00     0.049 A 
ATOM     45  H   UNL A   1      43.333  28.186  28.300  1.00  0.00     0.167 HD
ATOM     46  C   UNL A   1      39.859  30.167  30.248  1.00  0.00     0.034 A 
ATOM     47  C   UNL A   1      45.875  28.055  27.150  1.00  0.00     0.034 A 
ATOM     48  C   UNL A   1      40.936  31.119  30.260  1.00  0.00     0.049 A 
ATOM     49  C   UNL A   1      45.692  29.452  27.702  1.00  0.00     0.074 A 
ATOM     50  C   UNL A   1      40.955  32.383  30.816  1.00  0.00     0.029 A 
ATOM     51  N   UNL A   1      42.173  30.925  29.659  1.00  0.00    -0.354 N 
ATOM     52  N   UNL A   1      44.656  29.962  28.331  1.00  0.00    -0.248 NA
ATOM     53  C   UNL A   1      46.805  30.393  27.524  1.00  0.00     0.031 C 
ATOM     54  C   UNL A   1      42.162  32.990  30.464  1.00  0.00     0.029 A 
ATOM     55  C   UNL A   1      42.941  32.070  29.781  1.00  0.00     0.049 A 
ATOM     56  H   UNL A   1      42.462  30.096  29.213  1.00  0.00     0.167 HD
ATOM     57  C   UNL A   1      45.007  31.273  28.643  1.00  0.00     0.074 A 
ATOM     58  C   UNL A   1      46.355  31.467  28.154  1.00  0.00     0.031 C 
ATOM     59  C   UNL A   1      44.285  32.233  29.277  1.00  0.00     0.034 A 
BRANCH  46  60
ATOM     60  C   UNL A   1      38.518  30.564  30.803  1.00  0.00     0.023 A 
ATOM     61  C   UNL A   1      37.540  31.191  30.015  1.00  0.00     0.031 A 
ATOM     62  C   UNL A   1      38.228  30.326  32.158  1.00  0.00     0.131 A 
ATOM     63  C   UNL A   1      36.334  31.603  30.600  1.00  0.00     0.055 A 
ATOM     64  C   UNL A   1      36.996  30.666  32.715  1.00  0.00     0.041 A 
ATOM     65  F   UNL A   1      39.143  29.768  32.966  1.00  0.00    -0.206 F 
ATOM     66  C   UNL A   1      36.043  31.318  31.938  1.00  0.00     0.022 A 
BRANCH  63  67
ATOM     67  S   UNL A   1      35.202  32.630  29.626  1.00  0.00     0.124 S 
ATOM     68  O   UNL A   1      34.340  33.188  30.666  1.00  0.00    -0.237 OA
ATOM     69  O   UNL A   1      36.107  33.570  28.976  1.00  0.00    -0.237 OA
ATOM     70  O   UNL A   1      34.550  31.672  28.735  1.00  0.00    -0.744 OA
ENDBRANCH  63  67
ENDBRANCH  46  60
BRANCH  47  71
ATOM     71  C   UNL A   1      47.124  27.680  26.420  1.00  0.00     0.023 A 
ATOM     72  C   UNL A   1      47.273  27.940  25.048  1.00  0.00     0.031 A 
ATOM     73  C   UNL A   1      48.152  26.962  27.062  1.00  0.00     0.131 A 
ATOM     74  C   UNL A   1      48.380  27.426  24.351  1.00  0.00     0.055 A 
ATOM     75  C   UNL A   1      49.287  26.519  26.381  1.00  0.00     0.041 A 
ATOM     76  F   UNL A   1      48.064  26.669  28.369  1.00  0.00    -0.206 F 
ATOM     77  C   UNL A   1      49.397  26.733  25.011  1.00  0.00     0.022 A 
BRANCH  74  78
ATOM     78  S   UNL A   1      48.400  27.547  22.540  1.00  0.00     0.124 S 
ATOM     79  O   UNL A   1      47.170  28.287  22.281  1.00  0.00    -0.237 OA
ATOM     80  O   UNL A   1      49.645  28.267  22.299  1.00  0.00    -0.237 OA
ATOM     81  O   UNL A   1      48.394  26.151  22.106  1.00  0.00    -0.744 OA
ENDBRANCH  74  78
ENDBRANCH  47  71
BRANCH  59  82
ATOM     82  C   UNL A   1      44.956  33.563  29.510  1.00  0.00     0.023 A 
ATOM     83  C   UNL A   1      44.945  34.579  28.540  1.00  0.00     0.031 A 
ATOM     84  C   UNL A   1      45.582  33.826  30.743  1.00  0.00     0.131 A 
ATOM     85  C   UNL A   1      45.583  35.799  28.805  1.00  0.00     0.055 A 
ATOM     86  C   UNL A   1      46.153  35.067  31.025  1.00  0.00     0.041 A 
ATOM     87  F   UNL A   1      45.624  32.889  31.703  1.00  0.00    -0.206 F 
ATOM     88  C   UNL A   1      46.164  36.059  30.049  1.00  0.00     0.022 A 
BRANCH  85  89
ATOM     89  S   UNL A   1      45.710  37.022  27.472  1.00  0.00     0.124 S 
ATOM     90  O   UNL A   1      46.099  36.191  26.337  1.00  0.00    -0.237 OA
ATOM     91  O   UNL A   1      44.361  37.576  27.424  1.00  0.00    -0.237 OA
ATOM     92  O   UNL A   1      46.740  37.942  27.949  1.00  0.00    -0.744 OA
ENDBRANCH  85  89
ENDBRANCH  59  82
ENDBRANCH  33  34
ENDBRANCH  26  28
ENDBRANCH  25  26
ENDBRANCH  24  25
ENDBRANCH   1  24
TORSDOF 18
ENDMDL
MODEL 2
REMARK VINA RESULT:     -12.4      5.422     10.206
REMARK SMILES O=C(OCCOCCOC(=O)c1ccc(-c2c3nc(c(-c4cc(S(=O)(=O)[O-])ccc4F)c4ccc([nH]4)c(-c4cc(S(=O)(=O)[O-])ccc4F)c4nc(c(-c5cc(S(=O)(=O)[O-])ccc5F)c5ccc2[nH]5)C=C4)C=C3)cc1)C1=Cc2cc(Cl)c(Cl)cc2O[C@@H]1C(F)(F)F
REMARK SMILES IDX 7 1 6 2 5 3 4 4 3 5 2 6 1 7 75 8 76 9 86 10 77 11 85 12
REMARK SMILES IDX 78 13 84 14 79 15 83 16 80 17 81 18 82 19 87 20 88 21 89 22
REMARK SMILES IDX 90 23 8 24 9 25 10 26 11 27 12 28 13 29 74 30 14 31 73 32
REMARK SMILES IDX 15 33 16 34 17 35 67 36 18 37 72 38 66 39 68 40 19 41 71 42
REMARK SMILES IDX 65 43 64 44 20 46 52 47 32 48 51 49 33 50 36 51 50 52 69 53
REMARK SMILES IDX 34 54 35 55 49 57 70 58 37 59 21 60 22 61 30 62 23 63 29 64
REMARK SMILES IDX 31 65 28 66 24 67 25 68 26 69 27 70 53 71 54 72 62 73 55 74
REMARK SMILES IDX 61 75 63 76 60 77 56 78 57 79 58 80 59 81 38 82 39 83 47 84
REMARK SMILES IDX 40 85 46 86 48 87 45 88 41 89 42 90 43 91 44 92
REMARK H PARENT 68 45 36 56
REMARK Flexibility Score: inf
ROOT
ATOM      1  C   UNL A   1      31.363  29.247  25.000  1.00  0.00     0.202 C 
ENDROOT
BRANCH   1   2
ATOM      2  O   UNL A   1      30.747  29.421  23.709  1.00  0.00    -0.374 OA
BRANCH   2   3
ATOM      3  C   UNL A   1      30.593  28.411  22.455  1.00  0.00     0.202 C 
BRANCH   3   4
ATOM      4  C   UNL A   1      31.790  26.701  21.873  1.00  0.00     0.261 C 
BRANCH   4   5
ATOM      5  O   UNL A   1      31.521  25.219  22.259  1.00  0.00    -0.460 OA
BRANCH   5   6
ATOM      6  C   UNL A   1      32.627  24.571  22.631  1.00  0.00     0.338 C 
ATOM      7  O   UNL A   1      33.661  24.382  22.045  1.00  0.00    -0.246 OA
BRANCH   6   8
ATOM      8  C   UNL A   1      32.031  23.937  23.779  1.00  0.00     0.087 C 
ATOM      9  C   UNL A   1      31.658  22.535  23.463  1.00  0.00     0.027 C 
ATOM     10  C   UNL A   1      33.375  24.460  25.076  1.00  0.00     0.316 C 
ATOM     11  C   UNL A   1      32.563  21.096  24.093  1.00  0.00     0.019 A 
ATOM     12  O   UNL A   1      34.380  22.944  25.716  1.00  0.00    -0.475 OA
ATOM     13  C   UNL A   1      32.291  19.870  23.552  1.00  0.00     0.034 A 
ATOM     14  C   UNL A   1      33.933  21.269  25.142  1.00  0.00     0.129 A 
ATOM     15  C   UNL A   1      33.230  18.866  23.842  1.00  0.00     0.060 A 
ATOM     16  C   UNL A   1      34.844  20.260  25.300  1.00  0.00     0.069 A 
ATOM     17  Cl  UNL A   1      32.860  17.317  23.126  1.00  0.00    -0.083 Cl
ATOM     18  C   UNL A   1      34.457  19.063  24.623  1.00  0.00     0.063 A 
ATOM     19  Cl  UNL A   1      35.593  17.747  24.639  1.00  0.00    -0.083 Cl
BRANCH  10  20
ATOM     20  C   UNL A   1      32.558  25.566  25.860  1.00  0.00     0.430 C 
ATOM     21  F   UNL A   1      31.620  26.205  25.137  1.00  0.00    -0.167 F 
ATOM     22  F   UNL A   1      31.866  24.932  26.854  1.00  0.00    -0.167 F 
ATOM     23  F   UNL A   1      33.312  26.485  26.501  1.00  0.00    -0.167 F 
ENDBRANCH  10  20
ENDBRANCH   6   8
ENDBRANCH   5   6
ENDBRANCH   4   5
ENDBRANCH   3   4
ENDBRANCH   2   3
ENDBRANCH   1   2
BRANCH   1  24
ATOM     24  C   UNL A   1      31.639  30.550  25.746  1.00  0.00     0.261 C 
BRANCH  24  25
ATOM     25  O   UNL A   1      33.003  30.646  26.139  1.00  0.00    -0.460 OA
BRANCH  25  26
ATOM     26  C   UNL A   1      33.250  31.633  27.029  1.00  0.00     0.338 C 
ATOM     27  O   UNL A   1      32.570  32.620  27.252  1.00  0.00    -0.246 OA
BRANCH  26  28
ATOM     28  C   UNL A   1      34.503  31.317  27.736  1.00  0.00     0.060 A 
ATOM     29  C   UNL A   1      34.665  30.021  28.232  1.00  0.00     0.016 A 
ATOM     30  C   UNL A   1      35.517  32.274  27.889  1.00  0.00     0.016 A 
ATOM     31  C   UNL A   1      35.861  29.668  28.843  1.00  0.00     0.010 A 
ATOM     32  C   UNL A   1      36.711  31.920  28.506  1.00  0.00     0.010 A 
ATOM     33  C   UNL A   1      36.888  30.612  28.970  1.00  0.00    -0.014 A 
BRANCH  33  34
ATOM     34  C   UNL A   1      38.091  30.281  29.754  1.00  0.00     0.031 A 
ATOM     35  C   UNL A   1      39.053  29.308  29.152  1.00  0.00     0.074 A 
ATOM     36  C   UNL A   1      38.288  30.816  30.971  1.00  0.00     0.049 A 
ATOM     37  N   UNL A   1      40.137  28.800  29.664  1.00  0.00    -0.248 NA
ATOM     38  C   UNL A   1      38.738  28.833  27.792  1.00  0.00     0.031 C 
ATOM     39  C   UNL A   1      37.407  31.787  31.616  1.00  0.00     0.029 A 
ATOM     40  N   UNL A   1      39.288  30.615  31.887  1.00  0.00    -0.354 N 
ATOM     41  C   UNL A   1      40.633  27.939  28.695  1.00  0.00     0.074 A 
ATOM     42  C   UNL A   1      39.728  27.985  27.570  1.00  0.00     0.031 C 
ATOM     43  C   UNL A   1      37.915  32.114  32.817  1.00  0.00     0.029 A 
ATOM     44  C   UNL A   1      39.108  31.308  33.063  1.00  0.00     0.049 A 
ATOM     45  H   UNL A   1      40.062  30.030  31.720  1.00  0.00     0.167 HD
ATOM     46  C   UNL A   1      41.742  27.168  28.759  1.00  0.00     0.034 A 
ATOM     47  C   UNL A   1      39.801  31.250  34.219  1.00  0.00     0.034 A 
ATOM     48  C   UNL A   1      42.595  27.113  29.915  1.00  0.00     0.049 A 
ATOM     49  C   UNL A   1      40.979  30.302  34.291  1.00  0.00     0.074 A 
ATOM     50  C   UNL A   1      43.755  26.384  30.089  1.00  0.00     0.029 A 
ATOM     51  N   UNL A   1      42.362  27.789  31.106  1.00  0.00    -0.354 N 
ATOM     52  N   UNL A   1      41.471  29.524  33.352  1.00  0.00    -0.248 NA
ATOM     53  C   UNL A   1      41.688  30.214  35.573  1.00  0.00     0.031 C 
ATOM     54  C   UNL A   1      44.167  26.538  31.415  1.00  0.00     0.029 A 
ATOM     55  C   UNL A   1      43.326  27.446  32.038  1.00  0.00     0.049 A 
ATOM     56  H   UNL A   1      41.622  28.419  31.263  1.00  0.00     0.167 HD
ATOM     57  C   UNL A   1      42.561  28.876  33.927  1.00  0.00     0.074 A 
ATOM     58  C   UNL A   1      42.667  29.371  35.283  1.00  0.00     0.031 C 
ATOM     59  C   UNL A   1      43.402  27.955  33.388  1.00  0.00     0.034 A 
BRANCH  46  60
ATOM     60  C   UNL A   1      42.029  26.267  27.589  1.00  0.00     0.023 A 
ATOM     61  C   UNL A   1      41.563  24.943  27.534  1.00  0.00     0.031 A 
ATOM     62  C   UNL A   1      42.805  26.743  26.517  1.00  0.00     0.131 A 
ATOM     63  C   UNL A   1      41.917  24.125  26.452  1.00  0.00     0.055 A 
ATOM     64  C   UNL A   1      43.088  25.949  25.406  1.00  0.00     0.041 A 
ATOM     65  F   UNL A   1      43.310  27.986  26.538  1.00  0.00    -0.206 F 
ATOM     66  C   UNL A   1      42.652  24.628  25.373  1.00  0.00     0.022 A 
BRANCH  63  67
ATOM     67  S   UNL A   1      41.517  22.359  26.530  1.00  0.00     0.124 S 
ATOM     68  O   UNL A   1      40.104  22.359  26.157  1.00  0.00    -0.237 OA
ATOM     69  O   UNL A   1      42.434  21.783  25.555  1.00  0.00    -0.237 OA
ATOM     70  O   UNL A   1      41.786  22.007  27.924  1.00  0.00    -0.744 OA
ENDBRANCH  63  67
ENDBRANCH  46  60
BRANCH  47  71
ATOM     71  C   UNL A   1      39.368  32.023  35.423  1.00  0.00     0.023 A 
ATOM     72  C   UNL A   1      39.802  33.341  35.640  1.00  0.00     0.031 A 
ATOM     73  C   UNL A   1      38.591  31.419  36.432  1.00  0.00     0.131 A 
ATOM     74  C   UNL A   1      39.521  33.982  36.858  1.00  0.00     0.055 A 
ATOM     75  C   UNL A   1      38.250  32.088  37.608  1.00  0.00     0.041 A 
ATOM     76  F   UNL A   1      38.156  30.156  36.292  1.00  0.00    -0.206 F 
ATOM     77  C   UNL A   1      38.734  33.372  37.836  1.00  0.00     0.022 A 
BRANCH  74  78
ATOM     78  S   UNL A   1      40.325  35.571  37.209  1.00  0.00     0.124 S 
ATOM     79  O   UNL A   1      39.659  36.455  36.259  1.00  0.00    -0.237 OA
ATOM     80  O   UNL A   1      39.995  35.773  38.615  1.00  0.00    -0.237 OA
ATOM     81  O   UNL A   1      41.736  35.306  36.933  1.00  0.00    -0.744 OA
ENDBRANCH  74  78
ENDBRANCH  47  71
BRANCH  59  82
ATOM     82  C   UNL A   1      44.531  27.458  34.254  1.00  0.00     0.023 A 
ATOM     83  C   UNL A   1      44.425  26.273  35.000  1.00  0.00     0.031 A 
ATOM     84  C   UNL A   1      45.746  28.166  34.299  1.00  0.00     0.131 A 
ATOM     85  C   UNL A   1      45.503  25.850  35.791  1.00  0.00     0.055 A 
ATOM     86  C   UNL A   1      46.838  27.703  35.032  1.00  0.00     0.041 A 
ATOM     87  F   UNL A   1      45.899  29.306  33.607  1.00  0.00    -0.206 F 
ATOM     88  C   UNL A   1      46.717  26.543  35.792  1.00  0.00     0.022 A 
BRANCH  85  89
ATOM     89  S   UNL A   1      45.275  24.420  36.881  1.00  0.00     0.124 S 
ATOM     90  O   UNL A   1      44.536  25.004  37.996  1.00  0.00    -0.237 OA
ATOM     91  O   UNL A   1      44.527  23.496  36.035  1.00  0.00    -0.237 OA
ATOM     92  O   UNL A   1      46.642  24.005  37.193  1.00  0.00    -0.744 OA
ENDBRANCH  85  89
ENDBRANCH  59  82
ENDBRANCH  33  34
ENDBRANCH  26  28
ENDBRANCH  25  26
ENDBRANCH  24  25
ENDBRANCH   1  24
TORSDOF 18
ENDMDL
MODEL 3
REMARK VINA RESULT:     -12.2      1.878      2.140
REMARK SMILES O=C(OCCOCCOC(=O)c1ccc(-c2c3nc(c(-c4cc(S(=O)(=O)[O-])ccc4F)c4ccc([nH]4)c(-c4cc(S(=O)(=O)[O-])ccc4F)c4nc(c(-c5cc(S(=O)(=O)[O-])ccc5F)c5ccc2[nH]5)C=C4)C=C3)cc1)C1=Cc2cc(Cl)c(Cl)cc2O[C@@H]1C(F)(F)F
REMARK SMILES IDX 7 1 6 2 5 3 4 4 3 5 2 6 1 7 75 8 76 9 86 10 77 11 85 12
REMARK SMILES IDX 78 13 84 14 79 15 83 16 80 17 81 18 82 19 87 20 88 21 89 22
REMARK SMILES IDX 90 23 8 24 9 25 10 26 11 27 12 28 13 29 74 30 14 31 73 32
REMARK SMILES IDX 15 33 16 34 17 35 67 36 18 37 72 38 66 39 68 40 19 41 71 42
REMARK SMILES IDX 65 43 64 44 20 46 52 47 32 48 51 49 33 50 36 51 50 52 69 53
REMARK SMILES IDX 34 54 35 55 49 57 70 58 37 59 21 60 22 61 30 62 23 63 29 64
REMARK SMILES IDX 31 65 28 66 24 67 25 68 26 69 27 70 53 71 54 72 62 73 55 74
REMARK SMILES IDX 61 75 63 76 60 77 56 78 57 79 58 80 59 81 38 82 39 83 47 84
REMARK SMILES IDX 40 85 46 86 48 87 45 88 41 89 42 90 43 91 44 92
REMARK H PARENT 68 45 36 56
REMARK Flexibility Score: inf
ROOT
ATOM      1  C   UNL A   1      35.082  20.693  25.317  1.00  0.00     0.202 C 
ENDROOT
BRANCH   1   2
ATOM      2  O   UNL A   1      34.686  21.526  26.424  1.00  0.00    -0.374 OA
BRANCH   2   3
ATOM      3  C   UNL A   1      33.226  21.884  27.023  1.00  0.00     0.202 C 
BRANCH   3   4
ATOM      4  C   UNL A   1      31.301  22.029  26.037  1.00  0.00     0.261 C 
BRANCH   4   5
ATOM      5  O   UNL A   1      30.875  23.119  25.013  1.00  0.00    -0.460 OA
BRANCH   5   6
ATOM      6  C   UNL A   1      30.946  24.355  25.510  1.00  0.00     0.338 C 
ATOM      7  O   UNL A   1      30.438  24.838  26.489  1.00  0.00    -0.246 OA
BRANCH   6   8
ATOM      8  C   UNL A   1      31.539  24.938  24.334  1.00  0.00     0.087 C 
ATOM      9  C   UNL A   1      30.507  25.629  23.521  1.00  0.00     0.027 C 
ATOM     10  C   UNL A   1      33.025  25.819  25.217  1.00  0.00     0.316 C 
ATOM     11  C   UNL A   1      30.365  27.434  23.412  1.00  0.00     0.019 A 
ATOM     12  O   UNL A   1      32.859  27.739  25.153  1.00  0.00    -0.475 OA
ATOM     13  C   UNL A   1      29.242  27.963  22.839  1.00  0.00     0.034 A 
ATOM     14  C   UNL A   1      31.459  28.486  24.249  1.00  0.00     0.129 A 
ATOM     15  C   UNL A   1      29.042  29.335  23.070  1.00  0.00     0.060 A 
ATOM     16  C   UNL A   1      31.142  29.792  24.502  1.00  0.00     0.069 A 
ATOM     17  Cl  UNL A   1      27.593  29.976  22.335  1.00  0.00    -0.083 Cl
ATOM     18  C   UNL A   1      29.909  30.183  23.894  1.00  0.00     0.063 A 
ATOM     19  Cl  UNL A   1      29.330  31.784  24.247  1.00  0.00    -0.083 Cl
BRANCH  10  20
ATOM     20  C   UNL A   1      34.200  24.865  24.752  1.00  0.00     0.430 C 
ATOM     21  F   UNL A   1      33.834  23.602  24.469  1.00  0.00    -0.167 F 
ATOM     22  F   UNL A   1      34.686  25.364  23.576  1.00  0.00    -0.167 F 
ATOM     23  F   UNL A   1      35.268  24.833  25.578  1.00  0.00    -0.167 F 
ENDBRANCH  10  20
ENDBRANCH   6   8
ENDBRANCH   5   6
ENDBRANCH   4   5
ENDBRANCH   3   4
ENDBRANCH   2   3
ENDBRANCH   1   2
BRANCH   1  24
ATOM     24  C   UNL A   1      36.561  20.791  24.954  1.00  0.00     0.261 C 
BRANCH  24  25
ATOM     25  O   UNL A   1      37.288  21.533  25.927  1.00  0.00    -0.460 OA
BRANCH  25  26
ATOM     26  C   UNL A   1      38.595  21.195  26.012  1.00  0.00     0.338 C 
ATOM     27  O   UNL A   1      39.101  20.116  25.753  1.00  0.00    -0.246 OA
BRANCH  26  28
ATOM     28  C   UNL A   1      39.351  22.375  26.463  1.00  0.00     0.060 A 
ATOM     29  C   UNL A   1      38.919  23.631  26.032  1.00  0.00     0.016 A 
ATOM     30  C   UNL A   1      40.456  22.252  27.318  1.00  0.00     0.016 A 
ATOM     31  C   UNL A   1      39.566  24.771  26.493  1.00  0.00     0.010 A 
ATOM     32  C   UNL A   1      41.106  23.393  27.772  1.00  0.00     0.010 A 
ATOM     33  C   UNL A   1      40.651  24.654  27.371  1.00  0.00    -0.014 A 
BRANCH  33  34
ATOM     34  C   UNL A   1      41.430  25.851  27.732  1.00  0.00     0.031 A 
ATOM     35  C   UNL A   1      40.707  26.946  28.450  1.00  0.00     0.074 A 
ATOM     36  C   UNL A   1      42.728  25.955  27.399  1.00  0.00     0.049 A 
ATOM     37  N   UNL A   1      41.141  28.120  28.810  1.00  0.00    -0.248 NA
ATOM     38  C   UNL A   1      39.298  26.683  28.795  1.00  0.00     0.031 C 
ATOM     39  C   UNL A   1      43.507  24.923  26.718  1.00  0.00     0.029 A 
ATOM     40  N   UNL A   1      43.621  26.979  27.580  1.00  0.00    -0.354 N 
ATOM     41  C   UNL A   1      40.060  28.742  29.417  1.00  0.00     0.074 A 
ATOM     42  C   UNL A   1      38.947  27.822  29.369  1.00  0.00     0.031 C 
ATOM     43  C   UNL A   1      44.768  25.358  26.555  1.00  0.00     0.029 A 
ATOM     44  C   UNL A   1      44.863  26.733  27.039  1.00  0.00     0.049 A 
ATOM     45  H   UNL A   1      43.395  27.814  28.052  1.00  0.00     0.167 HD
ATOM     46  C   UNL A   1      40.008  29.984  29.950  1.00  0.00     0.034 A 
ATOM     47  C   UNL A   1      45.929  27.549  26.906  1.00  0.00     0.034 A 
ATOM     48  C   UNL A   1      41.124  30.890  29.939  1.00  0.00     0.049 A 
ATOM     49  C   UNL A   1      45.804  28.965  27.424  1.00  0.00     0.074 A 
ATOM     50  C   UNL A   1      41.196  32.166  30.465  1.00  0.00     0.029 A 
ATOM     51  N   UNL A   1      42.352  30.630  29.344  1.00  0.00    -0.354 N 
ATOM     52  N   UNL A   1      44.791  29.533  28.040  1.00  0.00    -0.248 NA
ATOM     53  C   UNL A   1      46.955  29.854  27.223  1.00  0.00     0.031 C 
ATOM     54  C   UNL A   1      42.428  32.713  30.099  1.00  0.00     0.029 A 
ATOM     55  C   UNL A   1      43.166  31.745  29.438  1.00  0.00     0.049 A 
ATOM     56  H   UNL A   1      42.605  29.780  28.918  1.00  0.00     0.167 HD
ATOM     57  C   UNL A   1      45.196  30.835  28.321  1.00  0.00     0.074 A 
ATOM     58  C   UNL A   1      46.552  30.961  27.827  1.00  0.00     0.031 C 
ATOM     59  C   UNL A   1      44.515  31.840  28.930  1.00  0.00     0.034 A 
BRANCH  46  60
ATOM     60  C   UNL A   1      38.686  30.450  30.495  1.00  0.00     0.023 A 
ATOM     61  C   UNL A   1      37.729  31.087  29.689  1.00  0.00     0.031 A 
ATOM     62  C   UNL A   1      38.391  30.269  31.858  1.00  0.00     0.131 A 
ATOM     63  C   UNL A   1      36.541  31.563  30.263  1.00  0.00     0.055 A 
ATOM     64  C   UNL A   1      37.176  30.675  32.407  1.00  0.00     0.041 A 
ATOM     65  F   UNL A   1      39.289  29.704  32.682  1.00  0.00    -0.206 F 
ATOM     66  C   UNL A   1      36.245  31.335  31.611  1.00  0.00     0.022 A 
BRANCH  63  67
ATOM     67  S   UNL A   1      35.444  32.599  29.258  1.00  0.00     0.124 S 
ATOM     68  O   UNL A   1      34.266  32.700  30.115  1.00  0.00    -0.237 OA
ATOM     69  O   UNL A   1      36.222  33.821  29.097  1.00  0.00    -0.237 OA
ATOM     70  O   UNL A   1      35.253  31.815  28.039  1.00  0.00    -0.744 OA
ENDBRANCH  63  67
ENDBRANCH  46  60
BRANCH  47  71
ATOM     71  C   UNL A   1      47.160  27.104  26.185  1.00  0.00     0.023 A 
ATOM     72  C   UNL A   1      48.159  26.363  26.838  1.00  0.00     0.031 A 
ATOM     73  C   UNL A   1      47.407  27.501  24.857  1.00  0.00     0.131 A 
ATOM     74  C   UNL A   1      49.380  26.106  26.190  1.00  0.00     0.055 A 
ATOM     75  C   UNL A   1      48.591  27.178  24.192  1.00  0.00     0.041 A 
ATOM     76  F   UNL A   1      46.499  28.224  24.182  1.00  0.00    -0.206 F 
ATOM     77  C   UNL A   1      49.596  26.493  24.866  1.00  0.00     0.022 A 
BRANCH  74  78
ATOM     78  S   UNL A   1      50.740  25.388  27.153  1.00  0.00     0.124 S 
ATOM     79  O   UNL A   1      51.255  26.559  27.854  1.00  0.00    -0.237 OA
ATOM     80  O   UNL A   1      50.044  24.404  27.974  1.00  0.00    -0.237 OA
ATOM     81  O   UNL A   1      51.624  24.832  26.131  1.00  0.00    -0.744 OA
ENDBRANCH  74  78
ENDBRANCH  47  71
BRANCH  59  82
ATOM     82  C   UNL A   1      45.242  33.146  29.133  1.00  0.00     0.023 A 
ATOM     83  C   UNL A   1      46.013  33.394  30.280  1.00  0.00     0.031 A 
ATOM     84  C   UNL A   1      45.189  34.139  28.138  1.00  0.00     0.131 A 
ATOM     85  C   UNL A   1      46.671  34.624  30.422  1.00  0.00     0.055 A 
ATOM     86  C   UNL A   1      45.903  35.332  28.254  1.00  0.00     0.041 A 
ATOM     87  F   UNL A   1      44.464  33.954  27.023  1.00  0.00    -0.206 F 
ATOM     88  C   UNL A   1      46.641  35.584  29.406  1.00  0.00     0.022 A 
BRANCH  85  89
ATOM     89  S   UNL A   1      47.508  34.988  31.989  1.00  0.00     0.124 S 
ATOM     90  O   UNL A   1      46.517  34.553  32.968  1.00  0.00    -0.237 OA
ATOM     91  O   UNL A   1      48.714  34.172  31.897  1.00  0.00    -0.237 OA
ATOM     92  O   UNL A   1      47.731  36.431  31.931  1.00  0.00    -0.744 OA
ENDBRANCH  85  89
ENDBRANCH  59  82
ENDBRANCH  33  34
ENDBRANCH  26  28
ENDBRANCH  25  26
ENDBRANCH  24  25
ENDBRANCH   1  24
TORSDOF 18
ENDMDL
