MODEL 1
REMARK VINA RESULT:      -9.9      0.000      0.000
REMARK SMILES C[NH+](C)CC(C)(C)CNc1cccc(F)c1C(=O)OCCOCCOC(=O)c1ccc(-c2c3nc(c(-c4cc(S(=O)(=O)[O-])ccc4F)c4ccc([nH]4)c(-c4cc(S(=O)(=O)[O-])ccc4F)c4nc(c(-c5cc(S(=O)(=O)[O-])ccc5F)c5ccc2[nH]5)C=C4)C=C3)cc1
REMARK SMILES IDX 21 1 20 2 19 3 17 4 18 5 16 6 10 7 11 8 12 9 14 10 13 11
REMARK SMILES IDX 15 12 9 13 8 15 5 16 6 17 7 18 4 19 2 20 1 21 3 22 22 24
REMARK SMILES IDX 23 25 24 26 25 27 26 28 27 29 28 30 29 31 90 32 30 33 89 34
REMARK SMILES IDX 31 35 32 36 33 37 83 38 34 39 88 40 82 41 84 42 35 43 87 44
REMARK SMILES IDX 81 45 80 46 36 48 68 49 48 50 67 51 49 52 52 53 66 54 85 55
REMARK SMILES IDX 50 56 51 57 65 59 86 60 53 61 37 62 38 63 46 64 39 65 45 66
REMARK SMILES IDX 47 67 44 68 40 69 41 70 42 71 43 72 69 73 70 74 78 75 71 76
REMARK SMILES IDX 77 77 79 78 76 79 72 80 73 81 74 82 75 83 54 84 55 85 63 86
REMARK SMILES IDX 56 87 62 88 64 89 61 90 57 91 58 92 59 93 60 94
REMARK H PARENT 9 14 2 23 84 47 52 58
REMARK Flexibility Score: inf
ROOT
ATOM      1  C   UNL A   1      36.839  22.203  24.801  1.00  0.00     0.202 C 
ENDROOT
BRANCH   1   2
ATOM      2  C   UNL A   1      36.338  23.026  23.606  1.00  0.00     0.261 C 
BRANCH   2   3
ATOM      3  O   UNL A   1      35.260  23.917  23.932  1.00  0.00    -0.460 OA
BRANCH   3   4
ATOM      4  C   UNL A   1      34.116  23.579  23.292  1.00  0.00     0.343 C 
ATOM      5  O   UNL A   1      34.053  23.379  22.087  1.00  0.00    -0.246 OA
BRANCH   4   6
ATOM      6  C   UNL A   1      33.002  23.231  24.208  1.00  0.00     0.118 A 
ATOM      7  C   UNL A   1      32.258  24.282  24.816  1.00  0.00     0.052 A 
ATOM      8  C   UNL A   1      31.234  23.936  25.709  1.00  0.00     0.027 A 
ATOM      9  C   UNL A   1      30.947  22.599  25.996  1.00  0.00     0.005 A 
ATOM     10  C   UNL A   1      32.708  21.901  24.505  1.00  0.00     0.139 A 
ATOM     11  C   UNL A   1      31.684  21.583  25.394  1.00  0.00     0.040 A 
ATOM     12  F   UNL A   1      33.413  20.894  23.974  1.00  0.00    -0.206 F 
BRANCH   7  13
ATOM     13  N   UNL A   1      32.542  25.619  24.535  1.00  0.00    -0.383 N 
ATOM     14  H   UNL A   1      33.487  25.893  24.493  1.00  0.00     0.160 HD
BRANCH  13  15
ATOM     15  C   UNL A   1      31.523  26.634  24.302  1.00  0.00     0.125 C 
BRANCH  15  16
ATOM     16  C   UNL A   1      31.911  27.644  23.178  1.00  0.00     0.031 C 
ATOM     17  C   UNL A   1      32.959  26.967  22.274  1.00  0.00     0.019 C 
ATOM     18  C   UNL A   1      32.625  28.872  23.814  1.00  0.00     0.019 C 
BRANCH  16  19
ATOM     19  C   UNL A   1      30.721  28.188  22.312  1.00  0.00     0.269 C 
BRANCH  19  20
ATOM     20  N   UNL A   1      29.574  28.938  22.825  1.00  0.00    -0.339 N 
ATOM     21  C   UNL A   1      29.303  30.214  22.204  1.00  0.00     0.332 C 
ATOM     22  C   UNL A   1      28.383  28.177  23.139  1.00  0.00     0.332 C 
ATOM     23  H   UNL A   1      29.941  29.189  23.742  1.00  0.00     0.347 HD
ENDBRANCH  19  20
ENDBRANCH  16  19
ENDBRANCH  15  16
ENDBRANCH  13  15
ENDBRANCH   7  13
ENDBRANCH   4   6
ENDBRANCH   3   4
ENDBRANCH   2   3
ENDBRANCH   1   2
BRANCH   1  24
ATOM     24  O   UNL A   1      38.084  21.511  24.721  1.00  0.00    -0.374 OA
BRANCH  24  25
ATOM     25  C   UNL A   1      38.121  20.111  24.991  1.00  0.00     0.202 C 
BRANCH  25  26
ATOM     26  C   UNL A   1      39.316  19.508  25.736  1.00  0.00     0.261 C 
BRANCH  26  27
ATOM     27  O   UNL A   1      40.439  20.398  25.813  1.00  0.00    -0.460 OA
BRANCH  27  28
ATOM     28  C   UNL A   1      40.990  20.491  27.047  1.00  0.00     0.338 C 
ATOM     29  O   UNL A   1      41.477  19.579  27.705  1.00  0.00    -0.246 OA
BRANCH  28  30
ATOM     30  C   UNL A   1      41.130  21.906  27.424  1.00  0.00     0.060 A 
ATOM     31  C   UNL A   1      40.523  22.860  26.595  1.00  0.00     0.016 A 
ATOM     32  C   UNL A   1      41.883  22.296  28.533  1.00  0.00     0.016 A 
ATOM     33  C   UNL A   1      40.712  24.215  26.842  1.00  0.00     0.010 A 
ATOM     34  C   UNL A   1      42.085  23.658  28.767  1.00  0.00     0.010 A 
ATOM     35  C   UNL A   1      41.531  24.618  27.901  1.00  0.00    -0.014 A 
BRANCH  35  36
ATOM     36  C   UNL A   1      41.942  26.036  27.999  1.00  0.00     0.031 A 
ATOM     37  C   UNL A   1      43.231  26.459  27.355  1.00  0.00     0.074 A 
ATOM     38  C   UNL A   1      41.160  26.932  28.625  1.00  0.00     0.049 A 
ATOM     39  N   UNL A   1      43.815  27.627  27.360  1.00  0.00    -0.248 NA
ATOM     40  C   UNL A   1      43.961  25.422  26.607  1.00  0.00     0.031 C 
ATOM     41  C   UNL A   1      39.866  26.638  29.235  1.00  0.00     0.029 A 
ATOM     42  N   UNL A   1      41.348  28.271  28.852  1.00  0.00    -0.354 N 
ATOM     43  C   UNL A   1      44.990  27.465  26.634  1.00  0.00     0.074 A 
ATOM     44  C   UNL A   1      45.044  26.079  26.221  1.00  0.00     0.031 C 
ATOM     45  C   UNL A   1      39.376  27.765  29.778  1.00  0.00     0.029 A 
ATOM     46  C   UNL A   1      40.342  28.846  29.588  1.00  0.00     0.049 A 
ATOM     47  H   UNL A   1      42.128  28.770  28.519  1.00  0.00     0.167 HD
ATOM     48  C   UNL A   1      45.933  28.392  26.343  1.00  0.00     0.034 A 
ATOM     49  C   UNL A   1      40.229  30.094  30.082  1.00  0.00     0.034 A 
ATOM     50  C   UNL A   1      45.855  29.769  26.762  1.00  0.00     0.049 A 
ATOM     51  C   UNL A   1      41.321  31.094  29.810  1.00  0.00     0.074 A 
ATOM     52  C   UNL A   1      46.734  30.801  26.487  1.00  0.00     0.029 A 
ATOM     53  N   UNL A   1      44.849  30.303  27.557  1.00  0.00    -0.354 N 
ATOM     54  N   UNL A   1      42.434  30.930  29.132  1.00  0.00    -0.248 NA
ATOM     55  C   UNL A   1      41.147  32.441  30.367  1.00  0.00     0.031 C 
ATOM     56  C   UNL A   1      46.302  31.936  27.179  1.00  0.00     0.029 A 
ATOM     57  C   UNL A   1      45.109  31.638  27.819  1.00  0.00     0.049 A 
ATOM     58  H   UNL A   1      44.065  29.805  27.886  1.00  0.00     0.167 HD
ATOM     59  C   UNL A   1      43.087  32.159  29.168  1.00  0.00     0.074 A 
ATOM     60  C   UNL A   1      42.241  33.054  29.934  1.00  0.00     0.031 C 
ATOM     61  C   UNL A   1      44.271  32.513  28.608  1.00  0.00     0.034 A 
BRANCH  48  62
ATOM     62  C   UNL A   1      47.157  27.931  25.591  1.00  0.00     0.023 A 
ATOM     63  C   UNL A   1      47.272  28.064  24.197  1.00  0.00     0.031 A 
ATOM     64  C   UNL A   1      48.223  27.340  26.290  1.00  0.00     0.131 A 
ATOM     65  C   UNL A   1      48.409  27.568  23.542  1.00  0.00     0.055 A 
ATOM     66  C   UNL A   1      49.381  26.909  25.640  1.00  0.00     0.041 A 
ATOM     67  F   UNL A   1      48.156  27.165  27.620  1.00  0.00    -0.206 F 
ATOM     68  C   UNL A   1      49.474  27.014  24.256  1.00  0.00     0.022 A 
BRANCH  65  69
ATOM     69  S   UNL A   1      48.438  27.563  21.727  1.00  0.00     0.124 S 
ATOM     70  O   UNL A   1      48.552  26.136  21.439  1.00  0.00    -0.237 OA
ATOM     71  O   UNL A   1      47.162  28.183  21.389  1.00  0.00    -0.237 OA
ATOM     72  O   UNL A   1      49.622  28.356  21.401  1.00  0.00    -0.744 OA
ENDBRANCH  65  69
ENDBRANCH  48  62
BRANCH  49  73
ATOM     73  C   UNL A   1      39.050  30.437  30.921  1.00  0.00     0.023 A 
ATOM     74  C   UNL A   1      37.964  31.152  30.398  1.00  0.00     0.031 A 
ATOM     75  C   UNL A   1      38.974  29.989  32.253  1.00  0.00     0.131 A 
ATOM     76  C   UNL A   1      36.841  31.399  31.205  1.00  0.00     0.055 A 
ATOM     77  C   UNL A   1      37.844  30.211  33.041  1.00  0.00     0.041 A 
ATOM     78  F   UNL A   1      39.986  29.290  32.793  1.00  0.00    -0.206 F 
ATOM     79  C   UNL A   1      36.768  30.920  32.516  1.00  0.00     0.022 A 
BRANCH  76  80
ATOM     80  S   UNL A   1      35.457  32.345  30.512  1.00  0.00     0.124 S 
ATOM     81  O   UNL A   1      36.030  33.682  30.415  1.00  0.00    -0.237 OA
ATOM     82  O   UNL A   1      35.216  31.657  29.248  1.00  0.00    -0.237 OA
ATOM     83  O   UNL A   1      34.404  32.187  31.512  1.00  0.00    -0.744 OA
ENDBRANCH  76  80
ENDBRANCH  49  73
BRANCH  61  84
ATOM     84  C   UNL A   1      44.723  33.940  28.777  1.00  0.00     0.023 A 
ATOM     85  C   UNL A   1      45.485  34.348  29.884  1.00  0.00     0.031 A 
ATOM     86  C   UNL A   1      44.434  34.892  27.781  1.00  0.00     0.131 A 
ATOM     87  C   UNL A   1      45.915  35.680  29.981  1.00  0.00     0.055 A 
ATOM     88  C   UNL A   1      44.905  36.203  27.859  1.00  0.00     0.041 A 
ATOM     89  F   UNL A   1      43.710  34.553  26.703  1.00  0.00    -0.206 F 
ATOM     90  C   UNL A   1      45.646  36.604  28.967  1.00  0.00     0.022 A 
BRANCH  87  91
ATOM     91  S   UNL A   1      46.805  36.206  31.472  1.00  0.00     0.124 S 
ATOM     92  O   UNL A   1      46.648  37.656  31.419  1.00  0.00    -0.237 OA
ATOM     93  O   UNL A   1      46.074  35.525  32.534  1.00  0.00    -0.237 OA
ATOM     94  O   UNL A   1      48.166  35.721  31.248  1.00  0.00    -0.744 OA
ENDBRANCH  87  91
ENDBRANCH  61  84
ENDBRANCH  35  36
ENDBRANCH  28  30
ENDBRANCH  27  28
ENDBRANCH  26  27
ENDBRANCH  25  26
ENDBRANCH  24  25
ENDBRANCH   1  24
TORSDOF 22
ENDMDL
MODEL 2
REMARK VINA RESULT:      -9.6      4.659     10.544
REMARK SMILES C[NH+](C)CC(C)(C)CNc1cccc(F)c1C(=O)OCCOCCOC(=O)c1ccc(-c2c3nc(c(-c4cc(S(=O)(=O)[O-])ccc4F)c4ccc([nH]4)c(-c4cc(S(=O)(=O)[O-])ccc4F)c4nc(c(-c5cc(S(=O)(=O)[O-])ccc5F)c5ccc2[nH]5)C=C4)C=C3)cc1
REMARK SMILES IDX 21 1 20 2 19 3 17 4 18 5 16 6 10 7 11 8 12 9 14 10 13 11
REMARK SMILES IDX 15 12 9 13 8 15 5 16 6 17 7 18 4 19 2 20 1 21 3 22 22 24
REMARK SMILES IDX 23 25 24 26 25 27 26 28 27 29 28 30 29 31 90 32 30 33 89 34
REMARK SMILES IDX 31 35 32 36 33 37 83 38 34 39 88 40 82 41 84 42 35 43 87 44
REMARK SMILES IDX 81 45 80 46 36 48 68 49 48 50 67 51 49 52 52 53 66 54 85 55
REMARK SMILES IDX 50 56 51 57 65 59 86 60 53 61 37 62 38 63 46 64 39 65 45 66
REMARK SMILES IDX 47 67 44 68 40 69 41 70 42 71 43 72 69 73 70 74 78 75 71 76
REMARK SMILES IDX 77 77 79 78 76 79 72 80 73 81 74 82 75 83 54 84 55 85 63 86
REMARK SMILES IDX 56 87 62 88 64 89 61 90 57 91 58 92 59 93 60 94
REMARK H PARENT 9 14 2 23 84 47 52 58
REMARK Flexibility Score: inf
ROOT
ATOM      1  C   UNL A   1      33.402  29.015  27.050  1.00  0.00     0.202 C 
ENDROOT
BRANCH   1   2
ATOM      2  C   UNL A   1      33.692  27.897  26.039  1.00  0.00     0.261 C 
BRANCH   2   3
ATOM      3  O   UNL A   1      33.196  26.612  26.442  1.00  0.00    -0.460 OA
BRANCH   3   4
ATOM      4  C   UNL A   1      31.922  26.412  26.033  1.00  0.00     0.343 C 
ATOM      5  O   UNL A   1      30.950  26.557  26.763  1.00  0.00    -0.246 OA
BRANCH   4   6
ATOM      6  C   UNL A   1      31.787  26.244  24.566  1.00  0.00     0.118 A 
ATOM      7  C   UNL A   1      32.276  25.050  23.963  1.00  0.00     0.052 A 
ATOM      8  C   UNL A   1      32.176  24.924  22.570  1.00  0.00     0.027 A 
ATOM      9  C   UNL A   1      31.611  25.937  21.791  1.00  0.00     0.005 A 
ATOM     10  C   UNL A   1      31.228  27.249  23.778  1.00  0.00     0.139 A 
ATOM     11  C   UNL A   1      31.137  27.099  22.396  1.00  0.00     0.040 A 
ATOM     12  F   UNL A   1      30.790  28.396  24.314  1.00  0.00    -0.206 F 
BRANCH   7  13
ATOM     13  N   UNL A   1      32.845  24.036  24.735  1.00  0.00    -0.383 N 
ATOM     14  H   UNL A   1      32.705  24.061  25.709  1.00  0.00     0.160 HD
BRANCH  13  15
ATOM     15  C   UNL A   1      33.633  22.941  24.183  1.00  0.00     0.125 C 
BRANCH  15  16
ATOM     16  C   UNL A   1      32.948  21.549  24.351  1.00  0.00     0.031 C 
ATOM     17  C   UNL A   1      32.248  21.202  23.023  1.00  0.00     0.019 C 
ATOM     18  C   UNL A   1      31.817  21.657  25.414  1.00  0.00     0.019 C 
BRANCH  16  19
ATOM     19  C   UNL A   1      33.893  20.375  24.787  1.00  0.00     0.269 C 
BRANCH  19  20
ATOM     20  N   UNL A   1      33.687  18.961  24.473  1.00  0.00    -0.339 N 
ATOM     21  C   UNL A   1      34.865  18.124  24.443  1.00  0.00     0.332 C 
ATOM     22  C   UNL A   1      32.532  18.321  25.067  1.00  0.00     0.332 C 
ATOM     23  H   UNL A   1      33.428  19.048  23.491  1.00  0.00     0.347 HD
ENDBRANCH  19  20
ENDBRANCH  16  19
ENDBRANCH  15  16
ENDBRANCH  13  15
ENDBRANCH   7  13
ENDBRANCH   4   6
ENDBRANCH   3   4
ENDBRANCH   2   3
ENDBRANCH   1   2
BRANCH   1  24
ATOM     24  O   UNL A   1      33.377  30.376  26.624  1.00  0.00    -0.374 OA
BRANCH  24  25
ATOM     25  C   UNL A   1      32.183  31.137  26.794  1.00  0.00     0.202 C 
BRANCH  25  26
ATOM     26  C   UNL A   1      32.263  32.656  26.974  1.00  0.00     0.261 C 
BRANCH  26  27
ATOM     27  O   UNL A   1      32.968  33.045  28.162  1.00  0.00    -0.460 OA
BRANCH  27  28
ATOM     28  C   UNL A   1      34.121  33.718  27.928  1.00  0.00     0.338 C 
ATOM     29  O   UNL A   1      34.231  34.884  27.566  1.00  0.00    -0.246 OA
BRANCH  28  30
ATOM     30  C   UNL A   1      35.267  32.915  28.383  1.00  0.00     0.060 A 
ATOM     31  C   UNL A   1      34.991  31.724  29.069  1.00  0.00     0.016 A 
ATOM     32  C   UNL A   1      36.581  33.344  28.194  1.00  0.00     0.016 A 
ATOM     33  C   UNL A   1      36.030  30.980  29.616  1.00  0.00     0.010 A 
ATOM     34  C   UNL A   1      37.622  32.604  28.759  1.00  0.00     0.010 A 
ATOM     35  C   UNL A   1      37.345  31.442  29.502  1.00  0.00    -0.014 A 
BRANCH  35  36
ATOM     36  C   UNL A   1      38.409  30.799  30.304  1.00  0.00     0.031 A 
ATOM     37  C   UNL A   1      38.593  31.224  31.732  1.00  0.00     0.074 A 
ATOM     38  C   UNL A   1      39.175  29.830  29.772  1.00  0.00     0.049 A 
ATOM     39  N   UNL A   1      39.490  30.842  32.601  1.00  0.00    -0.248 NA
ATOM     40  C   UNL A   1      37.637  32.218  32.248  1.00  0.00     0.031 C 
ATOM     41  C   UNL A   1      39.044  29.305  28.415  1.00  0.00     0.029 A 
ATOM     42  N   UNL A   1      40.216  29.122  30.312  1.00  0.00    -0.354 N 
ATOM     43  C   UNL A   1      39.221  31.560  33.761  1.00  0.00     0.074 A 
ATOM     44  C   UNL A   1      38.089  32.416  33.477  1.00  0.00     0.031 C 
ATOM     45  C   UNL A   1      39.979  28.360  28.223  1.00  0.00     0.029 A 
ATOM     46  C   UNL A   1      40.797  28.245  29.429  1.00  0.00     0.049 A 
ATOM     47  H   UNL A   1      40.518  29.231  31.243  1.00  0.00     0.167 HD
ATOM     48  C   UNL A   1      39.864  31.506  34.952  1.00  0.00     0.034 A 
ATOM     49  C   UNL A   1      41.886  27.464  29.567  1.00  0.00     0.034 A 
ATOM     50  C   UNL A   1      40.988  30.642  35.214  1.00  0.00     0.049 A 
ATOM     51  C   UNL A   1      42.633  27.470  30.874  1.00  0.00     0.074 A 
ATOM     52  C   UNL A   1      41.688  30.478  36.396  1.00  0.00     0.029 A 
ATOM     53  N   UNL A   1      41.587  29.809  34.276  1.00  0.00    -0.354 N 
ATOM     54  N   UNL A   1      42.379  28.159  31.962  1.00  0.00    -0.248 NA
ATOM     55  C   UNL A   1      43.809  26.597  30.973  1.00  0.00     0.031 C 
ATOM     56  C   UNL A   1      42.755  29.607  36.152  1.00  0.00     0.029 A 
ATOM     57  C   UNL A   1      42.674  29.163  34.841  1.00  0.00     0.049 A 
ATOM     58  H   UNL A   1      41.283  29.695  33.347  1.00  0.00     0.167 HD
ATOM     59  C   UNL A   1      43.357  27.792  32.883  1.00  0.00     0.074 A 
ATOM     60  C   UNL A   1      44.204  26.819  32.221  1.00  0.00     0.031 C 
ATOM     61  C   UNL A   1      43.528  28.215  34.161  1.00  0.00     0.034 A 
BRANCH  48  62
ATOM     62  C   UNL A   1      39.409  32.451  36.035  1.00  0.00     0.023 A 
ATOM     63  C   UNL A   1      39.836  33.789  36.088  1.00  0.00     0.031 A 
ATOM     64  C   UNL A   1      38.536  31.995  37.037  1.00  0.00     0.131 A 
ATOM     65  C   UNL A   1      39.425  34.610  37.149  1.00  0.00     0.055 A 
ATOM     66  C   UNL A   1      38.078  32.836  38.054  1.00  0.00     0.041 A 
ATOM     67  F   UNL A   1      38.116  30.720  37.050  1.00  0.00    -0.206 F 
ATOM     68  C   UNL A   1      38.530  34.150  38.119  1.00  0.00     0.022 A 
BRANCH  65  69
ATOM     69  S   UNL A   1      40.156  36.264  37.307  1.00  0.00     0.124 S 
ATOM     70  O   UNL A   1      39.950  36.806  35.966  1.00  0.00    -0.237 OA
ATOM     71  O   UNL A   1      39.356  36.863  38.368  1.00  0.00    -0.237 OA
ATOM     72  O   UNL A   1      41.549  35.991  37.654  1.00  0.00    -0.744 OA
ENDBRANCH  65  69
ENDBRANCH  48  62
BRANCH  49  73
ATOM     73  C   UNL A   1      42.346  26.654  28.409  1.00  0.00     0.023 A 
ATOM     74  C   UNL A   1      43.472  27.024  27.659  1.00  0.00     0.031 A 
ATOM     75  C   UNL A   1      41.691  25.453  28.079  1.00  0.00     0.131 A 
ATOM     76  C   UNL A   1      43.912  26.197  26.613  1.00  0.00     0.055 A 
ATOM     77  C   UNL A   1      42.151  24.620  27.058  1.00  0.00     0.041 A 
ATOM     78  F   UNL A   1      40.616  25.053  28.777  1.00  0.00    -0.206 F 
ATOM     79  C   UNL A   1      43.269  24.991  26.319  1.00  0.00     0.022 A 
BRANCH  76  80
ATOM     80  S   UNL A   1      45.358  26.707  25.644  1.00  0.00     0.124 S 
ATOM     81  O   UNL A   1      45.448  25.637  24.659  1.00  0.00    -0.237 OA
ATOM     82  O   UNL A   1      44.945  28.013  25.137  1.00  0.00    -0.237 OA
ATOM     83  O   UNL A   1      46.434  26.741  26.632  1.00  0.00    -0.744 OA
ENDBRANCH  76  80
ENDBRANCH  49  73
BRANCH  61  84
ATOM     84  C   UNL A   1      44.662  27.613  34.949  1.00  0.00     0.023 A 
ATOM     85  C   UNL A   1      45.921  28.231  35.021  1.00  0.00     0.031 A 
ATOM     86  C   UNL A   1      44.457  26.431  35.686  1.00  0.00     0.131 A 
ATOM     87  C   UNL A   1      46.937  27.652  35.797  1.00  0.00     0.055 A 
ATOM     88  C   UNL A   1      45.456  25.888  36.494  1.00  0.00     0.041 A 
ATOM     89  F   UNL A   1      43.272  25.803  35.652  1.00  0.00    -0.206 F 
ATOM     90  C   UNL A   1      46.707  26.496  36.548  1.00  0.00     0.022 A 
BRANCH  87  91
ATOM     91  S   UNL A   1      48.585  28.411  35.787  1.00  0.00     0.124 S 
ATOM     92  O   UNL A   1      48.874  28.521  37.213  1.00  0.00    -0.237 OA
ATOM     93  O   UNL A   1      49.379  27.434  35.050  1.00  0.00    -0.237 OA
ATOM     94  O   UNL A   1      48.373  29.682  35.097  1.00  0.00    -0.744 OA
ENDBRANCH  87  91
ENDBRANCH  61  84
ENDBRANCH  35  36
ENDBRANCH  28  30
ENDBRANCH  27  28
ENDBRANCH  26  27
ENDBRANCH  25  26
ENDBRANCH  24  25
ENDBRANCH   1  24
TORSDOF 22
ENDMDL
MODEL 3
REMARK VINA RESULT:      -9.5      4.634     10.197
REMARK SMILES C[NH+](C)CC(C)(C)CNc1cccc(F)c1C(=O)OCCOCCOC(=O)c1ccc(-c2c3nc(c(-c4cc(S(=O)(=O)[O-])ccc4F)c4ccc([nH]4)c(-c4cc(S(=O)(=O)[O-])ccc4F)c4nc(c(-c5cc(S(=O)(=O)[O-])ccc5F)c5ccc2[nH]5)C=C4)C=C3)cc1
REMARK SMILES IDX 21 1 20 2 19 3 17 4 18 5 16 6 10 7 11 8 12 9 14 10 13 11
REMARK SMILES IDX 15 12 9 13 8 15 5 16 6 17 7 18 4 19 2 20 1 21 3 22 22 24
REMARK SMILES IDX 23 25 24 26 25 27 26 28 27 29 28 30 29 31 90 32 30 33 89 34
REMARK SMILES IDX 31 35 32 36 33 37 83 38 34 39 88 40 82 41 84 42 35 43 87 44
REMARK SMILES IDX 81 45 80 46 36 48 68 49 48 50 67 51 49 52 52 53 66 54 85 55
REMARK SMILES IDX 50 56 51 57 65 59 86 60 53 61 37 62 38 63 46 64 39 65 45 66
REMARK SMILES IDX 47 67 44 68 40 69 41 70 42 71 43 72 69 73 70 74 78 75 71 76
REMARK SMILES IDX 77 77 79 78 76 79 72 80 73 81 74 82 75 83 54 84 55 85 63 86
REMARK SMILES IDX 56 87 62 88 64 89 61 90 57 91 58 92 59 93 60 94
REMARK H PARENT 9 14 2 23 84 47 52 58
REMARK Flexibility Score: inf
ROOT
ATOM      1  C   UNL A   1      32.990  29.300  26.940  1.00  0.00     0.202 C 
ENDROOT
BRANCH   1   2
ATOM      2  C   UNL A   1      33.898  28.396  26.095  1.00  0.00     0.261 C 
BRANCH   2   3
ATOM      3  O   UNL A   1      33.894  27.023  26.513  1.00  0.00    -0.460 OA
BRANCH   3   4
ATOM      4  C   UNL A   1      33.525  26.192  25.511  1.00  0.00     0.343 C 
ATOM      5  O   UNL A   1      34.168  26.053  24.480  1.00  0.00    -0.246 OA
BRANCH   4   6
ATOM      6  C   UNL A   1      32.409  25.283  25.872  1.00  0.00     0.118 A 
ATOM      7  C   UNL A   1      31.071  25.752  25.744  1.00  0.00     0.052 A 
ATOM      8  C   UNL A   1      30.030  24.894  26.126  1.00  0.00     0.027 A 
ATOM      9  C   UNL A   1      30.293  23.613  26.617  1.00  0.00     0.005 A 
ATOM     10  C   UNL A   1      32.659  24.004  26.366  1.00  0.00     0.139 A 
ATOM     11  C   UNL A   1      31.608  23.168  26.737  1.00  0.00     0.040 A 
ATOM     12  F   UNL A   1      33.909  23.549  26.529  1.00  0.00    -0.206 F 
BRANCH   7  13
ATOM     13  N   UNL A   1      30.801  27.032  25.256  1.00  0.00    -0.383 N 
ATOM     14  H   UNL A   1      31.206  27.800  25.721  1.00  0.00     0.160 HD
BRANCH  13  15
ATOM     15  C   UNL A   1      29.955  27.299  24.101  1.00  0.00     0.125 C 
BRANCH  15  16
ATOM     16  C   UNL A   1      30.729  27.956  22.915  1.00  0.00     0.031 C 
ATOM     17  C   UNL A   1      31.331  26.825  22.059  1.00  0.00     0.019 C 
ATOM     18  C   UNL A   1      31.938  28.761  23.473  1.00  0.00     0.019 C 
BRANCH  16  19
ATOM     19  C   UNL A   1      29.891  28.929  22.013  1.00  0.00     0.269 C 
BRANCH  19  20
ATOM     20  N   UNL A   1      28.817  29.804  22.482  1.00  0.00    -0.339 N 
ATOM     21  C   UNL A   1      29.151  30.734  23.537  1.00  0.00     0.332 C 
ATOM     22  C   UNL A   1      27.936  30.357  21.475  1.00  0.00     0.332 C 
ATOM     23  H   UNL A   1      28.233  29.110  22.949  1.00  0.00     0.347 HD
ENDBRANCH  19  20
ENDBRANCH  16  19
ENDBRANCH  15  16
ENDBRANCH  13  15
ENDBRANCH   7  13
ENDBRANCH   4   6
ENDBRANCH   3   4
ENDBRANCH   2   3
ENDBRANCH   1   2
BRANCH   1  24
ATOM     24  O   UNL A   1      33.122  30.718  26.864  1.00  0.00    -0.374 OA
BRANCH  24  25
ATOM     25  C   UNL A   1      31.946  31.523  26.785  1.00  0.00     0.202 C 
BRANCH  25  26
ATOM     26  C   UNL A   1      32.041  33.037  27.003  1.00  0.00     0.261 C 
BRANCH  26  27
ATOM     27  O   UNL A   1      32.735  33.389  28.209  1.00  0.00    -0.460 OA
BRANCH  27  28
ATOM     28  C   UNL A   1      33.894  34.060  28.005  1.00  0.00     0.338 C 
ATOM     29  O   UNL A   1      34.016  35.238  27.689  1.00  0.00    -0.246 OA
BRANCH  28  30
ATOM     30  C   UNL A   1      35.031  33.230  28.434  1.00  0.00     0.060 A 
ATOM     31  C   UNL A   1      34.742  32.013  29.067  1.00  0.00     0.016 A 
ATOM     32  C   UNL A   1      36.350  33.657  28.271  1.00  0.00     0.016 A 
ATOM     33  C   UNL A   1      35.772  31.239  29.588  1.00  0.00     0.010 A 
ATOM     34  C   UNL A   1      37.381  32.886  28.812  1.00  0.00     0.010 A 
ATOM     35  C   UNL A   1      37.091  31.696  29.503  1.00  0.00    -0.014 A 
BRANCH  35  36
ATOM     36  C   UNL A   1      38.145  31.011  30.284  1.00  0.00     0.031 A 
ATOM     37  C   UNL A   1      38.349  31.403  31.719  1.00  0.00     0.074 A 
ATOM     38  C   UNL A   1      38.883  30.036  29.727  1.00  0.00     0.049 A 
ATOM     39  N   UNL A   1      39.242  30.981  32.574  1.00  0.00    -0.248 NA
ATOM     40  C   UNL A   1      37.421  32.408  32.262  1.00  0.00     0.031 C 
ATOM     41  C   UNL A   1      38.731  29.542  28.360  1.00  0.00     0.029 A 
ATOM     42  N   UNL A   1      39.911  29.292  30.244  1.00  0.00    -0.354 N 
ATOM     43  C   UNL A   1      38.999  31.682  33.750  1.00  0.00     0.074 A 
ATOM     44  C   UNL A   1      37.885  32.569  33.492  1.00  0.00     0.031 C 
ATOM     45  C   UNL A   1      39.642  28.578  28.143  1.00  0.00     0.029 A 
ATOM     46  C   UNL A   1      40.465  28.420  29.340  1.00  0.00     0.049 A 
ATOM     47  H   UNL A   1      40.222  29.375  31.175  1.00  0.00     0.167 HD
ATOM     48  C   UNL A   1      39.648  31.588  34.934  1.00  0.00     0.034 A 
ATOM     49  C   UNL A   1      41.536  27.611  29.453  1.00  0.00     0.034 A 
ATOM     50  C   UNL A   1      40.753  30.692  35.170  1.00  0.00     0.049 A 
ATOM     51  C   UNL A   1      42.292  27.571  30.755  1.00  0.00     0.074 A 
ATOM     52  C   UNL A   1      41.456  30.487  36.344  1.00  0.00     0.029 A 
ATOM     53  N   UNL A   1      41.325  29.865  34.212  1.00  0.00    -0.354 N 
ATOM     54  N   UNL A   1      42.062  28.244  31.859  1.00  0.00    -0.248 NA
ATOM     55  C   UNL A   1      43.448  26.669  30.828  1.00  0.00     0.031 C 
ATOM     56  C   UNL A   1      42.501  29.597  36.074  1.00  0.00     0.029 A 
ATOM     57  C   UNL A   1      42.400  29.181  34.755  1.00  0.00     0.049 A 
ATOM     58  H   UNL A   1      41.012  29.777  33.282  1.00  0.00     0.167 HD
ATOM     59  C   UNL A   1      43.037  27.836  32.765  1.00  0.00     0.074 A 
ATOM     60  C   UNL A   1      43.856  26.856  32.077  1.00  0.00     0.031 C 
ATOM     61  C   UNL A   1      43.226  28.228  34.050  1.00  0.00     0.034 A 
BRANCH  48  62
ATOM     62  C   UNL A   1      39.223  32.521  36.040  1.00  0.00     0.023 A 
ATOM     63  C   UNL A   1      39.679  33.849  36.114  1.00  0.00     0.031 A 
ATOM     64  C   UNL A   1      38.349  32.064  37.041  1.00  0.00     0.131 A 
ATOM     65  C   UNL A   1      39.296  34.657  37.195  1.00  0.00     0.055 A 
ATOM     66  C   UNL A   1      37.919  32.895  38.078  1.00  0.00     0.041 A 
ATOM     67  F   UNL A   1      37.903  30.798  37.034  1.00  0.00    -0.206 F 
ATOM     68  C   UNL A   1      38.400  34.197  38.164  1.00  0.00     0.022 A 
BRANCH  65  69
ATOM     69  S   UNL A   1      40.063  36.291  37.378  1.00  0.00     0.124 S 
ATOM     70  O   UNL A   1      39.188  36.918  38.366  1.00  0.00    -0.237 OA
ATOM     71  O   UNL A   1      41.407  35.960  37.834  1.00  0.00    -0.237 OA
ATOM     72  O   UNL A   1      39.983  36.860  36.034  1.00  0.00    -0.744 OA
ENDBRANCH  65  69
ENDBRANCH  48  62
BRANCH  49  73
ATOM     73  C   UNL A   1      41.969  26.813  28.276  1.00  0.00     0.023 A 
ATOM     74  C   UNL A   1      43.122  27.147  27.552  1.00  0.00     0.031 A 
ATOM     75  C   UNL A   1      41.257  25.659  27.900  1.00  0.00     0.131 A 
ATOM     76  C   UNL A   1      43.533  26.331  26.485  1.00  0.00     0.055 A 
ATOM     77  C   UNL A   1      41.686  24.835  26.860  1.00  0.00     0.041 A 
ATOM     78  F   UNL A   1      40.153  25.294  28.573  1.00  0.00    -0.206 F 
ATOM     79  C   UNL A   1      42.832  25.170  26.145  1.00  0.00     0.022 A 
BRANCH  76  80
ATOM     80  S   UNL A   1      45.016  26.795  25.550  1.00  0.00     0.124 S 
ATOM     81  O   UNL A   1      44.549  27.962  24.812  1.00  0.00    -0.237 OA
ATOM     82  O   UNL A   1      45.983  27.052  26.612  1.00  0.00    -0.237 OA
ATOM     83  O   UNL A   1      45.290  25.611  24.739  1.00  0.00    -0.744 OA
ENDBRANCH  76  80
ENDBRANCH  49  73
BRANCH  61  84
ATOM     84  C   UNL A   1      44.351  27.583  34.817  1.00  0.00     0.023 A 
ATOM     85  C   UNL A   1      45.622  28.174  34.902  1.00  0.00     0.031 A 
ATOM     86  C   UNL A   1      44.126  26.386  35.522  1.00  0.00     0.131 A 
ATOM     87  C   UNL A   1      46.630  27.556  35.658  1.00  0.00     0.055 A 
ATOM     88  C   UNL A   1      45.117  25.801  36.312  1.00  0.00     0.041 A 
ATOM     89  F   UNL A   1      42.929  25.781  35.476  1.00  0.00    -0.206 F 
ATOM     90  C   UNL A   1      46.379  26.384  36.378  1.00  0.00     0.022 A 
BRANCH  87  91
ATOM     91  S   UNL A   1      48.292  28.283  35.663  1.00  0.00     0.124 S 
ATOM     92  O   UNL A   1      48.978  27.470  34.664  1.00  0.00    -0.237 OA
ATOM     93  O   UNL A   1      48.032  29.669  35.288  1.00  0.00    -0.237 OA
ATOM     94  O   UNL A   1      48.746  28.089  37.039  1.00  0.00    -0.744 OA
ENDBRANCH  87  91
ENDBRANCH  61  84
ENDBRANCH  35  36
ENDBRANCH  28  30
ENDBRANCH  27  28
ENDBRANCH  26  27
ENDBRANCH  25  26
ENDBRANCH  24  25
ENDBRANCH   1  24
TORSDOF 22
ENDMDL
