MODEL 1
REMARK VINA RESULT:     -10.6      0.000      0.000
REMARK SMILES Cc1cc(CS(=O)(=O)N[C@@H]2C=C[C@H](C(=O)OCCOCCOC(=O)c3ccc(-c4c5nc(c(-c6cc(S(=O)(=O)[O-])ccc6F)c6ccc([nH]6)c(-c6cc(S(=O)(=O)[O-])ccc6F)c6nc(c(-c7cc(S(=O)(=O)[O-])ccc7F)c7ccc4[nH]7)C=C6)C=C5)cc3)C2)no1
REMARK SMILES IDX 18 1 17 2 16 3 14 4 15 5 13 6 10 7 11 8 88 9 12 10 9 11 6 13
REMARK SMILES IDX 7 14 8 15 5 16 4 17 1 18 2 19 3 20 90 21 89 22 19 23 20 24
REMARK SMILES IDX 21 25 22 26 23 27 24 28 25 29 26 30 87 31 27 32 86 33 28 34
REMARK SMILES IDX 29 35 30 36 80 37 31 38 85 39 79 40 81 41 32 42 84 43 78 44
REMARK SMILES IDX 77 45 33 47 65 48 45 49 64 50 46 51 49 52 63 53 82 54 47 55
REMARK SMILES IDX 48 56 62 58 83 59 50 60 34 61 35 62 43 63 36 64 42 65 44 66
REMARK SMILES IDX 41 67 37 68 38 69 39 70 40 71 66 72 67 73 75 74 68 75 74 76
REMARK SMILES IDX 76 77 73 78 69 79 70 80 71 81 72 82 51 83 52 84 60 85 53 86
REMARK SMILES IDX 59 87 61 88 58 89 54 90 55 91 56 92 57 93
REMARK H PARENT 9 12 81 46 49 57
REMARK Flexibility Score: inf
ROOT
ATOM      1  C   UNL A   1      31.318  29.209  23.711  1.00  0.00     0.202 C 
ENDROOT
BRANCH   1   2
ATOM      2  C   UNL A   1      32.616  28.581  23.198  1.00  0.00     0.261 C 
BRANCH   2   3
ATOM      3  O   UNL A   1      32.330  27.355  22.512  1.00  0.00    -0.463 OA
BRANCH   3   4
ATOM      4  C   UNL A   1      32.527  26.214  23.228  1.00  0.00     0.312 C 
ATOM      5  O   UNL A   1      33.609  25.676  23.418  1.00  0.00    -0.252 OA
BRANCH   4   6
ATOM      6  C   UNL A   1      31.217  25.757  23.856  1.00  0.00     0.123 C 
ATOM      7  C   UNL A   1      31.411  23.648  25.060  1.00  0.00     0.093 C 
ATOM      8  C   UNL A   1      30.730  23.479  23.742  1.00  0.00    -0.011 C 
ATOM      9  C   UNL A   1      31.434  25.160  25.250  1.00  0.00     0.043 C 
ATOM     10  C   UNL A   1      30.603  24.632  23.084  1.00  0.00    -0.015 C 
BRANCH   7  11
ATOM     11  N   UNL A   1      32.734  23.061  24.904  1.00  0.00    -0.208 NA
ATOM     12  H   UNL A   1      32.604  22.134  24.499  1.00  0.00     0.141 HD
BRANCH  11  13
ATOM     13  S   UNL A   1      33.704  22.873  26.257  1.00  0.00     0.218 S 
ATOM     14  O   UNL A   1      32.836  22.793  27.406  1.00  0.00    -0.212 OA
ATOM     15  O   UNL A   1      34.677  23.947  26.161  1.00  0.00    -0.212 OA
BRANCH  13  16
ATOM     16  C   UNL A   1      34.598  21.314  25.984  1.00  0.00     0.213 C 
BRANCH  16  17
ATOM     17  C   UNL A   1      33.774  20.252  25.356  1.00  0.00     0.100 A 
ATOM     18  C   UNL A   1      32.701  17.813  22.847  1.00  0.00     0.091 C 
ATOM     19  C   UNL A   1      33.028  18.716  23.965  1.00  0.00     0.133 A 
ATOM     20  C   UNL A   1      34.196  19.203  24.499  1.00  0.00     0.073 A 
ATOM     21  O   UNL A   1      31.975  19.294  24.601  1.00  0.00    -0.361 OA
ATOM     22  N   UNL A   1      32.443  20.228  25.507  1.00  0.00    -0.084 NA
ENDBRANCH  16  17
ENDBRANCH  13  16
ENDBRANCH  11  13
ENDBRANCH   7  11
ENDBRANCH   4   6
ENDBRANCH   3   4
ENDBRANCH   2   3
ENDBRANCH   1   2
BRANCH   1  23
ATOM     23  O   UNL A   1      31.325  29.704  25.052  1.00  0.00    -0.374 OA
BRANCH  23  24
ATOM     24  C   UNL A   1      30.835  31.023  25.282  1.00  0.00     0.202 C 
BRANCH  24  25
ATOM     25  C   UNL A   1      31.315  31.774  26.531  1.00  0.00     0.261 C 
BRANCH  25  26
ATOM     26  O   UNL A   1      32.654  31.427  26.918  1.00  0.00    -0.460 OA
BRANCH  26  27
ATOM     27  C   UNL A   1      33.363  32.458  27.444  1.00  0.00     0.338 C 
ATOM     28  O   UNL A   1      32.949  33.582  27.691  1.00  0.00    -0.246 OA
BRANCH  27  29
ATOM     29  C   UNL A   1      34.692  31.992  27.874  1.00  0.00     0.060 A 
ATOM     30  C   UNL A   1      34.839  30.626  28.150  1.00  0.00     0.016 A 
ATOM     31  C   UNL A   1      35.747  32.880  28.089  1.00  0.00     0.016 A 
ATOM     32  C   UNL A   1      36.031  30.147  28.686  1.00  0.00     0.010 A 
ATOM     33  C   UNL A   1      36.939  32.398  28.642  1.00  0.00     0.010 A 
ATOM     34  C   UNL A   1      37.073  31.037  28.974  1.00  0.00    -0.014 A 
BRANCH  34  35
ATOM     35  C   UNL A   1      38.227  30.564  29.775  1.00  0.00     0.031 A 
ATOM     36  C   UNL A   1      39.171  29.563  29.166  1.00  0.00     0.074 A 
ATOM     37  C   UNL A   1      38.454  31.052  31.007  1.00  0.00     0.049 A 
ATOM     38  N   UNL A   1      40.229  28.996  29.682  1.00  0.00    -0.248 NA
ATOM     39  C   UNL A   1      38.874  29.147  27.787  1.00  0.00     0.031 C 
ATOM     40  C   UNL A   1      37.639  32.066  31.675  1.00  0.00     0.029 A 
ATOM     41  N   UNL A   1      39.439  30.759  31.916  1.00  0.00    -0.354 N 
ATOM     42  C   UNL A   1      40.723  28.148  28.695  1.00  0.00     0.074 A 
ATOM     43  C   UNL A   1      39.825  28.253  27.565  1.00  0.00     0.031 C 
ATOM     44  C   UNL A   1      38.157  32.309  32.892  1.00  0.00     0.029 A 
ATOM     45  C   UNL A   1      39.314  31.441  33.103  1.00  0.00     0.049 A 
ATOM     46  H   UNL A   1      40.166  30.121  31.736  1.00  0.00     0.167 HD
ATOM     47  C   UNL A   1      41.828  27.362  28.729  1.00  0.00     0.034 A 
ATOM     48  C   UNL A   1      40.039  31.356  34.237  1.00  0.00     0.034 A 
ATOM     49  C   UNL A   1      42.707  27.267  29.871  1.00  0.00     0.049 A 
ATOM     50  C   UNL A   1      41.210  30.402  34.285  1.00  0.00     0.074 A 
ATOM     51  C   UNL A   1      43.866  26.524  30.006  1.00  0.00     0.029 A 
ATOM     52  N   UNL A   1      42.514  27.924  31.079  1.00  0.00    -0.354 N 
ATOM     53  N   UNL A   1      41.675  29.615  33.342  1.00  0.00    -0.248 NA
ATOM     54  C   UNL A   1      41.954  30.332  35.549  1.00  0.00     0.031 C 
ATOM     55  C   UNL A   1      44.330  26.670  31.319  1.00  0.00     0.029 A 
ATOM     56  C   UNL A   1      43.509  27.570  31.979  1.00  0.00     0.049 A 
ATOM     57  H   UNL A   1      41.779  28.550  31.269  1.00  0.00     0.167 HD
ATOM     58  C   UNL A   1      42.789  28.982  33.891  1.00  0.00     0.074 A 
ATOM     59  C   UNL A   1      42.928  29.488  35.241  1.00  0.00     0.031 C 
ATOM     60  C   UNL A   1      43.626  28.073  33.328  1.00  0.00     0.034 A 
BRANCH  47  61
ATOM     61  C   UNL A   1      42.103  26.502  27.520  1.00  0.00     0.023 A 
ATOM     62  C   UNL A   1      41.673  25.165  27.443  1.00  0.00     0.031 A 
ATOM     63  C   UNL A   1      42.843  27.017  26.440  1.00  0.00     0.131 A 
ATOM     64  C   UNL A   1      42.051  24.369  26.351  1.00  0.00     0.055 A 
ATOM     65  C   UNL A   1      43.146  26.243  25.318  1.00  0.00     0.041 A 
ATOM     66  F   UNL A   1      43.302  28.278  26.466  1.00  0.00    -0.206 F 
ATOM     67  C   UNL A   1      42.764  24.906  25.275  1.00  0.00     0.022 A 
BRANCH  64  68
ATOM     68  S   UNL A   1      41.732  22.585  26.424  1.00  0.00     0.124 S 
ATOM     69  O   UNL A   1      42.491  22.102  25.272  1.00  0.00    -0.237 OA
ATOM     70  O   UNL A   1      42.262  22.224  27.734  1.00  0.00    -0.237 OA
ATOM     71  O   UNL A   1      40.281  22.490  26.289  1.00  0.00    -0.744 OA
ENDBRANCH  64  68
ENDBRANCH  47  61
BRANCH  48  72
ATOM     72  C   UNL A   1      39.670  32.163  35.435  1.00  0.00     0.023 A 
ATOM     73  C   UNL A   1      38.863  31.624  36.450  1.00  0.00     0.031 A 
ATOM     74  C   UNL A   1      40.073  33.504  35.554  1.00  0.00     0.131 A 
ATOM     75  C   UNL A   1      38.448  32.437  37.517  1.00  0.00     0.055 A 
ATOM     76  C   UNL A   1      39.700  34.293  36.645  1.00  0.00     0.041 A 
ATOM     77  F   UNL A   1      40.844  34.070  34.612  1.00  0.00    -0.206 F 
ATOM     78  C   UNL A   1      38.871  33.762  37.627  1.00  0.00     0.022 A 
BRANCH  75  79
ATOM     79  S   UNL A   1      37.271  31.757  38.718  1.00  0.00     0.124 S 
ATOM     80  O   UNL A   1      38.024  31.858  39.962  1.00  0.00    -0.237 OA
ATOM     81  O   UNL A   1      36.137  32.665  38.576  1.00  0.00    -0.237 OA
ATOM     82  O   UNL A   1      37.041  30.397  38.234  1.00  0.00    -0.744 OA
ENDBRANCH  75  79
ENDBRANCH  48  72
BRANCH  60  83
ATOM     83  C   UNL A   1      44.795  27.607  34.164  1.00  0.00     0.023 A 
ATOM     84  C   UNL A   1      44.737  26.428  34.928  1.00  0.00     0.031 A 
ATOM     85  C   UNL A   1      45.980  28.363  34.202  1.00  0.00     0.131 A 
ATOM     86  C   UNL A   1      45.824  26.070  35.741  1.00  0.00     0.055 A 
ATOM     87  C   UNL A   1      47.080  27.968  34.965  1.00  0.00     0.041 A 
ATOM     88  F   UNL A   1      46.090  29.498  33.493  1.00  0.00    -0.206 F 
ATOM     89  C   UNL A   1      47.000  26.823  35.751  1.00  0.00     0.022 A 
BRANCH  86  90
ATOM     90  S   UNL A   1      45.644  24.653  36.860  1.00  0.00     0.124 S 
ATOM     91  O   UNL A   1      44.309  24.168  36.524  1.00  0.00    -0.237 OA
ATOM     92  O   UNL A   1      46.753  23.795  36.457  1.00  0.00    -0.237 OA
ATOM     93  O   UNL A   1      45.772  25.247  38.190  1.00  0.00    -0.744 OA
ENDBRANCH  86  90
ENDBRANCH  60  83
ENDBRANCH  34  35
ENDBRANCH  27  29
ENDBRANCH  26  27
ENDBRANCH  25  26
ENDBRANCH  24  25
ENDBRANCH  23  24
ENDBRANCH   1  23
TORSDOF 21
ENDMDL
MODEL 2
REMARK VINA RESULT:     -10.5      5.900     11.077
REMARK SMILES Cc1cc(CS(=O)(=O)N[C@@H]2C=C[C@H](C(=O)OCCOCCOC(=O)c3ccc(-c4c5nc(c(-c6cc(S(=O)(=O)[O-])ccc6F)c6ccc([nH]6)c(-c6cc(S(=O)(=O)[O-])ccc6F)c6nc(c(-c7cc(S(=O)(=O)[O-])ccc7F)c7ccc4[nH]7)C=C6)C=C5)cc3)C2)no1
REMARK SMILES IDX 18 1 17 2 16 3 14 4 15 5 13 6 10 7 11 8 88 9 12 10 9 11 6 13
REMARK SMILES IDX 7 14 8 15 5 16 4 17 1 18 2 19 3 20 90 21 89 22 19 23 20 24
REMARK SMILES IDX 21 25 22 26 23 27 24 28 25 29 26 30 87 31 27 32 86 33 28 34
REMARK SMILES IDX 29 35 30 36 80 37 31 38 85 39 79 40 81 41 32 42 84 43 78 44
REMARK SMILES IDX 77 45 33 47 65 48 45 49 64 50 46 51 49 52 63 53 82 54 47 55
REMARK SMILES IDX 48 56 62 58 83 59 50 60 34 61 35 62 43 63 36 64 42 65 44 66
REMARK SMILES IDX 41 67 37 68 38 69 39 70 40 71 66 72 67 73 75 74 68 75 74 76
REMARK SMILES IDX 76 77 73 78 69 79 70 80 71 81 72 82 51 83 52 84 60 85 53 86
REMARK SMILES IDX 59 87 61 88 58 89 54 90 55 91 56 92 57 93
REMARK H PARENT 9 12 81 46 49 57
REMARK Flexibility Score: inf
ROOT
ATOM      1  C   UNL A   1      36.575  22.077  25.723  1.00  0.00     0.202 C 
ENDROOT
BRANCH   1   2
ATOM      2  C   UNL A   1      35.315  22.946  25.685  1.00  0.00     0.261 C 
BRANCH   2   3
ATOM      3  O   UNL A   1      34.218  22.196  25.148  1.00  0.00    -0.463 OA
BRANCH   3   4
ATOM      4  C   UNL A   1      33.807  22.555  23.901  1.00  0.00     0.312 C 
ATOM      5  O   UNL A   1      34.543  22.879  22.979  1.00  0.00    -0.252 OA
BRANCH   4   6
ATOM      6  C   UNL A   1      32.298  22.390  23.779  1.00  0.00     0.123 C 
ATOM      7  C   UNL A   1      31.127  24.492  23.405  1.00  0.00     0.093 C 
ATOM      8  C   UNL A   1      30.972  24.008  24.810  1.00  0.00    -0.011 C 
ATOM      9  C   UNL A   1      31.716  23.287  22.683  1.00  0.00     0.043 C 
ATOM     10  C   UNL A   1      31.596  22.847  25.018  1.00  0.00    -0.015 C 
BRANCH   7  11
ATOM     11  N   UNL A   1      32.032  25.631  23.473  1.00  0.00    -0.208 NA
ATOM     12  H   UNL A   1      31.641  26.283  24.153  1.00  0.00     0.141 HD
BRANCH  11  13
ATOM     13  S   UNL A   1      32.345  26.503  22.078  1.00  0.00     0.218 S 
ATOM     14  O   UNL A   1      31.347  26.139  21.104  1.00  0.00    -0.212 OA
ATOM     15  O   UNL A   1      33.750  26.256  21.800  1.00  0.00    -0.212 OA
BRANCH  13  16
ATOM     16  C   UNL A   1      32.197  28.247  22.570  1.00  0.00     0.213 C 
BRANCH  16  17
ATOM     17  C   UNL A   1      30.802  28.753  22.570  1.00  0.00     0.100 A 
ATOM     18  C   UNL A   1      27.183  28.757  23.116  1.00  0.00     0.091 C 
ATOM     19  C   UNL A   1      28.627  28.925  22.874  1.00  0.00     0.133 A 
ATOM     20  C   UNL A   1      29.766  28.475  23.498  1.00  0.00     0.073 A 
ATOM     21  O   UNL A   1      28.976  29.598  21.747  1.00  0.00    -0.361 OA
ATOM     22  N   UNL A   1      30.347  29.530  21.577  1.00  0.00    -0.084 NA
ENDBRANCH  16  17
ENDBRANCH  13  16
ENDBRANCH  11  13
ENDBRANCH   7  11
ENDBRANCH   4   6
ENDBRANCH   3   4
ENDBRANCH   2   3
ENDBRANCH   1   2
BRANCH   1  23
ATOM     23  O   UNL A   1      37.831  22.756  25.659  1.00  0.00    -0.374 OA
BRANCH  23  24
ATOM     24  C   UNL A   1      38.965  22.125  26.250  1.00  0.00     0.202 C 
BRANCH  24  25
ATOM     25  C   UNL A   1      39.302  20.688  25.834  1.00  0.00     0.261 C 
BRANCH  25  26
ATOM     26  O   UNL A   1      40.120  19.999  26.793  1.00  0.00    -0.460 OA
BRANCH  26  27
ATOM     27  C   UNL A   1      41.373  19.721  26.354  1.00  0.00     0.338 C 
ATOM     28  O   UNL A   1      41.737  18.713  25.765  1.00  0.00    -0.246 OA
BRANCH  27  29
ATOM     29  C   UNL A   1      42.239  20.902  26.510  1.00  0.00     0.060 A 
ATOM     30  C   UNL A   1      42.484  21.355  27.813  1.00  0.00     0.016 A 
ATOM     31  C   UNL A   1      42.726  21.606  25.407  1.00  0.00     0.016 A 
ATOM     32  C   UNL A   1      43.184  22.541  28.019  1.00  0.00     0.010 A 
ATOM     33  C   UNL A   1      43.416  22.805  25.617  1.00  0.00     0.010 A 
ATOM     34  C   UNL A   1      43.617  23.294  26.921  1.00  0.00    -0.014 A 
BRANCH  34  35
ATOM     35  C   UNL A   1      44.127  24.669  27.143  1.00  0.00     0.031 A 
ATOM     36  C   UNL A   1      43.180  25.718  27.658  1.00  0.00     0.074 A 
ATOM     37  C   UNL A   1      45.421  24.964  26.930  1.00  0.00     0.049 A 
ATOM     38  N   UNL A   1      43.395  26.983  27.906  1.00  0.00    -0.248 NA
ATOM     39  C   UNL A   1      41.803  25.275  27.926  1.00  0.00     0.031 C 
ATOM     40  C   UNL A   1      46.441  24.014  26.486  1.00  0.00     0.029 A 
ATOM     41  N   UNL A   1      46.099  26.149  27.060  1.00  0.00    -0.354 N 
ATOM     42  C   UNL A   1      42.179  27.493  28.353  1.00  0.00     0.074 A 
ATOM     43  C   UNL A   1      41.226  26.405  28.306  1.00  0.00     0.031 C 
ATOM     44  C   UNL A   1      47.617  24.657  26.378  1.00  0.00     0.029 A 
ATOM     45  C   UNL A   1      47.425  26.068  26.706  1.00  0.00     0.049 A 
ATOM     46  H   UNL A   1      45.676  26.980  27.378  1.00  0.00     0.167 HD
ATOM     47  C   UNL A   1      41.890  28.751  28.770  1.00  0.00     0.034 A 
ATOM     48  C   UNL A   1      48.368  27.029  26.634  1.00  0.00     0.034 A 
ATOM     49  C   UNL A   1      42.855  29.824  28.801  1.00  0.00     0.049 A 
ATOM     50  C   UNL A   1      47.999  28.444  27.013  1.00  0.00     0.074 A 
ATOM     51  C   UNL A   1      42.679  31.129  29.228  1.00  0.00     0.029 A 
ATOM     52  N   UNL A   1      44.173  29.721  28.375  1.00  0.00    -0.354 N 
ATOM     53  N   UNL A   1      46.849  28.912  27.445  1.00  0.00    -0.248 NA
ATOM     54  C   UNL A   1      49.055  29.457  26.897  1.00  0.00     0.031 C 
ATOM     55  C   UNL A   1      43.864  31.833  28.986  1.00  0.00     0.029 A 
ATOM     56  C   UNL A   1      44.809  30.949  28.487  1.00  0.00     0.049 A 
ATOM     57  H   UNL A   1      44.594  28.897  28.041  1.00  0.00     0.167 HD
ATOM     58  C   UNL A   1      47.058  30.268  27.686  1.00  0.00     0.074 A 
ATOM     59  C   UNL A   1      48.444  30.538  27.360  1.00  0.00     0.031 C 
ATOM     60  C   UNL A   1      46.188  31.205  28.145  1.00  0.00     0.034 A 
BRANCH  47  61
ATOM     61  C   UNL A   1      40.461  29.039  29.160  1.00  0.00     0.023 A 
ATOM     62  C   UNL A   1      40.034  29.013  30.500  1.00  0.00     0.031 A 
ATOM     63  C   UNL A   1      39.498  29.306  28.169  1.00  0.00     0.131 A 
ATOM     64  C   UNL A   1      38.673  29.172  30.806  1.00  0.00     0.055 A 
ATOM     65  C   UNL A   1      38.160  29.545  28.486  1.00  0.00     0.041 A 
ATOM     66  F   UNL A   1      39.840  29.320  26.871  1.00  0.00    -0.206 F 
ATOM     67  C   UNL A   1      37.737  29.463  29.810  1.00  0.00     0.022 A 
BRANCH  64  68
ATOM     68  S   UNL A   1      38.119  28.842  32.501  1.00  0.00     0.124 S 
ATOM     69  O   UNL A   1      38.972  29.745  33.270  1.00  0.00    -0.237 OA
ATOM     70  O   UNL A   1      36.705  29.192  32.443  1.00  0.00    -0.237 OA
ATOM     71  O   UNL A   1      38.404  27.421  32.684  1.00  0.00    -0.744 OA
ENDBRANCH  64  68
ENDBRANCH  47  61
BRANCH  48  72
ATOM     72  C   UNL A   1      49.742  26.708  26.155  1.00  0.00     0.023 A 
ATOM     73  C   UNL A   1      50.174  27.101  24.878  1.00  0.00     0.031 A 
ATOM     74  C   UNL A   1      50.625  25.953  26.947  1.00  0.00     0.131 A 
ATOM     75  C   UNL A   1      51.437  26.699  24.414  1.00  0.00     0.055 A 
ATOM     76  C   UNL A   1      51.900  25.600  26.500  1.00  0.00     0.041 A 
ATOM     77  F   UNL A   1      50.263  25.550  28.175  1.00  0.00    -0.206 F 
ATOM     78  C   UNL A   1      52.307  25.963  25.220  1.00  0.00     0.022 A 
BRANCH  75  79
ATOM     79  S   UNL A   1      51.892  27.080  22.700  1.00  0.00     0.124 S 
ATOM     80  O   UNL A   1      52.404  28.440  22.824  1.00  0.00    -0.237 OA
ATOM     81  O   UNL A   1      52.880  26.045  22.413  1.00  0.00    -0.237 OA
ATOM     82  O   UNL A   1      50.629  26.950  21.977  1.00  0.00    -0.744 OA
ENDBRANCH  75  79
ENDBRANCH  48  72
BRANCH  60  83
ATOM     83  C   UNL A   1      46.731  32.598  28.363  1.00  0.00     0.023 A 
ATOM     84  C   UNL A   1      46.867  33.515  27.306  1.00  0.00     0.031 A 
ATOM     85  C   UNL A   1      47.127  33.006  29.649  1.00  0.00     0.131 A 
ATOM     86  C   UNL A   1      47.438  34.775  27.545  1.00  0.00     0.055 A 
ATOM     87  C   UNL A   1      47.637  34.283  29.891  1.00  0.00     0.041 A 
ATOM     88  F   UNL A   1      47.021  32.171  30.695  1.00  0.00    -0.206 F 
ATOM     89  C   UNL A   1      47.808  35.170  28.833  1.00  0.00     0.022 A 
BRANCH  86  90
ATOM     90  S   UNL A   1      47.778  35.860  26.131  1.00  0.00     0.124 S 
ATOM     91  O   UNL A   1      47.858  34.905  25.029  1.00  0.00    -0.237 OA
ATOM     92  O   UNL A   1      46.616  36.741  26.127  1.00  0.00    -0.237 OA
ATOM     93  O   UNL A   1      49.042  36.502  26.488  1.00  0.00    -0.744 OA
ENDBRANCH  86  90
ENDBRANCH  60  83
ENDBRANCH  34  35
ENDBRANCH  27  29
ENDBRANCH  26  27
ENDBRANCH  25  26
ENDBRANCH  24  25
ENDBRANCH  23  24
ENDBRANCH   1  23
TORSDOF 21
ENDMDL
MODEL 3
REMARK VINA RESULT:     -10.4      1.410      7.578
REMARK SMILES Cc1cc(CS(=O)(=O)N[C@@H]2C=C[C@H](C(=O)OCCOCCOC(=O)c3ccc(-c4c5nc(c(-c6cc(S(=O)(=O)[O-])ccc6F)c6ccc([nH]6)c(-c6cc(S(=O)(=O)[O-])ccc6F)c6nc(c(-c7cc(S(=O)(=O)[O-])ccc7F)c7ccc4[nH]7)C=C6)C=C5)cc3)C2)no1
REMARK SMILES IDX 18 1 17 2 16 3 14 4 15 5 13 6 10 7 11 8 88 9 12 10 9 11 6 13
REMARK SMILES IDX 7 14 8 15 5 16 4 17 1 18 2 19 3 20 90 21 89 22 19 23 20 24
REMARK SMILES IDX 21 25 22 26 23 27 24 28 25 29 26 30 87 31 27 32 86 33 28 34
REMARK SMILES IDX 29 35 30 36 80 37 31 38 85 39 79 40 81 41 32 42 84 43 78 44
REMARK SMILES IDX 77 45 33 47 65 48 45 49 64 50 46 51 49 52 63 53 82 54 47 55
REMARK SMILES IDX 48 56 62 58 83 59 50 60 34 61 35 62 43 63 36 64 42 65 44 66
REMARK SMILES IDX 41 67 37 68 38 69 39 70 40 71 66 72 67 73 75 74 68 75 74 76
REMARK SMILES IDX 76 77 73 78 69 79 70 80 71 81 72 82 51 83 52 84 60 85 53 86
REMARK SMILES IDX 59 87 61 88 58 89 54 90 55 91 56 92 57 93
REMARK H PARENT 9 12 81 46 49 57
REMARK Flexibility Score: inf
ROOT
ATOM      1  C   UNL A   1      31.401  28.998  23.301  1.00  0.00     0.202 C 
ENDROOT
BRANCH   1   2
ATOM      2  C   UNL A   1      32.703  28.310  22.881  1.00  0.00     0.261 C 
BRANCH   2   3
ATOM      3  O   UNL A   1      32.414  27.058  22.247  1.00  0.00    -0.463 OA
BRANCH   3   4
ATOM      4  C   UNL A   1      32.721  25.943  22.966  1.00  0.00     0.312 C 
ATOM      5  O   UNL A   1      33.759  25.303  22.870  1.00  0.00    -0.252 OA
BRANCH   4   6
ATOM      6  C   UNL A   1      31.630  25.664  23.991  1.00  0.00     0.123 C 
ATOM      7  C   UNL A   1      32.114  23.747  25.414  1.00  0.00     0.093 C 
ATOM      8  C   UNL A   1      31.088  23.429  24.375  1.00  0.00    -0.011 C 
ATOM      9  C   UNL A   1      32.216  25.266  25.349  1.00  0.00     0.043 C 
ATOM     10  C   UNL A   1      30.805  24.479  23.603  1.00  0.00    -0.015 C 
BRANCH   7  11
ATOM     11  N   UNL A   1      33.330  23.063  24.998  1.00  0.00    -0.208 NA
ATOM     12  H   UNL A   1      33.055  22.136  24.674  1.00  0.00     0.141 HD
BRANCH  11  13
ATOM     13  S   UNL A   1      34.562  22.849  26.112  1.00  0.00     0.218 S 
ATOM     14  O   UNL A   1      33.986  22.973  27.427  1.00  0.00    -0.212 OA
ATOM     15  O   UNL A   1      35.601  23.772  25.688  1.00  0.00    -0.212 OA
BRANCH  13  16
ATOM     16  C   UNL A   1      35.184  21.168  25.809  1.00  0.00     0.213 C 
BRANCH  16  17
ATOM     17  C   UNL A   1      34.151  20.227  25.311  1.00  0.00     0.100 A 
ATOM     18  C   UNL A   1      32.334  18.112  22.940  1.00  0.00     0.091 C 
ATOM     19  C   UNL A   1      32.980  18.882  24.018  1.00  0.00     0.133 A 
ATOM     20  C   UNL A   1      34.277  19.237  24.302  1.00  0.00     0.073 A 
ATOM     21  O   UNL A   1      32.152  19.467  24.922  1.00  0.00    -0.361 OA
ATOM     22  N   UNL A   1      32.890  20.278  25.764  1.00  0.00    -0.084 NA
ENDBRANCH  16  17
ENDBRANCH  13  16
ENDBRANCH  11  13
ENDBRANCH   7  11
ENDBRANCH   4   6
ENDBRANCH   3   4
ENDBRANCH   2   3
ENDBRANCH   1   2
BRANCH   1  23
ATOM     23  O   UNL A   1      31.289  29.387  24.672  1.00  0.00    -0.374 OA
BRANCH  23  24
ATOM     24  C   UNL A   1      31.026  30.759  24.960  1.00  0.00     0.202 C 
BRANCH  24  25
ATOM     25  C   UNL A   1      31.332  31.283  26.368  1.00  0.00     0.261 C 
BRANCH  25  26
ATOM     26  O   UNL A   1      32.640  30.917  26.835  1.00  0.00    -0.460 OA
BRANCH  26  27
ATOM     27  C   UNL A   1      33.342  31.943  27.378  1.00  0.00     0.338 C 
ATOM     28  O   UNL A   1      32.919  33.058  27.648  1.00  0.00    -0.246 OA
BRANCH  27  29
ATOM     29  C   UNL A   1      34.676  31.480  27.795  1.00  0.00     0.060 A 
ATOM     30  C   UNL A   1      34.849  30.104  27.994  1.00  0.00     0.016 A 
ATOM     31  C   UNL A   1      35.710  32.376  28.073  1.00  0.00     0.016 A 
ATOM     32  C   UNL A   1      36.045  29.619  28.514  1.00  0.00     0.010 A 
ATOM     33  C   UNL A   1      36.906  31.888  28.610  1.00  0.00     0.010 A 
ATOM     34  C   UNL A   1      37.066  30.513  28.864  1.00  0.00    -0.014 A 
BRANCH  34  35
ATOM     35  C   UNL A   1      38.222  30.018  29.650  1.00  0.00     0.031 A 
ATOM     36  C   UNL A   1      38.414  30.525  31.053  1.00  0.00     0.074 A 
ATOM     37  C   UNL A   1      39.060  29.101  29.136  1.00  0.00     0.049 A 
ATOM     38  N   UNL A   1      39.358  30.251  31.915  1.00  0.00    -0.248 NA
ATOM     39  C   UNL A   1      37.403  31.472  31.547  1.00  0.00     0.031 C 
ATOM     40  C   UNL A   1      38.937  28.497  27.810  1.00  0.00     0.029 A 
ATOM     41  N   UNL A   1      40.180  28.515  29.670  1.00  0.00    -0.354 N 
ATOM     42  C   UNL A   1      39.061  30.996  33.052  1.00  0.00     0.074 A 
ATOM     43  C   UNL A   1      37.868  31.760  32.752  1.00  0.00     0.031 C 
ATOM     44  C   UNL A   1      39.947  27.627  27.632  1.00  0.00     0.029 A 
ATOM     45  C   UNL A   1      40.807  27.642  28.814  1.00  0.00     0.049 A 
ATOM     46  H   UNL A   1      40.504  28.704  30.580  1.00  0.00     0.167 HD
ATOM     47  C   UNL A   1      39.720  31.033  34.237  1.00  0.00     0.034 A 
ATOM     48  C   UNL A   1      41.955  26.951  28.962  1.00  0.00     0.034 A 
ATOM     49  C   UNL A   1      40.913  30.269  34.513  1.00  0.00     0.049 A 
ATOM     50  C   UNL A   1      42.724  27.081  30.256  1.00  0.00     0.074 A 
ATOM     51  C   UNL A   1      41.647  30.210  35.684  1.00  0.00     0.029 A 
ATOM     52  N   UNL A   1      41.556  29.442  33.600  1.00  0.00    -0.354 N 
ATOM     53  N   UNL A   1      42.427  27.780  31.328  1.00  0.00    -0.248 NA
ATOM     54  C   UNL A   1      43.979  26.326  30.358  1.00  0.00     0.031 C 
ATOM     55  C   UNL A   1      42.774  29.412  35.455  1.00  0.00     0.029 A 
ATOM     56  C   UNL A   1      42.702  28.904  34.168  1.00  0.00     0.049 A 
ATOM     57  H   UNL A   1      41.245  29.265  32.683  1.00  0.00     0.167 HD
ATOM     58  C   UNL A   1      43.443  27.517  32.245  1.00  0.00     0.074 A 
ATOM     59  C   UNL A   1      44.352  26.591  31.602  1.00  0.00     0.031 C 
ATOM     60  C   UNL A   1      43.606  27.991  33.508  1.00  0.00     0.034 A 
BRANCH  47  61
ATOM     61  C   UNL A   1      39.195  31.977  35.291  1.00  0.00     0.023 A 
ATOM     62  C   UNL A   1      39.637  33.309  35.385  1.00  0.00     0.031 A 
ATOM     63  C   UNL A   1      38.266  31.525  36.245  1.00  0.00     0.131 A 
ATOM     64  C   UNL A   1      39.209  34.116  36.451  1.00  0.00     0.055 A 
ATOM     65  C   UNL A   1      37.781  32.357  37.255  1.00  0.00     0.041 A 
ATOM     66  F   UNL A   1      37.825  30.257  36.222  1.00  0.00    -0.206 F 
ATOM     67  C   UNL A   1      38.265  33.657  37.373  1.00  0.00     0.022 A 
BRANCH  64  68
ATOM     68  S   UNL A   1      40.019  35.719  36.707  1.00  0.00     0.124 S 
ATOM     69  O   UNL A   1      41.422  35.326  36.815  1.00  0.00    -0.237 OA
ATOM     70  O   UNL A   1      39.651  36.453  35.502  1.00  0.00    -0.237 OA
ATOM     71  O   UNL A   1      39.421  36.211  37.946  1.00  0.00    -0.744 OA
ENDBRANCH  64  68
ENDBRANCH  47  61
BRANCH  48  72
ATOM     72  C   UNL A   1      42.477  26.102  27.853  1.00  0.00     0.023 A 
ATOM     73  C   UNL A   1      42.019  24.787  27.671  1.00  0.00     0.031 A 
ATOM     74  C   UNL A   1      43.482  26.576  26.992  1.00  0.00     0.131 A 
ATOM     75  C   UNL A   1      42.599  23.977  26.682  1.00  0.00     0.055 A 
ATOM     76  C   UNL A   1      44.019  25.783  25.976  1.00  0.00     0.041 A 
ATOM     77  F   UNL A   1      43.957  27.825  27.123  1.00  0.00    -0.206 F 
ATOM     78  C   UNL A   1      43.586  24.470  25.826  1.00  0.00     0.022 A 
BRANCH  75  79
ATOM     79  S   UNL A   1      42.103  22.235  26.588  1.00  0.00     0.124 S 
ATOM     80  O   UNL A   1      42.788  21.796  25.377  1.00  0.00    -0.237 OA
ATOM     81  O   UNL A   1      42.620  21.706  27.846  1.00  0.00    -0.237 OA
ATOM     82  O   UNL A   1      40.646  22.302  26.494  1.00  0.00    -0.744 OA
ENDBRANCH  75  79
ENDBRANCH  48  72
BRANCH  60  83
ATOM     83  C   UNL A   1      44.791  27.472  34.288  1.00  0.00     0.023 A 
ATOM     84  C   UNL A   1      44.696  26.337  35.112  1.00  0.00     0.031 A 
ATOM     85  C   UNL A   1      46.030  28.132  34.210  1.00  0.00     0.131 A 
ATOM     86  C   UNL A   1      45.806  25.930  35.870  1.00  0.00     0.055 A 
ATOM     87  C   UNL A   1      47.147  27.685  34.918  1.00  0.00     0.041 A 
ATOM     88  F   UNL A   1      46.177  29.221  33.440  1.00  0.00    -0.206 F 
ATOM     89  C   UNL A   1      47.034  26.587  35.764  1.00  0.00     0.022 A 
BRANCH  86  90
ATOM     90  S   UNL A   1      45.597  24.583  37.067  1.00  0.00     0.124 S 
ATOM     91  O   UNL A   1      45.493  23.416  36.196  1.00  0.00    -0.237 OA
ATOM     92  O   UNL A   1      46.817  24.679  37.861  1.00  0.00    -0.237 OA
ATOM     93  O   UNL A   1      44.368  24.941  37.774  1.00  0.00    -0.744 OA
ENDBRANCH  86  90
ENDBRANCH  60  83
ENDBRANCH  34  35
ENDBRANCH  27  29
ENDBRANCH  26  27
ENDBRANCH  25  26
ENDBRANCH  24  25
ENDBRANCH  23  24
ENDBRANCH   1  23
TORSDOF 21
ENDMDL
