MODEL 1
REMARK VINA RESULT:     -10.7      0.000      0.000
REMARK SMILES CC[C@@H](C)C(=O)Nc1cccc(C(=O)OCCOCCOC(=O)c2ccc(-c3c4nc(c(-c5cc(S(=O)(=O)[O-])ccc5F)c5ccc([nH]5)c(-c5cc(S(=O)(=O)[O-])ccc5F)c5nc(c(-c6cc(S(=O)(=O)[O-])ccc6F)c6ccc3[nH]6)C=C5)C=C4)cc2)c1
REMARK SMILES IDX 18 1 17 2 16 3 15 4 13 5 14 6 12 7 8 8 9 9 87 10 10 11 11 12
REMARK SMILES IDX 7 13 5 14 6 15 3 17 4 18 2 19 1 20 19 21 20 22 21 23 22 24
REMARK SMILES IDX 23 25 24 26 25 27 86 28 26 29 85 30 27 31 28 32 29 33 79 34
REMARK SMILES IDX 30 35 84 36 78 37 80 38 31 39 83 40 77 41 76 42 32 44 64 45
REMARK SMILES IDX 44 46 63 47 45 48 48 49 62 50 81 51 46 52 47 53 61 55 82 56
REMARK SMILES IDX 49 57 33 58 34 59 42 60 35 61 41 62 43 63 40 64 36 65 37 66
REMARK SMILES IDX 38 67 39 68 65 69 66 70 74 71 67 72 73 73 75 74 72 75 68 76
REMARK SMILES IDX 69 77 70 78 71 79 50 80 51 81 59 82 52 83 58 84 60 85 57 86
REMARK SMILES IDX 53 87 54 88 55 89 56 90
REMARK H PARENT 7 16 80 43 48 54
REMARK Flexibility Score: inf
ROOT
ATOM      1  O   UNL A   1      35.940  21.876  26.150  1.00  0.00    -0.374 OA
ENDROOT
BRANCH   1   2
ATOM      2  C   UNL A   1      34.625  22.350  26.441  1.00  0.00     0.202 C 
BRANCH   2   3
ATOM      3  C   UNL A   1      33.526  21.295  26.601  1.00  0.00     0.261 C 
BRANCH   3   4
ATOM      4  O   UNL A   1      32.232  21.824  26.276  1.00  0.00    -0.460 OA
BRANCH   4   5
ATOM      5  C   UNL A   1      31.996  22.063  24.961  1.00  0.00     0.338 C 
ATOM      6  O   UNL A   1      32.283  21.338  24.024  1.00  0.00    -0.246 OA
BRANCH   5   7
ATOM      7  C   UNL A   1      31.265  23.346  24.790  1.00  0.00     0.062 A 
ATOM      8  C   UNL A   1      30.596  25.500  25.654  1.00  0.00     0.042 A 
ATOM      9  C   UNL A   1      30.128  25.866  24.392  1.00  0.00     0.026 A 
ATOM     10  C   UNL A   1      31.017  24.197  25.867  1.00  0.00     0.041 A 
ATOM     11  C   UNL A   1      30.257  24.978  23.319  1.00  0.00     0.003 A 
ATOM     12  C   UNL A   1      30.873  23.739  23.508  1.00  0.00     0.016 A 
BRANCH   8  13
ATOM     13  N   UNL A   1      30.640  26.458  26.670  1.00  0.00    -0.326 N 
ATOM     14  C   UNL A   1      31.551  27.449  26.931  1.00  0.00     0.227 C 
ATOM     15  O   UNL A   1      31.406  28.059  27.998  1.00  0.00    -0.274 OA
ATOM     16  H   UNL A   1      29.890  26.414  27.307  1.00  0.00     0.169 HD
BRANCH  14  17
ATOM     17  C   UNL A   1      32.634  27.925  25.933  1.00  0.00     0.075 C 
ATOM     18  C   UNL A   1      32.098  28.894  24.877  1.00  0.00     0.018 C 
BRANCH  17  19
ATOM     19  C   UNL A   1      33.556  26.822  25.391  1.00  0.00     0.010 C 
ATOM     20  C   UNL A   1      33.826  26.901  23.895  1.00  0.00     0.005 C 
ENDBRANCH  17  19
ENDBRANCH  14  17
ENDBRANCH   8  13
ENDBRANCH   5   7
ENDBRANCH   4   5
ENDBRANCH   3   4
ENDBRANCH   2   3
ENDBRANCH   1   2
BRANCH   1  21
ATOM     21  C   UNL A   1      36.073  20.764  25.271  1.00  0.00     0.202 C 
BRANCH  21  22
ATOM     22  C   UNL A   1      37.482  20.238  24.969  1.00  0.00     0.261 C 
BRANCH  22  23
ATOM     23  O   UNL A   1      38.503  21.245  25.029  1.00  0.00    -0.460 OA
BRANCH  23  24
ATOM     24  C   UNL A   1      39.427  21.031  26.001  1.00  0.00     0.338 C 
ATOM     25  O   UNL A   1      39.973  19.975  26.270  1.00  0.00    -0.246 OA
BRANCH  24  26
ATOM     26  C   UNL A   1      39.823  22.307  26.625  1.00  0.00     0.060 A 
ATOM     27  C   UNL A   1      39.192  23.471  26.168  1.00  0.00     0.016 A 
ATOM     28  C   UNL A   1      40.859  22.381  27.558  1.00  0.00     0.016 A 
ATOM     29  C   UNL A   1      39.631  24.719  26.604  1.00  0.00     0.010 A 
ATOM     30  C   UNL A   1      41.304  23.636  27.989  1.00  0.00     0.010 A 
ATOM     31  C   UNL A   1      40.715  24.812  27.487  1.00  0.00    -0.014 A 
BRANCH  31  32
ATOM     32  C   UNL A   1      41.318  26.139  27.765  1.00  0.00     0.031 A 
ATOM     33  C   UNL A   1      42.706  26.432  27.260  1.00  0.00     0.074 A 
ATOM     34  C   UNL A   1      40.625  27.083  28.426  1.00  0.00     0.049 A 
ATOM     35  N   UNL A   1      43.435  27.507  27.407  1.00  0.00    -0.248 NA
ATOM     36  C   UNL A   1      43.357  25.363  26.489  1.00  0.00     0.031 C 
ATOM     37  C   UNL A   1      39.258  26.930  28.923  1.00  0.00     0.029 A 
ATOM     38  N   UNL A   1      40.978  28.355  28.797  1.00  0.00    -0.354 N 
ATOM     39  C   UNL A   1      44.632  27.247  26.749  1.00  0.00     0.074 A 
ATOM     40  C   UNL A   1      44.543  25.896  26.238  1.00  0.00     0.031 C 
ATOM     41  C   UNL A   1      38.890  28.065  29.540  1.00  0.00     0.029 A 
ATOM     42  C   UNL A   1      40.006  29.010  29.516  1.00  0.00     0.049 A 
ATOM     43  H   UNL A   1      41.845  28.762  28.568  1.00  0.00     0.167 HD
ATOM     44  C   UNL A   1      45.702  28.064  26.578  1.00  0.00     0.034 A 
ATOM     45  C   UNL A   1      40.025  30.221  30.107  1.00  0.00     0.034 A 
ATOM     46  C   UNL A   1      45.781  29.404  27.108  1.00  0.00     0.049 A 
ATOM     47  C   UNL A   1      41.261  31.078  29.984  1.00  0.00     0.074 A 
ATOM     48  C   UNL A   1      46.810  30.322  26.985  1.00  0.00     0.029 A 
ATOM     49  N   UNL A   1      44.799  30.015  27.878  1.00  0.00    -0.354 N 
ATOM     50  N   UNL A   1      42.384  30.824  29.353  1.00  0.00    -0.248 NA
ATOM     51  C   UNL A   1      41.228  32.387  30.649  1.00  0.00     0.031 C 
ATOM     52  C   UNL A   1      46.481  31.455  27.737  1.00  0.00     0.029 A 
ATOM     53  C   UNL A   1      45.212  31.280  28.267  1.00  0.00     0.049 A 
ATOM     54  H   UNL A   1      43.934  29.607  28.115  1.00  0.00     0.167 HD
ATOM     55  C   UNL A   1      43.178  31.958  29.519  1.00  0.00     0.074 A 
ATOM     56  C   UNL A   1      42.400  32.896  30.301  1.00  0.00     0.031 C 
ATOM     57  C   UNL A   1      44.433  32.202  29.061  1.00  0.00     0.034 A 
BRANCH  44  58
ATOM     58  C   UNL A   1      46.888  27.501  25.833  1.00  0.00     0.023 A 
ATOM     59  C   UNL A   1      47.199  27.901  24.521  1.00  0.00     0.031 A 
ATOM     60  C   UNL A   1      47.699  26.517  26.429  1.00  0.00     0.131 A 
ATOM     61  C   UNL A   1      48.239  27.268  23.822  1.00  0.00     0.055 A 
ATOM     62  C   UNL A   1      48.783  25.949  25.756  1.00  0.00     0.041 A 
ATOM     63  F   UNL A   1      47.440  26.078  27.670  1.00  0.00    -0.206 F 
ATOM     64  C   UNL A   1      49.050  26.312  24.439  1.00  0.00     0.022 A 
BRANCH  61  65
ATOM     65  S   UNL A   1      48.424  27.603  22.048  1.00  0.00     0.124 S 
ATOM     66  O   UNL A   1      48.669  26.263  21.520  1.00  0.00    -0.237 OA
ATOM     67  O   UNL A   1      47.139  28.201  21.705  1.00  0.00    -0.237 OA
ATOM     68  O   UNL A   1      49.570  28.507  21.988  1.00  0.00    -0.744 OA
ENDBRANCH  61  65
ENDBRANCH  44  58
BRANCH  45  69
ATOM     69  C   UNL A   1      38.855  30.685  30.906  1.00  0.00     0.023 A 
ATOM     70  C   UNL A   1      37.864  31.502  30.339  1.00  0.00     0.031 A 
ATOM     71  C   UNL A   1      38.738  30.353  32.267  1.00  0.00     0.131 A 
ATOM     72  C   UNL A   1      36.820  31.990  31.139  1.00  0.00     0.055 A 
ATOM     73  C   UNL A   1      37.671  30.802  33.048  1.00  0.00     0.041 A 
ATOM     74  F   UNL A   1      39.659  29.575  32.858  1.00  0.00    -0.206 F 
ATOM     75  C   UNL A   1      36.709  31.636  32.486  1.00  0.00     0.022 A 
BRANCH  72  76
ATOM     76  S   UNL A   1      35.640  33.160  30.410  1.00  0.00     0.124 S 
ATOM     77  O   UNL A   1      36.329  33.553  29.186  1.00  0.00    -0.237 OA
ATOM     78  O   UNL A   1      34.455  32.328  30.240  1.00  0.00    -0.237 OA
ATOM     79  O   UNL A   1      35.526  34.205  31.426  1.00  0.00    -0.744 OA
ENDBRANCH  72  76
ENDBRANCH  45  69
BRANCH  57  80
ATOM     80  C   UNL A   1      45.021  33.561  29.360  1.00  0.00     0.023 A 
ATOM     81  C   UNL A   1      44.718  34.689  28.577  1.00  0.00     0.031 A 
ATOM     82  C   UNL A   1      45.907  33.725  30.439  1.00  0.00     0.131 A 
ATOM     83  C   UNL A   1      45.337  35.919  28.852  1.00  0.00     0.055 A 
ATOM     84  C   UNL A   1      46.474  34.963  30.745  1.00  0.00     0.041 A 
ATOM     85  F   UNL A   1      46.233  32.682  31.220  1.00  0.00    -0.206 F 
ATOM     86  C   UNL A   1      46.200  36.065  29.941  1.00  0.00     0.022 A 
BRANCH  83  87
ATOM     87  S   UNL A   1      45.071  37.305  27.713  1.00  0.00     0.124 S 
ATOM     88  O   UNL A   1      44.311  38.237  28.539  1.00  0.00    -0.237 OA
ATOM     89  O   UNL A   1      46.436  37.707  27.388  1.00  0.00    -0.237 OA
ATOM     90  O   UNL A   1      44.325  36.704  26.609  1.00  0.00    -0.744 OA
ENDBRANCH  83  87
ENDBRANCH  57  80
ENDBRANCH  31  32
ENDBRANCH  24  26
ENDBRANCH  23  24
ENDBRANCH  22  23
ENDBRANCH  21  22
ENDBRANCH   1  21
TORSDOF 20
ENDMDL
MODEL 2
REMARK VINA RESULT:     -10.5      1.621      1.976
REMARK SMILES CC[C@@H](C)C(=O)Nc1cccc(C(=O)OCCOCCOC(=O)c2ccc(-c3c4nc(c(-c5cc(S(=O)(=O)[O-])ccc5F)c5ccc([nH]5)c(-c5cc(S(=O)(=O)[O-])ccc5F)c5nc(c(-c6cc(S(=O)(=O)[O-])ccc6F)c6ccc3[nH]6)C=C5)C=C4)cc2)c1
REMARK SMILES IDX 18 1 17 2 16 3 15 4 13 5 14 6 12 7 8 8 9 9 87 10 10 11 11 12
REMARK SMILES IDX 7 13 5 14 6 15 3 17 4 18 2 19 1 20 19 21 20 22 21 23 22 24
REMARK SMILES IDX 23 25 24 26 25 27 86 28 26 29 85 30 27 31 28 32 29 33 79 34
REMARK SMILES IDX 30 35 84 36 78 37 80 38 31 39 83 40 77 41 76 42 32 44 64 45
REMARK SMILES IDX 44 46 63 47 45 48 48 49 62 50 81 51 46 52 47 53 61 55 82 56
REMARK SMILES IDX 49 57 33 58 34 59 42 60 35 61 41 62 43 63 40 64 36 65 37 66
REMARK SMILES IDX 38 67 39 68 65 69 66 70 74 71 67 72 73 73 75 74 72 75 68 76
REMARK SMILES IDX 69 77 70 78 71 79 50 80 51 81 59 82 52 83 58 84 60 85 57 86
REMARK SMILES IDX 53 87 54 88 55 89 56 90
REMARK H PARENT 7 16 80 43 48 54
REMARK Flexibility Score: inf
ROOT
ATOM      1  O   UNL A   1      37.312  21.325  25.394  1.00  0.00    -0.374 OA
ENDROOT
BRANCH   1   2
ATOM      2  C   UNL A   1      36.954  22.302  24.416  1.00  0.00     0.202 C 
BRANCH   2   3
ATOM      3  C   UNL A   1      36.264  23.573  24.924  1.00  0.00     0.261 C 
BRANCH   3   4
ATOM      4  O   UNL A   1      34.836  23.425  24.954  1.00  0.00    -0.460 OA
BRANCH   4   5
ATOM      5  C   UNL A   1      34.181  23.705  23.799  1.00  0.00     0.338 C 
ATOM      6  O   UNL A   1      34.591  23.524  22.665  1.00  0.00    -0.246 OA
BRANCH   5   7
ATOM      7  C   UNL A   1      32.821  24.231  24.088  1.00  0.00     0.062 A 
ATOM      8  C   UNL A   1      31.330  25.503  25.498  1.00  0.00     0.042 A 
ATOM      9  C   UNL A   1      30.345  25.449  24.512  1.00  0.00     0.026 A 
ATOM     10  C   UNL A   1      32.493  24.768  25.332  1.00  0.00     0.041 A 
ATOM     11  C   UNL A   1      30.611  24.808  23.298  1.00  0.00     0.003 A 
ATOM     12  C   UNL A   1      31.867  24.245  23.068  1.00  0.00     0.016 A 
BRANCH   8  13
ATOM     13  N   UNL A   1      31.127  26.307  26.624  1.00  0.00    -0.326 N 
ATOM     14  C   UNL A   1      31.713  27.488  27.001  1.00  0.00     0.227 C 
ATOM     15  O   UNL A   1      31.434  27.898  28.135  1.00  0.00    -0.274 OA
ATOM     16  H   UNL A   1      30.449  25.967  27.252  1.00  0.00     0.169 HD
BRANCH  14  17
ATOM     17  C   UNL A   1      32.565  28.378  26.066  1.00  0.00     0.075 C 
ATOM     18  C   UNL A   1      33.947  28.703  26.633  1.00  0.00     0.018 C 
BRANCH  17  19
ATOM     19  C   UNL A   1      31.823  29.573  25.445  1.00  0.00     0.010 C 
ATOM     20  C   UNL A   1      30.954  29.224  24.245  1.00  0.00     0.005 C 
ENDBRANCH  17  19
ENDBRANCH  14  17
ENDBRANCH   8  13
ENDBRANCH   5   7
ENDBRANCH   4   5
ENDBRANCH   3   4
ENDBRANCH   2   3
ENDBRANCH   1   2
BRANCH   1  21
ATOM     21  C   UNL A   1      37.541  19.990  24.954  1.00  0.00     0.202 C 
BRANCH  21  22
ATOM     22  C   UNL A   1      38.846  19.300  25.369  1.00  0.00     0.261 C 
BRANCH  22  23
ATOM     23  O   UNL A   1      39.410  19.807  26.588  1.00  0.00    -0.460 OA
BRANCH  23  24
ATOM     24  C   UNL A   1      40.696  20.224  26.465  1.00  0.00     0.338 C 
ATOM     25  O   UNL A   1      41.605  19.632  25.908  1.00  0.00    -0.246 OA
BRANCH  24  26
ATOM     26  C   UNL A   1      40.844  21.601  26.972  1.00  0.00     0.060 A 
ATOM     27  C   UNL A   1      40.275  22.631  26.212  1.00  0.00     0.016 A 
ATOM     28  C   UNL A   1      41.607  21.892  28.104  1.00  0.00     0.016 A 
ATOM     29  C   UNL A   1      40.512  23.961  26.553  1.00  0.00     0.010 A 
ATOM     30  C   UNL A   1      41.850  23.229  28.440  1.00  0.00     0.010 A 
ATOM     31  C   UNL A   1      41.333  24.269  27.646  1.00  0.00    -0.014 A 
BRANCH  31  32
ATOM     32  C   UNL A   1      41.764  25.673  27.862  1.00  0.00     0.031 A 
ATOM     33  C   UNL A   1      43.104  26.115  27.340  1.00  0.00     0.074 A 
ATOM     34  C   UNL A   1      40.956  26.550  28.483  1.00  0.00     0.049 A 
ATOM     35  N   UNL A   1      43.692  27.279  27.436  1.00  0.00    -0.248 NA
ATOM     36  C   UNL A   1      43.887  25.103  26.615  1.00  0.00     0.031 C 
ATOM     37  C   UNL A   1      39.618  26.248  28.991  1.00  0.00     0.029 A 
ATOM     38  N   UNL A   1      41.145  27.872  28.796  1.00  0.00    -0.354 N 
ATOM     39  C   UNL A   1      44.914  27.143  26.786  1.00  0.00     0.074 A 
ATOM     40  C   UNL A   1      44.996  25.770  26.336  1.00  0.00     0.031 C 
ATOM     41  C   UNL A   1      39.109  27.354  29.559  1.00  0.00     0.029 A 
ATOM     42  C   UNL A   1      40.097  28.430  29.489  1.00  0.00     0.049 A 
ATOM     43  H   UNL A   1      41.954  28.374  28.546  1.00  0.00     0.167 HD
ATOM     44  C   UNL A   1      45.872  28.080  26.575  1.00  0.00     0.034 A 
ATOM     45  C   UNL A   1      39.962  29.658  30.026  1.00  0.00     0.034 A 
ATOM     46  C   UNL A   1      45.781  29.441  27.045  1.00  0.00     0.049 A 
ATOM     47  C   UNL A   1      41.080  30.659  29.860  1.00  0.00     0.074 A 
ATOM     48  C   UNL A   1      46.686  30.476  26.877  1.00  0.00     0.029 A 
ATOM     49  N   UNL A   1      44.728  29.957  27.791  1.00  0.00    -0.354 N 
ATOM     50  N   UNL A   1      42.228  30.521  29.236  1.00  0.00    -0.248 NA
ATOM     51  C   UNL A   1      40.881  31.981  30.466  1.00  0.00     0.031 C 
ATOM     52  C   UNL A   1      46.215  31.591  27.580  1.00  0.00     0.029 A 
ATOM     53  C   UNL A   1      44.978  31.281  28.121  1.00  0.00     0.049 A 
ATOM     54  H   UNL A   1      43.921  29.455  28.048  1.00  0.00     0.167 HD
ATOM     55  C   UNL A   1      42.872  31.751  29.349  1.00  0.00     0.074 A 
ATOM     56  C   UNL A   1      41.980  32.618  30.092  1.00  0.00     0.031 C 
ATOM     57  C   UNL A   1      44.087  32.131  28.877  1.00  0.00     0.034 A 
BRANCH  44  58
ATOM     58  C   UNL A   1      47.122  27.638  25.851  1.00  0.00     0.023 A 
ATOM     59  C   UNL A   1      47.329  27.920  24.489  1.00  0.00     0.031 A 
ATOM     60  C   UNL A   1      48.103  26.887  26.523  1.00  0.00     0.131 A 
ATOM     61  C   UNL A   1      48.448  27.391  23.826  1.00  0.00     0.055 A 
ATOM     62  C   UNL A   1      49.255  26.433  25.876  1.00  0.00     0.041 A 
ATOM     63  F   UNL A   1      47.952  26.567  27.817  1.00  0.00    -0.206 F 
ATOM     64  C   UNL A   1      49.425  26.670  24.516  1.00  0.00     0.022 A 
BRANCH  61  65
ATOM     65  S   UNL A   1      48.533  27.531  22.018  1.00  0.00     0.124 S 
ATOM     66  O   UNL A   1      49.686  28.412  21.845  1.00  0.00    -0.237 OA
ATOM     67  O   UNL A   1      48.720  26.145  21.604  1.00  0.00    -0.237 OA
ATOM     68  O   UNL A   1      47.246  28.124  21.659  1.00  0.00    -0.744 OA
ENDBRANCH  61  65
ENDBRANCH  44  58
BRANCH  45  69
ATOM     69  C   UNL A   1      38.741  30.007  30.807  1.00  0.00     0.023 A 
ATOM     70  C   UNL A   1      37.715  30.783  30.247  1.00  0.00     0.031 A 
ATOM     71  C   UNL A   1      38.607  29.603  32.148  1.00  0.00     0.131 A 
ATOM     72  C   UNL A   1      36.618  31.164  31.036  1.00  0.00     0.055 A 
ATOM     73  C   UNL A   1      37.491  29.943  32.914  1.00  0.00     0.041 A 
ATOM     74  F   UNL A   1      39.560  28.859  32.731  1.00  0.00    -0.206 F 
ATOM     75  C   UNL A   1      36.492  30.739  32.360  1.00  0.00     0.022 A 
BRANCH  72  76
ATOM     76  S   UNL A   1      35.384  32.288  30.324  1.00  0.00     0.124 S 
ATOM     77  O   UNL A   1      34.933  31.535  29.159  1.00  0.00    -0.237 OA
ATOM     78  O   UNL A   1      34.425  32.416  31.416  1.00  0.00    -0.237 OA
ATOM     79  O   UNL A   1      36.154  33.495  30.029  1.00  0.00    -0.744 OA
ENDBRANCH  72  76
ENDBRANCH  45  69
BRANCH  57  80
ATOM     80  C   UNL A   1      44.498  33.566  29.112  1.00  0.00     0.023 A 
ATOM     81  C   UNL A   1      45.189  33.959  30.271  1.00  0.00     0.031 A 
ATOM     82  C   UNL A   1      44.180  34.555  28.165  1.00  0.00     0.131 A 
ATOM     83  C   UNL A   1      45.494  35.314  30.479  1.00  0.00     0.055 A 
ATOM     84  C   UNL A   1      44.538  35.891  28.348  1.00  0.00     0.041 A 
ATOM     85  F   UNL A   1      43.519  34.238  27.040  1.00  0.00    -0.206 F 
ATOM     86  C   UNL A   1      45.187  36.279  29.517  1.00  0.00     0.022 A 
BRANCH  83  87
ATOM     87  S   UNL A   1      46.218  35.813  32.065  1.00  0.00     0.124 S 
ATOM     88  O   UNL A   1      47.515  35.146  32.032  1.00  0.00    -0.237 OA
ATOM     89  O   UNL A   1      46.246  37.268  31.951  1.00  0.00    -0.237 OA
ATOM     90  O   UNL A   1      45.276  35.289  33.052  1.00  0.00    -0.744 OA
ENDBRANCH  83  87
ENDBRANCH  57  80
ENDBRANCH  31  32
ENDBRANCH  24  26
ENDBRANCH  23  24
ENDBRANCH  22  23
ENDBRANCH  21  22
ENDBRANCH   1  21
TORSDOF 20
ENDMDL
MODEL 3
REMARK VINA RESULT:     -10.4      1.632      1.997
REMARK SMILES CC[C@@H](C)C(=O)Nc1cccc(C(=O)OCCOCCOC(=O)c2ccc(-c3c4nc(c(-c5cc(S(=O)(=O)[O-])ccc5F)c5ccc([nH]5)c(-c5cc(S(=O)(=O)[O-])ccc5F)c5nc(c(-c6cc(S(=O)(=O)[O-])ccc6F)c6ccc3[nH]6)C=C5)C=C4)cc2)c1
REMARK SMILES IDX 18 1 17 2 16 3 15 4 13 5 14 6 12 7 8 8 9 9 87 10 10 11 11 12
REMARK SMILES IDX 7 13 5 14 6 15 3 17 4 18 2 19 1 20 19 21 20 22 21 23 22 24
REMARK SMILES IDX 23 25 24 26 25 27 86 28 26 29 85 30 27 31 28 32 29 33 79 34
REMARK SMILES IDX 30 35 84 36 78 37 80 38 31 39 83 40 77 41 76 42 32 44 64 45
REMARK SMILES IDX 44 46 63 47 45 48 48 49 62 50 81 51 46 52 47 53 61 55 82 56
REMARK SMILES IDX 49 57 33 58 34 59 42 60 35 61 41 62 43 63 40 64 36 65 37 66
REMARK SMILES IDX 38 67 39 68 65 69 66 70 74 71 67 72 73 73 75 74 72 75 68 76
REMARK SMILES IDX 69 77 70 78 71 79 50 80 51 81 59 82 52 83 58 84 60 85 57 86
REMARK SMILES IDX 53 87 54 88 55 89 56 90
REMARK H PARENT 7 16 80 43 48 54
REMARK Flexibility Score: inf
ROOT
ATOM      1  O   UNL A   1      37.232  21.711  24.881  1.00  0.00    -0.374 OA
ENDROOT
BRANCH   1   2
ATOM      2  C   UNL A   1      36.682  22.548  23.864  1.00  0.00     0.202 C 
BRANCH   2   3
ATOM      3  C   UNL A   1      35.305  23.161  24.138  1.00  0.00     0.261 C 
BRANCH   3   4
ATOM      4  O   UNL A   1      34.674  22.561  25.280  1.00  0.00    -0.460 OA
BRANCH   4   5
ATOM      5  C   UNL A   1      33.519  21.890  25.041  1.00  0.00     0.338 C 
ATOM      6  O   UNL A   1      33.366  20.681  25.035  1.00  0.00    -0.246 OA
BRANCH   5   7
ATOM      7  C   UNL A   1      32.398  22.844  24.833  1.00  0.00     0.062 A 
ATOM      8  C   UNL A   1      31.116  24.754  25.568  1.00  0.00     0.042 A 
ATOM      9  C   UNL A   1      30.473  24.804  24.332  1.00  0.00     0.026 A 
ATOM     10  C   UNL A   1      31.955  23.687  25.851  1.00  0.00     0.041 A 
ATOM     11  C   UNL A   1      30.816  23.887  23.333  1.00  0.00     0.003 A 
ATOM     12  C   UNL A   1      31.816  22.942  23.567  1.00  0.00     0.016 A 
BRANCH   8  13
ATOM     13  N   UNL A   1      30.910  25.785  26.489  1.00  0.00    -0.326 N 
ATOM     14  C   UNL A   1      31.558  26.981  26.657  1.00  0.00     0.227 C 
ATOM     15  O   UNL A   1      31.247  27.636  27.660  1.00  0.00    -0.274 OA
ATOM     16  H   UNL A   1      30.174  25.626  27.123  1.00  0.00     0.169 HD
BRANCH  14  17
ATOM     17  C   UNL A   1      32.525  27.604  25.622  1.00  0.00     0.075 C 
ATOM     18  C   UNL A   1      33.981  27.622  26.089  1.00  0.00     0.018 C 
BRANCH  17  19
ATOM     19  C   UNL A   1      32.038  28.909  24.973  1.00  0.00     0.010 C 
ATOM     20  C   UNL A   1      30.729  28.783  24.205  1.00  0.00     0.005 C 
ENDBRANCH  17  19
ENDBRANCH  14  17
ENDBRANCH   8  13
ENDBRANCH   5   7
ENDBRANCH   4   5
ENDBRANCH   3   4
ENDBRANCH   2   3
ENDBRANCH   1   2
BRANCH   1  21
ATOM     21  C   UNL A   1      37.189  20.301  24.685  1.00  0.00     0.202 C 
BRANCH  21  22
ATOM     22  C   UNL A   1      38.412  19.471  25.092  1.00  0.00     0.261 C 
BRANCH  22  23
ATOM     23  O   UNL A   1      38.950  19.819  26.377  1.00  0.00    -0.460 OA
BRANCH  23  24
ATOM     24  C   UNL A   1      40.274  20.116  26.355  1.00  0.00     0.338 C 
ATOM     25  O   UNL A   1      41.164  19.449  25.856  1.00  0.00    -0.246 OA
BRANCH  24  26
ATOM     26  C   UNL A   1      40.509  21.469  26.894  1.00  0.00     0.060 A 
ATOM     27  C   UNL A   1      39.914  22.543  26.220  1.00  0.00     0.016 A 
ATOM     28  C   UNL A   1      41.374  21.695  27.967  1.00  0.00     0.016 A 
ATOM     29  C   UNL A   1      40.223  23.851  26.585  1.00  0.00     0.010 A 
ATOM     30  C   UNL A   1      41.688  23.010  28.326  1.00  0.00     0.010 A 
ATOM     31  C   UNL A   1      41.141  24.094  27.614  1.00  0.00    -0.014 A 
BRANCH  31  32
ATOM     32  C   UNL A   1      41.635  25.475  27.841  1.00  0.00     0.031 A 
ATOM     33  C   UNL A   1      43.003  25.854  27.341  1.00  0.00     0.074 A 
ATOM     34  C   UNL A   1      40.860  26.388  28.452  1.00  0.00     0.049 A 
ATOM     35  N   UNL A   1      43.644  26.989  27.449  1.00  0.00    -0.248 NA
ATOM     36  C   UNL A   1      43.747  24.808  26.624  1.00  0.00     0.031 C 
ATOM     37  C   UNL A   1      39.502  26.150  28.939  1.00  0.00     0.029 A 
ATOM     38  N   UNL A   1      41.107  27.699  28.771  1.00  0.00    -0.354 N 
ATOM     39  C   UNL A   1      44.867  26.797  26.817  1.00  0.00     0.074 A 
ATOM     40  C   UNL A   1      44.891  25.422  26.364  1.00  0.00     0.031 C 
ATOM     41  C   UNL A   1      39.037  27.278  29.502  1.00  0.00     0.029 A 
ATOM     42  C   UNL A   1      40.076  28.305  29.450  1.00  0.00     0.049 A 
ATOM     43  H   UNL A   1      41.943  28.163  28.535  1.00  0.00     0.167 HD
ATOM     44  C   UNL A   1      45.872  27.687  26.623  1.00  0.00     0.034 A 
ATOM     45  C   UNL A   1      39.991  29.538  29.988  1.00  0.00     0.034 A 
ATOM     46  C   UNL A   1      45.838  29.050  27.095  1.00  0.00     0.049 A 
ATOM     47  C   UNL A   1      41.159  30.484  29.842  1.00  0.00     0.074 A 
ATOM     48  C   UNL A   1      46.794  30.041  26.945  1.00  0.00     0.029 A 
ATOM     49  N   UNL A   1      44.800  29.614  27.827  1.00  0.00    -0.354 N 
ATOM     50  N   UNL A   1      42.308  30.293  29.236  1.00  0.00    -0.248 NA
ATOM     51  C   UNL A   1      41.013  31.814  30.449  1.00  0.00     0.031 C 
ATOM     52  C   UNL A   1      46.366  31.175  27.643  1.00  0.00     0.029 A 
ATOM     53  C   UNL A   1      45.108  30.924  28.165  1.00  0.00     0.049 A 
ATOM     54  H   UNL A   1      43.966  29.150  28.070  1.00  0.00     0.167 HD
ATOM     55  C   UNL A   1      43.008  31.491  29.362  1.00  0.00     0.074 A 
ATOM     56  C   UNL A   1      42.147  32.398  30.094  1.00  0.00     0.031 C 
ATOM     57  C   UNL A   1      44.247  31.814  28.909  1.00  0.00     0.034 A 
BRANCH  44  58
ATOM     58  C   UNL A   1      47.110  27.188  25.917  1.00  0.00     0.023 A 
ATOM     59  C   UNL A   1      48.124  26.491  26.600  1.00  0.00     0.031 A 
ATOM     60  C   UNL A   1      47.299  27.446  24.547  1.00  0.00     0.131 A 
ATOM     61  C   UNL A   1      49.310  26.147  25.932  1.00  0.00     0.055 A 
ATOM     62  C   UNL A   1      48.447  27.029  23.870  1.00  0.00     0.041 A 
ATOM     63  F   UNL A   1      46.378  28.125  23.846  1.00  0.00    -0.206 F 
ATOM     64  C   UNL A   1      49.469  26.389  24.565  1.00  0.00     0.022 A 
BRANCH  61  65
ATOM     65  S   UNL A   1      50.703  25.514  26.907  1.00  0.00     0.124 S 
ATOM     66  O   UNL A   1      50.084  24.394  27.612  1.00  0.00    -0.237 OA
ATOM     67  O   UNL A   1      51.674  25.162  25.878  1.00  0.00    -0.237 OA
ATOM     68  O   UNL A   1      51.071  26.646  27.754  1.00  0.00    -0.744 OA
ENDBRANCH  61  65
ENDBRANCH  44  58
BRANCH  45  69
ATOM     69  C   UNL A   1      38.777  29.943  30.752  1.00  0.00     0.023 A 
ATOM     70  C   UNL A   1      37.773  30.725  30.162  1.00  0.00     0.031 A 
ATOM     71  C   UNL A   1      38.628  29.587  32.105  1.00  0.00     0.131 A 
ATOM     72  C   UNL A   1      36.682  31.159  30.932  1.00  0.00     0.055 A 
ATOM     73  C   UNL A   1      37.517  29.980  32.854  1.00  0.00     0.041 A 
ATOM     74  F   UNL A   1      39.560  28.840  32.717  1.00  0.00    -0.206 F 
ATOM     75  C   UNL A   1      36.541  30.781  32.270  1.00  0.00     0.022 A 
BRANCH  72  76
ATOM     76  S   UNL A   1      35.480  32.289  30.178  1.00  0.00     0.124 S 
ATOM     77  O   UNL A   1      35.068  31.538  28.997  1.00  0.00    -0.237 OA
ATOM     78  O   UNL A   1      34.483  32.420  31.235  1.00  0.00    -0.237 OA
ATOM     79  O   UNL A   1      36.265  33.492  29.911  1.00  0.00    -0.744 OA
ENDBRANCH  72  76
ENDBRANCH  45  69
BRANCH  57  80
ATOM     80  C   UNL A   1      44.722  33.226  29.155  1.00  0.00     0.023 A 
ATOM     81  C   UNL A   1      44.211  34.318  28.430  1.00  0.00     0.031 A 
ATOM     82  C   UNL A   1      45.709  33.480  30.123  1.00  0.00     0.131 A 
ATOM     83  C   UNL A   1      44.729  35.605  28.647  1.00  0.00     0.055 A 
ATOM     84  C   UNL A   1      46.178  34.770  30.377  1.00  0.00     0.041 A 
ATOM     85  F   UNL A   1      46.234  32.476  30.844  1.00  0.00    -0.206 F 
ATOM     86  C   UNL A   1      45.697  35.839  29.627  1.00  0.00     0.022 A 
BRANCH  83  87
ATOM     87  S   UNL A   1      44.185  36.958  27.569  1.00  0.00     0.124 S 
ATOM     88  O   UNL A   1      45.453  37.467  27.055  1.00  0.00    -0.237 OA
ATOM     89  O   UNL A   1      43.338  36.266  26.603  1.00  0.00    -0.237 OA
ATOM     90  O   UNL A   1      43.478  37.859  28.477  1.00  0.00    -0.744 OA
ENDBRANCH  83  87
ENDBRANCH  57  80
ENDBRANCH  31  32
ENDBRANCH  24  26
ENDBRANCH  23  24
ENDBRANCH  22  23
ENDBRANCH  21  22
ENDBRANCH   1  21
TORSDOF 20
ENDMDL
