MODEL 1
REMARK VINA RESULT:      -8.6      0.000      0.000
REMARK SMILES O=C(OCCOCCOC(=O)c1cc(Cl)c2c(c1)[C@H]1C=CC[C@H]1[C@H](c1ccc(S(=O)(=O)N3CCOCC3)cc1)N2)c1ccc(-c2c3nc(c(-c4cc(S(=O)(=O)[O-])ccc4F)c4ccc([nH]4)c(-c4cc(S(=O)(=O)[O-])ccc4F)c4nc(c(-c5cc(S(=O)(=O)[O-])ccc5F)c5ccc2[nH]5)C=C4)C=C3)cc1
REMARK SMILES IDX 6 1 5 2 4 3 3 4 2 5 1 6 41 7 42 8 103 9 43 10 102 11 44 12
REMARK SMILES IDX 45 13 46 14 96 15 47 16 101 17 95 18 97 19 48 20 100 21
REMARK SMILES IDX 94 22 93 23 49 25 81 26 61 27 80 28 62 29 65 30 79 31 98 32
REMARK SMILES IDX 63 33 64 34 78 36 99 37 66 38 50 39 51 40 59 41 52 42 58 43
REMARK SMILES IDX 60 44 57 45 53 46 54 47 55 48 56 49 82 50 83 51 91 52 84 53
REMARK SMILES IDX 90 54 92 55 89 56 85 57 86 58 87 59 88 60 67 61 68 62 76 63
REMARK SMILES IDX 69 64 75 65 77 66 74 67 70 68 71 69 72 70 73 71 7 72 8 73
REMARK SMILES IDX 9 74 10 75 11 76 12 77 13 78 18 79 14 80 17 81 15 82 16 83
REMARK SMILES IDX 19 84 40 85 20 86 23 87 24 88 21 90 22 91 25 92 26 93 39 94
REMARK SMILES IDX 27 95 38 96 28 97 29 98 30 99 31 100 32 101 33 102 37 103
REMARK SMILES IDX 34 104 36 105 35 106
REMARK H PARENT 97 24 65 35 40 89
REMARK Flexibility Score: inf
ROOT
ATOM      1  O   UNL A   1      47.585  24.395  25.890  1.00  0.00    -0.374 OA
ENDROOT
BRANCH   1   2
ATOM      2  C   UNL A   1      48.632  25.352  25.770  1.00  0.00     0.202 C 
BRANCH   2   3
ATOM      3  C   UNL A   1      48.581  26.202  24.501  1.00  0.00     0.261 C 
BRANCH   3   4
ATOM      4  O   UNL A   1      48.102  27.525  24.767  1.00  0.00    -0.460 OA
BRANCH   4   5
ATOM      5  C   UNL A   1      48.457  28.377  25.757  1.00  0.00     0.338 C 
ATOM      6  O   UNL A   1      49.596  28.846  25.711  1.00  0.00    -0.246 OA
BRANCH   5   7
ATOM      7  C   UNL A   1      47.601  28.734  26.940  1.00  0.00     0.060 A 
ATOM      8  C   UNL A   1      46.205  28.743  26.980  1.00  0.00     0.016 A 
ATOM      9  C   UNL A   1      48.280  29.053  28.134  1.00  0.00     0.016 A 
ATOM     10  C   UNL A   1      45.506  28.994  28.152  1.00  0.00     0.010 A 
ATOM     11  C   UNL A   1      47.587  29.376  29.307  1.00  0.00     0.010 A 
ATOM     12  C   UNL A   1      46.193  29.357  29.303  1.00  0.00    -0.014 A 
BRANCH  12  13
ATOM     13  C   UNL A   1      45.384  29.921  30.390  1.00  0.00     0.031 A 
ATOM     14  C   UNL A   1      44.926  31.340  30.233  1.00  0.00     0.074 A 
ATOM     15  C   UNL A   1      44.935  29.136  31.381  1.00  0.00     0.049 A 
ATOM     16  N   UNL A   1      44.071  32.013  30.948  1.00  0.00    -0.248 NA
ATOM     17  C   UNL A   1      45.465  32.083  29.076  1.00  0.00     0.031 C 
ATOM     18  C   UNL A   1      45.235  27.713  31.527  1.00  0.00     0.029 A 
ATOM     19  N   UNL A   1      44.114  29.422  32.437  1.00  0.00    -0.354 N 
ATOM     20  C   UNL A   1      43.946  33.241  30.316  1.00  0.00     0.074 A 
ATOM     21  C   UNL A   1      44.811  33.231  29.161  1.00  0.00     0.031 C 
ATOM     22  C   UNL A   1      44.622  27.253  32.629  1.00  0.00     0.029 A 
ATOM     23  C   UNL A   1      43.910  28.354  33.277  1.00  0.00     0.049 A 
ATOM     24  H   UNL A   1      43.708  30.308  32.582  1.00  0.00     0.167 HD
ATOM     25  C   UNL A   1      43.180  34.290  30.684  1.00  0.00     0.034 A 
ATOM     26  C   UNL A   1      43.242  28.292  34.445  1.00  0.00     0.034 A 
ATOM     27  C   UNL A   1      42.397  34.302  31.886  1.00  0.00     0.049 A 
ATOM     28  C   UNL A   1      42.514  29.527  34.916  1.00  0.00     0.074 A 
ATOM     29  C   UNL A   1      41.645  35.337  32.404  1.00  0.00     0.029 A 
ATOM     30  N   UNL A   1      42.291  33.237  32.769  1.00  0.00    -0.354 N 
ATOM     31  N   UNL A   1      42.388  30.686  34.311  1.00  0.00    -0.248 NA
ATOM     32  C   UNL A   1      41.837  29.455  36.217  1.00  0.00     0.031 C 
ATOM     33  C   UNL A   1      41.143  34.923  33.638  1.00  0.00     0.029 A 
ATOM     34  C   UNL A   1      41.515  33.603  33.852  1.00  0.00     0.049 A 
ATOM     35  H   UNL A   1      42.706  32.353  32.644  1.00  0.00     0.167 HD
ATOM     36  C   UNL A   1      41.599  31.473  35.143  1.00  0.00     0.074 A 
ATOM     37  C   UNL A   1      41.265  30.652  36.289  1.00  0.00     0.031 C 
ATOM     38  C   UNL A   1      41.187  32.756  34.975  1.00  0.00     0.034 A 
BRANCH  25  39
ATOM     39  C   UNL A   1      43.213  35.523  29.832  1.00  0.00     0.023 A 
ATOM     40  C   UNL A   1      44.190  36.504  30.071  1.00  0.00     0.031 A 
ATOM     41  C   UNL A   1      42.247  35.761  28.838  1.00  0.00     0.131 A 
ATOM     42  C   UNL A   1      44.159  37.701  29.350  1.00  0.00     0.055 A 
ATOM     43  C   UNL A   1      42.240  36.946  28.101  1.00  0.00     0.041 A 
ATOM     44  F   UNL A   1      41.313  34.838  28.559  1.00  0.00    -0.206 F 
ATOM     45  C   UNL A   1      43.192  37.927  28.363  1.00  0.00     0.022 A 
BRANCH  42  46
ATOM     46  S   UNL A   1      45.362  39.014  29.683  1.00  0.00     0.124 S 
ATOM     47  O   UNL A   1      44.579  39.945  30.491  1.00  0.00    -0.237 OA
ATOM     48  O   UNL A   1      46.408  38.291  30.400  1.00  0.00    -0.237 OA
ATOM     49  O   UNL A   1      45.724  39.501  28.357  1.00  0.00    -0.744 OA
ENDBRANCH  42  46
ENDBRANCH  25  39
BRANCH  26  50
ATOM     50  C   UNL A   1      43.254  27.021  35.224  1.00  0.00     0.023 A 
ATOM     51  C   UNL A   1      44.372  26.680  36.008  1.00  0.00     0.031 A 
ATOM     52  C   UNL A   1      42.204  26.094  35.134  1.00  0.00     0.131 A 
ATOM     53  C   UNL A   1      44.443  25.422  36.619  1.00  0.00     0.055 A 
ATOM     54  C   UNL A   1      42.251  24.865  35.795  1.00  0.00     0.041 A 
ATOM     55  F   UNL A   1      41.119  26.370  34.394  1.00  0.00    -0.206 F 
ATOM     56  C   UNL A   1      43.382  24.518  36.531  1.00  0.00     0.022 A 
BRANCH  53  57
ATOM     57  S   UNL A   1      45.954  24.887  37.470  1.00  0.00     0.124 S 
ATOM     58  O   UNL A   1      46.555  26.160  37.858  1.00  0.00    -0.237 OA
ATOM     59  O   UNL A   1      45.409  24.087  38.564  1.00  0.00    -0.237 OA
ATOM     60  O   UNL A   1      46.678  24.137  36.449  1.00  0.00    -0.744 OA
ENDBRANCH  53  57
ENDBRANCH  26  50
BRANCH  38  61
ATOM     61  C   UNL A   1      40.317  33.377  36.035  1.00  0.00     0.023 A 
ATOM     62  C   UNL A   1      40.918  34.045  37.119  1.00  0.00     0.031 A 
ATOM     63  C   UNL A   1      38.934  33.141  36.074  1.00  0.00     0.131 A 
ATOM     64  C   UNL A   1      40.143  34.409  38.224  1.00  0.00     0.055 A 
ATOM     65  C   UNL A   1      38.156  33.551  37.157  1.00  0.00     0.041 A 
ATOM     66  F   UNL A   1      38.323  32.494  35.068  1.00  0.00    -0.206 F 
ATOM     67  C   UNL A   1      38.764  34.173  38.246  1.00  0.00     0.022 A 
BRANCH  64  68
ATOM     68  S   UNL A   1      40.910  35.114  39.707  1.00  0.00     0.124 S 
ATOM     69  O   UNL A   1      42.081  34.258  39.880  1.00  0.00    -0.237 OA
ATOM     70  O   UNL A   1      41.194  36.483  39.284  1.00  0.00    -0.237 OA
ATOM     71  O   UNL A   1      39.885  34.975  40.736  1.00  0.00    -0.744 OA
ENDBRANCH  64  68
ENDBRANCH  38  61
ENDBRANCH  12  13
ENDBRANCH   5   7
ENDBRANCH   4   5
ENDBRANCH   3   4
ENDBRANCH   2   3
ENDBRANCH   1   2
BRANCH   1  72
ATOM     72  C   UNL A   1      46.523  24.516  24.941  1.00  0.00     0.202 C 
BRANCH  72  73
ATOM     73  C   UNL A   1      46.188  23.161  24.311  1.00  0.00     0.261 C 
BRANCH  73  74
ATOM     74  O   UNL A   1      44.809  23.138  23.906  1.00  0.00    -0.460 OA
BRANCH  74  75
ATOM     75  C   UNL A   1      44.010  22.311  24.630  1.00  0.00     0.338 C 
ATOM     76  O   UNL A   1      44.096  21.112  24.773  1.00  0.00    -0.246 OA
BRANCH  75  77
ATOM     77  C   UNL A   1      43.102  23.164  25.421  1.00  0.00     0.062 A 
ATOM     78  C   UNL A   1      41.938  22.646  25.976  1.00  0.00     0.038 A 
ATOM     79  C   UNL A   1      43.407  24.525  25.544  1.00  0.00     0.022 A 
ATOM     80  C   UNL A   1      41.094  23.502  26.676  1.00  0.00     0.065 A 
ATOM     81  C   UNL A   1      42.519  25.402  26.184  1.00  0.00    -0.015 A 
ATOM     82  Cl  UNL A   1      39.673  22.827  27.402  1.00  0.00    -0.082 Cl
ATOM     83  C   UNL A   1      41.367  24.884  26.788  1.00  0.00     0.057 A 
ATOM     84  C   UNL A   1      42.831  26.873  26.231  1.00  0.00     0.049 C 
ATOM     85  N   UNL A   1      40.555  25.697  27.554  1.00  0.00    -0.376 N 
ATOM     86  C   UNL A   1      42.403  27.673  25.025  1.00  0.00    -0.023 C 
ATOM     87  C   UNL A   1      42.121  27.634  27.366  1.00  0.00     0.031 C 
ATOM     88  C   UNL A   1      40.667  27.140  27.557  1.00  0.00     0.114 C 
ATOM     89  H   UNL A   1      39.870  25.278  28.123  1.00  0.00     0.161 HD
ATOM     90  C   UNL A   1      42.039  28.913  25.379  1.00  0.00    -0.030 C 
ATOM     91  C   UNL A   1      42.138  29.094  26.864  1.00  0.00     0.034 C 
BRANCH  88  92
ATOM     92  C   UNL A   1      40.079  27.628  28.874  1.00  0.00    -0.025 A 
ATOM     93  C   UNL A   1      40.877  27.734  30.028  1.00  0.00     0.007 A 
ATOM     94  C   UNL A   1      38.717  27.942  28.956  1.00  0.00     0.007 A 
ATOM     95  C   UNL A   1      40.338  28.198  31.227  1.00  0.00     0.022 A 
ATOM     96  C   UNL A   1      38.167  28.368  30.163  1.00  0.00     0.022 A 
ATOM     97  C   UNL A   1      38.986  28.541  31.278  1.00  0.00     0.082 A 
BRANCH  97  98
ATOM     98  S   UNL A   1      38.316  29.267  32.755  1.00  0.00     0.243 S 
ATOM     99  O   UNL A   1      37.078  28.578  33.044  1.00  0.00    -0.207 OA
ATOM    100  O   UNL A   1      39.390  29.334  33.724  1.00  0.00    -0.207 OA
BRANCH  98 101
ATOM    101  N   UNL A   1      37.973  30.844  32.296  1.00  0.00    -0.193 NA
ATOM    102  C   UNL A   1      36.594  31.317  32.056  1.00  0.00     0.131 C 
ATOM    103  C   UNL A   1      39.034  31.730  31.773  1.00  0.00     0.131 C 
ATOM    104  C   UNL A   1      36.402  31.854  30.630  1.00  0.00     0.177 C 
ATOM    105  C   UNL A   1      38.727  32.130  30.328  1.00  0.00     0.177 C 
ATOM    106  O   UNL A   1      37.441  32.759  30.237  1.00  0.00    -0.379 OA
ENDBRANCH  98 101
ENDBRANCH  97  98
ENDBRANCH  88  92
ENDBRANCH  75  77
ENDBRANCH  74  75
ENDBRANCH  73  74
ENDBRANCH  72  73
ENDBRANCH   1  72
TORSDOF 20
ENDMDL
MODEL 2
REMARK VINA RESULT:      -8.6      5.117      9.258
REMARK SMILES O=C(OCCOCCOC(=O)c1cc(Cl)c2c(c1)[C@H]1C=CC[C@H]1[C@H](c1ccc(S(=O)(=O)N3CCOCC3)cc1)N2)c1ccc(-c2c3nc(c(-c4cc(S(=O)(=O)[O-])ccc4F)c4ccc([nH]4)c(-c4cc(S(=O)(=O)[O-])ccc4F)c4nc(c(-c5cc(S(=O)(=O)[O-])ccc5F)c5ccc2[nH]5)C=C4)C=C3)cc1
REMARK SMILES IDX 6 1 5 2 4 3 3 4 2 5 1 6 41 7 42 8 103 9 43 10 102 11 44 12
REMARK SMILES IDX 45 13 46 14 96 15 47 16 101 17 95 18 97 19 48 20 100 21
REMARK SMILES IDX 94 22 93 23 49 25 81 26 61 27 80 28 62 29 65 30 79 31 98 32
REMARK SMILES IDX 63 33 64 34 78 36 99 37 66 38 50 39 51 40 59 41 52 42 58 43
REMARK SMILES IDX 60 44 57 45 53 46 54 47 55 48 56 49 82 50 83 51 91 52 84 53
REMARK SMILES IDX 90 54 92 55 89 56 85 57 86 58 87 59 88 60 67 61 68 62 76 63
REMARK SMILES IDX 69 64 75 65 77 66 74 67 70 68 71 69 72 70 73 71 7 72 8 73
REMARK SMILES IDX 9 74 10 75 11 76 12 77 13 78 18 79 14 80 17 81 15 82 16 83
REMARK SMILES IDX 19 84 40 85 20 86 23 87 24 88 21 90 22 91 25 92 26 93 39 94
REMARK SMILES IDX 27 95 38 96 28 97 29 98 30 99 31 100 32 101 33 102 37 103
REMARK SMILES IDX 34 104 36 105 35 106
REMARK H PARENT 97 24 65 35 40 89
REMARK Flexibility Score: inf
ROOT
ATOM      1  O   UNL A   1      45.922  21.321  25.356  1.00  0.00    -0.374 OA
ENDROOT
BRANCH   1   2
ATOM      2  C   UNL A   1      46.437  22.154  24.321  1.00  0.00     0.202 C 
BRANCH   2   3
ATOM      3  C   UNL A   1      45.843  23.561  24.276  1.00  0.00     0.261 C 
BRANCH   3   4
ATOM      4  O   UNL A   1      46.838  24.548  23.982  1.00  0.00    -0.460 OA
BRANCH   4   5
ATOM      5  C   UNL A   1      47.109  25.705  24.628  1.00  0.00     0.338 C 
ATOM      6  O   UNL A   1      47.165  26.728  23.945  1.00  0.00    -0.246 OA
BRANCH   5   7
ATOM      7  C   UNL A   1      47.418  25.825  26.095  1.00  0.00     0.060 A 
ATOM      8  C   UNL A   1      47.779  26.992  26.773  1.00  0.00     0.016 A 
ATOM      9  C   UNL A   1      47.291  24.650  26.863  1.00  0.00     0.016 A 
ATOM     10  C   UNL A   1      47.950  27.019  28.149  1.00  0.00     0.010 A 
ATOM     11  C   UNL A   1      47.528  24.647  28.242  1.00  0.00     0.010 A 
ATOM     12  C   UNL A   1      47.872  25.838  28.878  1.00  0.00    -0.014 A 
BRANCH  12  13
ATOM     13  C   UNL A   1      48.384  25.892  30.253  1.00  0.00     0.031 A 
ATOM     14  C   UNL A   1      47.379  25.776  31.359  1.00  0.00     0.074 A 
ATOM     15  C   UNL A   1      49.705  25.865  30.488  1.00  0.00     0.049 A 
ATOM     16  N   UNL A   1      47.576  25.622  32.637  1.00  0.00    -0.248 NA
ATOM     17  C   UNL A   1      45.957  25.779  30.962  1.00  0.00     0.031 C 
ATOM     18  C   UNL A   1      50.741  25.846  29.457  1.00  0.00     0.029 A 
ATOM     19  N   UNL A   1      50.396  25.826  31.668  1.00  0.00    -0.354 N 
ATOM     20  C   UNL A   1      46.313  25.478  33.191  1.00  0.00     0.074 A 
ATOM     21  C   UNL A   1      45.351  25.566  32.120  1.00  0.00     0.031 C 
ATOM     22  C   UNL A   1      51.944  25.821  30.053  1.00  0.00     0.029 A 
ATOM     23  C   UNL A   1      51.760  25.849  31.504  1.00  0.00     0.049 A 
ATOM     24  H   UNL A   1      49.959  25.784  32.549  1.00  0.00     0.167 HD
ATOM     25  C   UNL A   1      45.992  25.302  34.491  1.00  0.00     0.034 A 
ATOM     26  C   UNL A   1      52.737  25.911  32.429  1.00  0.00     0.034 A 
ATOM     27  C   UNL A   1      46.966  25.306  35.544  1.00  0.00     0.049 A 
ATOM     28  C   UNL A   1      52.344  25.865  33.884  1.00  0.00     0.074 A 
ATOM     29  C   UNL A   1      46.751  25.218  36.905  1.00  0.00     0.029 A 
ATOM     30  N   UNL A   1      48.334  25.433  35.353  1.00  0.00    -0.354 N 
ATOM     31  N   UNL A   1      51.149  25.719  34.408  1.00  0.00    -0.248 NA
ATOM     32  C   UNL A   1      53.419  25.987  34.877  1.00  0.00     0.031 C 
ATOM     33  C   UNL A   1      47.984  25.364  37.541  1.00  0.00     0.029 A 
ATOM     34  C   UNL A   1      48.977  25.465  36.575  1.00  0.00     0.049 A 
ATOM     35  H   UNL A   1      48.781  25.492  34.477  1.00  0.00     0.167 HD
ATOM     36  C   UNL A   1      51.328  25.708  35.786  1.00  0.00     0.074 A 
ATOM     37  C   UNL A   1      52.752  25.848  36.016  1.00  0.00     0.031 C 
ATOM     38  C   UNL A   1      50.401  25.591  36.772  1.00  0.00     0.034 A 
BRANCH  25  39
ATOM     39  C   UNL A   1      44.542  25.172  34.849  1.00  0.00     0.023 A 
ATOM     40  C   UNL A   1      43.824  26.310  35.255  1.00  0.00     0.031 A 
ATOM     41  C   UNL A   1      43.891  23.926  34.857  1.00  0.00     0.131 A 
ATOM     42  C   UNL A   1      42.503  26.175  35.691  1.00  0.00     0.055 A 
ATOM     43  C   UNL A   1      42.562  23.802  35.265  1.00  0.00     0.041 A 
ATOM     44  F   UNL A   1      44.532  22.818  34.451  1.00  0.00    -0.206 F 
ATOM     45  C   UNL A   1      41.866  24.929  35.694  1.00  0.00     0.022 A 
BRANCH  42  46
ATOM     46  S   UNL A   1      41.573  27.611  36.286  1.00  0.00     0.124 S 
ATOM     47  O   UNL A   1      40.841  28.016  35.088  1.00  0.00    -0.237 OA
ATOM     48  O   UNL A   1      40.760  27.026  37.348  1.00  0.00    -0.237 OA
ATOM     49  O   UNL A   1      42.608  28.543  36.720  1.00  0.00    -0.744 OA
ENDBRANCH  42  46
ENDBRANCH  25  39
BRANCH  26  50
ATOM     50  C   UNL A   1      54.154  26.030  31.983  1.00  0.00     0.023 A 
ATOM     51  C   UNL A   1      54.684  27.285  31.629  1.00  0.00     0.031 A 
ATOM     52  C   UNL A   1      54.971  24.899  31.819  1.00  0.00     0.131 A 
ATOM     53  C   UNL A   1      55.966  27.374  31.072  1.00  0.00     0.055 A 
ATOM     54  C   UNL A   1      56.272  24.999  31.320  1.00  0.00     0.041 A 
ATOM     55  F   UNL A   1      54.509  23.681  32.137  1.00  0.00    -0.206 F 
ATOM     56  C   UNL A   1      56.770  26.240  30.930  1.00  0.00     0.022 A 
BRANCH  53  57
ATOM     57  S   UNL A   1      56.592  28.951  30.430  1.00  0.00     0.124 S 
ATOM     58  O   UNL A   1      55.559  29.890  30.861  1.00  0.00    -0.237 OA
ATOM     59  O   UNL A   1      57.874  29.063  31.122  1.00  0.00    -0.237 OA
ATOM     60  O   UNL A   1      56.678  28.729  28.990  1.00  0.00    -0.744 OA
ENDBRANCH  53  57
ENDBRANCH  26  50
BRANCH  38  61
ATOM     61  C   UNL A   1      50.870  25.595  38.204  1.00  0.00     0.023 A 
ATOM     62  C   UNL A   1      51.142  26.821  38.839  1.00  0.00     0.031 A 
ATOM     63  C   UNL A   1      51.226  24.405  38.858  1.00  0.00     0.131 A 
ATOM     64  C   UNL A   1      51.804  26.831  40.070  1.00  0.00     0.055 A 
ATOM     65  C   UNL A   1      51.841  24.420  40.110  1.00  0.00     0.041 A 
ATOM     66  F   UNL A   1      50.998  23.215  38.281  1.00  0.00    -0.206 F 
ATOM     67  C   UNL A   1      52.148  25.638  40.714  1.00  0.00     0.022 A 
BRANCH  64  68
ATOM     68  S   UNL A   1      52.323  28.391  40.835  1.00  0.00     0.124 S 
ATOM     69  O   UNL A   1      52.640  27.970  42.198  1.00  0.00    -0.237 OA
ATOM     70  O   UNL A   1      53.471  28.767  40.014  1.00  0.00    -0.237 OA
ATOM     71  O   UNL A   1      51.153  29.253  40.710  1.00  0.00    -0.744 OA
ENDBRANCH  64  68
ENDBRANCH  38  61
ENDBRANCH  12  13
ENDBRANCH   5   7
ENDBRANCH   4   5
ENDBRANCH   3   4
ENDBRANCH   2   3
ENDBRANCH   1   2
BRANCH   1  72
ATOM     72  C   UNL A   1      45.773  19.940  25.022  1.00  0.00     0.202 C 
BRANCH  72  73
ATOM     73  C   UNL A   1      44.305  19.590  24.761  1.00  0.00     0.261 C 
BRANCH  73  74
ATOM     74  O   UNL A   1      43.463  20.680  25.171  1.00  0.00    -0.460 OA
BRANCH  74  75
ATOM     75  C   UNL A   1      42.488  20.351  26.060  1.00  0.00     0.338 C 
ATOM     76  O   UNL A   1      42.249  19.272  26.553  1.00  0.00    -0.246 OA
BRANCH  75  77
ATOM     77  C   UNL A   1      41.869  21.611  26.514  1.00  0.00     0.062 A 
ATOM     78  C   UNL A   1      40.536  21.892  26.240  1.00  0.00     0.038 A 
ATOM     79  C   UNL A   1      42.675  22.550  27.171  1.00  0.00     0.022 A 
ATOM     80  C   UNL A   1      40.012  23.112  26.651  1.00  0.00     0.065 A 
ATOM     81  C   UNL A   1      42.167  23.810  27.519  1.00  0.00    -0.015 A 
ATOM     82  Cl  UNL A   1      38.335  23.422  26.343  1.00  0.00    -0.082 Cl
ATOM     83  C   UNL A   1      40.813  24.086  27.289  1.00  0.00     0.057 A 
ATOM     84  C   UNL A   1      43.076  24.830  28.149  1.00  0.00     0.049 C 
ATOM     85  N   UNL A   1      40.251  25.257  27.758  1.00  0.00    -0.376 N 
ATOM     86  C   UNL A   1      43.888  25.666  27.191  1.00  0.00    -0.023 C 
ATOM     87  C   UNL A   1      42.342  25.919  28.954  1.00  0.00     0.031 C 
ATOM     88  C   UNL A   1      41.041  26.368  28.246  1.00  0.00     0.114 C 
ATOM     89  H   UNL A   1      39.271  25.341  27.761  1.00  0.00     0.161 HD
ATOM     90  C   UNL A   1      44.066  26.905  27.671  1.00  0.00    -0.030 C 
ATOM     91  C   UNL A   1      43.369  27.071  28.987  1.00  0.00     0.034 C 
BRANCH  88  92
ATOM     92  C   UNL A   1      40.146  27.173  29.178  1.00  0.00    -0.025 A 
ATOM     93  C   UNL A   1      38.956  27.761  28.711  1.00  0.00     0.007 A 
ATOM     94  C   UNL A   1      40.523  27.367  30.513  1.00  0.00     0.007 A 
ATOM     95  C   UNL A   1      38.131  28.482  29.572  1.00  0.00     0.022 A 
ATOM     96  C   UNL A   1      39.720  28.120  31.366  1.00  0.00     0.022 A 
ATOM     97  C   UNL A   1      38.507  28.633  30.908  1.00  0.00     0.082 A 
BRANCH  97  98
ATOM     98  S   UNL A   1      37.401  29.425  32.051  1.00  0.00     0.243 S 
ATOM     99  O   UNL A   1      36.247  29.859  31.295  1.00  0.00    -0.207 OA
ATOM    100  O   UNL A   1      37.271  28.549  33.196  1.00  0.00    -0.207 OA
BRANCH  98 101
ATOM    101  N   UNL A   1      38.263  30.771  32.561  1.00  0.00    -0.193 NA
ATOM    102  C   UNL A   1      38.245  31.239  33.961  1.00  0.00     0.131 C 
ATOM    103  C   UNL A   1      38.791  31.748  31.585  1.00  0.00     0.131 C 
ATOM    104  C   UNL A   1      37.736  32.682  34.088  1.00  0.00     0.177 C 
ATOM    105  C   UNL A   1      38.146  33.118  31.804  1.00  0.00     0.177 C 
ATOM    106  O   UNL A   1      38.355  33.570  33.150  1.00  0.00    -0.379 OA
ENDBRANCH  98 101
ENDBRANCH  97  98
ENDBRANCH  88  92
ENDBRANCH  75  77
ENDBRANCH  74  75
ENDBRANCH  73  74
ENDBRANCH  72  73
ENDBRANCH   1  72
TORSDOF 20
ENDMDL
MODEL 3
REMARK VINA RESULT:      -8.5      5.176      9.477
REMARK SMILES O=C(OCCOCCOC(=O)c1cc(Cl)c2c(c1)[C@H]1C=CC[C@H]1[C@H](c1ccc(S(=O)(=O)N3CCOCC3)cc1)N2)c1ccc(-c2c3nc(c(-c4cc(S(=O)(=O)[O-])ccc4F)c4ccc([nH]4)c(-c4cc(S(=O)(=O)[O-])ccc4F)c4nc(c(-c5cc(S(=O)(=O)[O-])ccc5F)c5ccc2[nH]5)C=C4)C=C3)cc1
REMARK SMILES IDX 6 1 5 2 4 3 3 4 2 5 1 6 41 7 42 8 103 9 43 10 102 11 44 12
REMARK SMILES IDX 45 13 46 14 96 15 47 16 101 17 95 18 97 19 48 20 100 21
REMARK SMILES IDX 94 22 93 23 49 25 81 26 61 27 80 28 62 29 65 30 79 31 98 32
REMARK SMILES IDX 63 33 64 34 78 36 99 37 66 38 50 39 51 40 59 41 52 42 58 43
REMARK SMILES IDX 60 44 57 45 53 46 54 47 55 48 56 49 82 50 83 51 91 52 84 53
REMARK SMILES IDX 90 54 92 55 89 56 85 57 86 58 87 59 88 60 67 61 68 62 76 63
REMARK SMILES IDX 69 64 75 65 77 66 74 67 70 68 71 69 72 70 73 71 7 72 8 73
REMARK SMILES IDX 9 74 10 75 11 76 12 77 13 78 18 79 14 80 17 81 15 82 16 83
REMARK SMILES IDX 19 84 40 85 20 86 23 87 24 88 21 90 22 91 25 92 26 93 39 94
REMARK SMILES IDX 27 95 38 96 28 97 29 98 30 99 31 100 32 101 33 102 37 103
REMARK SMILES IDX 34 104 36 105 35 106
REMARK H PARENT 97 24 65 35 40 89
REMARK Flexibility Score: inf
ROOT
ATOM      1  O   UNL A   1      44.314  22.909  27.660  1.00  0.00    -0.374 OA
ENDROOT
BRANCH   1   2
ATOM      2  C   UNL A   1      44.669  23.200  29.008  1.00  0.00     0.202 C 
BRANCH   2   3
ATOM      3  C   UNL A   1      45.625  24.381  29.178  1.00  0.00     0.261 C 
BRANCH   3   4
ATOM      4  O   UNL A   1      46.771  24.262  28.328  1.00  0.00    -0.460 OA
BRANCH   4   5
ATOM      5  C   UNL A   1      47.573  25.235  27.838  1.00  0.00     0.338 C 
ATOM      6  O   UNL A   1      48.662  24.885  27.379  1.00  0.00    -0.246 OA
BRANCH   5   7
ATOM      7  C   UNL A   1      47.272  26.707  27.878  1.00  0.00     0.060 A 
ATOM      8  C   UNL A   1      47.375  27.544  28.992  1.00  0.00     0.016 A 
ATOM      9  C   UNL A   1      46.884  27.304  26.661  1.00  0.00     0.016 A 
ATOM     10  C   UNL A   1      47.167  28.913  28.904  1.00  0.00     0.010 A 
ATOM     11  C   UNL A   1      46.604  28.672  26.572  1.00  0.00     0.010 A 
ATOM     12  C   UNL A   1      46.735  29.471  27.707  1.00  0.00    -0.014 A 
BRANCH  12  13
ATOM     13  C   UNL A   1      46.225  30.846  27.780  1.00  0.00     0.031 A 
ATOM     14  C   UNL A   1      44.870  31.037  28.392  1.00  0.00     0.074 A 
ATOM     15  C   UNL A   1      47.019  31.883  27.475  1.00  0.00     0.049 A 
ATOM     16  N   UNL A   1      44.269  32.141  28.731  1.00  0.00    -0.248 NA
ATOM     17  C   UNL A   1      44.113  29.811  28.717  1.00  0.00     0.031 C 
ATOM     18  C   UNL A   1      48.396  31.774  26.996  1.00  0.00     0.029 A 
ATOM     19  N   UNL A   1      46.788  33.229  27.546  1.00  0.00    -0.354 N 
ATOM     20  C   UNL A   1      43.084  31.747  29.334  1.00  0.00     0.074 A 
ATOM     21  C   UNL A   1      43.040  30.305  29.316  1.00  0.00     0.031 C 
ATOM     22  C   UNL A   1      48.882  33.009  26.793  1.00  0.00     0.029 A 
ATOM     23  C   UNL A   1      47.842  33.990  27.103  1.00  0.00     0.049 A 
ATOM     24  H   UNL A   1      45.947  33.616  27.882  1.00  0.00     0.167 HD
ATOM     25  C   UNL A   1      42.112  32.532  29.846  1.00  0.00     0.034 A 
ATOM     26  C   UNL A   1      47.936  35.325  26.948  1.00  0.00     0.034 A 
ATOM     27  C   UNL A   1      42.143  33.964  29.772  1.00  0.00     0.049 A 
ATOM     28  C   UNL A   1      46.771  36.176  27.389  1.00  0.00     0.074 A 
ATOM     29  C   UNL A   1      41.178  34.861  30.182  1.00  0.00     0.029 A 
ATOM     30  N   UNL A   1      43.183  34.703  29.225  1.00  0.00    -0.354 N 
ATOM     31  N   UNL A   1      45.654  35.803  27.969  1.00  0.00    -0.248 NA
ATOM     32  C   UNL A   1      46.871  37.624  27.163  1.00  0.00     0.031 C 
ATOM     33  C   UNL A   1      41.601  36.139  29.818  1.00  0.00     0.029 A 
ATOM     34  C   UNL A   1      42.866  36.047  29.252  1.00  0.00     0.049 A 
ATOM     35  H   UNL A   1      44.020  34.326  28.870  1.00  0.00     0.167 HD
ATOM     36  C   UNL A   1      44.929  36.966  28.199  1.00  0.00     0.074 A 
ATOM     37  C   UNL A   1      45.742  38.061  27.707  1.00  0.00     0.031 C 
ATOM     38  C   UNL A   1      43.704  37.118  28.766  1.00  0.00     0.034 A 
BRANCH  25  39
ATOM     39  C   UNL A   1      40.912  31.867  30.452  1.00  0.00     0.023 A 
ATOM     40  C   UNL A   1      39.831  31.506  29.629  1.00  0.00     0.031 A 
ATOM     41  C   UNL A   1      40.805  31.653  31.837  1.00  0.00     0.131 A 
ATOM     42  C   UNL A   1      38.669  30.983  30.203  1.00  0.00     0.055 A 
ATOM     43  C   UNL A   1      39.654  31.103  32.401  1.00  0.00     0.041 A 
ATOM     44  F   UNL A   1      41.825  31.958  32.655  1.00  0.00    -0.206 F 
ATOM     45  C   UNL A   1      38.575  30.775  31.584  1.00  0.00     0.022 A 
BRANCH  42  46
ATOM     46  S   UNL A   1      37.234  30.573  29.178  1.00  0.00     0.124 S 
ATOM     47  O   UNL A   1      37.836  29.764  28.121  1.00  0.00    -0.237 OA
ATOM     48  O   UNL A   1      36.388  29.844  30.119  1.00  0.00    -0.237 OA
ATOM     49  O   UNL A   1      36.728  31.872  28.747  1.00  0.00    -0.744 OA
ENDBRANCH  42  46
ENDBRANCH  25  39
BRANCH  26  50
ATOM     50  C   UNL A   1      49.171  35.902  26.345  1.00  0.00     0.023 A 
ATOM     51  C   UNL A   1      50.044  36.682  27.126  1.00  0.00     0.031 A 
ATOM     52  C   UNL A   1      49.456  35.762  24.978  1.00  0.00     0.131 A 
ATOM     53  C   UNL A   1      51.122  37.343  26.524  1.00  0.00     0.055 A 
ATOM     54  C   UNL A   1      50.567  36.373  24.393  1.00  0.00     0.041 A 
ATOM     55  F   UNL A   1      48.650  35.033  24.190  1.00  0.00    -0.206 F 
ATOM     56  C   UNL A   1      51.399  37.180  25.165  1.00  0.00     0.022 A 
BRANCH  53  57
ATOM     57  S   UNL A   1      52.143  38.507  27.471  1.00  0.00     0.124 S 
ATOM     58  O   UNL A   1      51.152  39.470  27.945  1.00  0.00    -0.237 OA
ATOM     59  O   UNL A   1      52.713  37.633  28.495  1.00  0.00    -0.237 OA
ATOM     60  O   UNL A   1      53.092  39.015  26.487  1.00  0.00    -0.744 OA
ENDBRANCH  53  57
ENDBRANCH  26  50
BRANCH  38  61
ATOM     61  C   UNL A   1      43.145  38.509  28.910  1.00  0.00     0.023 A 
ATOM     62  C   UNL A   1      43.494  39.281  30.034  1.00  0.00     0.031 A 
ATOM     63  C   UNL A   1      42.138  38.982  28.056  1.00  0.00     0.131 A 
ATOM     64  C   UNL A   1      42.800  40.464  30.304  1.00  0.00     0.055 A 
ATOM     65  C   UNL A   1      41.482  40.189  28.302  1.00  0.00     0.041 A 
ATOM     66  F   UNL A   1      41.764  38.270  26.981  1.00  0.00    -0.206 F 
ATOM     67  C   UNL A   1      41.802  40.927  29.440  1.00  0.00     0.022 A 
BRANCH  64  68
ATOM     68  S   UNL A   1      43.104  41.393  31.831  1.00  0.00     0.124 S 
ATOM     69  O   UNL A   1      42.380  40.597  32.819  1.00  0.00    -0.237 OA
ATOM     70  O   UNL A   1      44.560  41.346  31.935  1.00  0.00    -0.237 OA
ATOM     71  O   UNL A   1      42.536  42.710  31.562  1.00  0.00    -0.744 OA
ENDBRANCH  64  68
ENDBRANCH  38  61
ENDBRANCH  12  13
ENDBRANCH   5   7
ENDBRANCH   4   5
ENDBRANCH   3   4
ENDBRANCH   2   3
ENDBRANCH   1   2
BRANCH   1  72
ATOM     72  C   UNL A   1      43.056  22.258  27.477  1.00  0.00     0.202 C 
BRANCH  72  73
ATOM     73  C   UNL A   1      43.106  21.278  26.302  1.00  0.00     0.261 C 
BRANCH  73  74
ATOM     74  O   UNL A   1      41.889  21.362  25.542  1.00  0.00    -0.460 OA
BRANCH  74  75
ATOM     75  C   UNL A   1      40.834  20.687  26.069  1.00  0.00     0.338 C 
ATOM     76  O   UNL A   1      40.829  19.618  26.637  1.00  0.00    -0.246 OA
BRANCH  75  77
ATOM     77  C   UNL A   1      39.671  21.594  26.028  1.00  0.00     0.062 A 
ATOM     78  C   UNL A   1      39.655  22.771  26.768  1.00  0.00     0.038 A 
ATOM     79  C   UNL A   1      38.553  21.209  25.278  1.00  0.00     0.022 A 
ATOM     80  C   UNL A   1      38.518  23.569  26.729  1.00  0.00     0.065 A 
ATOM     81  C   UNL A   1      37.379  21.976  25.299  1.00  0.00    -0.015 A 
ATOM     82  Cl  UNL A   1      38.538  25.055  27.619  1.00  0.00    -0.082 Cl
ATOM     83  C   UNL A   1      37.368  23.187  26.003  1.00  0.00     0.057 A 
ATOM     84  C   UNL A   1      36.165  21.498  24.550  1.00  0.00     0.049 C 
ATOM     85  N   UNL A   1      36.281  24.034  25.916  1.00  0.00    -0.376 N 
ATOM     86  C   UNL A   1      35.279  20.524  25.288  1.00  0.00    -0.023 C 
ATOM     87  C   UNL A   1      35.161  22.610  24.195  1.00  0.00     0.031 C 
ATOM     88  C   UNL A   1      35.011  23.628  25.352  1.00  0.00     0.114 C 
ATOM     89  H   UNL A   1      36.373  24.954  26.253  1.00  0.00     0.161 HD
ATOM     90  C   UNL A   1      33.993  20.700  24.954  1.00  0.00    -0.030 C 
ATOM     91  C   UNL A   1      33.845  21.832  23.982  1.00  0.00     0.034 C 
BRANCH  88  92
ATOM     92  C   UNL A   1      34.304  24.895  24.894  1.00  0.00    -0.025 A 
ATOM     93  C   UNL A   1      33.717  25.775  25.824  1.00  0.00     0.007 A 
ATOM     94  C   UNL A   1      34.198  25.181  23.527  1.00  0.00     0.007 A 
ATOM     95  C   UNL A   1      33.086  26.943  25.401  1.00  0.00     0.022 A 
ATOM     96  C   UNL A   1      33.534  26.328  23.100  1.00  0.00     0.022 A 
ATOM     97  C   UNL A   1      33.024  27.227  24.036  1.00  0.00     0.082 A 
BRANCH  97  98
ATOM     98  S   UNL A   1      32.352  28.778  23.488  1.00  0.00     0.243 S 
ATOM     99  O   UNL A   1      32.110  29.578  24.668  1.00  0.00    -0.207 OA
ATOM    100  O   UNL A   1      33.194  29.253  22.410  1.00  0.00    -0.207 OA
BRANCH  98 101
ATOM    101  N   UNL A   1      30.880  28.348  22.805  1.00  0.00    -0.193 NA
ATOM    102  C   UNL A   1      29.948  29.344  22.239  1.00  0.00     0.131 C 
ATOM    103  C   UNL A   1      30.292  27.014  23.048  1.00  0.00     0.131 C 
ATOM    104  C   UNL A   1      28.574  29.312  22.924  1.00  0.00     0.177 C 
ATOM    105  C   UNL A   1      28.959  27.148  23.786  1.00  0.00     0.177 C 
ATOM    106  O   UNL A   1      28.053  27.984  23.052  1.00  0.00    -0.379 OA
ENDBRANCH  98 101
ENDBRANCH  97  98
ENDBRANCH  88  92
ENDBRANCH  75  77
ENDBRANCH  74  75
ENDBRANCH  73  74
ENDBRANCH  72  73
ENDBRANCH   1  72
TORSDOF 20
ENDMDL
