MODEL 1
REMARK VINA RESULT:     -11.8      0.000      0.000
REMARK SMILES CC(C)(C)c1cc(NC(=O)[C@H]2[C@@H](C(=O)OCCOCCOC(=O)c3ccc(-c4c5nc(c(-c6cc(S(=O)(=O)[O-])ccc6F)c6ccc([nH]6)c(-c6cc(S(=O)(=O)[O-])ccc6F)c6nc(c(-c7cc(S(=O)(=O)[O-])ccc7F)c7ccc4[nH]7)C=C6)C=C5)cc3)[C@H]3C=C[C@@H]2C3)no1
REMARK SMILES IDX 18 1 17 2 16 3 15 4 13 5 14 6 12 7 11 8 90 9 87 10 89 11
REMARK SMILES IDX 91 12 88 13 9 14 8 15 10 17 7 18 5 19 6 20 93 21 92 22 2 23
REMARK SMILES IDX 1 24 3 25 4 26 19 27 20 28 21 29 22 30 23 31 24 32 25 33
REMARK SMILES IDX 86 34 26 35 85 36 27 37 28 38 29 39 79 40 30 41 84 42 78 43
REMARK SMILES IDX 80 44 31 45 83 46 77 47 76 48 32 50 64 51 44 52 63 53 45 54
REMARK SMILES IDX 48 55 62 56 81 57 46 58 47 59 61 61 82 62 49 63 33 64 34 65
REMARK SMILES IDX 42 66 35 67 41 68 43 69 40 70 36 71 37 72 38 73 39 74 65 75
REMARK SMILES IDX 66 76 74 77 67 78 73 79 75 80 72 81 68 82 69 83 70 84 71 85
REMARK SMILES IDX 50 86 51 87 59 88 52 89 58 90 60 91 57 92 53 93 54 94 55 95
REMARK SMILES IDX 56 96
REMARK H PARENT 8 16 80 49 48 60
REMARK Flexibility Score: inf
ROOT
ATOM      1  O   UNL A   1      31.392  29.956  26.481  1.00  0.00    -0.374 OA
ENDROOT
BRANCH   1   2
ATOM      2  C   UNL A   1      31.370  28.966  25.474  1.00  0.00     0.202 C 
BRANCH   2   3
ATOM      3  C   UNL A   1      31.527  27.498  25.880  1.00  0.00     0.261 C 
BRANCH   3   4
ATOM      4  O   UNL A   1      30.855  26.520  25.069  1.00  0.00    -0.463 OA
BRANCH   4   5
ATOM      5  C   UNL A   1      31.129  25.222  25.394  1.00  0.00     0.310 C 
ATOM      6  O   UNL A   1      31.294  24.834  26.542  1.00  0.00    -0.252 OA
BRANCH   5   7
ATOM      7  C   UNL A   1      31.363  24.385  24.144  1.00  0.00     0.119 C 
ATOM      8  C   UNL A   1      31.788  22.868  24.173  1.00  0.00     0.100 C 
ATOM      9  C   UNL A   1      33.147  22.896  23.432  1.00  0.00     0.025 C 
ATOM     10  C   UNL A   1      32.510  25.033  23.303  1.00  0.00     0.027 C 
ATOM     11  C   UNL A   1      34.162  23.711  24.197  1.00  0.00    -0.027 C 
ATOM     12  C   UNL A   1      32.833  23.909  22.322  1.00  0.00     0.017 C 
ATOM     13  C   UNL A   1      33.802  24.995  24.089  1.00  0.00    -0.027 C 
BRANCH   8  14
ATOM     14  C   UNL A   1      31.631  22.030  25.443  1.00  0.00     0.230 C 
ATOM     15  N   UNL A   1      32.697  21.457  26.065  1.00  0.00    -0.308 N 
ATOM     16  H   UNL A   1      33.030  21.836  26.911  1.00  0.00     0.171 HD
ATOM     17  O   UNL A   1      30.517  21.890  25.953  1.00  0.00    -0.274 OA
BRANCH  15  18
ATOM     18  C   UNL A   1      33.318  20.346  25.519  1.00  0.00     0.176 A 
ATOM     19  C   UNL A   1      33.733  18.288  24.846  1.00  0.00     0.144 A 
ATOM     20  C   UNL A   1      32.711  19.086  25.314  1.00  0.00     0.096 A 
ATOM     21  O   UNL A   1      34.836  19.059  24.668  1.00  0.00    -0.359 OA
ATOM     22  N   UNL A   1      34.574  20.342  25.072  1.00  0.00    -0.062 NA
BRANCH  19  23
ATOM     23  C   UNL A   1      33.882  16.823  24.543  1.00  0.00     0.023 C 
ATOM     24  C   UNL A   1      35.153  16.250  25.204  1.00  0.00     0.019 C 
ATOM     25  C   UNL A   1      33.974  16.609  23.025  1.00  0.00     0.019 C 
ATOM     26  C   UNL A   1      32.666  16.061  25.100  1.00  0.00     0.019 C 
ENDBRANCH  19  23
ENDBRANCH  15  18
ENDBRANCH   8  14
ENDBRANCH   5   7
ENDBRANCH   4   5
ENDBRANCH   3   4
ENDBRANCH   2   3
ENDBRANCH   1   2
BRANCH   1  27
ATOM     27  C   UNL A   1      31.297  31.335  26.162  1.00  0.00     0.202 C 
BRANCH  27  28
ATOM     28  C   UNL A   1      32.086  32.435  26.882  1.00  0.00     0.261 C 
BRANCH  28  29
ATOM     29  O   UNL A   1      33.194  32.067  27.670  1.00  0.00    -0.460 OA
BRANCH  29  30
ATOM     30  C   UNL A   1      33.947  33.072  28.142  1.00  0.00     0.338 C 
ATOM     31  O   UNL A   1      33.619  34.211  28.388  1.00  0.00    -0.246 OA
BRANCH  30  32
ATOM     32  C   UNL A   1      35.235  32.425  28.406  1.00  0.00     0.060 A 
ATOM     33  C   UNL A   1      35.257  31.044  28.586  1.00  0.00     0.016 A 
ATOM     34  C   UNL A   1      36.408  33.191  28.402  1.00  0.00     0.016 A 
ATOM     35  C   UNL A   1      36.467  30.428  28.863  1.00  0.00     0.010 A 
ATOM     36  C   UNL A   1      37.621  32.571  28.672  1.00  0.00     0.010 A 
ATOM     37  C   UNL A   1      37.634  31.199  28.966  1.00  0.00    -0.014 A 
BRANCH  37  38
ATOM     38  C   UNL A   1      38.811  30.597  29.620  1.00  0.00     0.031 A 
ATOM     39  C   UNL A   1      39.098  31.003  31.039  1.00  0.00     0.074 A 
ATOM     40  C   UNL A   1      39.531  29.660  28.983  1.00  0.00     0.049 A 
ATOM     41  N   UNL A   1      40.024  30.573  31.852  1.00  0.00    -0.248 NA
ATOM     42  C   UNL A   1      38.221  32.036  31.622  1.00  0.00     0.031 C 
ATOM     43  C   UNL A   1      39.290  29.197  27.614  1.00  0.00     0.029 A 
ATOM     44  N   UNL A   1      40.600  28.920  29.405  1.00  0.00    -0.354 N 
ATOM     45  C   UNL A   1      39.847  31.285  33.034  1.00  0.00     0.074 A 
ATOM     46  C   UNL A   1      38.751  32.201  32.825  1.00  0.00     0.031 C 
ATOM     47  C   UNL A   1      40.186  28.240  27.315  1.00  0.00     0.029 A 
ATOM     48  C   UNL A   1      41.077  28.048  28.455  1.00  0.00     0.049 A 
ATOM     49  H   UNL A   1      40.991  29.003  30.305  1.00  0.00     0.167 HD
ATOM     50  C   UNL A   1      40.538  31.169  34.192  1.00  0.00     0.034 A 
ATOM     51  C   UNL A   1      42.125  27.203  28.512  1.00  0.00     0.034 A 
ATOM     52  C   UNL A   1      41.622  30.238  34.365  1.00  0.00     0.049 A 
ATOM     53  C   UNL A   1      42.893  27.116  29.810  1.00  0.00     0.074 A 
ATOM     54  C   UNL A   1      42.393  30.012  35.490  1.00  0.00     0.029 A 
ATOM     55  N   UNL A   1      42.092  29.379  33.378  1.00  0.00    -0.354 N 
ATOM     56  N   UNL A   1      42.698  27.774  30.933  1.00  0.00    -0.248 NA
ATOM     57  C   UNL A   1      44.001  26.157  29.860  1.00  0.00     0.031 C 
ATOM     58  C   UNL A   1      43.373  29.071  35.161  1.00  0.00     0.029 A 
ATOM     59  C   UNL A   1      43.158  28.640  33.860  1.00  0.00     0.049 A 
ATOM     60  H   UNL A   1      41.720  29.307  32.469  1.00  0.00     0.167 HD
ATOM     61  C   UNL A   1      43.633  27.271  31.834  1.00  0.00     0.074 A 
ATOM     62  C   UNL A   1      44.370  26.244  31.128  1.00  0.00     0.031 C 
ATOM     63  C   UNL A   1      43.864  27.617  33.127  1.00  0.00     0.034 A 
BRANCH  50  64
ATOM     64  C   UNL A   1      40.182  32.103  35.322  1.00  0.00     0.023 A 
ATOM     65  C   UNL A   1      39.163  31.812  36.247  1.00  0.00     0.031 A 
ATOM     66  C   UNL A   1      40.882  33.314  35.472  1.00  0.00     0.131 A 
ATOM     67  C   UNL A   1      38.847  32.739  37.253  1.00  0.00     0.055 A 
ATOM     68  C   UNL A   1      40.609  34.198  36.516  1.00  0.00     0.041 A 
ATOM     69  F   UNL A   1      41.842  33.660  34.599  1.00  0.00    -0.206 F 
ATOM     70  C   UNL A   1      39.581  33.917  37.410  1.00  0.00     0.022 A 
BRANCH  67  71
ATOM     71  S   UNL A   1      37.398  32.432  38.302  1.00  0.00     0.124 S 
ATOM     72  O   UNL A   1      37.378  30.972  38.358  1.00  0.00    -0.237 OA
ATOM     73  O   UNL A   1      37.754  33.114  39.541  1.00  0.00    -0.237 OA
ATOM     74  O   UNL A   1      36.299  33.037  37.552  1.00  0.00    -0.744 OA
ENDBRANCH  67  71
ENDBRANCH  50  64
BRANCH  51  75
ATOM     75  C   UNL A   1      42.524  26.393  27.323  1.00  0.00     0.023 A 
ATOM     76  C   UNL A   1      42.116  25.058  27.179  1.00  0.00     0.031 A 
ATOM     77  C   UNL A   1      43.396  26.920  26.353  1.00  0.00     0.131 A 
ATOM     78  C   UNL A   1      42.639  24.274  26.137  1.00  0.00     0.055 A 
ATOM     79  C   UNL A   1      43.858  26.157  25.279  1.00  0.00     0.041 A 
ATOM     80  F   UNL A   1      43.818  28.193  26.436  1.00  0.00    -0.206 F 
ATOM     81  C   UNL A   1      43.498  24.817  25.180  1.00  0.00     0.022 A 
BRANCH  78  82
ATOM     82  S   UNL A   1      42.291  22.493  26.135  1.00  0.00     0.124 S 
ATOM     83  O   UNL A   1      42.944  22.061  27.365  1.00  0.00    -0.237 OA
ATOM     84  O   UNL A   1      40.831  22.473  26.141  1.00  0.00    -0.237 OA
ATOM     85  O   UNL A   1      42.914  22.027  24.898  1.00  0.00    -0.744 OA
ENDBRANCH  78  82
ENDBRANCH  51  75
BRANCH  63  86
ATOM     86  C   UNL A   1      44.911  26.820  33.867  1.00  0.00     0.023 A 
ATOM     87  C   UNL A   1      44.587  25.658  34.586  1.00  0.00     0.031 A 
ATOM     88  C   UNL A   1      46.248  27.256  33.875  1.00  0.00     0.131 A 
ATOM     89  C   UNL A   1      45.571  25.018  35.352  1.00  0.00     0.055 A 
ATOM     90  C   UNL A   1      47.239  26.569  34.577  1.00  0.00     0.041 A 
ATOM     91  F   UNL A   1      46.613  28.360  33.204  1.00  0.00    -0.206 F 
ATOM     92  C   UNL A   1      46.899  25.455  35.337  1.00  0.00     0.022 A 
BRANCH  89  93
ATOM     93  S   UNL A   1      45.062  23.689  36.476  1.00  0.00     0.124 S 
ATOM     94  O   UNL A   1      44.047  22.998  35.688  1.00  0.00    -0.237 OA
ATOM     95  O   UNL A   1      46.310  22.963  36.684  1.00  0.00    -0.237 OA
ATOM     96  O   UNL A   1      44.559  24.405  37.647  1.00  0.00    -0.744 OA
ENDBRANCH  89  93
ENDBRANCH  63  86
ENDBRANCH  37  38
ENDBRANCH  30  32
ENDBRANCH  29  30
ENDBRANCH  28  29
ENDBRANCH  27  28
ENDBRANCH   1  27
TORSDOF 20
ENDMDL
MODEL 2
REMARK VINA RESULT:     -11.7      2.103      7.912
REMARK SMILES CC(C)(C)c1cc(NC(=O)[C@H]2[C@@H](C(=O)OCCOCCOC(=O)c3ccc(-c4c5nc(c(-c6cc(S(=O)(=O)[O-])ccc6F)c6ccc([nH]6)c(-c6cc(S(=O)(=O)[O-])ccc6F)c6nc(c(-c7cc(S(=O)(=O)[O-])ccc7F)c7ccc4[nH]7)C=C6)C=C5)cc3)[C@H]3C=C[C@@H]2C3)no1
REMARK SMILES IDX 18 1 17 2 16 3 15 4 13 5 14 6 12 7 11 8 90 9 87 10 89 11
REMARK SMILES IDX 91 12 88 13 9 14 8 15 10 17 7 18 5 19 6 20 93 21 92 22 2 23
REMARK SMILES IDX 1 24 3 25 4 26 19 27 20 28 21 29 22 30 23 31 24 32 25 33
REMARK SMILES IDX 86 34 26 35 85 36 27 37 28 38 29 39 79 40 30 41 84 42 78 43
REMARK SMILES IDX 80 44 31 45 83 46 77 47 76 48 32 50 64 51 44 52 63 53 45 54
REMARK SMILES IDX 48 55 62 56 81 57 46 58 47 59 61 61 82 62 49 63 33 64 34 65
REMARK SMILES IDX 42 66 35 67 41 68 43 69 40 70 36 71 37 72 38 73 39 74 65 75
REMARK SMILES IDX 66 76 74 77 67 78 73 79 75 80 72 81 68 82 69 83 70 84 71 85
REMARK SMILES IDX 50 86 51 87 59 88 52 89 58 90 60 91 57 92 53 93 54 94 55 95
REMARK SMILES IDX 56 96
REMARK H PARENT 8 16 80 49 48 60
REMARK Flexibility Score: inf
ROOT
ATOM      1  O   UNL A   1      32.101  30.219  26.864  1.00  0.00    -0.374 OA
ENDROOT
BRANCH   1   2
ATOM      2  C   UNL A   1      33.390  29.878  26.398  1.00  0.00     0.202 C 
BRANCH   2   3
ATOM      3  C   UNL A   1      33.873  28.434  26.556  1.00  0.00     0.261 C 
BRANCH   3   4
ATOM      4  O   UNL A   1      32.952  27.392  26.189  1.00  0.00    -0.463 OA
BRANCH   4   5
ATOM      5  C   UNL A   1      33.070  26.954  24.902  1.00  0.00     0.310 C 
ATOM      6  O   UNL A   1      34.105  27.026  24.255  1.00  0.00    -0.252 OA
BRANCH   5   7
ATOM      7  C   UNL A   1      31.717  26.532  24.345  1.00  0.00     0.119 C 
ATOM      8  C   UNL A   1      31.476  26.132  22.840  1.00  0.00     0.100 C 
ATOM      9  C   UNL A   1      30.432  27.182  22.388  1.00  0.00     0.025 C 
ATOM     10  C   UNL A   1      30.696  27.698  24.545  1.00  0.00     0.027 C 
ATOM     11  C   UNL A   1      31.007  28.576  22.446  1.00  0.00    -0.027 C 
ATOM     12  C   UNL A   1      29.549  27.249  23.642  1.00  0.00     0.017 C 
ATOM     13  C   UNL A   1      31.132  28.900  23.738  1.00  0.00    -0.027 C 
BRANCH   8  14
ATOM     14  C   UNL A   1      32.646  25.779  21.920  1.00  0.00     0.230 C 
ATOM     15  N   UNL A   1      32.928  24.494  21.573  1.00  0.00    -0.308 N 
ATOM     16  H   UNL A   1      32.720  24.177  20.664  1.00  0.00     0.171 HD
ATOM     17  O   UNL A   1      33.342  26.677  21.439  1.00  0.00    -0.274 OA
BRANCH  15  18
ATOM     18  C   UNL A   1      33.505  23.629  22.488  1.00  0.00     0.176 A 
ATOM     19  C   UNL A   1      33.783  22.054  24.006  1.00  0.00     0.144 A 
ATOM     20  C   UNL A   1      32.846  22.554  23.128  1.00  0.00     0.096 A 
ATOM     21  O   UNL A   1      34.956  22.710  23.806  1.00  0.00    -0.359 OA
ATOM     22  N   UNL A   1      34.786  23.679  22.852  1.00  0.00    -0.062 NA
BRANCH  19  23
ATOM     23  C   UNL A   1      33.771  21.021  25.098  1.00  0.00     0.023 C 
ATOM     24  C   UNL A   1      33.953  21.678  26.482  1.00  0.00     0.019 C 
ATOM     25  C   UNL A   1      34.906  20.011  24.876  1.00  0.00     0.019 C 
ATOM     26  C   UNL A   1      32.417  20.288  25.090  1.00  0.00     0.019 C 
ENDBRANCH  19  23
ENDBRANCH  15  18
ENDBRANCH   8  14
ENDBRANCH   5   7
ENDBRANCH   4   5
ENDBRANCH   3   4
ENDBRANCH   2   3
ENDBRANCH   1   2
BRANCH   1  27
ATOM     27  C   UNL A   1      31.446  31.399  26.427  1.00  0.00     0.202 C 
BRANCH  27  28
ATOM     28  C   UNL A   1      31.717  32.792  27.008  1.00  0.00     0.261 C 
BRANCH  28  29
ATOM     29  O   UNL A   1      33.040  33.275  27.019  1.00  0.00    -0.460 OA
BRANCH  29  30
ATOM     30  C   UNL A   1      33.414  33.954  28.113  1.00  0.00     0.338 C 
ATOM     31  O   UNL A   1      32.860  34.886  28.652  1.00  0.00    -0.246 OA
BRANCH  30  32
ATOM     32  C   UNL A   1      34.594  33.217  28.573  1.00  0.00     0.060 A 
ATOM     33  C   UNL A   1      34.437  31.883  28.944  1.00  0.00     0.016 A 
ATOM     34  C   UNL A   1      35.848  33.841  28.564  1.00  0.00     0.016 A 
ATOM     35  C   UNL A   1      35.542  31.186  29.406  1.00  0.00     0.010 A 
ATOM     36  C   UNL A   1      36.956  33.139  29.021  1.00  0.00     0.010 A 
ATOM     37  C   UNL A   1      36.784  31.832  29.501  1.00  0.00    -0.014 A 
BRANCH  37  38
ATOM     38  C   UNL A   1      37.831  31.208  30.331  1.00  0.00     0.031 A 
ATOM     39  C   UNL A   1      38.726  30.195  29.672  1.00  0.00     0.074 A 
ATOM     40  C   UNL A   1      38.015  31.610  31.598  1.00  0.00     0.049 A 
ATOM     41  N   UNL A   1      39.755  29.558  30.160  1.00  0.00    -0.248 NA
ATOM     42  C   UNL A   1      38.418  29.853  28.270  1.00  0.00     0.031 C 
ATOM     43  C   UNL A   1      37.202  32.610  32.293  1.00  0.00     0.029 A 
ATOM     44  N   UNL A   1      38.951  31.238  32.523  1.00  0.00    -0.354 N 
ATOM     45  C   UNL A   1      40.210  28.737  29.132  1.00  0.00     0.074 A 
ATOM     46  C   UNL A   1      39.328  28.927  28.006  1.00  0.00     0.031 C 
ATOM     47  C   UNL A   1      37.686  32.778  33.536  1.00  0.00     0.029 A 
ATOM     48  C   UNL A   1      38.818  31.877  33.732  1.00  0.00     0.049 A 
ATOM     49  H   UNL A   1      39.656  30.575  32.339  1.00  0.00     0.167 HD
ATOM     50  C   UNL A   1      41.281  27.909  29.135  1.00  0.00     0.034 A 
ATOM     51  C   UNL A   1      39.532  31.734  34.865  1.00  0.00     0.034 A 
ATOM     52  C   UNL A   1      42.144  27.751  30.277  1.00  0.00     0.049 A 
ATOM     53  C   UNL A   1      40.705  30.780  34.845  1.00  0.00     0.074 A 
ATOM     54  C   UNL A   1      43.267  26.956  30.405  1.00  0.00     0.029 A 
ATOM     55  N   UNL A   1      41.972  28.401  31.493  1.00  0.00    -0.354 N 
ATOM     56  N   UNL A   1      41.145  30.031  33.857  1.00  0.00    -0.248 NA
ATOM     57  C   UNL A   1      41.492  30.674  36.077  1.00  0.00     0.031 C 
ATOM     58  C   UNL A   1      43.731  27.071  31.719  1.00  0.00     0.029 A 
ATOM     59  C   UNL A   1      42.953  28.007  32.385  1.00  0.00     0.049 A 
ATOM     60  H   UNL A   1      41.256  29.048  31.691  1.00  0.00     0.167 HD
ATOM     61  C   UNL A   1      42.289  29.400  34.340  1.00  0.00     0.074 A 
ATOM     62  C   UNL A   1      42.477  29.877  35.695  1.00  0.00     0.031 C 
ATOM     63  C   UNL A   1      43.114  28.512  33.728  1.00  0.00     0.034 A 
BRANCH  50  64
ATOM     64  C   UNL A   1      41.534  27.079  27.902  1.00  0.00     0.023 A 
ATOM     65  C   UNL A   1      41.206  25.713  27.832  1.00  0.00     0.031 A 
ATOM     66  C   UNL A   1      42.121  27.674  26.770  1.00  0.00     0.131 A 
ATOM     67  C   UNL A   1      41.503  24.981  26.672  1.00  0.00     0.055 A 
ATOM     68  C   UNL A   1      42.350  26.956  25.596  1.00  0.00     0.041 A 
ATOM     69  F   UNL A   1      42.486  28.966  26.790  1.00  0.00    -0.206 F 
ATOM     70  C   UNL A   1      42.048  25.600  25.544  1.00  0.00     0.022 A 
BRANCH  67  71
ATOM     71  S   UNL A   1      41.258  23.183  26.684  1.00  0.00     0.124 S 
ATOM     72  O   UNL A   1      41.635  22.843  28.054  1.00  0.00    -0.237 OA
ATOM     73  O   UNL A   1      39.842  23.054  26.361  1.00  0.00    -0.237 OA
ATOM     74  O   UNL A   1      42.178  22.705  25.654  1.00  0.00    -0.744 OA
ENDBRANCH  67  71
ENDBRANCH  50  64
BRANCH  51  75
ATOM     75  C   UNL A   1      39.164  32.477  36.106  1.00  0.00     0.023 A 
ATOM     76  C   UNL A   1      39.743  33.718  36.413  1.00  0.00     0.031 A 
ATOM     77  C   UNL A   1      38.287  31.912  37.050  1.00  0.00     0.131 A 
ATOM     78  C   UNL A   1      39.501  34.316  37.661  1.00  0.00     0.055 A 
ATOM     79  C   UNL A   1      37.994  32.543  38.260  1.00  0.00     0.041 A 
ATOM     80  F   UNL A   1      37.699  30.728  36.811  1.00  0.00    -0.206 F 
ATOM     81  C   UNL A   1      38.622  33.743  38.581  1.00  0.00     0.022 A 
BRANCH  78  82
ATOM     82  S   UNL A   1      40.465  35.783  38.120  1.00  0.00     0.124 S 
ATOM     83  O   UNL A   1      40.205  35.872  39.552  1.00  0.00    -0.237 OA
ATOM     84  O   UNL A   1      41.816  35.386  37.735  1.00  0.00    -0.237 OA
ATOM     85  O   UNL A   1      39.873  36.844  37.309  1.00  0.00    -0.744 OA
ENDBRANCH  78  82
ENDBRANCH  51  75
BRANCH  63  86
ATOM     86  C   UNL A   1      44.329  28.066  34.504  1.00  0.00     0.023 A 
ATOM     87  C   UNL A   1      44.279  26.987  35.404  1.00  0.00     0.031 A 
ATOM     88  C   UNL A   1      45.546  28.756  34.361  1.00  0.00     0.131 A 
ATOM     89  C   UNL A   1      45.401  26.684  36.188  1.00  0.00     0.055 A 
ATOM     90  C   UNL A   1      46.682  28.397  35.087  1.00  0.00     0.041 A 
ATOM     91  F   UNL A   1      45.649  29.793  33.514  1.00  0.00    -0.206 F 
ATOM     92  C   UNL A   1      46.607  27.370  36.022  1.00  0.00     0.022 A 
BRANCH  89  93
ATOM     93  S   UNL A   1      45.219  25.471  37.523  1.00  0.00     0.124 S 
ATOM     94  O   UNL A   1      43.835  25.680  37.936  1.00  0.00    -0.237 OA
ATOM     95  O   UNL A   1      45.497  24.213  36.841  1.00  0.00    -0.237 OA
ATOM     96  O   UNL A   1      46.227  25.884  38.499  1.00  0.00    -0.744 OA
ENDBRANCH  89  93
ENDBRANCH  63  86
ENDBRANCH  37  38
ENDBRANCH  30  32
ENDBRANCH  29  30
ENDBRANCH  28  29
ENDBRANCH  27  28
ENDBRANCH   1  27
TORSDOF 20
ENDMDL
MODEL 3
REMARK VINA RESULT:     -11.6      2.927      4.656
REMARK SMILES CC(C)(C)c1cc(NC(=O)[C@H]2[C@@H](C(=O)OCCOCCOC(=O)c3ccc(-c4c5nc(c(-c6cc(S(=O)(=O)[O-])ccc6F)c6ccc([nH]6)c(-c6cc(S(=O)(=O)[O-])ccc6F)c6nc(c(-c7cc(S(=O)(=O)[O-])ccc7F)c7ccc4[nH]7)C=C6)C=C5)cc3)[C@H]3C=C[C@@H]2C3)no1
REMARK SMILES IDX 18 1 17 2 16 3 15 4 13 5 14 6 12 7 11 8 90 9 87 10 89 11
REMARK SMILES IDX 91 12 88 13 9 14 8 15 10 17 7 18 5 19 6 20 93 21 92 22 2 23
REMARK SMILES IDX 1 24 3 25 4 26 19 27 20 28 21 29 22 30 23 31 24 32 25 33
REMARK SMILES IDX 86 34 26 35 85 36 27 37 28 38 29 39 79 40 30 41 84 42 78 43
REMARK SMILES IDX 80 44 31 45 83 46 77 47 76 48 32 50 64 51 44 52 63 53 45 54
REMARK SMILES IDX 48 55 62 56 81 57 46 58 47 59 61 61 82 62 49 63 33 64 34 65
REMARK SMILES IDX 42 66 35 67 41 68 43 69 40 70 36 71 37 72 38 73 39 74 65 75
REMARK SMILES IDX 66 76 74 77 67 78 73 79 75 80 72 81 68 82 69 83 70 84 71 85
REMARK SMILES IDX 50 86 51 87 59 88 52 89 58 90 60 91 57 92 53 93 54 94 55 95
REMARK SMILES IDX 56 96
REMARK H PARENT 8 16 80 49 48 60
REMARK Flexibility Score: inf
ROOT
ATOM      1  O   UNL A   1      31.853  28.407  27.493  1.00  0.00    -0.374 OA
ENDROOT
BRANCH   1   2
ATOM      2  C   UNL A   1      31.437  27.431  26.561  1.00  0.00     0.202 C 
BRANCH   2   3
ATOM      3  C   UNL A   1      32.328  26.209  26.325  1.00  0.00     0.261 C 
BRANCH   3   4
ATOM      4  O   UNL A   1      31.687  25.014  25.846  1.00  0.00    -0.463 OA
BRANCH   4   5
ATOM      5  C   UNL A   1      32.513  23.935  25.720  1.00  0.00     0.310 C 
ATOM      6  O   UNL A   1      32.162  22.785  25.941  1.00  0.00    -0.252 OA
BRANCH   5   7
ATOM      7  C   UNL A   1      33.944  24.374  25.438  1.00  0.00     0.119 C 
ATOM      8  C   UNL A   1      34.556  24.485  23.990  1.00  0.00     0.100 C 
ATOM      9  C   UNL A   1      35.732  23.480  24.056  1.00  0.00     0.025 C 
ATOM     10  C   UNL A   1      34.930  23.385  26.139  1.00  0.00     0.027 C 
ATOM     11  C   UNL A   1      35.228  22.074  24.277  1.00  0.00    -0.027 C 
ATOM     12  C   UNL A   1      36.252  23.759  25.473  1.00  0.00     0.017 C 
ATOM     13  C   UNL A   1      34.781  22.005  25.536  1.00  0.00    -0.027 C 
BRANCH   8  14
ATOM     14  C   UNL A   1      33.656  24.522  22.754  1.00  0.00     0.230 C 
ATOM     15  N   UNL A   1      33.575  25.619  21.953  1.00  0.00    -0.308 N 
ATOM     16  H   UNL A   1      34.008  25.611  21.068  1.00  0.00     0.171 HD
ATOM     17  O   UNL A   1      33.006  23.523  22.437  1.00  0.00    -0.274 OA
BRANCH  15  18
ATOM     18  C   UNL A   1      32.891  26.747  22.373  1.00  0.00     0.176 A 
ATOM     19  C   UNL A   1      31.278  28.180  22.828  1.00  0.00     0.144 A 
ATOM     20  C   UNL A   1      31.485  26.866  22.466  1.00  0.00     0.096 A 
ATOM     21  O   UNL A   1      32.484  28.761  23.055  1.00  0.00    -0.359 OA
ATOM     22  N   UNL A   1      33.486  27.866  22.786  1.00  0.00    -0.062 NA
BRANCH  19  23
ATOM     23  C   UNL A   1      30.069  29.060  22.981  1.00  0.00     0.023 C 
ATOM     24  C   UNL A   1      30.229  30.012  24.186  1.00  0.00     0.019 C 
ATOM     25  C   UNL A   1      28.816  28.198  23.195  1.00  0.00     0.019 C 
ATOM     26  C   UNL A   1      29.899  29.916  21.713  1.00  0.00     0.019 C 
ENDBRANCH  19  23
ENDBRANCH  15  18
ENDBRANCH   8  14
ENDBRANCH   5   7
ENDBRANCH   4   5
ENDBRANCH   3   4
ENDBRANCH   2   3
ENDBRANCH   1   2
BRANCH   1  27
ATOM     27  C   UNL A   1      32.995  29.214  27.256  1.00  0.00     0.202 C 
BRANCH  27  28
ATOM     28  C   UNL A   1      32.986  30.746  27.310  1.00  0.00     0.261 C 
BRANCH  28  29
ATOM     29  O   UNL A   1      34.215  31.426  27.430  1.00  0.00    -0.460 OA
BRANCH  29  30
ATOM     30  C   UNL A   1      34.610  31.717  28.678  1.00  0.00     0.338 C 
ATOM     31  O   UNL A   1      34.058  32.406  29.506  1.00  0.00    -0.246 OA
BRANCH  30  32
ATOM     32  C   UNL A   1      35.815  30.900  28.843  1.00  0.00     0.060 A 
ATOM     33  C   UNL A   1      35.894  30.051  29.945  1.00  0.00     0.016 A 
ATOM     34  C   UNL A   1      36.817  30.937  27.864  1.00  0.00     0.016 A 
ATOM     35  C   UNL A   1      37.041  29.294  30.123  1.00  0.00     0.010 A 
ATOM     36  C   UNL A   1      37.963  30.173  28.039  1.00  0.00     0.010 A 
ATOM     37  C   UNL A   1      38.096  29.402  29.205  1.00  0.00    -0.014 A 
BRANCH  37  38
ATOM     38  C   UNL A   1      39.422  28.895  29.605  1.00  0.00     0.031 A 
ATOM     39  C   UNL A   1      40.108  29.581  30.754  1.00  0.00     0.074 A 
ATOM     40  C   UNL A   1      39.936  27.808  29.009  1.00  0.00     0.049 A 
ATOM     41  N   UNL A   1      41.239  29.289  31.336  1.00  0.00    -0.248 NA
ATOM     42  C   UNL A   1      39.427  30.759  31.324  1.00  0.00     0.031 C 
ATOM     43  C   UNL A   1      39.310  27.075  27.906  1.00  0.00     0.029 A 
ATOM     44  N   UNL A   1      41.093  27.122  29.254  1.00  0.00    -0.354 N 
ATOM     45  C   UNL A   1      41.407  30.246  32.332  1.00  0.00     0.074 A 
ATOM     46  C   UNL A   1      40.285  31.151  32.254  1.00  0.00     0.031 C 
ATOM     47  C   UNL A   1      40.091  26.032  27.578  1.00  0.00     0.029 A 
ATOM     48  C   UNL A   1      41.282  26.043  28.423  1.00  0.00     0.049 A 
ATOM     49  H   UNL A   1      41.730  27.376  29.960  1.00  0.00     0.167 HD
ATOM     50  C   UNL A   1      42.410  30.346  33.236  1.00  0.00     0.034 A 
ATOM     51  C   UNL A   1      42.311  25.177  28.358  1.00  0.00     0.034 A 
ATOM     52  C   UNL A   1      43.510  29.419  33.287  1.00  0.00     0.049 A 
ATOM     53  C   UNL A   1      43.429  25.332  29.364  1.00  0.00     0.074 A 
ATOM     54  C   UNL A   1      44.581  29.401  34.161  1.00  0.00     0.029 A 
ATOM     55  N   UNL A   1      43.681  28.346  32.421  1.00  0.00    -0.354 N 
ATOM     56  N   UNL A   1      43.564  26.225  30.321  1.00  0.00    -0.248 NA
ATOM     57  C   UNL A   1      44.517  24.350  29.300  1.00  0.00     0.031 C 
ATOM     58  C   UNL A   1      45.435  28.362  33.777  1.00  0.00     0.029 A 
ATOM     59  C   UNL A   1      44.853  27.674  32.723  1.00  0.00     0.049 A 
ATOM     60  H   UNL A   1      43.059  28.100  31.698  1.00  0.00     0.167 HD
ATOM     61  C   UNL A   1      44.730  25.879  31.000  1.00  0.00     0.074 A 
ATOM     62  C   UNL A   1      45.241  24.688  30.354  1.00  0.00     0.031 C 
ATOM     63  C   UNL A   1      45.327  26.482  32.060  1.00  0.00     0.034 A 
BRANCH  50  64
ATOM     64  C   UNL A   1      42.389  31.518  34.185  1.00  0.00     0.023 A 
ATOM     65  C   UNL A   1      41.616  31.520  35.361  1.00  0.00     0.031 A 
ATOM     66  C   UNL A   1      43.162  32.658  33.902  1.00  0.00     0.131 A 
ATOM     67  C   UNL A   1      41.603  32.656  36.186  1.00  0.00     0.055 A 
ATOM     68  C   UNL A   1      43.198  33.756  34.763  1.00  0.00     0.041 A 
ATOM     69  F   UNL A   1      43.893  32.725  32.778  1.00  0.00    -0.206 F 
ATOM     70  C   UNL A   1      42.409  33.763  35.908  1.00  0.00     0.022 A 
BRANCH  67  71
ATOM     71  S   UNL A   1      40.444  32.712  37.581  1.00  0.00     0.124 S 
ATOM     72  O   UNL A   1      40.042  34.116  37.576  1.00  0.00    -0.237 OA
ATOM     73  O   UNL A   1      39.421  31.753  37.181  1.00  0.00    -0.237 OA
ATOM     74  O   UNL A   1      41.263  32.309  38.723  1.00  0.00    -0.744 OA
ENDBRANCH  67  71
ENDBRANCH  50  64
BRANCH  51  75
ATOM     75  C   UNL A   1      42.355  24.112  27.314  1.00  0.00     0.023 A 
ATOM     76  C   UNL A   1      41.711  22.879  27.500  1.00  0.00     0.031 A 
ATOM     77  C   UNL A   1      43.119  24.281  26.144  1.00  0.00     0.131 A 
ATOM     78  C   UNL A   1      41.904  21.840  26.576  1.00  0.00     0.055 A 
ATOM     79  C   UNL A   1      43.251  23.268  25.193  1.00  0.00     0.041 A 
ATOM     80  F   UNL A   1      43.755  25.440  25.909  1.00  0.00    -0.206 F 
ATOM     81  C   UNL A   1      42.660  22.030  25.418  1.00  0.00     0.022 A 
BRANCH  78  82
ATOM     82  S   UNL A   1      41.268  20.189  26.983  1.00  0.00     0.124 S 
ATOM     83  O   UNL A   1      42.437  19.353  26.740  1.00  0.00    -0.237 OA
ATOM     84  O   UNL A   1      40.875  20.356  28.378  1.00  0.00    -0.237 OA
ATOM     85  O   UNL A   1      40.165  20.010  26.042  1.00  0.00    -0.744 OA
ENDBRANCH  78  82
ENDBRANCH  51  75
BRANCH  63  86
ATOM     86  C   UNL A   1      46.556  25.811  32.621  1.00  0.00     0.023 A 
ATOM     87  C   UNL A   1      47.818  25.955  32.022  1.00  0.00     0.031 A 
ATOM     88  C   UNL A   1      46.450  24.987  33.756  1.00  0.00     0.131 A 
ATOM     89  C   UNL A   1      48.907  25.219  32.509  1.00  0.00     0.055 A 
ATOM     90  C   UNL A   1      47.555  24.320  34.284  1.00  0.00     0.041 A 
ATOM     91  F   UNL A   1      45.267  24.816  34.370  1.00  0.00    -0.206 F 
ATOM     92  C   UNL A   1      48.788  24.417  33.648  1.00  0.00     0.022 A 
BRANCH  89  93
ATOM     93  S   UNL A   1      50.448  25.219  31.553  1.00  0.00     0.124 S 
ATOM     94  O   UNL A   1      50.928  23.855  31.752  1.00  0.00    -0.237 OA
ATOM     95  O   UNL A   1      49.980  25.538  30.209  1.00  0.00    -0.237 OA
ATOM     96  O   UNL A   1      51.249  26.259  32.195  1.00  0.00    -0.744 OA
ENDBRANCH  89  93
ENDBRANCH  63  86
ENDBRANCH  37  38
ENDBRANCH  30  32
ENDBRANCH  29  30
ENDBRANCH  28  29
ENDBRANCH  27  28
ENDBRANCH   1  27
TORSDOF 20
ENDMDL
