MODEL 1
REMARK VINA RESULT:     -12.9      0.000      0.000
REMARK SMILES Cc1ccccc1OC1(C(=O)OCCOCCOC(=O)c2ccc(-c3c4nc(c(-c5cc(S(=O)(=O)[O-])ccc5F)c5ccc([nH]5)c(-c5cc(S(=O)(=O)[O-])ccc5F)c5nc(c(-c6cc(S(=O)(=O)[O-])ccc6F)c6ccc3[nH]6)C=C5)C=C4)cc2)CCN(C(=O)[C@H]2CCCCO2)CC1
REMARK SMILES IDX 16 1 15 2 14 3 13 4 12 5 10 6 11 7 9 8 84 9 96 10 85 11
REMARK SMILES IDX 95 12 86 13 87 14 88 15 8 16 7 17 1 18 2 19 3 20 4 21 6 22
REMARK SMILES IDX 5 23 89 24 90 25 94 26 91 27 93 28 92 29 17 30 18 31 19 32
REMARK SMILES IDX 20 33 21 34 22 35 83 36 23 37 82 38 24 39 25 40 26 41 76 42
REMARK SMILES IDX 27 43 81 44 75 45 77 46 28 47 80 48 74 49 73 50 29 52 61 53
REMARK SMILES IDX 41 54 60 55 42 56 45 57 59 58 78 59 43 60 44 61 58 63 79 64
REMARK SMILES IDX 46 65 30 66 31 67 39 68 32 69 38 70 40 71 37 72 33 73 34 74
REMARK SMILES IDX 35 75 36 76 62 77 63 78 71 79 64 80 70 81 72 82 69 83 65 84
REMARK SMILES IDX 66 85 67 86 68 87 47 88 48 89 56 90 49 91 55 92 57 93 54 94
REMARK SMILES IDX 50 95 51 96 52 97 53 98
REMARK H PARENT 77 51 45 62
REMARK Flexibility Score: inf
ROOT
ATOM      1  C   UNL A   1      33.664  29.551  26.063  1.00  0.00     0.202 C 
ENDROOT
BRANCH   1   2
ATOM      2  O   UNL A   1      32.518  28.932  25.531  1.00  0.00    -0.374 OA
BRANCH   2   3
ATOM      3  C   UNL A   1      31.512  28.555  26.457  1.00  0.00     0.202 C 
BRANCH   3   4
ATOM      4  C   UNL A   1      31.952  27.226  26.994  1.00  0.00     0.261 C 
BRANCH   4   5
ATOM      5  O   UNL A   1      32.068  26.185  25.997  1.00  0.00    -0.460 OA
BRANCH   5   6
ATOM      6  C   UNL A   1      31.150  25.177  25.848  1.00  0.00     0.350 C 
ATOM      7  O   UNL A   1      30.175  24.977  26.556  1.00  0.00    -0.247 OA
BRANCH   6   8
ATOM      8  C   UNL A   1      31.582  24.331  24.611  1.00  0.00     0.209 C 
ATOM      9  C   UNL A   1      33.106  24.479  24.591  1.00  0.00     0.082 C 
ATOM     10  C   UNL A   1      30.945  22.959  24.858  1.00  0.00     0.082 C 
ATOM     11  C   UNL A   1      33.863  23.349  25.274  1.00  0.00     0.124 C 
ATOM     12  C   UNL A   1      31.868  21.820  25.270  1.00  0.00     0.124 C 
ATOM     13  N   UNL A   1      33.300  22.017  25.067  1.00  0.00    -0.340 N 
ATOM     14  C   UNL A   1      34.213  20.964  24.908  1.00  0.00     0.251 C 
ATOM     15  O   UNL A   1      35.425  21.172  24.791  1.00  0.00    -0.272 OA
BRANCH   8  16
ATOM     16  O   UNL A   1      31.008  24.959  23.444  1.00  0.00    -0.475 OA
BRANCH  16  17
ATOM     17  C   UNL A   1      30.655  26.271  23.256  1.00  0.00     0.123 A 
ATOM     18  C   UNL A   1      28.188  26.490  24.067  1.00  0.00     0.048 C 
ATOM     19  C   UNL A   1      29.475  26.994  23.515  1.00  0.00    -0.009 A 
ATOM     20  C   UNL A   1      29.397  28.366  23.175  1.00  0.00     0.007 A 
ATOM     21  C   UNL A   1      30.457  29.036  22.592  1.00  0.00     0.001 A 
ATOM     22  C   UNL A   1      31.714  26.980  22.657  1.00  0.00     0.047 A 
ATOM     23  C   UNL A   1      31.622  28.338  22.329  1.00  0.00     0.004 A 
ENDBRANCH  16  17
ENDBRANCH   8  16
BRANCH  14  24
ATOM     24  C   UNL A   1      33.654  19.528  24.743  1.00  0.00     0.207 C 
ATOM     25  C   UNL A   1      32.805  19.510  23.460  1.00  0.00     0.042 C 
ATOM     26  O   UNL A   1      34.747  18.607  24.632  1.00  0.00    -0.368 OA
ATOM     27  C   UNL A   1      32.430  18.103  23.017  1.00  0.00     0.006 C 
ATOM     28  C   UNL A   1      34.342  17.273  24.365  1.00  0.00     0.161 C 
ATOM     29  C   UNL A   1      33.657  17.206  23.011  1.00  0.00     0.029 C 
ENDBRANCH  14  24
ENDBRANCH   6   8
ENDBRANCH   5   6
ENDBRANCH   4   5
ENDBRANCH   3   4
ENDBRANCH   2   3
ENDBRANCH   1   2
BRANCH   1  30
ATOM     30  C   UNL A   1      33.329  30.513  27.207  1.00  0.00     0.261 C 
BRANCH  30  31
ATOM     31  O   UNL A   1      34.407  31.453  27.415  1.00  0.00    -0.460 OA
BRANCH  31  32
ATOM     32  C   UNL A   1      34.993  31.424  28.646  1.00  0.00     0.338 C 
ATOM     33  O   UNL A   1      34.773  32.231  29.540  1.00  0.00    -0.246 OA
BRANCH  32  34
ATOM     34  C   UNL A   1      36.026  30.351  28.709  1.00  0.00     0.060 A 
ATOM     35  C   UNL A   1      36.291  29.671  29.915  1.00  0.00     0.016 A 
ATOM     36  C   UNL A   1      36.908  30.233  27.641  1.00  0.00     0.016 A 
ATOM     37  C   UNL A   1      37.517  29.009  30.095  1.00  0.00     0.010 A 
ATOM     38  C   UNL A   1      38.157  29.707  27.872  1.00  0.00     0.010 A 
ATOM     39  C   UNL A   1      38.485  29.112  29.100  1.00  0.00    -0.014 A 
BRANCH  39  40
ATOM     40  C   UNL A   1      39.891  28.712  29.192  1.00  0.00     0.031 A 
ATOM     41  C   UNL A   1      40.219  27.315  28.819  1.00  0.00     0.074 A 
ATOM     42  C   UNL A   1      40.883  29.630  29.324  1.00  0.00     0.049 A 
ATOM     43  N   UNL A   1      41.394  26.811  28.920  1.00  0.00    -0.248 NA
ATOM     44  C   UNL A   1      39.242  26.337  28.329  1.00  0.00     0.031 C 
ATOM     45  C   UNL A   1      42.294  29.513  28.949  1.00  0.00     0.029 A 
ATOM     46  N   UNL A   1      40.831  30.905  29.895  1.00  0.00    -0.354 N 
ATOM     47  C   UNL A   1      41.415  25.628  28.228  1.00  0.00     0.074 A 
ATOM     48  C   UNL A   1      40.033  25.313  27.993  1.00  0.00     0.031 C 
ATOM     49  C   UNL A   1      43.004  30.487  29.548  1.00  0.00     0.029 A 
ATOM     50  C   UNL A   1      42.093  31.206  30.423  1.00  0.00     0.049 A 
ATOM     51  H   UNL A   1      40.042  31.492  29.921  1.00  0.00     0.167 HD
ATOM     52  C   UNL A   1      42.627  25.142  27.850  1.00  0.00     0.034 A 
ATOM     53  C   UNL A   1      42.242  31.462  31.750  1.00  0.00     0.034 A 
ATOM     54  C   UNL A   1      43.700  25.897  28.515  1.00  0.00     0.049 A 
ATOM     55  C   UNL A   1      43.083  30.347  32.313  1.00  0.00     0.074 A 
ATOM     56  C   UNL A   1      44.644  26.813  28.086  1.00  0.00     0.029 A 
ATOM     57  N   UNL A   1      43.685  25.981  29.909  1.00  0.00    -0.354 N 
ATOM     58  N   UNL A   1      43.150  29.166  31.752  1.00  0.00    -0.248 NA
ATOM     59  C   UNL A   1      44.031  30.507  33.408  1.00  0.00     0.031 C 
ATOM     60  C   UNL A   1      45.102  27.529  29.236  1.00  0.00     0.029 A 
ATOM     61  C   UNL A   1      44.474  27.016  30.364  1.00  0.00     0.049 A 
ATOM     62  H   UNL A   1      43.173  25.377  30.494  1.00  0.00     0.167 HD
ATOM     63  C   UNL A   1      44.195  28.474  32.281  1.00  0.00     0.074 A 
ATOM     64  C   UNL A   1      44.685  29.334  33.351  1.00  0.00     0.031 C 
ATOM     65  C   UNL A   1      44.613  27.267  31.796  1.00  0.00     0.034 A 
BRANCH  52  66
ATOM     66  C   UNL A   1      42.878  24.095  26.787  1.00  0.00     0.023 A 
ATOM     67  C   UNL A   1      42.268  22.831  26.938  1.00  0.00     0.031 A 
ATOM     68  C   UNL A   1      43.752  24.208  25.682  1.00  0.00     0.131 A 
ATOM     69  C   UNL A   1      42.522  21.777  26.037  1.00  0.00     0.055 A 
ATOM     70  C   UNL A   1      43.962  23.176  24.757  1.00  0.00     0.041 A 
ATOM     71  F   UNL A   1      44.499  25.293  25.459  1.00  0.00    -0.206 F 
ATOM     72  C   UNL A   1      43.348  21.949  24.933  1.00  0.00     0.022 A 
BRANCH  69  73
ATOM     73  S   UNL A   1      41.791  20.150  26.360  1.00  0.00     0.124 S 
ATOM     74  O   UNL A   1      42.308  19.841  27.689  1.00  0.00    -0.237 OA
ATOM     75  O   UNL A   1      40.362  20.427  26.268  1.00  0.00    -0.237 OA
ATOM     76  O   UNL A   1      42.329  19.318  25.284  1.00  0.00    -0.744 OA
ENDBRANCH  69  73
ENDBRANCH  52  66
BRANCH  53  77
ATOM     77  C   UNL A   1      41.045  32.163  32.322  1.00  0.00     0.023 A 
ATOM     78  C   UNL A   1      40.229  31.423  33.222  1.00  0.00     0.031 A 
ATOM     79  C   UNL A   1      40.984  33.562  32.409  1.00  0.00     0.131 A 
ATOM     80  C   UNL A   1      39.513  32.072  34.249  1.00  0.00     0.055 A 
ATOM     81  C   UNL A   1      40.258  34.202  33.428  1.00  0.00     0.041 A 
ATOM     82  F   UNL A   1      41.743  34.326  31.611  1.00  0.00    -0.206 F 
ATOM     83  C   UNL A   1      39.560  33.459  34.379  1.00  0.00     0.022 A 
BRANCH  80  84
ATOM     84  S   UNL A   1      38.787  31.093  35.617  1.00  0.00     0.124 S 
ATOM     85  O   UNL A   1      39.898  30.998  36.555  1.00  0.00    -0.237 OA
ATOM     86  O   UNL A   1      37.661  31.920  36.036  1.00  0.00    -0.237 OA
ATOM     87  O   UNL A   1      38.400  29.843  34.960  1.00  0.00    -0.744 OA
ENDBRANCH  80  84
ENDBRANCH  53  77
BRANCH  65  88
ATOM     88  C   UNL A   1      45.252  26.238  32.685  1.00  0.00     0.023 A 
ATOM     89  C   UNL A   1      44.480  25.315  33.398  1.00  0.00     0.031 A 
ATOM     90  C   UNL A   1      46.650  26.053  32.751  1.00  0.00     0.131 A 
ATOM     91  C   UNL A   1      45.068  24.372  34.243  1.00  0.00     0.055 A 
ATOM     92  C   UNL A   1      47.237  25.026  33.493  1.00  0.00     0.041 A 
ATOM     93  F   UNL A   1      47.506  26.839  32.081  1.00  0.00    -0.206 F 
ATOM     94  C   UNL A   1      46.446  24.195  34.274  1.00  0.00     0.022 A 
BRANCH  91  95
ATOM     95  S   UNL A   1      43.972  23.499  35.381  1.00  0.00     0.124 S 
ATOM     96  O   UNL A   1      44.607  22.184  35.451  1.00  0.00    -0.237 OA
ATOM     97  O   UNL A   1      44.065  24.307  36.593  1.00  0.00    -0.237 OA
ATOM     98  O   UNL A   1      42.680  23.532  34.704  1.00  0.00    -0.744 OA
ENDBRANCH  91  95
ENDBRANCH  65  88
ENDBRANCH  39  40
ENDBRANCH  32  34
ENDBRANCH  31  32
ENDBRANCH  30  31
ENDBRANCH   1  30
TORSDOF 20
ENDMDL
MODEL 2
REMARK VINA RESULT:     -12.5      3.791      9.697
REMARK SMILES Cc1ccccc1OC1(C(=O)OCCOCCOC(=O)c2ccc(-c3c4nc(c(-c5cc(S(=O)(=O)[O-])ccc5F)c5ccc([nH]5)c(-c5cc(S(=O)(=O)[O-])ccc5F)c5nc(c(-c6cc(S(=O)(=O)[O-])ccc6F)c6ccc3[nH]6)C=C5)C=C4)cc2)CCN(C(=O)[C@H]2CCCCO2)CC1
REMARK SMILES IDX 16 1 15 2 14 3 13 4 12 5 10 6 11 7 9 8 84 9 96 10 85 11
REMARK SMILES IDX 95 12 86 13 87 14 88 15 8 16 7 17 1 18 2 19 3 20 4 21 6 22
REMARK SMILES IDX 5 23 89 24 90 25 94 26 91 27 93 28 92 29 17 30 18 31 19 32
REMARK SMILES IDX 20 33 21 34 22 35 83 36 23 37 82 38 24 39 25 40 26 41 76 42
REMARK SMILES IDX 27 43 81 44 75 45 77 46 28 47 80 48 74 49 73 50 29 52 61 53
REMARK SMILES IDX 41 54 60 55 42 56 45 57 59 58 78 59 43 60 44 61 58 63 79 64
REMARK SMILES IDX 46 65 30 66 31 67 39 68 32 69 38 70 40 71 37 72 33 73 34 74
REMARK SMILES IDX 35 75 36 76 62 77 63 78 71 79 64 80 70 81 72 82 69 83 65 84
REMARK SMILES IDX 66 85 67 86 68 87 47 88 48 89 56 90 49 91 55 92 57 93 54 94
REMARK SMILES IDX 50 95 51 96 52 97 53 98
REMARK H PARENT 77 51 45 62
REMARK Flexibility Score: inf
ROOT
ATOM      1  C   UNL A   1      37.209  21.236  25.238  1.00  0.00     0.202 C 
ENDROOT
BRANCH   1   2
ATOM      2  O   UNL A   1      36.305  21.871  26.109  1.00  0.00    -0.374 OA
BRANCH   2   3
ATOM      3  C   UNL A   1      36.174  23.277  25.972  1.00  0.00     0.202 C 
BRANCH   3   4
ATOM      4  C   UNL A   1      35.826  23.499  24.531  1.00  0.00     0.261 C 
BRANCH   4   5
ATOM      5  O   UNL A   1      34.700  24.381  24.314  1.00  0.00    -0.460 OA
BRANCH   5   6
ATOM      6  C   UNL A   1      33.770  24.187  23.325  1.00  0.00     0.350 C 
ATOM      7  O   UNL A   1      33.989  23.772  22.197  1.00  0.00    -0.247 OA
BRANCH   6   8
ATOM      8  C   UNL A   1      32.381  24.599  23.903  1.00  0.00     0.209 C 
ATOM      9  C   UNL A   1      32.741  25.466  25.114  1.00  0.00     0.082 C 
ATOM     10  C   UNL A   1      31.648  25.215  22.706  1.00  0.00     0.082 C 
ATOM     11  C   UNL A   1      32.756  26.963  24.841  1.00  0.00     0.124 C 
ATOM     12  C   UNL A   1      31.476  26.728  22.691  1.00  0.00     0.124 C 
ATOM     13  N   UNL A   1      31.703  27.438  23.946  1.00  0.00    -0.340 N 
ATOM     14  C   UNL A   1      31.132  28.682  24.248  1.00  0.00     0.251 C 
ATOM     15  O   UNL A   1      31.391  29.274  25.301  1.00  0.00    -0.272 OA
BRANCH   8  16
ATOM     16  O   UNL A   1      31.724  23.389  24.338  1.00  0.00    -0.475 OA
BRANCH  16  17
ATOM     17  C   UNL A   1      32.230  22.117  24.426  1.00  0.00     0.123 A 
ATOM     18  C   UNL A   1      31.928  21.043  22.071  1.00  0.00     0.048 C 
ATOM     19  C   UNL A   1      32.363  21.070  23.494  1.00  0.00    -0.009 A 
ATOM     20  C   UNL A   1      32.909  19.828  23.897  1.00  0.00     0.007 A 
ATOM     21  C   UNL A   1      33.329  19.602  25.196  1.00  0.00     0.001 A 
ATOM     22  C   UNL A   1      32.662  21.853  25.740  1.00  0.00     0.047 A 
ATOM     23  C   UNL A   1      33.202  20.620  26.123  1.00  0.00     0.004 A 
ENDBRANCH  16  17
ENDBRANCH   8  16
BRANCH  14  24
ATOM     24  C   UNL A   1      30.051  29.244  23.290  1.00  0.00     0.207 C 
ATOM     25  C   UNL A   1      28.789  28.381  23.463  1.00  0.00     0.042 C 
ATOM     26  O   UNL A   1      29.777  30.608  23.637  1.00  0.00    -0.368 OA
ATOM     27  C   UNL A   1      27.561  28.989  22.802  1.00  0.00     0.006 C 
ATOM     28  C   UNL A   1      28.717  31.184  22.889  1.00  0.00     0.161 C 
ATOM     29  C   UNL A   1      27.421  30.453  23.188  1.00  0.00     0.029 C 
ENDBRANCH  14  24
ENDBRANCH   6   8
ENDBRANCH   5   6
ENDBRANCH   4   5
ENDBRANCH   3   4
ENDBRANCH   2   3
ENDBRANCH   1   2
BRANCH   1  30
ATOM     30  C   UNL A   1      38.646  21.266  25.765  1.00  0.00     0.261 C 
BRANCH  30  31
ATOM     31  O   UNL A   1      39.223  22.581  25.600  1.00  0.00    -0.460 OA
BRANCH  31  32
ATOM     32  C   UNL A   1      40.075  22.986  26.584  1.00  0.00     0.338 C 
ATOM     33  O   UNL A   1      40.852  22.249  27.178  1.00  0.00    -0.246 OA
BRANCH  32  34
ATOM     34  C   UNL A   1      39.844  24.420  26.918  1.00  0.00     0.060 A 
ATOM     35  C   UNL A   1      40.535  25.443  26.238  1.00  0.00     0.016 A 
ATOM     36  C   UNL A   1      39.156  24.712  28.090  1.00  0.00     0.016 A 
ATOM     37  C   UNL A   1      40.666  26.714  26.823  1.00  0.00     0.010 A 
ATOM     38  C   UNL A   1      39.405  25.909  28.721  1.00  0.00     0.010 A 
ATOM     39  C   UNL A   1      40.175  26.911  28.111  1.00  0.00    -0.014 A 
BRANCH  39  40
ATOM     40  C   UNL A   1      40.420  28.064  28.981  1.00  0.00     0.031 A 
ATOM     41  C   UNL A   1      39.401  29.139  28.975  1.00  0.00     0.074 A 
ATOM     42  C   UNL A   1      41.364  28.029  29.957  1.00  0.00     0.049 A 
ATOM     43  N   UNL A   1      39.521  30.234  29.632  1.00  0.00    -0.248 NA
ATOM     44  C   UNL A   1      38.159  29.101  28.195  1.00  0.00     0.031 C 
ATOM     45  C   UNL A   1      41.434  28.813  31.192  1.00  0.00     0.029 A 
ATOM     46  N   UNL A   1      42.539  27.273  30.017  1.00  0.00    -0.354 N 
ATOM     47  C   UNL A   1      38.303  30.861  29.648  1.00  0.00     0.074 A 
ATOM     48  C   UNL A   1      37.529  30.193  28.639  1.00  0.00     0.031 C 
ATOM     49  C   UNL A   1      42.675  28.735  31.708  1.00  0.00     0.029 A 
ATOM     50  C   UNL A   1      43.486  27.985  30.764  1.00  0.00     0.049 A 
ATOM     51  H   UNL A   1      42.677  26.390  29.604  1.00  0.00     0.167 HD
ATOM     52  C   UNL A   1      38.089  31.796  30.613  1.00  0.00     0.034 A 
ATOM     53  C   UNL A   1      44.669  28.355  30.205  1.00  0.00     0.034 A 
ATOM     54  C   UNL A   1      39.354  32.115  31.291  1.00  0.00     0.049 A 
ATOM     55  C   UNL A   1      44.666  29.860  30.144  1.00  0.00     0.074 A 
ATOM     56  C   UNL A   1      39.867  31.855  32.550  1.00  0.00     0.029 A 
ATOM     57  N   UNL A   1      40.435  32.537  30.513  1.00  0.00    -0.354 N 
ATOM     58  N   UNL A   1      43.559  30.560  30.121  1.00  0.00    -0.248 NA
ATOM     59  C   UNL A   1      45.855  30.689  30.286  1.00  0.00     0.031 C 
ATOM     60  C   UNL A   1      41.286  32.011  32.476  1.00  0.00     0.029 A 
ATOM     61  C   UNL A   1      41.629  32.412  31.191  1.00  0.00     0.049 A 
ATOM     62  H   UNL A   1      40.354  32.881  29.594  1.00  0.00     0.167 HD
ATOM     63  C   UNL A   1      43.845  31.864  30.374  1.00  0.00     0.074 A 
ATOM     64  C   UNL A   1      45.301  31.907  30.419  1.00  0.00     0.031 C 
ATOM     65  C   UNL A   1      42.884  32.817  30.563  1.00  0.00     0.034 A 
BRANCH  52  66
ATOM     66  C   UNL A   1      36.744  32.329  31.058  1.00  0.00     0.023 A 
ATOM     67  C   UNL A   1      36.015  33.136  30.159  1.00  0.00     0.031 A 
ATOM     68  C   UNL A   1      36.165  32.189  32.339  1.00  0.00     0.131 A 
ATOM     69  C   UNL A   1      34.798  33.740  30.531  1.00  0.00     0.055 A 
ATOM     70  C   UNL A   1      34.928  32.745  32.690  1.00  0.00     0.041 A 
ATOM     71  F   UNL A   1      36.778  31.558  33.346  1.00  0.00    -0.206 F 
ATOM     72  C   UNL A   1      34.237  33.531  31.786  1.00  0.00     0.022 A 
BRANCH  69  73
ATOM     73  S   UNL A   1      33.975  34.854  29.361  1.00  0.00     0.124 S 
ATOM     74  O   UNL A   1      33.709  36.025  30.189  1.00  0.00    -0.237 OA
ATOM     75  O   UNL A   1      34.985  35.012  28.320  1.00  0.00    -0.237 OA
ATOM     76  O   UNL A   1      32.786  34.104  28.957  1.00  0.00    -0.744 OA
ENDBRANCH  69  73
ENDBRANCH  52  66
BRANCH  53  77
ATOM     77  C   UNL A   1      45.160  27.342  29.213  1.00  0.00     0.023 A 
ATOM     78  C   UNL A   1      44.937  27.621  27.837  1.00  0.00     0.031 A 
ATOM     79  C   UNL A   1      46.201  26.455  29.524  1.00  0.00     0.131 A 
ATOM     80  C   UNL A   1      45.822  27.143  26.848  1.00  0.00     0.055 A 
ATOM     81  C   UNL A   1      47.073  25.971  28.531  1.00  0.00     0.041 A 
ATOM     82  F   UNL A   1      46.488  26.162  30.799  1.00  0.00    -0.206 F 
ATOM     83  C   UNL A   1      46.915  26.352  27.199  1.00  0.00     0.022 A 
BRANCH  80  84
ATOM     84  S   UNL A   1      45.747  27.819  25.148  1.00  0.00     0.124 S 
ATOM     85  O   UNL A   1      44.312  27.924  24.918  1.00  0.00    -0.237 OA
ATOM     86  O   UNL A   1      46.471  29.078  25.274  1.00  0.00    -0.237 OA
ATOM     87  O   UNL A   1      46.446  26.804  24.357  1.00  0.00    -0.744 OA
ENDBRANCH  80  84
ENDBRANCH  53  77
BRANCH  65  88
ATOM     88  C   UNL A   1      43.114  34.255  30.194  1.00  0.00     0.023 A 
ATOM     89  C   UNL A   1      42.969  34.697  28.874  1.00  0.00     0.031 A 
ATOM     90  C   UNL A   1      43.354  35.258  31.157  1.00  0.00     0.131 A 
ATOM     91  C   UNL A   1      43.204  36.028  28.523  1.00  0.00     0.055 A 
ATOM     92  C   UNL A   1      43.460  36.610  30.823  1.00  0.00     0.041 A 
ATOM     93  F   UNL A   1      43.471  34.979  32.463  1.00  0.00    -0.206 F 
ATOM     94  C   UNL A   1      43.417  37.001  29.492  1.00  0.00     0.022 A 
BRANCH  91  95
ATOM     95  S   UNL A   1      43.352  36.393  26.761  1.00  0.00     0.124 S 
ATOM     96  O   UNL A   1      42.701  35.228  26.164  1.00  0.00    -0.237 OA
ATOM     97  O   UNL A   1      42.624  37.652  26.636  1.00  0.00    -0.237 OA
ATOM     98  O   UNL A   1      44.793  36.478  26.549  1.00  0.00    -0.744 OA
ENDBRANCH  91  95
ENDBRANCH  65  88
ENDBRANCH  39  40
ENDBRANCH  32  34
ENDBRANCH  31  32
ENDBRANCH  30  31
ENDBRANCH   1  30
TORSDOF 20
ENDMDL
MODEL 3
REMARK VINA RESULT:     -12.4      4.105     10.114
REMARK SMILES Cc1ccccc1OC1(C(=O)OCCOCCOC(=O)c2ccc(-c3c4nc(c(-c5cc(S(=O)(=O)[O-])ccc5F)c5ccc([nH]5)c(-c5cc(S(=O)(=O)[O-])ccc5F)c5nc(c(-c6cc(S(=O)(=O)[O-])ccc6F)c6ccc3[nH]6)C=C5)C=C4)cc2)CCN(C(=O)[C@H]2CCCCO2)CC1
REMARK SMILES IDX 16 1 15 2 14 3 13 4 12 5 10 6 11 7 9 8 84 9 96 10 85 11
REMARK SMILES IDX 95 12 86 13 87 14 88 15 8 16 7 17 1 18 2 19 3 20 4 21 6 22
REMARK SMILES IDX 5 23 89 24 90 25 94 26 91 27 93 28 92 29 17 30 18 31 19 32
REMARK SMILES IDX 20 33 21 34 22 35 83 36 23 37 82 38 24 39 25 40 26 41 76 42
REMARK SMILES IDX 27 43 81 44 75 45 77 46 28 47 80 48 74 49 73 50 29 52 61 53
REMARK SMILES IDX 41 54 60 55 42 56 45 57 59 58 78 59 43 60 44 61 58 63 79 64
REMARK SMILES IDX 46 65 30 66 31 67 39 68 32 69 38 70 40 71 37 72 33 73 34 74
REMARK SMILES IDX 35 75 36 76 62 77 63 78 71 79 64 80 70 81 72 82 69 83 65 84
REMARK SMILES IDX 66 85 67 86 68 87 47 88 48 89 56 90 49 91 55 92 57 93 54 94
REMARK SMILES IDX 50 95 51 96 52 97 53 98
REMARK H PARENT 77 51 45 62
REMARK Flexibility Score: inf
ROOT
ATOM      1  C   UNL A   1      37.645  22.175  25.877  1.00  0.00     0.202 C 
ENDROOT
BRANCH   1   2
ATOM      2  O   UNL A   1      36.651  22.356  24.898  1.00  0.00    -0.374 OA
BRANCH   2   3
ATOM      3  C   UNL A   1      36.151  23.675  24.738  1.00  0.00     0.202 C 
BRANCH   3   4
ATOM      4  C   UNL A   1      35.301  23.623  23.505  1.00  0.00     0.261 C 
BRANCH   4   5
ATOM      5  O   UNL A   1      34.296  24.661  23.424  1.00  0.00    -0.460 OA
BRANCH   5   6
ATOM      6  C   UNL A   1      33.064  24.475  22.851  1.00  0.00     0.350 C 
ATOM      7  O   UNL A   1      32.840  23.934  21.779  1.00  0.00    -0.247 OA
BRANCH   6   8
ATOM      8  C   UNL A   1      32.003  25.088  23.816  1.00  0.00     0.209 C 
ATOM      9  C   UNL A   1      32.793  26.147  24.591  1.00  0.00     0.082 C 
ATOM     10  C   UNL A   1      30.856  25.508  22.889  1.00  0.00     0.082 C 
ATOM     11  C   UNL A   1      32.684  27.557  24.029  1.00  0.00     0.124 C 
ATOM     12  C   UNL A   1      30.675  26.997  22.628  1.00  0.00     0.124 C 
ATOM     13  N   UNL A   1      31.362  27.920  23.526  1.00  0.00    -0.340 N 
ATOM     14  C   UNL A   1      30.937  29.236  23.759  1.00  0.00     0.251 C 
ATOM     15  O   UNL A   1      31.577  30.003  24.486  1.00  0.00    -0.272 OA
BRANCH   8  16
ATOM     16  O   UNL A   1      31.581  24.034  24.708  1.00  0.00    -0.475 OA
BRANCH  16  17
ATOM     17  C   UNL A   1      32.341  23.095  25.355  1.00  0.00     0.123 A 
ATOM     18  C   UNL A   1      32.318  20.968  23.850  1.00  0.00     0.048 C 
ATOM     19  C   UNL A   1      32.711  21.773  25.038  1.00  0.00    -0.009 A 
ATOM     20  C   UNL A   1      33.500  21.022  25.943  1.00  0.00     0.007 A 
ATOM     21  C   UNL A   1      33.933  21.549  27.146  1.00  0.00     0.001 A 
ATOM     22  C   UNL A   1      32.795  23.600  26.589  1.00  0.00     0.047 A 
ATOM     23  C   UNL A   1      33.576  22.845  27.472  1.00  0.00     0.004 A 
ENDBRANCH  16  17
ENDBRANCH   8  16
BRANCH  14  24
ATOM     24  C   UNL A   1      29.564  29.674  23.191  1.00  0.00     0.207 C 
ATOM     25  C   UNL A   1      29.128  30.934  23.960  1.00  0.00     0.042 C 
ATOM     26  O   UNL A   1      29.703  29.965  21.793  1.00  0.00    -0.368 OA
ATOM     27  C   UNL A   1      27.942  31.639  23.318  1.00  0.00     0.006 C 
ATOM     28  C   UNL A   1      28.522  30.483  21.200  1.00  0.00     0.161 C 
ATOM     29  C   UNL A   1      28.177  31.822  21.828  1.00  0.00     0.029 C 
ENDBRANCH  14  24
ENDBRANCH   6   8
ENDBRANCH   5   6
ENDBRANCH   4   5
ENDBRANCH   3   4
ENDBRANCH   2   3
ENDBRANCH   1   2
BRANCH   1  30
ATOM     30  C   UNL A   1      38.412  23.466  26.176  1.00  0.00     0.261 C 
BRANCH  30  31
ATOM     31  O   UNL A   1      39.305  23.280  27.297  1.00  0.00    -0.460 OA
BRANCH  31  32
ATOM     32  C   UNL A   1      40.420  24.065  27.307  1.00  0.00     0.338 C 
ATOM     33  O   UNL A   1      41.569  23.641  27.290  1.00  0.00    -0.246 OA
BRANCH  32  34
ATOM     34  C   UNL A   1      40.049  25.500  27.464  1.00  0.00     0.060 A 
ATOM     35  C   UNL A   1      40.506  26.470  26.550  1.00  0.00     0.016 A 
ATOM     36  C   UNL A   1      39.488  25.898  28.673  1.00  0.00     0.016 A 
ATOM     37  C   UNL A   1      40.544  27.825  26.922  1.00  0.00     0.010 A 
ATOM     38  C   UNL A   1      39.659  27.200  29.082  1.00  0.00     0.010 A 
ATOM     39  C   UNL A   1      40.205  28.170  28.227  1.00  0.00    -0.014 A 
BRANCH  39  40
ATOM     40  C   UNL A   1      40.409  29.466  28.878  1.00  0.00     0.031 A 
ATOM     41  C   UNL A   1      39.268  30.412  28.864  1.00  0.00     0.074 A 
ATOM     42  C   UNL A   1      41.465  29.689  29.702  1.00  0.00     0.049 A 
ATOM     43  N   UNL A   1      39.330  31.605  29.333  1.00  0.00    -0.248 NA
ATOM     44  C   UNL A   1      37.953  30.118  28.285  1.00  0.00     0.031 C 
ATOM     45  C   UNL A   1      41.589  30.664  30.788  1.00  0.00     0.029 A 
ATOM     46  N   UNL A   1      42.724  29.082  29.701  1.00  0.00    -0.354 N 
ATOM     47  C   UNL A   1      38.053  32.093  29.433  1.00  0.00     0.074 A 
ATOM     48  C   UNL A   1      37.250  31.193  28.654  1.00  0.00     0.031 C 
ATOM     49  C   UNL A   1      42.885  30.802  31.126  1.00  0.00     0.029 A 
ATOM     50  C   UNL A   1      43.659  30.002  30.193  1.00  0.00     0.049 A 
ATOM     51  H   UNL A   1      42.921  28.165  29.404  1.00  0.00     0.167 HD
ATOM     52  C   UNL A   1      37.845  33.142  30.274  1.00  0.00     0.034 A 
ATOM     53  C   UNL A   1      44.706  30.401  29.422  1.00  0.00     0.034 A 
ATOM     54  C   UNL A   1      39.135  33.698  30.710  1.00  0.00     0.049 A 
ATOM     55  C   UNL A   1      44.503  31.868  29.146  1.00  0.00     0.074 A 
ATOM     56  C   UNL A   1      39.831  33.699  31.906  1.00  0.00     0.029 A 
ATOM     57  N   UNL A   1      40.046  34.103  29.732  1.00  0.00    -0.354 N 
ATOM     58  N   UNL A   1      43.322  32.433  29.183  1.00  0.00    -0.248 NA
ATOM     59  C   UNL A   1      45.586  32.831  28.995  1.00  0.00     0.031 C 
ATOM     60  C   UNL A   1      41.198  33.991  31.607  1.00  0.00     0.029 A 
ATOM     61  C   UNL A   1      41.323  34.216  30.242  1.00  0.00     0.049 A 
ATOM     62  H   UNL A   1      39.807  34.285  28.794  1.00  0.00     0.167 HD
ATOM     63  C   UNL A   1      43.470  33.784  29.202  1.00  0.00     0.074 A 
ATOM     64  C   UNL A   1      44.902  33.989  29.029  1.00  0.00     0.031 C 
ATOM     65  C   UNL A   1      42.426  34.646  29.387  1.00  0.00     0.034 A 
BRANCH  52  66
ATOM     66  C   UNL A   1      36.511  33.593  30.827  1.00  0.00     0.023 A 
ATOM     67  C   UNL A   1      35.591  34.194  29.943  1.00  0.00     0.031 A 
ATOM     68  C   UNL A   1      36.109  33.569  32.182  1.00  0.00     0.131 A 
ATOM     69  C   UNL A   1      34.364  34.719  30.397  1.00  0.00     0.055 A 
ATOM     70  C   UNL A   1      34.866  34.041  32.624  1.00  0.00     0.041 A 
ATOM     71  F   UNL A   1      36.907  33.143  33.166  1.00  0.00    -0.206 F 
ATOM     72  C   UNL A   1      33.985  34.625  31.732  1.00  0.00     0.022 A 
BRANCH  69  73
ATOM     73  S   UNL A   1      33.285  35.577  29.222  1.00  0.00     0.124 S 
ATOM     74  O   UNL A   1      32.508  36.447  30.099  1.00  0.00    -0.237 OA
ATOM     75  O   UNL A   1      34.243  36.234  28.341  1.00  0.00    -0.237 OA
ATOM     76  O   UNL A   1      32.524  34.491  28.605  1.00  0.00    -0.744 OA
ENDBRANCH  69  73
ENDBRANCH  52  66
BRANCH  53  77
ATOM     77  C   UNL A   1      45.193  29.301  28.526  1.00  0.00     0.023 A 
ATOM     78  C   UNL A   1      45.937  28.253  29.132  1.00  0.00     0.031 A 
ATOM     79  C   UNL A   1      44.560  29.012  27.307  1.00  0.00     0.131 A 
ATOM     80  C   UNL A   1      45.910  26.945  28.603  1.00  0.00     0.055 A 
ATOM     81  C   UNL A   1      44.547  27.709  26.779  1.00  0.00     0.041 A 
ATOM     82  F   UNL A   1      43.819  29.942  26.688  1.00  0.00    -0.206 F 
ATOM     83  C   UNL A   1      45.181  26.663  27.449  1.00  0.00     0.022 A 
BRANCH  80  84
ATOM     84  S   UNL A   1      46.548  25.543  29.594  1.00  0.00     0.124 S 
ATOM     85  O   UNL A   1      45.542  24.515  29.364  1.00  0.00    -0.237 OA
ATOM     86  O   UNL A   1      47.859  25.305  28.999  1.00  0.00    -0.237 OA
ATOM     87  O   UNL A   1      46.599  26.093  30.950  1.00  0.00    -0.744 OA
ENDBRANCH  80  84
ENDBRANCH  53  77
BRANCH  65  88
ATOM     88  C   UNL A   1      42.423  36.023  28.786  1.00  0.00     0.023 A 
ATOM     89  C   UNL A   1      43.034  37.100  29.437  1.00  0.00     0.031 A 
ATOM     90  C   UNL A   1      41.933  36.286  27.489  1.00  0.00     0.131 A 
ATOM     91  C   UNL A   1      43.014  38.386  28.893  1.00  0.00     0.055 A 
ATOM     92  C   UNL A   1      42.030  37.543  26.889  1.00  0.00     0.041 A 
ATOM     93  F   UNL A   1      41.363  35.333  26.736  1.00  0.00    -0.206 F 
ATOM     94  C   UNL A   1      42.545  38.615  27.605  1.00  0.00     0.022 A 
BRANCH  91  95
ATOM     95  S   UNL A   1      43.495  39.741  29.984  1.00  0.00     0.124 S 
ATOM     96  O   UNL A   1      43.848  39.023  31.207  1.00  0.00    -0.237 OA
ATOM     97  O   UNL A   1      44.612  40.346  29.266  1.00  0.00    -0.237 OA
ATOM     98  O   UNL A   1      42.288  40.558  30.068  1.00  0.00    -0.744 OA
ENDBRANCH  91  95
ENDBRANCH  65  88
ENDBRANCH  39  40
ENDBRANCH  32  34
ENDBRANCH  31  32
ENDBRANCH  30  31
ENDBRANCH   1  30
TORSDOF 20
ENDMDL
