MODEL 1
REMARK VINA RESULT:     -10.2      0.000      0.000
REMARK SMILES CN(C)S(=O)(=O)c1c[nH]c(C(=O)OCCOCCOC(=O)c2ccc(-c3c4nc(c(-c5cc(S(=O)(=O)[O-])ccc5F)c5ccc([nH]5)c(-c5cc(S(=O)(=O)[O-])ccc5F)c5nc(c(-c6cc(S(=O)(=O)[O-])ccc6F)c6ccc3[nH]6)C=C5)C=C4)cc2)c1
REMARK SMILES IDX 17 1 16 2 15 3 14 4 13 5 11 6 12 7 10 8 7 9 8 10 85 11 9 12
REMARK SMILES IDX 4 14 5 15 6 16 2 17 1 18 3 19 18 20 19 21 20 22 21 23 22 24
REMARK SMILES IDX 23 25 84 26 24 27 83 28 25 29 26 30 27 31 77 32 28 33 82 34
REMARK SMILES IDX 76 35 78 36 29 37 81 38 75 39 74 40 30 42 62 43 42 44 61 45
REMARK SMILES IDX 43 46 46 47 60 48 79 49 44 50 45 51 59 53 80 54 47 55 31 56
REMARK SMILES IDX 32 57 40 58 33 59 39 60 41 61 38 62 34 63 35 64 36 65 37 66
REMARK SMILES IDX 63 67 64 68 72 69 65 70 71 71 73 72 70 73 66 74 67 75 68 76
REMARK SMILES IDX 69 77 48 78 49 79 57 80 50 81 56 82 58 83 55 84 51 85 52 86
REMARK SMILES IDX 53 87 54 88
REMARK H PARENT 9 13 78 41 46 52
REMARK Flexibility Score: inf
ROOT
ATOM      1  C   UNL A   1      40.917  21.001  27.693  1.00  0.00     0.202 C 
ENDROOT
BRANCH   1   2
ATOM      2  O   UNL A   1      42.017  20.147  27.393  1.00  0.00    -0.374 OA
BRANCH   2   3
ATOM      3  C   UNL A   1      42.156  19.570  26.095  1.00  0.00     0.202 C 
BRANCH   3   4
ATOM      4  C   UNL A   1      43.153  18.426  25.924  1.00  0.00     0.261 C 
BRANCH   4   5
ATOM      5  O   UNL A   1      43.952  18.575  24.740  1.00  0.00    -0.459 OA
BRANCH   5   6
ATOM      6  C   UNL A   1      45.213  19.023  24.965  1.00  0.00     0.354 C 
ATOM      7  O   UNL A   1      46.207  18.320  25.115  1.00  0.00    -0.244 OA
BRANCH   6   8
ATOM      8  C   UNL A   1      45.275  20.455  24.831  1.00  0.00     0.126 A 
ATOM      9  C   UNL A   1      45.622  22.680  24.986  1.00  0.00     0.100 A 
ATOM     10  C   UNL A   1      45.117  22.414  23.731  1.00  0.00     0.105 A 
ATOM     11  C   UNL A   1      45.643  21.458  25.712  1.00  0.00     0.057 A 
ATOM     12  N   UNL A   1      44.911  21.068  23.649  1.00  0.00    -0.354 N 
ATOM     13  H   UNL A   1      44.554  20.599  22.860  1.00  0.00     0.166 HD
BRANCH   9  14
ATOM     14  S   UNL A   1      46.277  24.192  25.508  1.00  0.00     0.244 S 
ATOM     15  O   UNL A   1      46.675  24.876  24.304  1.00  0.00    -0.207 OA
ATOM     16  O   UNL A   1      47.218  23.844  26.558  1.00  0.00    -0.207 OA
BRANCH  14  17
ATOM     17  N   UNL A   1      44.977  25.056  26.215  1.00  0.00    -0.204 NA
ATOM     18  C   UNL A   1      45.225  25.422  27.624  1.00  0.00     0.124 C 
ATOM     19  C   UNL A   1      44.509  26.210  25.417  1.00  0.00     0.124 C 
ENDBRANCH  14  17
ENDBRANCH   9  14
ENDBRANCH   6   8
ENDBRANCH   5   6
ENDBRANCH   4   5
ENDBRANCH   3   4
ENDBRANCH   2   3
ENDBRANCH   1   2
BRANCH   1  20
ATOM     20  C   UNL A   1      41.153  22.463  28.041  1.00  0.00     0.261 C 
BRANCH  20  21
ATOM     21  O   UNL A   1      40.176  23.328  27.495  1.00  0.00    -0.460 OA
BRANCH  21  22
ATOM     22  C   UNL A   1      40.760  24.337  26.810  1.00  0.00     0.338 C 
ATOM     23  O   UNL A   1      41.678  24.254  26.010  1.00  0.00    -0.246 OA
BRANCH  22  24
ATOM     24  C   UNL A   1      40.290  25.612  27.324  1.00  0.00     0.060 A 
ATOM     25  C   UNL A   1      40.522  26.696  26.476  1.00  0.00     0.016 A 
ATOM     26  C   UNL A   1      40.151  25.733  28.713  1.00  0.00     0.016 A 
ATOM     27  C   UNL A   1      40.850  27.893  27.051  1.00  0.00     0.010 A 
ATOM     28  C   UNL A   1      40.528  26.916  29.292  1.00  0.00     0.010 A 
ATOM     29  C   UNL A   1      40.905  27.969  28.449  1.00  0.00    -0.014 A 
BRANCH  29  30
ATOM     30  C   UNL A   1      41.096  29.295  29.018  1.00  0.00     0.031 A 
ATOM     31  C   UNL A   1      39.672  29.931  29.190  1.00  0.00     0.074 A 
ATOM     32  C   UNL A   1      42.413  29.649  29.174  1.00  0.00     0.049 A 
ATOM     33  N   UNL A   1      39.271  31.164  29.156  1.00  0.00    -0.248 NA
ATOM     34  C   UNL A   1      38.482  29.014  29.309  1.00  0.00     0.031 C 
ATOM     35  C   UNL A   1      43.615  28.796  28.931  1.00  0.00     0.029 A 
ATOM     36  N   UNL A   1      43.029  30.807  29.562  1.00  0.00    -0.354 N 
ATOM     37  C   UNL A   1      37.901  31.169  29.533  1.00  0.00     0.074 A 
ATOM     38  C   UNL A   1      37.439  29.826  29.451  1.00  0.00     0.031 C 
ATOM     39  C   UNL A   1      44.769  29.506  29.059  1.00  0.00     0.029 A 
ATOM     40  C   UNL A   1      44.453  30.877  29.403  1.00  0.00     0.049 A 
ATOM     41  H   UNL A   1      42.518  31.560  29.934  1.00  0.00     0.167 HD
ATOM     42  C   UNL A   1      37.283  32.250  30.084  1.00  0.00     0.034 A 
ATOM     43  C   UNL A   1      45.250  32.001  29.471  1.00  0.00     0.034 A 
ATOM     44  C   UNL A   1      38.182  33.348  30.110  1.00  0.00     0.049 A 
ATOM     45  C   UNL A   1      44.252  33.036  29.789  1.00  0.00     0.074 A 
ATOM     46  C   UNL A   1      38.512  34.385  29.279  1.00  0.00     0.029 A 
ATOM     47  N   UNL A   1      39.011  33.384  31.201  1.00  0.00    -0.354 N 
ATOM     48  N   UNL A   1      43.678  33.191  30.937  1.00  0.00    -0.248 NA
ATOM     49  C   UNL A   1      43.660  33.728  28.647  1.00  0.00     0.031 C 
ATOM     50  C   UNL A   1      39.702  34.927  29.822  1.00  0.00     0.029 A 
ATOM     51  C   UNL A   1      40.136  34.057  30.823  1.00  0.00     0.049 A 
ATOM     52  H   UNL A   1      38.829  32.998  32.088  1.00  0.00     0.167 HD
ATOM     53  C   UNL A   1      42.486  33.803  30.635  1.00  0.00     0.074 A 
ATOM     54  C   UNL A   1      42.557  34.183  29.226  1.00  0.00     0.031 C 
ATOM     55  C   UNL A   1      41.382  33.649  31.408  1.00  0.00     0.034 A 
BRANCH  42  56
ATOM     56  C   UNL A   1      36.033  32.402  30.933  1.00  0.00     0.023 A 
ATOM     57  C   UNL A   1      35.024  33.224  30.370  1.00  0.00     0.031 A 
ATOM     58  C   UNL A   1      35.923  32.154  32.308  1.00  0.00     0.131 A 
ATOM     59  C   UNL A   1      34.100  33.912  31.166  1.00  0.00     0.055 A 
ATOM     60  C   UNL A   1      34.931  32.772  33.096  1.00  0.00     0.041 A 
ATOM     61  F   UNL A   1      36.805  31.387  32.964  1.00  0.00    -0.206 F 
ATOM     62  C   UNL A   1      34.047  33.693  32.535  1.00  0.00     0.022 A 
BRANCH  59  63
ATOM     63  S   UNL A   1      33.136  35.236  30.381  1.00  0.00     0.124 S 
ATOM     64  O   UNL A   1      32.592  34.567  29.206  1.00  0.00    -0.237 OA
ATOM     65  O   UNL A   1      32.174  35.571  31.428  1.00  0.00    -0.237 OA
ATOM     66  O   UNL A   1      34.136  36.266  30.107  1.00  0.00    -0.744 OA
ENDBRANCH  59  63
ENDBRANCH  42  56
BRANCH  43  67
ATOM     67  C   UNL A   1      46.652  32.538  29.172  1.00  0.00     0.023 A 
ATOM     68  C   UNL A   1      47.233  32.810  27.918  1.00  0.00     0.031 A 
ATOM     69  C   UNL A   1      47.496  32.871  30.289  1.00  0.00     0.131 A 
ATOM     70  C   UNL A   1      48.520  33.440  27.840  1.00  0.00     0.055 A 
ATOM     71  C   UNL A   1      48.706  33.562  30.207  1.00  0.00     0.041 A 
ATOM     72  F   UNL A   1      47.177  32.543  31.548  1.00  0.00    -0.206 F 
ATOM     73  C   UNL A   1      49.219  33.868  28.973  1.00  0.00     0.022 A 
BRANCH  70  74
ATOM     74  S   UNL A   1      49.355  33.736  26.245  1.00  0.00     0.124 S 
ATOM     75  O   UNL A   1      50.226  34.862  26.564  1.00  0.00    -0.237 OA
ATOM     76  O   UNL A   1      50.016  32.462  25.985  1.00  0.00    -0.237 OA
ATOM     77  O   UNL A   1      48.252  34.050  25.335  1.00  0.00    -0.744 OA
ENDBRANCH  70  74
ENDBRANCH  43  67
BRANCH  55  78
ATOM     78  C   UNL A   1      41.549  32.679  32.583  1.00  0.00     0.023 A 
ATOM     79  C   UNL A   1      41.150  31.339  32.493  1.00  0.00     0.031 A 
ATOM     80  C   UNL A   1      41.988  33.102  33.860  1.00  0.00     0.131 A 
ATOM     81  C   UNL A   1      41.198  30.498  33.628  1.00  0.00     0.055 A 
ATOM     82  C   UNL A   1      42.034  32.274  34.988  1.00  0.00     0.041 A 
ATOM     83  F   UNL A   1      42.405  34.353  34.057  1.00  0.00    -0.206 F 
ATOM     84  C   UNL A   1      41.635  30.956  34.874  1.00  0.00     0.022 A 
BRANCH  81  85
ATOM     85  S   UNL A   1      40.702  28.762  33.465  1.00  0.00     0.124 S 
ATOM     86  O   UNL A   1      41.108  28.193  34.745  1.00  0.00    -0.237 OA
ATOM     87  O   UNL A   1      39.265  28.865  33.237  1.00  0.00    -0.237 OA
ATOM     88  O   UNL A   1      41.470  28.292  32.311  1.00  0.00    -0.744 OA
ENDBRANCH  81  85
ENDBRANCH  55  78
ENDBRANCH  29  30
ENDBRANCH  22  24
ENDBRANCH  21  22
ENDBRANCH  20  21
ENDBRANCH   1  20
TORSDOF 19
ENDMDL
MODEL 2
REMARK VINA RESULT:     -10.2      2.746      8.250
REMARK SMILES CN(C)S(=O)(=O)c1c[nH]c(C(=O)OCCOCCOC(=O)c2ccc(-c3c4nc(c(-c5cc(S(=O)(=O)[O-])ccc5F)c5ccc([nH]5)c(-c5cc(S(=O)(=O)[O-])ccc5F)c5nc(c(-c6cc(S(=O)(=O)[O-])ccc6F)c6ccc3[nH]6)C=C5)C=C4)cc2)c1
REMARK SMILES IDX 17 1 16 2 15 3 14 4 13 5 11 6 12 7 10 8 7 9 8 10 85 11 9 12
REMARK SMILES IDX 4 14 5 15 6 16 2 17 1 18 3 19 18 20 19 21 20 22 21 23 22 24
REMARK SMILES IDX 23 25 84 26 24 27 83 28 25 29 26 30 27 31 77 32 28 33 82 34
REMARK SMILES IDX 76 35 78 36 29 37 81 38 75 39 74 40 30 42 62 43 42 44 61 45
REMARK SMILES IDX 43 46 46 47 60 48 79 49 44 50 45 51 59 53 80 54 47 55 31 56
REMARK SMILES IDX 32 57 40 58 33 59 39 60 41 61 38 62 34 63 35 64 36 65 37 66
REMARK SMILES IDX 63 67 64 68 72 69 65 70 71 71 73 72 70 73 66 74 67 75 68 76
REMARK SMILES IDX 69 77 48 78 49 79 57 80 50 81 56 82 58 83 55 84 51 85 52 86
REMARK SMILES IDX 53 87 54 88
REMARK H PARENT 9 13 78 41 46 52
REMARK Flexibility Score: inf
ROOT
ATOM      1  C   UNL A   1      41.066  21.388  26.711  1.00  0.00     0.202 C 
ENDROOT
BRANCH   1   2
ATOM      2  O   UNL A   1      42.147  20.464  26.775  1.00  0.00    -0.374 OA
BRANCH   2   3
ATOM      3  C   UNL A   1      42.118  19.256  26.016  1.00  0.00     0.202 C 
BRANCH   3   4
ATOM      4  C   UNL A   1      43.392  18.417  25.956  1.00  0.00     0.261 C 
BRANCH   4   5
ATOM      5  O   UNL A   1      44.069  18.545  24.697  1.00  0.00    -0.459 OA
BRANCH   5   6
ATOM      6  C   UNL A   1      45.317  19.070  24.780  1.00  0.00     0.354 C 
ATOM      7  O   UNL A   1      46.366  18.438  24.713  1.00  0.00    -0.244 OA
BRANCH   6   8
ATOM      8  C   UNL A   1      45.264  20.509  24.783  1.00  0.00     0.126 A 
ATOM      9  C   UNL A   1      45.501  22.733  25.091  1.00  0.00     0.100 A 
ATOM     10  C   UNL A   1      44.767  22.538  23.940  1.00  0.00     0.105 A 
ATOM     11  C   UNL A   1      45.743  21.458  25.671  1.00  0.00     0.057 A 
ATOM     12  N   UNL A   1      44.631  21.192  23.765  1.00  0.00    -0.354 N 
ATOM     13  H   UNL A   1      44.149  20.767  23.018  1.00  0.00     0.166 HD
BRANCH   9  14
ATOM     14  S   UNL A   1      46.156  24.241  25.625  1.00  0.00     0.244 S 
ATOM     15  O   UNL A   1      45.696  25.219  24.673  1.00  0.00    -0.207 OA
ATOM     16  O   UNL A   1      47.565  23.971  25.851  1.00  0.00    -0.207 OA
BRANCH  14  17
ATOM     17  N   UNL A   1      45.422  24.571  27.138  1.00  0.00    -0.204 NA
ATOM     18  C   UNL A   1      44.700  25.858  27.161  1.00  0.00     0.124 C 
ATOM     19  C   UNL A   1      44.598  23.463  27.667  1.00  0.00     0.124 C 
ENDBRANCH  14  17
ENDBRANCH   9  14
ENDBRANCH   6   8
ENDBRANCH   5   6
ENDBRANCH   4   5
ENDBRANCH   3   4
ENDBRANCH   2   3
ENDBRANCH   1   2
BRANCH   1  20
ATOM     20  C   UNL A   1      41.174  22.745  27.391  1.00  0.00     0.261 C 
BRANCH  20  21
ATOM     21  O   UNL A   1      40.247  23.691  26.894  1.00  0.00    -0.460 OA
BRANCH  21  22
ATOM     22  C   UNL A   1      40.886  24.786  26.425  1.00  0.00     0.338 C 
ATOM     23  O   UNL A   1      41.917  24.819  25.773  1.00  0.00    -0.246 OA
BRANCH  22  24
ATOM     24  C   UNL A   1      40.292  25.981  27.000  1.00  0.00     0.060 A 
ATOM     25  C   UNL A   1      41.053  27.139  26.835  1.00  0.00     0.016 A 
ATOM     26  C   UNL A   1      39.368  25.804  28.039  1.00  0.00     0.016 A 
ATOM     27  C   UNL A   1      41.060  28.046  27.859  1.00  0.00     0.010 A 
ATOM     28  C   UNL A   1      39.411  26.684  29.088  1.00  0.00     0.010 A 
ATOM     29  C   UNL A   1      40.284  27.775  28.995  1.00  0.00    -0.014 A 
BRANCH  29  30
ATOM     30  C   UNL A   1      40.193  28.839  29.984  1.00  0.00     0.031 A 
ATOM     31  C   UNL A   1      41.135  28.442  31.174  1.00  0.00     0.074 A 
ATOM     32  C   UNL A   1      39.290  29.823  29.663  1.00  0.00     0.049 A 
ATOM     33  N   UNL A   1      41.075  28.703  32.444  1.00  0.00    -0.248 NA
ATOM     34  C   UNL A   1      42.277  27.496  30.905  1.00  0.00     0.031 C 
ATOM     35  C   UNL A   1      38.510  29.956  28.396  1.00  0.00     0.029 A 
ATOM     36  N   UNL A   1      38.825  30.919  30.334  1.00  0.00    -0.354 N 
ATOM     37  C   UNL A   1      42.279  28.225  33.026  1.00  0.00     0.074 A 
ATOM     38  C   UNL A   1      42.889  27.360  32.077  1.00  0.00     0.031 C 
ATOM     39  C   UNL A   1      37.611  30.976  28.465  1.00  0.00     0.029 A 
ATOM     40  C   UNL A   1      37.710  31.615  29.761  1.00  0.00     0.049 A 
ATOM     41  H   UNL A   1      39.237  31.218  31.176  1.00  0.00     0.167 HD
ATOM     42  C   UNL A   1      42.802  28.730  34.178  1.00  0.00     0.034 A 
ATOM     43  C   UNL A   1      36.914  32.566  30.366  1.00  0.00     0.034 A 
ATOM     44  C   UNL A   1      41.912  29.695  34.719  1.00  0.00     0.049 A 
ATOM     45  C   UNL A   1      37.554  32.673  31.687  1.00  0.00     0.074 A 
ATOM     46  C   UNL A   1      40.859  29.698  35.594  1.00  0.00     0.029 A 
ATOM     47  N   UNL A   1      42.058  30.959  34.210  1.00  0.00    -0.354 N 
ATOM     48  N   UNL A   1      38.685  33.255  31.921  1.00  0.00    -0.248 NA
ATOM     49  C   UNL A   1      37.023  31.801  32.731  1.00  0.00     0.031 C 
ATOM     50  C   UNL A   1      40.257  30.971  35.440  1.00  0.00     0.029 A 
ATOM     51  C   UNL A   1      40.850  31.579  34.333  1.00  0.00     0.049 A 
ATOM     52  H   UNL A   1      42.880  31.345  33.828  1.00  0.00     0.167 HD
ATOM     53  C   UNL A   1      39.154  32.632  33.051  1.00  0.00     0.074 A 
ATOM     54  C   UNL A   1      38.062  31.802  33.555  1.00  0.00     0.031 C 
ATOM     55  C   UNL A   1      40.480  32.522  33.316  1.00  0.00     0.034 A 
BRANCH  42  56
ATOM     56  C   UNL A   1      44.201  28.722  34.766  1.00  0.00     0.023 A 
ATOM     57  C   UNL A   1      44.340  27.989  35.972  1.00  0.00     0.031 A 
ATOM     58  C   UNL A   1      45.232  29.628  34.480  1.00  0.00     0.131 A 
ATOM     59  C   UNL A   1      45.326  28.296  36.916  1.00  0.00     0.055 A 
ATOM     60  C   UNL A   1      46.281  29.868  35.389  1.00  0.00     0.041 A 
ATOM     61  F   UNL A   1      45.229  30.378  33.369  1.00  0.00    -0.206 F 
ATOM     62  C   UNL A   1      46.304  29.239  36.634  1.00  0.00     0.022 A 
BRANCH  59  63
ATOM     63  S   UNL A   1      45.154  27.581  38.577  1.00  0.00     0.124 S 
ATOM     64  O   UNL A   1      45.070  28.770  39.417  1.00  0.00    -0.237 OA
ATOM     65  O   UNL A   1      43.924  26.805  38.445  1.00  0.00    -0.237 OA
ATOM     66  O   UNL A   1      46.372  26.791  38.733  1.00  0.00    -0.744 OA
ENDBRANCH  59  63
ENDBRANCH  42  56
BRANCH  43  67
ATOM     67  C   UNL A   1      35.599  33.340  30.231  1.00  0.00     0.023 A 
ATOM     68  C   UNL A   1      34.990  34.195  31.168  1.00  0.00     0.031 A 
ATOM     69  C   UNL A   1      34.894  33.251  28.980  1.00  0.00     0.131 A 
ATOM     70  C   UNL A   1      33.818  34.943  30.810  1.00  0.00     0.055 A 
ATOM     71  C   UNL A   1      33.808  34.045  28.609  1.00  0.00     0.041 A 
ATOM     72  F   UNL A   1      35.236  32.373  28.027  1.00  0.00    -0.206 F 
ATOM     73  C   UNL A   1      33.272  34.915  29.523  1.00  0.00     0.022 A 
BRANCH  70  74
ATOM     74  S   UNL A   1      32.941  35.999  32.011  1.00  0.00     0.124 S 
ATOM     75  O   UNL A   1      33.968  36.227  33.021  1.00  0.00    -0.237 OA
ATOM     76  O   UNL A   1      32.558  37.154  31.208  1.00  0.00    -0.237 OA
ATOM     77  O   UNL A   1      31.823  35.161  32.449  1.00  0.00    -0.744 OA
ENDBRANCH  70  74
ENDBRANCH  43  67
BRANCH  55  78
ATOM     78  C   UNL A   1      41.402  33.070  32.220  1.00  0.00     0.023 A 
ATOM     79  C   UNL A   1      42.038  32.224  31.303  1.00  0.00     0.031 A 
ATOM     80  C   UNL A   1      41.768  34.436  32.149  1.00  0.00     0.131 A 
ATOM     81  C   UNL A   1      42.980  32.739  30.383  1.00  0.00     0.055 A 
ATOM     82  C   UNL A   1      42.703  34.950  31.242  1.00  0.00     0.041 A 
ATOM     83  F   UNL A   1      41.215  35.333  32.964  1.00  0.00    -0.206 F 
ATOM     84  C   UNL A   1      43.318  34.095  30.348  1.00  0.00     0.022 A 
BRANCH  81  85
ATOM     85  S   UNL A   1      43.759  31.617  29.192  1.00  0.00     0.124 S 
ATOM     86  O   UNL A   1      42.630  30.833  28.707  1.00  0.00    -0.237 OA
ATOM     87  O   UNL A   1      44.355  32.542  28.233  1.00  0.00    -0.237 OA
ATOM     88  O   UNL A   1      44.725  30.872  30.001  1.00  0.00    -0.744 OA
ENDBRANCH  81  85
ENDBRANCH  55  78
ENDBRANCH  29  30
ENDBRANCH  22  24
ENDBRANCH  21  22
ENDBRANCH  20  21
ENDBRANCH   1  20
TORSDOF 19
ENDMDL
MODEL 3
REMARK VINA RESULT:      -9.9      4.190     10.971
REMARK SMILES CN(C)S(=O)(=O)c1c[nH]c(C(=O)OCCOCCOC(=O)c2ccc(-c3c4nc(c(-c5cc(S(=O)(=O)[O-])ccc5F)c5ccc([nH]5)c(-c5cc(S(=O)(=O)[O-])ccc5F)c5nc(c(-c6cc(S(=O)(=O)[O-])ccc6F)c6ccc3[nH]6)C=C5)C=C4)cc2)c1
REMARK SMILES IDX 17 1 16 2 15 3 14 4 13 5 11 6 12 7 10 8 7 9 8 10 85 11 9 12
REMARK SMILES IDX 4 14 5 15 6 16 2 17 1 18 3 19 18 20 19 21 20 22 21 23 22 24
REMARK SMILES IDX 23 25 84 26 24 27 83 28 25 29 26 30 27 31 77 32 28 33 82 34
REMARK SMILES IDX 76 35 78 36 29 37 81 38 75 39 74 40 30 42 62 43 42 44 61 45
REMARK SMILES IDX 43 46 46 47 60 48 79 49 44 50 45 51 59 53 80 54 47 55 31 56
REMARK SMILES IDX 32 57 40 58 33 59 39 60 41 61 38 62 34 63 35 64 36 65 37 66
REMARK SMILES IDX 63 67 64 68 72 69 65 70 71 71 73 72 70 73 66 74 67 75 68 76
REMARK SMILES IDX 69 77 48 78 49 79 57 80 50 81 56 82 58 83 55 84 51 85 52 86
REMARK SMILES IDX 53 87 54 88
REMARK H PARENT 9 13 78 41 46 52
REMARK Flexibility Score: inf
ROOT
ATOM      1  C   UNL A   1      34.762  32.046  29.133  1.00  0.00     0.202 C 
ENDROOT
BRANCH   1   2
ATOM      2  O   UNL A   1      34.289  31.005  28.285  1.00  0.00    -0.374 OA
BRANCH   2   3
ATOM      3  C   UNL A   1      33.349  31.282  27.248  1.00  0.00     0.202 C 
BRANCH   3   4
ATOM      4  C   UNL A   1      32.513  30.123  26.711  1.00  0.00     0.261 C 
BRANCH   4   5
ATOM      5  O   UNL A   1      33.124  28.849  26.966  1.00  0.00    -0.459 OA
BRANCH   5   6
ATOM      6  C   UNL A   1      32.249  27.853  27.256  1.00  0.00     0.354 C 
ATOM      7  O   UNL A   1      31.387  27.888  28.128  1.00  0.00    -0.244 OA
BRANCH   6   8
ATOM      8  C   UNL A   1      32.341  26.797  26.282  1.00  0.00     0.126 A 
ATOM      9  C   UNL A   1      32.911  25.260  24.730  1.00  0.00     0.100 A 
ATOM     10  C   UNL A   1      31.678  24.913  25.241  1.00  0.00     0.105 A 
ATOM     11  C   UNL A   1      33.293  26.494  25.323  1.00  0.00     0.057 A 
ATOM     12  N   UNL A   1      31.345  25.847  26.177  1.00  0.00    -0.354 N 
ATOM     13  H   UNL A   1      30.512  25.846  26.703  1.00  0.00     0.166 HD
BRANCH   9  14
ATOM     14  S   UNL A   1      33.886  24.276  23.695  1.00  0.00     0.244 S 
ATOM     15  O   UNL A   1      34.184  25.099  22.551  1.00  0.00    -0.207 OA
ATOM     16  O   UNL A   1      33.163  23.021  23.591  1.00  0.00    -0.207 OA
BRANCH  14  17
ATOM     17  N   UNL A   1      35.344  23.988  24.548  1.00  0.00    -0.204 NA
ATOM     18  C   UNL A   1      35.124  23.453  25.906  1.00  0.00     0.124 C 
ATOM     19  C   UNL A   1      36.341  23.196  23.796  1.00  0.00     0.124 C 
ENDBRANCH  14  17
ENDBRANCH   9  14
ENDBRANCH   6   8
ENDBRANCH   5   6
ENDBRANCH   4   5
ENDBRANCH   3   4
ENDBRANCH   2   3
ENDBRANCH   1   2
BRANCH   1  20
ATOM     20  C   UNL A   1      35.894  31.782  30.115  1.00  0.00     0.261 C 
BRANCH  20  21
ATOM     21  O   UNL A   1      36.870  30.889  29.612  1.00  0.00    -0.460 OA
BRANCH  21  22
ATOM     22  C   UNL A   1      36.899  29.753  30.343  1.00  0.00     0.338 C 
ATOM     23  O   UNL A   1      36.375  29.556  31.429  1.00  0.00    -0.246 OA
BRANCH  22  24
ATOM     24  C   UNL A   1      37.853  28.823  29.763  1.00  0.00     0.060 A 
ATOM     25  C   UNL A   1      38.719  28.233  30.685  1.00  0.00     0.016 A 
ATOM     26  C   UNL A   1      38.163  28.985  28.405  1.00  0.00     0.016 A 
ATOM     27  C   UNL A   1      40.009  28.009  30.291  1.00  0.00     0.010 A 
ATOM     28  C   UNL A   1      39.467  28.808  28.023  1.00  0.00     0.010 A 
ATOM     29  C   UNL A   1      40.377  28.354  28.984  1.00  0.00    -0.014 A 
BRANCH  29  30
ATOM     30  C   UNL A   1      41.710  27.949  28.559  1.00  0.00     0.031 A 
ATOM     31  C   UNL A   1      42.547  29.260  28.358  1.00  0.00     0.074 A 
ATOM     32  C   UNL A   1      41.849  26.594  28.381  1.00  0.00     0.049 A 
ATOM     33  N   UNL A   1      43.533  29.537  27.562  1.00  0.00    -0.248 NA
ATOM     34  C   UNL A   1      42.129  30.504  29.100  1.00  0.00     0.031 C 
ATOM     35  C   UNL A   1      40.840  25.534  28.679  1.00  0.00     0.029 A 
ATOM     36  N   UNL A   1      42.866  25.815  27.903  1.00  0.00    -0.354 N 
ATOM     37  C   UNL A   1      44.009  30.827  27.920  1.00  0.00     0.074 A 
ATOM     38  C   UNL A   1      43.016  31.427  28.742  1.00  0.00     0.031 C 
ATOM     39  C   UNL A   1      41.260  24.309  28.260  1.00  0.00     0.029 A 
ATOM     40  C   UNL A   1      42.573  24.432  27.661  1.00  0.00     0.049 A 
ATOM     41  H   UNL A   1      43.760  26.187  27.732  1.00  0.00     0.167 HD
ATOM     42  C   UNL A   1      45.283  31.245  27.681  1.00  0.00     0.034 A 
ATOM     43  C   UNL A   1      43.334  23.526  26.950  1.00  0.00     0.034 A 
ATOM     44  C   UNL A   1      45.979  30.247  26.949  1.00  0.00     0.049 A 
ATOM     45  C   UNL A   1      44.492  24.356  26.582  1.00  0.00     0.074 A 
ATOM     46  C   UNL A   1      46.191  29.946  25.630  1.00  0.00     0.029 A 
ATOM     47  N   UNL A   1      46.546  29.263  27.717  1.00  0.00    -0.354 N 
ATOM     48  N   UNL A   1      45.427  24.732  27.393  1.00  0.00    -0.248 NA
ATOM     49  C   UNL A   1      44.407  25.043  25.296  1.00  0.00     0.031 C 
ATOM     50  C   UNL A   1      46.738  28.639  25.636  1.00  0.00     0.029 A 
ATOM     51  C   UNL A   1      46.627  28.148  26.937  1.00  0.00     0.049 A 
ATOM     52  H   UNL A   1      46.839  29.347  28.653  1.00  0.00     0.167 HD
ATOM     53  C   UNL A   1      45.910  25.889  26.832  1.00  0.00     0.074 A 
ATOM     54  C   UNL A   1      45.306  25.995  25.506  1.00  0.00     0.031 C 
ATOM     55  C   UNL A   1      46.467  26.874  27.580  1.00  0.00     0.034 A 
BRANCH  42  56
ATOM     56  C   UNL A   1      46.146  32.330  28.299  1.00  0.00     0.023 A 
ATOM     57  C   UNL A   1      46.666  33.277  27.380  1.00  0.00     0.031 A 
ATOM     58  C   UNL A   1      46.774  32.286  29.552  1.00  0.00     0.131 A 
ATOM     59  C   UNL A   1      47.855  33.972  27.628  1.00  0.00     0.055 A 
ATOM     60  C   UNL A   1      47.916  33.060  29.836  1.00  0.00     0.041 A 
ATOM     61  F   UNL A   1      46.376  31.443  30.515  1.00  0.00    -0.206 F 
ATOM     62  C   UNL A   1      48.491  33.869  28.856  1.00  0.00     0.022 A 
BRANCH  59  63
ATOM     63  S   UNL A   1      48.634  34.832  26.230  1.00  0.00     0.124 S 
ATOM     64  O   UNL A   1      47.704  34.554  25.141  1.00  0.00    -0.237 OA
ATOM     65  O   UNL A   1      48.666  36.213  26.704  1.00  0.00    -0.237 OA
ATOM     66  O   UNL A   1      49.939  34.184  26.118  1.00  0.00    -0.744 OA
ENDBRANCH  59  63
ENDBRANCH  42  56
BRANCH  43  67
ATOM     67  C   UNL A   1      43.313  22.138  26.302  1.00  0.00     0.023 A 
ATOM     68  C   UNL A   1      44.386  21.420  25.743  1.00  0.00     0.031 A 
ATOM     69  C   UNL A   1      42.065  21.422  26.293  1.00  0.00     0.131 A 
ATOM     70  C   UNL A   1      44.198  20.068  25.300  1.00  0.00     0.055 A 
ATOM     71  C   UNL A   1      41.909  20.081  25.942  1.00  0.00     0.041 A 
ATOM     72  F   UNL A   1      40.906  21.999  26.640  1.00  0.00    -0.206 F 
ATOM     73  C   UNL A   1      42.987  19.386  25.457  1.00  0.00     0.022 A 
BRANCH  70  74
ATOM     74  S   UNL A   1      45.532  19.122  24.491  1.00  0.00     0.124 S 
ATOM     75  O   UNL A   1      44.971  18.879  23.167  1.00  0.00    -0.237 OA
ATOM     76  O   UNL A   1      46.664  20.040  24.554  1.00  0.00    -0.237 OA
ATOM     77  O   UNL A   1      45.663  17.930  25.332  1.00  0.00    -0.744 OA
ENDBRANCH  70  74
ENDBRANCH  43  67
BRANCH  55  78
ATOM     78  C   UNL A   1      46.435  26.629  29.093  1.00  0.00     0.023 A 
ATOM     79  C   UNL A   1      45.509  27.272  29.923  1.00  0.00     0.031 A 
ATOM     80  C   UNL A   1      47.413  25.848  29.756  1.00  0.00     0.131 A 
ATOM     81  C   UNL A   1      45.580  27.127  31.327  1.00  0.00     0.055 A 
ATOM     82  C   UNL A   1      47.490  25.704  31.146  1.00  0.00     0.041 A 
ATOM     83  F   UNL A   1      48.335  25.180  29.064  1.00  0.00    -0.206 F 
ATOM     84  C   UNL A   1      46.565  26.350  31.944  1.00  0.00     0.022 A 
BRANCH  81  85
ATOM     85  S   UNL A   1      44.345  27.951  32.367  1.00  0.00     0.124 S 
ATOM     86  O   UNL A   1      43.189  27.070  32.246  1.00  0.00    -0.237 OA
ATOM     87  O   UNL A   1      44.998  27.975  33.672  1.00  0.00    -0.237 OA
ATOM     88  O   UNL A   1      44.188  29.264  31.740  1.00  0.00    -0.744 OA
ENDBRANCH  81  85
ENDBRANCH  55  78
ENDBRANCH  29  30
ENDBRANCH  22  24
ENDBRANCH  21  22
ENDBRANCH  20  21
ENDBRANCH   1  20
TORSDOF 19
ENDMDL
