MODEL 1
REMARK VINA RESULT:     -11.4      0.000      0.000
REMARK SMILES C/C(=N\NC(N)=O)c1nnn(-c2ccc(C(=O)OCCOCCOC(=O)c3ccc(-c4c5nc(c(-c6cc(S(=O)(=O)[O-])ccc6F)c6ccc([nH]6)c(-c6cc(S(=O)(=O)[O-])ccc6F)c6nc(c(-c7cc(S(=O)(=O)[O-])ccc7F)c7ccc4[nH]7)C=C6)C=C5)cc3)cc2)c1C
REMARK SMILES IDX 21 1 20 2 19 3 18 4 16 5 17 6 15 7 12 8 13 9 91 10 14 11
REMARK SMILES IDX 90 12 11 13 8 14 9 15 92 16 10 17 93 18 2 19 1 20 3 21 4 22
REMARK SMILES IDX 5 23 6 25 7 26 22 29 23 30 24 31 25 32 26 33 27 34 28 35
REMARK SMILES IDX 89 36 29 37 88 38 30 39 31 40 32 41 82 42 33 43 87 44 81 45
REMARK SMILES IDX 83 46 34 47 86 48 80 49 79 50 35 52 67 53 47 54 66 55 48 56
REMARK SMILES IDX 51 57 65 58 84 59 49 60 50 61 64 63 85 64 52 65 36 66 37 67
REMARK SMILES IDX 45 68 38 69 44 70 46 71 43 72 39 73 40 74 41 75 42 76 68 77
REMARK SMILES IDX 69 78 77 79 70 80 76 81 78 82 75 83 71 84 72 85 73 86 74 87
REMARK SMILES IDX 53 88 54 89 62 90 55 91 61 92 63 93 60 94 56 95 57 96 58 97
REMARK SMILES IDX 59 98
REMARK H PARENT 4 24 6 27 6 28 83 51 51 62
REMARK Flexibility Score: inf
ROOT
ATOM      1  O   UNL A   1      34.048  34.095  27.855  1.00  0.00    -0.374 OA
ENDROOT
BRANCH   1   2
ATOM      2  C   UNL A   1      34.742  32.858  27.719  1.00  0.00     0.202 C 
BRANCH   2   3
ATOM      3  C   UNL A   1      34.002  31.567  28.070  1.00  0.00     0.261 C 
BRANCH   3   4
ATOM      4  O   UNL A   1      33.577  30.843  26.906  1.00  0.00    -0.460 OA
BRANCH   4   5
ATOM      5  C   UNL A   1      32.244  30.881  26.674  1.00  0.00     0.338 C 
ATOM      6  O   UNL A   1      31.551  31.874  26.519  1.00  0.00    -0.246 OA
BRANCH   5   7
ATOM      7  C   UNL A   1      31.712  29.513  26.508  1.00  0.00     0.060 A 
ATOM      8  C   UNL A   1      31.189  26.807  26.281  1.00  0.00     0.067 A 
ATOM      9  C   UNL A   1      31.232  27.379  27.556  1.00  0.00     0.029 A 
ATOM     10  C   UNL A   1      31.244  27.602  25.129  1.00  0.00     0.029 A 
ATOM     11  C   UNL A   1      31.524  28.737  27.664  1.00  0.00     0.018 A 
ATOM     12  C   UNL A   1      31.496  28.967  25.242  1.00  0.00     0.018 A 
BRANCH   8  13
ATOM     13  N   UNL A   1      31.350  25.409  26.164  1.00  0.00    -0.217 N 
ATOM     14  C   UNL A   1      32.248  23.422  26.192  1.00  0.00     0.132 A 
ATOM     15  N   UNL A   1      30.924  23.309  26.523  1.00  0.00    -0.128 NA
ATOM     16  C   UNL A   1      32.557  24.751  25.975  1.00  0.00     0.071 A 
ATOM     17  N   UNL A   1      30.409  24.532  26.583  1.00  0.00    -0.061 NA
ATOM     18  C   UNL A   1      33.875  25.416  25.818  1.00  0.00     0.069 C 
BRANCH  14  19
ATOM     19  C   UNL A   1      33.192  22.325  26.334  1.00  0.00     0.087 C 
ATOM     20  C   UNL A   1      33.802  22.175  27.702  1.00  0.00     0.071 C 
ATOM     21  N   UNL A   1      33.380  21.606  25.268  1.00  0.00    -0.174 NA
BRANCH  21  22
ATOM     22  N   UNL A   1      34.259  20.563  25.199  1.00  0.00    -0.229 N 
ATOM     23  C   UNL A   1      35.617  20.599  24.973  1.00  0.00     0.332 C 
ATOM     24  H   UNL A   1      33.871  19.668  25.329  1.00  0.00     0.195 HD
ATOM     25  N   UNL A   1      36.173  19.353  24.969  1.00  0.00    -0.350 N 
ATOM     26  O   UNL A   1      36.328  21.577  24.796  1.00  0.00    -0.247 OA
ATOM     27  H   UNL A   1      35.607  18.560  25.111  1.00  0.00     0.161 HD
ATOM     28  H   UNL A   1      37.141  19.246  24.826  1.00  0.00     0.161 HD
ENDBRANCH  21  22
ENDBRANCH  14  19
ENDBRANCH   8  13
ENDBRANCH   5   7
ENDBRANCH   4   5
ENDBRANCH   3   4
ENDBRANCH   2   3
ENDBRANCH   1   2
BRANCH   1  29
ATOM     29  C   UNL A   1      34.208  34.880  29.031  1.00  0.00     0.202 C 
BRANCH  29  30
ATOM     30  C   UNL A   1      32.975  35.344  29.792  1.00  0.00     0.261 C 
BRANCH  30  31
ATOM     31  O   UNL A   1      33.293  35.989  31.014  1.00  0.00    -0.460 OA
BRANCH  31  32
ATOM     32  C   UNL A   1      32.931  35.279  32.105  1.00  0.00     0.338 C 
ATOM     33  O   UNL A   1      31.853  35.334  32.693  1.00  0.00    -0.246 OA
BRANCH  32  34
ATOM     34  C   UNL A   1      34.098  34.557  32.608  1.00  0.00     0.060 A 
ATOM     35  C   UNL A   1      35.265  35.306  32.759  1.00  0.00     0.016 A 
ATOM     36  C   UNL A   1      34.109  33.154  32.571  1.00  0.00     0.016 A 
ATOM     37  C   UNL A   1      36.467  34.657  32.605  1.00  0.00     0.010 A 
ATOM     38  C   UNL A   1      35.310  32.513  32.400  1.00  0.00     0.010 A 
ATOM     39  C   UNL A   1      36.465  33.285  32.319  1.00  0.00    -0.014 A 
BRANCH  39  40
ATOM     40  C   UNL A   1      37.735  32.622  32.133  1.00  0.00     0.031 A 
ATOM     41  C   UNL A   1      38.451  32.523  33.418  1.00  0.00     0.074 A 
ATOM     42  C   UNL A   1      38.171  32.104  30.969  1.00  0.00     0.049 A 
ATOM     43  N   UNL A   1      39.337  33.353  33.854  1.00  0.00    -0.248 NA
ATOM     44  C   UNL A   1      37.924  31.614  34.449  1.00  0.00     0.031 C 
ATOM     45  C   UNL A   1      37.463  31.954  29.699  1.00  0.00     0.029 A 
ATOM     46  N   UNL A   1      39.379  31.537  30.706  1.00  0.00    -0.354 N 
ATOM     47  C   UNL A   1      39.697  32.869  35.099  1.00  0.00     0.074 A 
ATOM     48  C   UNL A   1      38.615  32.022  35.516  1.00  0.00     0.031 C 
ATOM     49  C   UNL A   1      38.178  31.142  28.880  1.00  0.00     0.029 A 
ATOM     50  C   UNL A   1      39.452  30.824  29.510  1.00  0.00     0.049 A 
ATOM     51  H   UNL A   1      40.147  31.625  31.316  1.00  0.00     0.167 HD
ATOM     52  C   UNL A   1      40.993  32.935  35.506  1.00  0.00     0.034 A 
ATOM     53  C   UNL A   1      40.473  30.009  29.110  1.00  0.00     0.034 A 
ATOM     54  C   UNL A   1      41.744  33.857  34.674  1.00  0.00     0.049 A 
ATOM     55  C   UNL A   1      41.680  30.450  29.862  1.00  0.00     0.074 A 
ATOM     56  C   UNL A   1      41.613  35.196  34.351  1.00  0.00     0.029 A 
ATOM     57  N   UNL A   1      42.559  33.320  33.700  1.00  0.00    -0.354 N 
ATOM     58  N   UNL A   1      42.241  31.615  29.673  1.00  0.00    -0.248 NA
ATOM     59  C   UNL A   1      41.927  29.856  31.170  1.00  0.00     0.031 C 
ATOM     60  C   UNL A   1      41.934  35.274  32.963  1.00  0.00     0.029 A 
ATOM     61  C   UNL A   1      42.345  34.011  32.532  1.00  0.00     0.049 A 
ATOM     62  H   UNL A   1      43.186  32.571  33.821  1.00  0.00     0.167 HD
ATOM     63  C   UNL A   1      42.507  32.098  30.946  1.00  0.00     0.074 A 
ATOM     64  C   UNL A   1      42.368  30.934  31.826  1.00  0.00     0.031 C 
ATOM     65  C   UNL A   1      42.515  33.440  31.207  1.00  0.00     0.034 A 
BRANCH  52  66
ATOM     66  C   UNL A   1      41.672  31.872  36.338  1.00  0.00     0.023 A 
ATOM     67  C   UNL A   1      42.223  32.293  37.559  1.00  0.00     0.031 A 
ATOM     68  C   UNL A   1      42.064  30.586  35.896  1.00  0.00     0.131 A 
ATOM     69  C   UNL A   1      43.196  31.521  38.213  1.00  0.00     0.055 A 
ATOM     70  C   UNL A   1      42.978  29.791  36.588  1.00  0.00     0.041 A 
ATOM     71  F   UNL A   1      41.669  30.055  34.734  1.00  0.00    -0.206 F 
ATOM     72  C   UNL A   1      43.579  30.272  37.736  1.00  0.00     0.022 A 
BRANCH  69  73
ATOM     73  S   UNL A   1      44.079  32.268  39.602  1.00  0.00     0.124 S 
ATOM     74  O   UNL A   1      43.634  33.654  39.514  1.00  0.00    -0.237 OA
ATOM     75  O   UNL A   1      43.569  31.496  40.730  1.00  0.00    -0.237 OA
ATOM     76  O   UNL A   1      45.482  32.036  39.271  1.00  0.00    -0.744 OA
ENDBRANCH  69  73
ENDBRANCH  52  66
BRANCH  53  77
ATOM     77  C   UNL A   1      40.374  28.671  28.443  1.00  0.00     0.023 A 
ATOM     78  C   UNL A   1      41.193  28.271  27.357  1.00  0.00     0.031 A 
ATOM     79  C   UNL A   1      39.618  27.650  29.062  1.00  0.00     0.131 A 
ATOM     80  C   UNL A   1      41.231  26.912  26.946  1.00  0.00     0.055 A 
ATOM     81  C   UNL A   1      39.665  26.313  28.658  1.00  0.00     0.041 A 
ATOM     82  F   UNL A   1      38.870  27.900  30.148  1.00  0.00    -0.206 F 
ATOM     83  C   UNL A   1      40.480  25.935  27.604  1.00  0.00     0.022 A 
BRANCH  80  84
ATOM     84  S   UNL A   1      42.324  26.358  25.588  1.00  0.00     0.124 S 
ATOM     85  O   UNL A   1      43.596  26.156  26.273  1.00  0.00    -0.237 OA
ATOM     86  O   UNL A   1      41.649  25.161  25.103  1.00  0.00    -0.237 OA
ATOM     87  O   UNL A   1      42.308  27.486  24.653  1.00  0.00    -0.744 OA
ENDBRANCH  80  84
ENDBRANCH  53  77
BRANCH  65  88
ATOM     88  C   UNL A   1      42.532  34.404  30.033  1.00  0.00     0.023 A 
ATOM     89  C   UNL A   1      43.678  34.783  29.293  1.00  0.00     0.031 A 
ATOM     90  C   UNL A   1      41.287  34.885  29.590  1.00  0.00     0.131 A 
ATOM     91  C   UNL A   1      43.545  35.627  28.169  1.00  0.00     0.055 A 
ATOM     92  C   UNL A   1      41.157  35.696  28.464  1.00  0.00     0.041 A 
ATOM     93  F   UNL A   1      40.158  34.547  30.235  1.00  0.00    -0.206 F 
ATOM     94  C   UNL A   1      42.288  36.078  27.754  1.00  0.00     0.022 A 
BRANCH  91  95
ATOM     95  S   UNL A   1      45.010  36.193  27.242  1.00  0.00     0.124 S 
ATOM     96  O   UNL A   1      46.115  35.930  28.154  1.00  0.00    -0.237 OA
ATOM     97  O   UNL A   1      44.961  35.364  26.041  1.00  0.00    -0.237 OA
ATOM     98  O   UNL A   1      44.735  37.613  27.010  1.00  0.00    -0.744 OA
ENDBRANCH  91  95
ENDBRANCH  65  88
ENDBRANCH  39  40
ENDBRANCH  32  34
ENDBRANCH  31  32
ENDBRANCH  30  31
ENDBRANCH  29  30
ENDBRANCH   1  29
TORSDOF 20
ENDMDL
MODEL 2
REMARK VINA RESULT:     -11.0      4.260      6.273
REMARK SMILES C/C(=N\NC(N)=O)c1nnn(-c2ccc(C(=O)OCCOCCOC(=O)c3ccc(-c4c5nc(c(-c6cc(S(=O)(=O)[O-])ccc6F)c6ccc([nH]6)c(-c6cc(S(=O)(=O)[O-])ccc6F)c6nc(c(-c7cc(S(=O)(=O)[O-])ccc7F)c7ccc4[nH]7)C=C6)C=C5)cc3)cc2)c1C
REMARK SMILES IDX 21 1 20 2 19 3 18 4 16 5 17 6 15 7 12 8 13 9 91 10 14 11
REMARK SMILES IDX 90 12 11 13 8 14 9 15 92 16 10 17 93 18 2 19 1 20 3 21 4 22
REMARK SMILES IDX 5 23 6 25 7 26 22 29 23 30 24 31 25 32 26 33 27 34 28 35
REMARK SMILES IDX 89 36 29 37 88 38 30 39 31 40 32 41 82 42 33 43 87 44 81 45
REMARK SMILES IDX 83 46 34 47 86 48 80 49 79 50 35 52 67 53 47 54 66 55 48 56
REMARK SMILES IDX 51 57 65 58 84 59 49 60 50 61 64 63 85 64 52 65 36 66 37 67
REMARK SMILES IDX 45 68 38 69 44 70 46 71 43 72 39 73 40 74 41 75 42 76 68 77
REMARK SMILES IDX 69 78 77 79 70 80 76 81 78 82 75 83 71 84 72 85 73 86 74 87
REMARK SMILES IDX 53 88 54 89 62 90 55 91 61 92 63 93 60 94 56 95 57 96 58 97
REMARK SMILES IDX 59 98
REMARK H PARENT 4 24 6 27 6 28 83 51 51 62
REMARK Flexibility Score: inf
ROOT
ATOM      1  O   UNL A   1      35.215  35.953  33.016  1.00  0.00    -0.374 OA
ENDROOT
BRANCH   1   2
ATOM      2  C   UNL A   1      34.029  36.591  33.483  1.00  0.00     0.202 C 
BRANCH   2   3
ATOM      3  C   UNL A   1      32.769  36.499  32.623  1.00  0.00     0.261 C 
BRANCH   3   4
ATOM      4  O   UNL A   1      32.807  35.397  31.706  1.00  0.00    -0.460 OA
BRANCH   4   5
ATOM      5  C   UNL A   1      32.983  35.748  30.411  1.00  0.00     0.338 C 
ATOM      6  O   UNL A   1      32.823  36.854  29.918  1.00  0.00    -0.246 OA
BRANCH   5   7
ATOM      7  C   UNL A   1      33.527  34.611  29.638  1.00  0.00     0.060 A 
ATOM      8  C   UNL A   1      34.091  32.277  28.267  1.00  0.00     0.067 A 
ATOM      9  C   UNL A   1      33.415  33.302  27.600  1.00  0.00     0.029 A 
ATOM     10  C   UNL A   1      34.623  32.475  29.549  1.00  0.00     0.029 A 
ATOM     11  C   UNL A   1      33.109  34.463  28.305  1.00  0.00     0.018 A 
ATOM     12  C   UNL A   1      34.349  33.654  30.236  1.00  0.00     0.018 A 
BRANCH   8  13
ATOM     13  N   UNL A   1      34.011  30.966  27.748  1.00  0.00    -0.217 N 
ATOM     14  C   UNL A   1      33.458  29.270  26.494  1.00  0.00     0.132 A 
ATOM     15  N   UNL A   1      34.739  29.086  26.941  1.00  0.00    -0.128 NA
ATOM     16  C   UNL A   1      32.970  30.470  26.975  1.00  0.00     0.071 A 
ATOM     17  N   UNL A   1      35.092  30.162  27.635  1.00  0.00    -0.061 NA
ATOM     18  C   UNL A   1      31.746  31.224  26.607  1.00  0.00     0.069 C 
BRANCH  14  19
ATOM     19  C   UNL A   1      32.859  28.444  25.459  1.00  0.00     0.087 C 
ATOM     20  C   UNL A   1      33.300  28.754  24.053  1.00  0.00     0.071 C 
ATOM     21  N   UNL A   1      32.029  27.535  25.876  1.00  0.00    -0.174 NA
BRANCH  21  22
ATOM     22  N   UNL A   1      31.339  26.696  25.049  1.00  0.00    -0.229 N 
ATOM     23  C   UNL A   1      30.454  25.697  25.386  1.00  0.00     0.332 C 
ATOM     24  H   UNL A   1      31.494  26.823  24.085  1.00  0.00     0.195 HD
ATOM     25  N   UNL A   1      29.954  25.058  24.288  1.00  0.00    -0.350 N 
ATOM     26  O   UNL A   1      30.089  25.354  26.501  1.00  0.00    -0.247 OA
ATOM     27  H   UNL A   1      30.243  25.328  23.387  1.00  0.00     0.161 HD
ATOM     28  H   UNL A   1      29.302  24.328  24.398  1.00  0.00     0.161 HD
ENDBRANCH  21  22
ENDBRANCH  14  19
ENDBRANCH   8  13
ENDBRANCH   5   7
ENDBRANCH   4   5
ENDBRANCH   3   4
ENDBRANCH   2   3
ENDBRANCH   1   2
BRANCH   1  29
ATOM     29  C   UNL A   1      35.676  34.759  33.637  1.00  0.00     0.202 C 
BRANCH  29  30
ATOM     30  C   UNL A   1      37.095  34.279  33.370  1.00  0.00     0.261 C 
BRANCH  30  31
ATOM     31  O   UNL A   1      37.203  33.509  32.185  1.00  0.00    -0.460 OA
BRANCH  31  32
ATOM     32  C   UNL A   1      37.037  32.184  32.389  1.00  0.00     0.338 C 
ATOM     33  O   UNL A   1      36.315  31.656  33.233  1.00  0.00    -0.246 OA
BRANCH  32  34
ATOM     34  C   UNL A   1      38.002  31.454  31.571  1.00  0.00     0.060 A 
ATOM     35  C   UNL A   1      37.709  30.113  31.326  1.00  0.00     0.016 A 
ATOM     36  C   UNL A   1      39.289  31.984  31.385  1.00  0.00     0.016 A 
ATOM     37  C   UNL A   1      38.763  29.247  31.150  1.00  0.00     0.010 A 
ATOM     38  C   UNL A   1      40.338  31.115  31.226  1.00  0.00     0.010 A 
ATOM     39  C   UNL A   1      40.070  29.750  31.213  1.00  0.00    -0.014 A 
BRANCH  39  40
ATOM     40  C   UNL A   1      41.168  28.825  31.053  1.00  0.00     0.031 A 
ATOM     41  C   UNL A   1      41.794  28.547  32.360  1.00  0.00     0.074 A 
ATOM     42  C   UNL A   1      41.525  28.244  29.893  1.00  0.00     0.049 A 
ATOM     43  N   UNL A   1      42.823  29.153  32.847  1.00  0.00    -0.248 NA
ATOM     44  C   UNL A   1      41.039  27.760  33.348  1.00  0.00     0.031 C 
ATOM     45  C   UNL A   1      40.853  28.278  28.595  1.00  0.00     0.029 A 
ATOM     46  N   UNL A   1      42.588  27.429  29.656  1.00  0.00    -0.354 N 
ATOM     47  C   UNL A   1      43.018  28.578  34.091  1.00  0.00     0.074 A 
ATOM     48  C   UNL A   1      41.760  27.985  34.448  1.00  0.00     0.031 C 
ATOM     49  C   UNL A   1      41.403  27.343  27.780  1.00  0.00     0.029 A 
ATOM     50  C   UNL A   1      42.549  26.738  28.446  1.00  0.00     0.049 A 
ATOM     51  H   UNL A   1      43.331  27.333  30.295  1.00  0.00     0.167 HD
ATOM     52  C   UNL A   1      44.279  28.348  34.544  1.00  0.00     0.034 A 
ATOM     53  C   UNL A   1      43.379  25.725  28.060  1.00  0.00     0.034 A 
ATOM     54  C   UNL A   1      45.248  29.095  33.764  1.00  0.00     0.049 A 
ATOM     55  C   UNL A   1      44.623  25.874  28.864  1.00  0.00     0.074 A 
ATOM     56  C   UNL A   1      45.428  30.435  33.472  1.00  0.00     0.029 A 
ATOM     57  N   UNL A   1      45.962  28.408  32.805  1.00  0.00    -0.354 N 
ATOM     58  N   UNL A   1      45.434  26.889  28.726  1.00  0.00    -0.248 NA
ATOM     59  C   UNL A   1      44.680  25.216  30.164  1.00  0.00     0.031 C 
ATOM     60  C   UNL A   1      45.813  30.465  32.098  1.00  0.00     0.029 A 
ATOM     61  C   UNL A   1      45.952  29.150  31.649  1.00  0.00     0.049 A 
ATOM     62  H   UNL A   1      46.403  27.536  32.928  1.00  0.00     0.167 HD
ATOM     63  C   UNL A   1      45.750  27.277  30.019  1.00  0.00     0.074 A 
ATOM     64  C   UNL A   1      45.323  26.158  30.863  1.00  0.00     0.031 C 
ATOM     65  C   UNL A   1      46.044  28.579  30.315  1.00  0.00     0.034 A 
BRANCH  52  66
ATOM     66  C   UNL A   1      44.673  27.147  35.372  1.00  0.00     0.023 A 
ATOM     67  C   UNL A   1      44.566  25.894  34.745  1.00  0.00     0.031 A 
ATOM     68  C   UNL A   1      44.851  27.119  36.776  1.00  0.00     0.131 A 
ATOM     69  C   UNL A   1      44.515  24.714  35.501  1.00  0.00     0.055 A 
ATOM     70  C   UNL A   1      44.871  25.936  37.516  1.00  0.00     0.041 A 
ATOM     71  F   UNL A   1      44.922  28.220  37.531  1.00  0.00    -0.206 F 
ATOM     72  C   UNL A   1      44.667  24.724  36.884  1.00  0.00     0.022 A 
BRANCH  69  73
ATOM     73  S   UNL A   1      44.066  23.182  34.654  1.00  0.00     0.124 S 
ATOM     74  O   UNL A   1      44.637  22.180  35.548  1.00  0.00    -0.237 OA
ATOM     75  O   UNL A   1      42.609  23.269  34.631  1.00  0.00    -0.237 OA
ATOM     76  O   UNL A   1      44.719  23.312  33.355  1.00  0.00    -0.744 OA
ENDBRANCH  69  73
ENDBRANCH  52  66
BRANCH  53  77
ATOM     77  C   UNL A   1      43.013  24.455  27.355  1.00  0.00     0.023 A 
ATOM     78  C   UNL A   1      43.844  23.818  26.398  1.00  0.00     0.031 A 
ATOM     79  C   UNL A   1      41.917  23.699  27.828  1.00  0.00     0.131 A 
ATOM     80  C   UNL A   1      43.563  22.494  25.966  1.00  0.00     0.055 A 
ATOM     81  C   UNL A   1      41.650  22.394  27.405  1.00  0.00     0.041 A 
ATOM     82  F   UNL A   1      41.111  24.170  28.792  1.00  0.00    -0.206 F 
ATOM     83  C   UNL A   1      42.478  21.781  26.479  1.00  0.00     0.022 A 
BRANCH  80  84
ATOM     84  S   UNL A   1      44.653  21.629  24.780  1.00  0.00     0.124 S 
ATOM     85  O   UNL A   1      44.082  20.287  24.753  1.00  0.00    -0.237 OA
ATOM     86  O   UNL A   1      44.501  22.425  23.568  1.00  0.00    -0.237 OA
ATOM     87  O   UNL A   1      45.976  21.717  25.402  1.00  0.00    -0.744 OA
ENDBRANCH  80  84
ENDBRANCH  53  77
BRANCH  65  88
ATOM     88  C   UNL A   1      46.320  29.536  29.169  1.00  0.00     0.023 A 
ATOM     89  C   UNL A   1      45.342  30.257  28.442  1.00  0.00     0.031 A 
ATOM     90  C   UNL A   1      47.670  29.795  28.870  1.00  0.00     0.131 A 
ATOM     91  C   UNL A   1      45.738  31.180  27.450  1.00  0.00     0.055 A 
ATOM     92  C   UNL A   1      48.057  30.727  27.908  1.00  0.00     0.041 A 
ATOM     93  F   UNL A   1      48.649  29.160  29.536  1.00  0.00    -0.206 F 
ATOM     94  C   UNL A   1      47.091  31.417  27.188  1.00  0.00     0.022 A 
BRANCH  91  95
ATOM     95  S   UNL A   1      44.500  32.068  26.446  1.00  0.00     0.124 S 
ATOM     96  O   UNL A   1      44.018  33.112  27.342  1.00  0.00    -0.237 OA
ATOM     97  O   UNL A   1      45.289  32.521  25.303  1.00  0.00    -0.237 OA
ATOM     98  O   UNL A   1      43.514  31.032  26.130  1.00  0.00    -0.744 OA
ENDBRANCH  91  95
ENDBRANCH  65  88
ENDBRANCH  39  40
ENDBRANCH  32  34
ENDBRANCH  31  32
ENDBRANCH  30  31
ENDBRANCH  29  30
ENDBRANCH   1  29
TORSDOF 20
ENDMDL
MODEL 3
REMARK VINA RESULT:     -10.9      4.086      5.321
REMARK SMILES C/C(=N\NC(N)=O)c1nnn(-c2ccc(C(=O)OCCOCCOC(=O)c3ccc(-c4c5nc(c(-c6cc(S(=O)(=O)[O-])ccc6F)c6ccc([nH]6)c(-c6cc(S(=O)(=O)[O-])ccc6F)c6nc(c(-c7cc(S(=O)(=O)[O-])ccc7F)c7ccc4[nH]7)C=C6)C=C5)cc3)cc2)c1C
REMARK SMILES IDX 21 1 20 2 19 3 18 4 16 5 17 6 15 7 12 8 13 9 91 10 14 11
REMARK SMILES IDX 90 12 11 13 8 14 9 15 92 16 10 17 93 18 2 19 1 20 3 21 4 22
REMARK SMILES IDX 5 23 6 25 7 26 22 29 23 30 24 31 25 32 26 33 27 34 28 35
REMARK SMILES IDX 89 36 29 37 88 38 30 39 31 40 32 41 82 42 33 43 87 44 81 45
REMARK SMILES IDX 83 46 34 47 86 48 80 49 79 50 35 52 67 53 47 54 66 55 48 56
REMARK SMILES IDX 51 57 65 58 84 59 49 60 50 61 64 63 85 64 52 65 36 66 37 67
REMARK SMILES IDX 45 68 38 69 44 70 46 71 43 72 39 73 40 74 41 75 42 76 68 77
REMARK SMILES IDX 69 78 77 79 70 80 76 81 78 82 75 83 71 84 72 85 73 86 74 87
REMARK SMILES IDX 53 88 54 89 62 90 55 91 61 92 63 93 60 94 56 95 57 96 58 97
REMARK SMILES IDX 59 98
REMARK H PARENT 4 24 6 27 6 28 83 51 51 62
REMARK Flexibility Score: inf
ROOT
ATOM      1  O   UNL A   1      32.819  31.546  27.223  1.00  0.00    -0.374 OA
ENDROOT
BRANCH   1   2
ATOM      2  C   UNL A   1      31.568  32.134  26.873  1.00  0.00     0.202 C 
BRANCH   2   3
ATOM      3  C   UNL A   1      30.787  31.536  25.703  1.00  0.00     0.261 C 
BRANCH   3   4
ATOM      4  O   UNL A   1      31.320  30.276  25.272  1.00  0.00    -0.460 OA
BRANCH   4   5
ATOM      5  C   UNL A   1      30.694  29.736  24.201  1.00  0.00     0.338 C 
ATOM      6  O   UNL A   1      29.663  30.127  23.674  1.00  0.00    -0.246 OA
BRANCH   5   7
ATOM      7  C   UNL A   1      31.497  28.631  23.638  1.00  0.00     0.060 A 
ATOM      8  C   UNL A   1      32.860  26.311  22.999  1.00  0.00     0.067 A 
ATOM      9  C   UNL A   1      31.498  26.396  22.696  1.00  0.00     0.029 A 
ATOM     10  C   UNL A   1      33.569  27.426  23.464  1.00  0.00     0.029 A 
ATOM     11  C   UNL A   1      30.812  27.556  23.047  1.00  0.00     0.018 A 
ATOM     12  C   UNL A   1      32.886  28.599  23.776  1.00  0.00     0.018 A 
BRANCH   8  13
ATOM     13  N   UNL A   1      33.455  25.032  23.077  1.00  0.00    -0.217 N 
ATOM     14  C   UNL A   1      33.995  23.045  23.793  1.00  0.00     0.132 A 
ATOM     15  N   UNL A   1      33.990  23.032  22.424  1.00  0.00    -0.128 NA
ATOM     16  C   UNL A   1      33.639  24.302  24.243  1.00  0.00     0.071 A 
ATOM     17  N   UNL A   1      33.580  24.222  22.002  1.00  0.00    -0.061 NA
ATOM     18  C   UNL A   1      33.284  24.767  25.606  1.00  0.00     0.069 C 
BRANCH  14  19
ATOM     19  C   UNL A   1      34.092  21.834  24.592  1.00  0.00     0.087 C 
ATOM     20  C   UNL A   1      35.486  21.296  24.777  1.00  0.00     0.071 C 
ATOM     21  N   UNL A   1      32.968  21.376  25.056  1.00  0.00    -0.174 NA
BRANCH  21  22
ATOM     22  N   UNL A   1      32.857  20.230  25.788  1.00  0.00    -0.229 N 
ATOM     23  C   UNL A   1      32.897  18.924  25.351  1.00  0.00     0.332 C 
ATOM     24  H   UNL A   1      32.733  20.351  26.758  1.00  0.00     0.195 HD
ATOM     25  N   UNL A   1      32.750  18.032  26.372  1.00  0.00    -0.350 N 
ATOM     26  O   UNL A   1      33.051  18.514  24.209  1.00  0.00    -0.247 OA
ATOM     27  H   UNL A   1      32.625  18.354  27.294  1.00  0.00     0.161 HD
ATOM     28  H   UNL A   1      32.770  17.065  26.188  1.00  0.00     0.161 HD
ENDBRANCH  21  22
ENDBRANCH  14  19
ENDBRANCH   8  13
ENDBRANCH   5   7
ENDBRANCH   4   5
ENDBRANCH   3   4
ENDBRANCH   2   3
ENDBRANCH   1   2
BRANCH   1  29
ATOM     29  C   UNL A   1      33.903  32.368  27.640  1.00  0.00     0.202 C 
BRANCH  29  30
ATOM     30  C   UNL A   1      34.941  31.803  28.599  1.00  0.00     0.261 C 
BRANCH  30  31
ATOM     31  O   UNL A   1      35.151  32.629  29.732  1.00  0.00    -0.460 OA
BRANCH  31  32
ATOM     32  C   UNL A   1      35.884  32.036  30.700  1.00  0.00     0.338 C 
ATOM     33  O   UNL A   1      35.797  32.232  31.910  1.00  0.00    -0.246 OA
BRANCH  32  34
ATOM     34  C   UNL A   1      36.945  31.249  30.075  1.00  0.00     0.060 A 
ATOM     35  C   UNL A   1      36.723  29.875  29.993  1.00  0.00     0.016 A 
ATOM     36  C   UNL A   1      38.223  31.810  29.927  1.00  0.00     0.016 A 
ATOM     37  C   UNL A   1      37.818  29.045  30.029  1.00  0.00     0.010 A 
ATOM     38  C   UNL A   1      39.313  30.979  29.980  1.00  0.00     0.010 A 
ATOM     39  C   UNL A   1      39.095  29.613  30.132  1.00  0.00    -0.014 A 
BRANCH  39  40
ATOM     40  C   UNL A   1      40.236  28.729  30.195  1.00  0.00     0.031 A 
ATOM     41  C   UNL A   1      40.569  28.427  31.600  1.00  0.00     0.074 A 
ATOM     42  C   UNL A   1      40.861  28.198  29.128  1.00  0.00     0.049 A 
ATOM     43  N   UNL A   1      41.443  29.048  32.318  1.00  0.00    -0.248 NA
ATOM     44  C   UNL A   1      39.645  27.584  32.377  1.00  0.00     0.031 C 
ATOM     45  C   UNL A   1      40.489  28.254  27.715  1.00  0.00     0.029 A 
ATOM     46  N   UNL A   1      41.979  27.424  29.111  1.00  0.00    -0.354 N 
ATOM     47  C   UNL A   1      41.381  28.438  33.559  1.00  0.00     0.074 A 
ATOM     48  C   UNL A   1      40.098  27.795  33.614  1.00  0.00     0.031 C 
ATOM     49  C   UNL A   1      41.239  27.363  27.018  1.00  0.00     0.029 A 
ATOM     50  C   UNL A   1      42.233  26.773  27.904  1.00  0.00     0.049 A 
ATOM     51  H   UNL A   1      42.567  27.330  29.895  1.00  0.00     0.167 HD
ATOM     52  C   UNL A   1      42.519  28.233  34.274  1.00  0.00     0.034 A 
ATOM     53  C   UNL A   1      43.165  25.800  27.686  1.00  0.00     0.034 A 
ATOM     54  C   UNL A   1      43.607  29.035  33.746  1.00  0.00     0.049 A 
ATOM     55  C   UNL A   1      44.196  25.960  28.749  1.00  0.00     0.074 A 
ATOM     56  C   UNL A   1      43.797  30.389  33.535  1.00  0.00     0.029 A 
ATOM     57  N   UNL A   1      44.540  28.403  32.951  1.00  0.00    -0.354 N 
ATOM     58  N   UNL A   1      44.979  27.003  28.819  1.00  0.00    -0.248 NA
ATOM     59  C   UNL A   1      43.991  25.262  30.012  1.00  0.00     0.031 C 
ATOM     60  C   UNL A   1      44.473  30.476  32.281  1.00  0.00     0.029 A 
ATOM     61  C   UNL A   1      44.756  29.182  31.840  1.00  0.00     0.049 A 
ATOM     62  H   UNL A   1      44.975  27.541  33.146  1.00  0.00     0.167 HD
ATOM     63  C   UNL A   1      44.988  27.359  30.159  1.00  0.00     0.074 A 
ATOM     64  C   UNL A   1      44.428  26.200  30.859  1.00  0.00     0.031 C 
ATOM     65  C   UNL A   1      45.160  28.659  30.546  1.00  0.00     0.034 A 
BRANCH  52  66
ATOM     66  C   UNL A   1      42.766  27.017  35.137  1.00  0.00     0.023 A 
ATOM     67  C   UNL A   1      43.578  26.014  34.584  1.00  0.00     0.031 A 
ATOM     68  C   UNL A   1      42.043  26.654  36.298  1.00  0.00     0.131 A 
ATOM     69  C   UNL A   1      43.556  24.708  35.097  1.00  0.00     0.055 A 
ATOM     70  C   UNL A   1      42.081  25.372  36.846  1.00  0.00     0.041 A 
ATOM     71  F   UNL A   1      41.189  27.474  36.919  1.00  0.00    -0.206 F 
ATOM     72  C   UNL A   1      42.813  24.378  36.225  1.00  0.00     0.022 A 
BRANCH  69  73
ATOM     73  S   UNL A   1      44.381  23.410  34.148  1.00  0.00     0.124 S 
ATOM     74  O   UNL A   1      45.562  24.115  33.661  1.00  0.00    -0.237 OA
ATOM     75  O   UNL A   1      44.613  22.394  35.170  1.00  0.00    -0.237 OA
ATOM     76  O   UNL A   1      43.395  23.058  33.132  1.00  0.00    -0.744 OA
ENDBRANCH  69  73
ENDBRANCH  52  66
BRANCH  53  77
ATOM     77  C   UNL A   1      43.011  24.542  26.886  1.00  0.00     0.023 A 
ATOM     78  C   UNL A   1      44.014  24.030  26.024  1.00  0.00     0.031 A 
ATOM     79  C   UNL A   1      41.935  23.673  27.174  1.00  0.00     0.131 A 
ATOM     80  C   UNL A   1      43.913  22.713  25.503  1.00  0.00     0.055 A 
ATOM     81  C   UNL A   1      41.845  22.374  26.664  1.00  0.00     0.041 A 
ATOM     82  F   UNL A   1      40.971  24.022  28.040  1.00  0.00    -0.206 F 
ATOM     83  C   UNL A   1      42.839  21.884  25.834  1.00  0.00     0.022 A 
BRANCH  80  84
ATOM     84  S   UNL A   1      45.223  22.006  24.438  1.00  0.00     0.124 S 
ATOM     85  O   UNL A   1      44.566  20.835  23.870  1.00  0.00    -0.237 OA
ATOM     86  O   UNL A   1      45.511  23.101  23.520  1.00  0.00    -0.237 OA
ATOM     87  O   UNL A   1      46.304  21.704  25.380  1.00  0.00    -0.744 OA
ENDBRANCH  80  84
ENDBRANCH  53  77
BRANCH  65  88
ATOM     88  C   UNL A   1      45.645  29.661  29.513  1.00  0.00     0.023 A 
ATOM     89  C   UNL A   1      44.834  30.319  28.558  1.00  0.00     0.031 A 
ATOM     90  C   UNL A   1      47.000  30.033  29.578  1.00  0.00     0.131 A 
ATOM     91  C   UNL A   1      45.397  31.294  27.705  1.00  0.00     0.055 A 
ATOM     92  C   UNL A   1      47.546  31.015  28.753  1.00  0.00     0.041 A 
ATOM     93  F   UNL A   1      47.821  29.462  30.476  1.00  0.00    -0.206 F 
ATOM     94  C   UNL A   1      46.747  31.643  27.807  1.00  0.00     0.022 A 
BRANCH  91  95
ATOM     95  S   UNL A   1      44.395  32.104  26.415  1.00  0.00     0.124 S 
ATOM     96  O   UNL A   1      43.841  33.269  27.093  1.00  0.00    -0.237 OA
ATOM     97  O   UNL A   1      45.383  32.379  25.376  1.00  0.00    -0.237 OA
ATOM     98  O   UNL A   1      43.409  31.080  26.059  1.00  0.00    -0.744 OA
ENDBRANCH  91  95
ENDBRANCH  65  88
ENDBRANCH  39  40
ENDBRANCH  32  34
ENDBRANCH  31  32
ENDBRANCH  30  31
ENDBRANCH  29  30
ENDBRANCH   1  29
TORSDOF 20
ENDMDL
