MODEL 1
REMARK VINA RESULT:     -11.0      0.000      0.000
REMARK SMILES Cc1cccc(NC(=O)[C@H]2C[C@H]2C(=O)OCCOCCOC(=O)c2ccc(-c3c4nc(c(-c5cc(S(=O)(=O)[O-])ccc5F)c5ccc([nH]5)c(-c5cc(S(=O)(=O)[O-])ccc5F)c5nc(c(-c6cc(S(=O)(=O)[O-])ccc6F)c6ccc3[nH]6)C=C5)C=C4)cc2)c1
REMARK SMILES IDX 19 1 18 2 17 3 16 4 15 5 13 6 14 7 12 8 10 9 11 10 8 11 7 12
REMARK SMILES IDX 9 14 6 15 1 16 2 17 3 18 87 19 4 20 5 21 20 22 21 23 22 24
REMARK SMILES IDX 23 25 24 26 25 27 86 28 26 29 85 30 27 31 28 32 29 33 79 34
REMARK SMILES IDX 30 35 84 36 78 37 80 38 31 39 83 40 77 41 76 42 32 44 64 45
REMARK SMILES IDX 44 46 63 47 45 48 48 49 62 50 81 51 46 52 47 53 61 55 82 56
REMARK SMILES IDX 49 57 33 58 34 59 42 60 35 61 41 62 43 63 40 64 36 65 37 66
REMARK SMILES IDX 38 67 39 68 65 69 66 70 74 71 67 72 73 73 75 74 72 75 68 76
REMARK SMILES IDX 69 77 70 78 71 79 50 80 51 81 59 82 52 83 58 84 60 85 57 86
REMARK SMILES IDX 53 87 54 88 55 89 56 90
REMARK H PARENT 7 13 80 43 48 54
REMARK Flexibility Score: inf
ROOT
ATOM      1  C   UNL A   1      37.361  21.509  25.126  1.00  0.00     0.202 C 
ENDROOT
BRANCH   1   2
ATOM      2  O   UNL A   1      36.820  20.221  24.972  1.00  0.00    -0.374 OA
BRANCH   2   3
ATOM      3  C   UNL A   1      35.401  20.163  25.084  1.00  0.00     0.202 C 
BRANCH   3   4
ATOM      4  C   UNL A   1      35.047  21.403  25.825  1.00  0.00     0.261 C 
BRANCH   4   5
ATOM      5  O   UNL A   1      33.641  21.632  25.968  1.00  0.00    -0.463 OA
BRANCH   5   6
ATOM      6  C   UNL A   1      33.026  22.442  25.070  1.00  0.00     0.309 C 
ATOM      7  O   UNL A   1      33.075  22.374  23.864  1.00  0.00    -0.252 OA
BRANCH   6   8
ATOM      8  C   UNL A   1      32.222  23.502  25.731  1.00  0.00     0.112 C 
ATOM      9  C   UNL A   1      32.772  24.873  26.065  1.00  0.00     0.094 C 
ATOM     10  C   UNL A   1      31.697  24.697  24.999  1.00  0.00     0.030 C 
BRANCH   9  11
ATOM     11  C   UNL A   1      34.063  25.448  25.610  1.00  0.00     0.228 C 
ATOM     12  N   UNL A   1      34.294  26.801  25.550  1.00  0.00    -0.326 N 
ATOM     13  H   UNL A   1      35.212  27.016  25.268  1.00  0.00     0.169 HD
ATOM     14  O   UNL A   1      34.891  24.676  25.128  1.00  0.00    -0.274 OA
BRANCH  12  15
ATOM     15  C   UNL A   1      33.517  27.946  25.798  1.00  0.00     0.041 A 
ATOM     16  C   UNL A   1      34.014  31.183  27.789  1.00  0.00     0.044 C 
ATOM     17  C   UNL A   1      33.394  30.117  26.936  1.00  0.00    -0.049 A 
ATOM     18  C   UNL A   1      32.093  30.292  26.457  1.00  0.00     0.003 A 
ATOM     19  C   UNL A   1      34.083  28.929  26.631  1.00  0.00     0.029 A 
ATOM     20  C   UNL A   1      31.519  29.322  25.643  1.00  0.00     0.002 A 
ATOM     21  C   UNL A   1      32.241  28.178  25.291  1.00  0.00     0.026 A 
ENDBRANCH  12  15
ENDBRANCH   9  11
ENDBRANCH   6   8
ENDBRANCH   5   6
ENDBRANCH   4   5
ENDBRANCH   3   4
ENDBRANCH   2   3
ENDBRANCH   1   2
BRANCH   1  22
ATOM     22  C   UNL A   1      38.801  21.518  25.640  1.00  0.00     0.261 C 
BRANCH  22  23
ATOM     23  O   UNL A   1      38.984  22.566  26.612  1.00  0.00    -0.460 OA
BRANCH  23  24
ATOM     24  C   UNL A   1      40.129  23.291  26.467  1.00  0.00     0.338 C 
ATOM     25  O   UNL A   1      41.215  22.823  26.168  1.00  0.00    -0.246 OA
BRANCH  24  26
ATOM     26  C   UNL A   1      39.890  24.709  26.854  1.00  0.00     0.060 A 
ATOM     27  C   UNL A   1      40.620  25.743  26.241  1.00  0.00     0.016 A 
ATOM     28  C   UNL A   1      39.157  24.964  28.009  1.00  0.00     0.016 A 
ATOM     29  C   UNL A   1      40.753  26.981  26.883  1.00  0.00     0.010 A 
ATOM     30  C   UNL A   1      39.396  26.131  28.695  1.00  0.00     0.010 A 
ATOM     31  C   UNL A   1      40.217  27.136  28.157  1.00  0.00    -0.014 A 
BRANCH  31  32
ATOM     32  C   UNL A   1      40.418  28.274  29.056  1.00  0.00     0.031 A 
ATOM     33  C   UNL A   1      39.412  29.352  28.983  1.00  0.00     0.074 A 
ATOM     34  C   UNL A   1      41.311  28.231  30.078  1.00  0.00     0.049 A 
ATOM     35  N   UNL A   1      39.514  30.462  29.613  1.00  0.00    -0.248 NA
ATOM     36  C   UNL A   1      38.202  29.294  28.158  1.00  0.00     0.031 C 
ATOM     37  C   UNL A   1      41.385  29.041  31.296  1.00  0.00     0.029 A 
ATOM     38  N   UNL A   1      42.442  27.424  30.209  1.00  0.00    -0.354 N 
ATOM     39  C   UNL A   1      38.294  31.088  29.575  1.00  0.00     0.074 A 
ATOM     40  C   UNL A   1      37.559  30.397  28.553  1.00  0.00     0.031 C 
ATOM     41  C   UNL A   1      42.626  28.946  31.820  1.00  0.00     0.029 A 
ATOM     42  C   UNL A   1      43.420  28.145  30.897  1.00  0.00     0.049 A 
ATOM     43  H   UNL A   1      42.535  26.503  29.873  1.00  0.00     0.167 HD
ATOM     44  C   UNL A   1      38.050  32.030  30.527  1.00  0.00     0.034 A 
ATOM     45  C   UNL A   1      44.582  28.449  30.265  1.00  0.00     0.034 A 
ATOM     46  C   UNL A   1      39.309  32.358  31.229  1.00  0.00     0.049 A 
ATOM     47  C   UNL A   1      44.581  29.953  30.105  1.00  0.00     0.074 A 
ATOM     48  C   UNL A   1      39.804  32.101  32.496  1.00  0.00     0.029 A 
ATOM     49  N   UNL A   1      40.413  32.744  30.460  1.00  0.00    -0.354 N 
ATOM     50  N   UNL A   1      43.488  30.679  30.113  1.00  0.00    -0.248 NA
ATOM     51  C   UNL A   1      45.789  30.764  30.115  1.00  0.00     0.031 C 
ATOM     52  C   UNL A   1      41.232  32.227  32.437  1.00  0.00     0.029 A 
ATOM     53  C   UNL A   1      41.601  32.594  31.148  1.00  0.00     0.049 A 
ATOM     54  H   UNL A   1      40.349  33.084  29.538  1.00  0.00     0.167 HD
ATOM     55  C   UNL A   1      43.806  31.993  30.297  1.00  0.00     0.074 A 
ATOM     56  C   UNL A   1      45.266  31.997  30.247  1.00  0.00     0.031 C 
ATOM     57  C   UNL A   1      42.874  32.973  30.524  1.00  0.00     0.034 A 
BRANCH  44  58
ATOM     58  C   UNL A   1      36.678  32.524  30.954  1.00  0.00     0.023 A 
ATOM     59  C   UNL A   1      35.953  33.350  30.069  1.00  0.00     0.031 A 
ATOM     60  C   UNL A   1      36.054  32.317  32.208  1.00  0.00     0.131 A 
ATOM     61  C   UNL A   1      34.711  33.916  30.431  1.00  0.00     0.055 A 
ATOM     62  C   UNL A   1      34.804  32.849  32.553  1.00  0.00     0.041 A 
ATOM     63  F   UNL A   1      36.619  31.623  33.198  1.00  0.00    -0.206 F 
ATOM     64  C   UNL A   1      34.124  33.656  31.664  1.00  0.00     0.022 A 
BRANCH  61  65
ATOM     65  S   UNL A   1      33.872  35.030  29.273  1.00  0.00     0.124 S 
ATOM     66  O   UNL A   1      34.844  35.133  28.190  1.00  0.00    -0.237 OA
ATOM     67  O   UNL A   1      32.644  34.303  28.976  1.00  0.00    -0.237 OA
ATOM     68  O   UNL A   1      33.689  36.254  30.052  1.00  0.00    -0.744 OA
ENDBRANCH  61  65
ENDBRANCH  44  58
BRANCH  45  69
ATOM     69  C   UNL A   1      44.996  27.349  29.310  1.00  0.00     0.023 A 
ATOM     70  C   UNL A   1      44.774  27.541  27.908  1.00  0.00     0.031 A 
ATOM     71  C   UNL A   1      45.957  26.392  29.666  1.00  0.00     0.131 A 
ATOM     72  C   UNL A   1      45.584  26.900  26.941  1.00  0.00     0.055 A 
ATOM     73  C   UNL A   1      46.749  25.746  28.698  1.00  0.00     0.041 A 
ATOM     74  F   UNL A   1      46.248  26.164  30.954  1.00  0.00    -0.206 F 
ATOM     75  C   UNL A   1      46.599  26.031  27.341  1.00  0.00     0.022 A 
BRANCH  72  76
ATOM     76  S   UNL A   1      45.539  27.422  25.179  1.00  0.00     0.124 S 
ATOM     77  O   UNL A   1      44.110  27.570  24.933  1.00  0.00    -0.237 OA
ATOM     78  O   UNL A   1      46.320  28.652  25.168  1.00  0.00    -0.237 OA
ATOM     79  O   UNL A   1      46.186  26.312  24.478  1.00  0.00    -0.744 OA
ENDBRANCH  72  76
ENDBRANCH  45  69
BRANCH  57  80
ATOM     80  C   UNL A   1      43.120  34.433  30.214  1.00  0.00     0.023 A 
ATOM     81  C   UNL A   1      42.905  34.968  28.941  1.00  0.00     0.031 A 
ATOM     82  C   UNL A   1      43.455  35.374  31.217  1.00  0.00     0.131 A 
ATOM     83  C   UNL A   1      43.136  36.320  28.664  1.00  0.00     0.055 A 
ATOM     84  C   UNL A   1      43.564  36.744  30.967  1.00  0.00     0.041 A 
ATOM     85  F   UNL A   1      43.669  35.020  32.492  1.00  0.00    -0.206 F 
ATOM     86  C   UNL A   1      43.430  37.224  29.675  1.00  0.00     0.022 A 
BRANCH  83  87
ATOM     87  S   UNL A   1      43.125  36.815  26.928  1.00  0.00     0.124 S 
ATOM     88  O   UNL A   1      42.609  35.611  26.280  1.00  0.00    -0.237 OA
ATOM     89  O   UNL A   1      42.224  37.962  26.932  1.00  0.00    -0.237 OA
ATOM     90  O   UNL A   1      44.526  37.121  26.650  1.00  0.00    -0.744 OA
ENDBRANCH  83  87
ENDBRANCH  57  80
ENDBRANCH  31  32
ENDBRANCH  24  26
ENDBRANCH  23  24
ENDBRANCH  22  23
ENDBRANCH   1  22
TORSDOF 19
ENDMDL
MODEL 2
REMARK VINA RESULT:     -10.9      1.938      2.493
REMARK SMILES Cc1cccc(NC(=O)[C@H]2C[C@H]2C(=O)OCCOCCOC(=O)c2ccc(-c3c4nc(c(-c5cc(S(=O)(=O)[O-])ccc5F)c5ccc([nH]5)c(-c5cc(S(=O)(=O)[O-])ccc5F)c5nc(c(-c6cc(S(=O)(=O)[O-])ccc6F)c6ccc3[nH]6)C=C5)C=C4)cc2)c1
REMARK SMILES IDX 19 1 18 2 17 3 16 4 15 5 13 6 14 7 12 8 10 9 11 10 8 11 7 12
REMARK SMILES IDX 9 14 6 15 1 16 2 17 3 18 87 19 4 20 5 21 20 22 21 23 22 24
REMARK SMILES IDX 23 25 24 26 25 27 86 28 26 29 85 30 27 31 28 32 29 33 79 34
REMARK SMILES IDX 30 35 84 36 78 37 80 38 31 39 83 40 77 41 76 42 32 44 64 45
REMARK SMILES IDX 44 46 63 47 45 48 48 49 62 50 81 51 46 52 47 53 61 55 82 56
REMARK SMILES IDX 49 57 33 58 34 59 42 60 35 61 41 62 43 63 40 64 36 65 37 66
REMARK SMILES IDX 38 67 39 68 65 69 66 70 74 71 67 72 73 73 75 74 72 75 68 76
REMARK SMILES IDX 69 77 70 78 71 79 50 80 51 81 59 82 52 83 58 84 60 85 57 86
REMARK SMILES IDX 53 87 54 88 55 89 56 90
REMARK H PARENT 7 13 80 43 48 54
REMARK Flexibility Score: inf
ROOT
ATOM      1  C   UNL A   1      38.137  22.727  25.760  1.00  0.00     0.202 C 
ENDROOT
BRANCH   1   2
ATOM      2  O   UNL A   1      37.349  21.751  25.127  1.00  0.00    -0.374 OA
BRANCH   2   3
ATOM      3  C   UNL A   1      35.959  22.065  25.071  1.00  0.00     0.202 C 
BRANCH   3   4
ATOM      4  C   UNL A   1      35.929  23.545  24.945  1.00  0.00     0.261 C 
BRANCH   4   5
ATOM      5  O   UNL A   1      35.000  24.043  23.976  1.00  0.00    -0.463 OA
BRANCH   5   6
ATOM      6  C   UNL A   1      33.905  24.711  24.418  1.00  0.00     0.309 C 
ATOM      7  O   UNL A   1      33.865  25.599  25.237  1.00  0.00    -0.252 OA
BRANCH   6   8
ATOM      8  C   UNL A   1      32.658  24.233  23.765  1.00  0.00     0.112 C 
ATOM      9  C   UNL A   1      32.108  24.834  22.488  1.00  0.00     0.094 C 
ATOM     10  C   UNL A   1      32.660  23.414  22.513  1.00  0.00     0.030 C 
BRANCH   9  11
ATOM     11  C   UNL A   1      32.797  25.794  21.589  1.00  0.00     0.228 C 
ATOM     12  N   UNL A   1      32.782  27.151  21.799  1.00  0.00    -0.326 N 
ATOM     13  H   UNL A   1      33.319  27.643  21.137  1.00  0.00     0.169 HD
ATOM     14  O   UNL A   1      33.264  25.354  20.539  1.00  0.00    -0.274 OA
BRANCH  12  15
ATOM     15  C   UNL A   1      32.172  27.997  22.742  1.00  0.00     0.041 A 
ATOM     16  C   UNL A   1      28.708  29.594  23.116  1.00  0.00     0.044 C 
ATOM     17  C   UNL A   1      30.137  29.218  23.369  1.00  0.00    -0.049 A 
ATOM     18  C   UNL A   1      30.794  29.733  24.489  1.00  0.00     0.003 A 
ATOM     19  C   UNL A   1      30.843  28.381  22.485  1.00  0.00     0.029 A 
ATOM     20  C   UNL A   1      32.111  29.370  24.747  1.00  0.00     0.002 A 
ATOM     21  C   UNL A   1      32.778  28.482  23.897  1.00  0.00     0.026 A 
ENDBRANCH  12  15
ENDBRANCH   9  11
ENDBRANCH   6   8
ENDBRANCH   5   6
ENDBRANCH   4   5
ENDBRANCH   3   4
ENDBRANCH   2   3
ENDBRANCH   1   2
BRANCH   1  22
ATOM     22  C   UNL A   1      39.316  22.155  26.548  1.00  0.00     0.261 C 
BRANCH  22  23
ATOM     23  O   UNL A   1      39.837  23.139  27.463  1.00  0.00    -0.460 OA
BRANCH  23  24
ATOM     24  C   UNL A   1      40.690  24.046  26.908  1.00  0.00     0.338 C 
ATOM     25  O   UNL A   1      41.717  23.762  26.315  1.00  0.00    -0.246 OA
BRANCH  24  26
ATOM     26  C   UNL A   1      40.256  25.430  27.245  1.00  0.00     0.060 A 
ATOM     27  C   UNL A   1      40.675  26.516  26.454  1.00  0.00     0.016 A 
ATOM     28  C   UNL A   1      39.681  25.657  28.491  1.00  0.00     0.016 A 
ATOM     29  C   UNL A   1      40.675  27.810  26.989  1.00  0.00     0.010 A 
ATOM     30  C   UNL A   1      39.805  26.905  29.055  1.00  0.00     0.010 A 
ATOM     31  C   UNL A   1      40.329  27.984  28.325  1.00  0.00    -0.014 A 
BRANCH  31  32
ATOM     32  C   UNL A   1      40.455  29.216  29.106  1.00  0.00     0.031 A 
ATOM     33  C   UNL A   1      39.354  30.191  28.973  1.00  0.00     0.074 A 
ATOM     34  C   UNL A   1      41.380  29.349  30.091  1.00  0.00     0.049 A 
ATOM     35  N   UNL A   1      39.376  31.360  29.493  1.00  0.00    -0.248 NA
ATOM     36  C   UNL A   1      38.129  29.950  28.207  1.00  0.00     0.031 C 
ATOM     37  C   UNL A   1      41.420  30.275  31.224  1.00  0.00     0.029 A 
ATOM     38  N   UNL A   1      42.583  28.658  30.250  1.00  0.00    -0.354 N 
ATOM     39  C   UNL A   1      38.104  31.872  29.447  1.00  0.00     0.074 A 
ATOM     40  C   UNL A   1      37.402  31.025  28.523  1.00  0.00     0.031 C 
ATOM     41  C   UNL A   1      42.681  30.338  31.705  1.00  0.00     0.029 A 
ATOM     42  C   UNL A   1      43.513  29.524  30.829  1.00  0.00     0.049 A 
ATOM     43  H   UNL A   1      42.748  27.721  29.997  1.00  0.00     0.167 HD
ATOM     44  C   UNL A   1      37.807  32.876  30.317  1.00  0.00     0.034 A 
ATOM     45  C   UNL A   1      44.623  29.865  30.125  1.00  0.00     0.034 A 
ATOM     46  C   UNL A   1      39.052  33.377  30.934  1.00  0.00     0.049 A 
ATOM     47  C   UNL A   1      44.482  31.342  29.827  1.00  0.00     0.074 A 
ATOM     48  C   UNL A   1      39.608  33.287  32.199  1.00  0.00     0.029 A 
ATOM     49  N   UNL A   1      40.092  33.782  30.089  1.00  0.00    -0.354 N 
ATOM     50  N   UNL A   1      43.328  31.968  29.812  1.00  0.00    -0.248 NA
ATOM     51  C   UNL A   1      45.611  32.252  29.714  1.00  0.00     0.031 C 
ATOM     52  C   UNL A   1      41.017  33.530  32.072  1.00  0.00     0.029 A 
ATOM     53  C   UNL A   1      41.310  33.802  30.740  1.00  0.00     0.049 A 
ATOM     54  H   UNL A   1      39.969  34.026  29.143  1.00  0.00     0.167 HD
ATOM     55  C   UNL A   1      43.533  33.316  29.861  1.00  0.00     0.074 A 
ATOM     56  C   UNL A   1      44.984  33.441  29.752  1.00  0.00     0.031 C 
ATOM     57  C   UNL A   1      42.523  34.229  30.033  1.00  0.00     0.034 A 
BRANCH  44  58
ATOM     58  C   UNL A   1      36.410  33.288  30.751  1.00  0.00     0.023 A 
ATOM     59  C   UNL A   1      35.592  33.974  29.829  1.00  0.00     0.031 A 
ATOM     60  C   UNL A   1      35.842  33.134  32.038  1.00  0.00     0.131 A 
ATOM     61  C   UNL A   1      34.317  34.463  30.187  1.00  0.00     0.055 A 
ATOM     62  C   UNL A   1      34.561  33.587  32.384  1.00  0.00     0.041 A 
ATOM     63  F   UNL A   1      36.492  32.573  33.061  1.00  0.00    -0.206 F 
ATOM     64  C   UNL A   1      33.790  34.259  31.458  1.00  0.00     0.022 A 
BRANCH  61  65
ATOM     65  S   UNL A   1      33.353  35.404  28.975  1.00  0.00     0.124 S 
ATOM     66  O   UNL A   1      32.511  36.233  29.831  1.00  0.00    -0.237 OA
ATOM     67  O   UNL A   1      34.391  36.094  28.220  1.00  0.00    -0.237 OA
ATOM     68  O   UNL A   1      32.637  34.367  28.231  1.00  0.00    -0.744 OA
ENDBRANCH  61  65
ENDBRANCH  44  58
BRANCH  45  69
ATOM     69  C   UNL A   1      45.104  28.720  29.261  1.00  0.00     0.023 A 
ATOM     70  C   UNL A   1      45.201  28.925  27.846  1.00  0.00     0.031 A 
ATOM     71  C   UNL A   1      45.859  27.665  29.793  1.00  0.00     0.131 A 
ATOM     72  C   UNL A   1      46.119  28.190  27.059  1.00  0.00     0.055 A 
ATOM     73  C   UNL A   1      46.760  26.929  29.001  1.00  0.00     0.041 A 
ATOM     74  F   UNL A   1      45.849  27.416  31.110  1.00  0.00    -0.206 F 
ATOM     75  C   UNL A   1      46.928  27.218  27.647  1.00  0.00     0.022 A 
BRANCH  72  76
ATOM     76  S   UNL A   1      46.499  28.701  25.334  1.00  0.00     0.124 S 
ATOM     77  O   UNL A   1      45.484  27.991  24.566  1.00  0.00    -0.237 OA
ATOM     78  O   UNL A   1      46.371  30.152  25.372  1.00  0.00    -0.237 OA
ATOM     79  O   UNL A   1      47.874  28.240  25.137  1.00  0.00    -0.744 OA
ENDBRANCH  72  76
ENDBRANCH  45  69
BRANCH  57  80
ATOM     80  C   UNL A   1      42.627  35.668  29.580  1.00  0.00     0.023 A 
ATOM     81  C   UNL A   1      43.477  36.583  30.207  1.00  0.00     0.031 A 
ATOM     82  C   UNL A   1      41.973  36.147  28.419  1.00  0.00     0.131 A 
ATOM     83  C   UNL A   1      43.566  37.913  29.782  1.00  0.00     0.055 A 
ATOM     84  C   UNL A   1      42.158  37.438  27.922  1.00  0.00     0.041 A 
ATOM     85  F   UNL A   1      41.144  35.382  27.695  1.00  0.00    -0.206 F 
ATOM     86  C   UNL A   1      42.941  38.344  28.620  1.00  0.00     0.022 A 
BRANCH  83  87
ATOM     87  S   UNL A   1      44.451  39.061  30.858  1.00  0.00     0.124 S 
ATOM     88  O   UNL A   1      45.466  38.191  31.448  1.00  0.00    -0.237 OA
ATOM     89  O   UNL A   1      44.948  40.058  29.916  1.00  0.00    -0.237 OA
ATOM     90  O   UNL A   1      43.420  39.531  31.780  1.00  0.00    -0.744 OA
ENDBRANCH  83  87
ENDBRANCH  57  80
ENDBRANCH  31  32
ENDBRANCH  24  26
ENDBRANCH  23  24
ENDBRANCH  22  23
ENDBRANCH   1  22
TORSDOF 19
ENDMDL
MODEL 3
REMARK VINA RESULT:     -10.9      1.746      3.723
REMARK SMILES Cc1cccc(NC(=O)[C@H]2C[C@H]2C(=O)OCCOCCOC(=O)c2ccc(-c3c4nc(c(-c5cc(S(=O)(=O)[O-])ccc5F)c5ccc([nH]5)c(-c5cc(S(=O)(=O)[O-])ccc5F)c5nc(c(-c6cc(S(=O)(=O)[O-])ccc6F)c6ccc3[nH]6)C=C5)C=C4)cc2)c1
REMARK SMILES IDX 19 1 18 2 17 3 16 4 15 5 13 6 14 7 12 8 10 9 11 10 8 11 7 12
REMARK SMILES IDX 9 14 6 15 1 16 2 17 3 18 87 19 4 20 5 21 20 22 21 23 22 24
REMARK SMILES IDX 23 25 24 26 25 27 86 28 26 29 85 30 27 31 28 32 29 33 79 34
REMARK SMILES IDX 30 35 84 36 78 37 80 38 31 39 83 40 77 41 76 42 32 44 64 45
REMARK SMILES IDX 44 46 63 47 45 48 48 49 62 50 81 51 46 52 47 53 61 55 82 56
REMARK SMILES IDX 49 57 33 58 34 59 42 60 35 61 41 62 43 63 40 64 36 65 37 66
REMARK SMILES IDX 38 67 39 68 65 69 66 70 74 71 67 72 73 73 75 74 72 75 68 76
REMARK SMILES IDX 69 77 70 78 71 79 50 80 51 81 59 82 52 83 58 84 60 85 57 86
REMARK SMILES IDX 53 87 54 88 55 89 56 90
REMARK H PARENT 7 13 80 43 48 54
REMARK Flexibility Score: inf
ROOT
ATOM      1  C   UNL A   1      37.422  22.684  25.575  1.00  0.00     0.202 C 
ENDROOT
BRANCH   1   2
ATOM      2  O   UNL A   1      36.223  21.968  25.426  1.00  0.00    -0.374 OA
BRANCH   2   3
ATOM      3  C   UNL A   1      35.091  22.589  26.031  1.00  0.00     0.202 C 
BRANCH   3   4
ATOM      4  C   UNL A   1      35.020  23.923  25.379  1.00  0.00     0.261 C 
BRANCH   4   5
ATOM      5  O   UNL A   1      33.906  24.097  24.497  1.00  0.00    -0.463 OA
BRANCH   5   6
ATOM      6  C   UNL A   1      33.927  23.460  23.299  1.00  0.00     0.309 C 
ATOM      7  O   UNL A   1      34.894  23.189  22.627  1.00  0.00    -0.252 OA
BRANCH   6   8
ATOM      8  C   UNL A   1      32.563  23.087  22.840  1.00  0.00     0.112 C 
ATOM      9  C   UNL A   1      31.653  22.157  23.615  1.00  0.00     0.094 C 
ATOM     10  C   UNL A   1      31.319  23.637  23.464  1.00  0.00     0.030 C 
BRANCH   9  11
ATOM     11  C   UNL A   1      31.856  21.666  25.001  1.00  0.00     0.228 C 
ATOM     12  N   UNL A   1      32.337  20.410  25.281  1.00  0.00    -0.326 N 
ATOM     13  H   UNL A   1      32.453  20.254  26.246  1.00  0.00     0.169 HD
ATOM     14  O   UNL A   1      31.430  22.363  25.920  1.00  0.00    -0.274 OA
BRANCH  12  15
ATOM     15  C   UNL A   1      32.701  19.296  24.503  1.00  0.00     0.041 A 
ATOM     16  C   UNL A   1      34.953  16.240  25.024  1.00  0.00     0.044 C 
ATOM     17  C   UNL A   1      34.024  17.233  24.392  1.00  0.00    -0.049 A 
ATOM     18  C   UNL A   1      33.591  17.027  23.080  1.00  0.00     0.003 A 
ATOM     19  C   UNL A   1      33.603  18.385  25.081  1.00  0.00     0.029 A 
ATOM     20  C   UNL A   1      32.708  17.928  22.494  1.00  0.00     0.002 A 
ATOM     21  C   UNL A   1      32.243  19.032  23.215  1.00  0.00     0.026 A 
ENDBRANCH  12  15
ENDBRANCH   9  11
ENDBRANCH   6   8
ENDBRANCH   5   6
ENDBRANCH   4   5
ENDBRANCH   3   4
ENDBRANCH   2   3
ENDBRANCH   1   2
BRANCH   1  22
ATOM     22  C   UNL A   1      38.653  21.796  25.764  1.00  0.00     0.261 C 
BRANCH  22  23
ATOM     23  O   UNL A   1      39.466  22.285  26.849  1.00  0.00    -0.460 OA
BRANCH  23  24
ATOM     24  C   UNL A   1      40.492  23.103  26.475  1.00  0.00     0.338 C 
ATOM     25  O   UNL A   1      41.548  22.721  26.002  1.00  0.00    -0.246 OA
BRANCH  24  26
ATOM     26  C   UNL A   1      40.186  24.511  26.851  1.00  0.00     0.060 A 
ATOM     27  C   UNL A   1      40.852  25.575  26.215  1.00  0.00     0.016 A 
ATOM     28  C   UNL A   1      39.459  24.742  28.015  1.00  0.00     0.016 A 
ATOM     29  C   UNL A   1      40.930  26.825  26.841  1.00  0.00     0.010 A 
ATOM     30  C   UNL A   1      39.649  25.928  28.684  1.00  0.00     0.010 A 
ATOM     31  C   UNL A   1      40.407  26.967  28.122  1.00  0.00    -0.014 A 
BRANCH  31  32
ATOM     32  C   UNL A   1      40.564  28.124  29.005  1.00  0.00     0.031 A 
ATOM     33  C   UNL A   1      39.576  29.209  28.843  1.00  0.00     0.074 A 
ATOM     34  C   UNL A   1      41.391  28.098  30.081  1.00  0.00     0.049 A 
ATOM     35  N   UNL A   1      39.650  30.333  29.453  1.00  0.00    -0.248 NA
ATOM     36  C   UNL A   1      38.419  29.142  27.947  1.00  0.00     0.031 C 
ATOM     37  C   UNL A   1      41.398  28.936  31.282  1.00  0.00     0.029 A 
ATOM     38  N   UNL A   1      42.503  27.284  30.301  1.00  0.00    -0.354 N 
ATOM     39  C   UNL A   1      38.442  30.969  29.324  1.00  0.00     0.074 A 
ATOM     40  C   UNL A   1      37.764  30.260  28.274  1.00  0.00     0.031 C 
ATOM     41  C   UNL A   1      42.603  28.842  31.885  1.00  0.00     0.029 A 
ATOM     42  C   UNL A   1      43.444  28.012  31.033  1.00  0.00     0.049 A 
ATOM     43  H   UNL A   1      42.608  26.355  29.993  1.00  0.00     0.167 HD
ATOM     44  C   UNL A   1      38.149  31.935  30.237  1.00  0.00     0.034 A 
ATOM     45  C   UNL A   1      44.646  28.291  30.467  1.00  0.00     0.034 A 
ATOM     46  C   UNL A   1      39.364  32.269  31.008  1.00  0.00     0.049 A 
ATOM     47  C   UNL A   1      44.671  29.791  30.272  1.00  0.00     0.074 A 
ATOM     48  C   UNL A   1      39.777  32.038  32.309  1.00  0.00     0.029 A 
ATOM     49  N   UNL A   1      40.518  32.626  30.301  1.00  0.00    -0.354 N 
ATOM     50  N   UNL A   1      43.587  30.526  30.195  1.00  0.00    -0.248 NA
ATOM     51  C   UNL A   1      45.884  30.591  30.340  1.00  0.00     0.031 C 
ATOM     52  C   UNL A   1      41.207  32.150  32.337  1.00  0.00     0.029 A 
ATOM     53  C   UNL A   1      41.660  32.482  31.066  1.00  0.00     0.049 A 
ATOM     54  H   UNL A   1      40.515  32.945  29.369  1.00  0.00     0.167 HD
ATOM     55  C   UNL A   1      43.907  31.841  30.368  1.00  0.00     0.074 A 
ATOM     56  C   UNL A   1      45.367  31.831  30.409  1.00  0.00     0.031 C 
ATOM     57  C   UNL A   1      42.972  32.835  30.513  1.00  0.00     0.034 A 
BRANCH  44  58
ATOM     58  C   UNL A   1      36.758  32.452  30.565  1.00  0.00     0.023 A 
ATOM     59  C   UNL A   1      36.046  33.154  29.570  1.00  0.00     0.031 A 
ATOM     60  C   UNL A   1      36.101  32.383  31.818  1.00  0.00     0.131 A 
ATOM     61  C   UNL A   1      34.786  33.736  29.829  1.00  0.00     0.055 A 
ATOM     62  C   UNL A   1      34.834  32.929  32.064  1.00  0.00     0.041 A 
ATOM     63  F   UNL A   1      36.647  31.821  32.898  1.00  0.00    -0.206 F 
ATOM     64  C   UNL A   1      34.168  33.614  31.068  1.00  0.00     0.022 A 
BRANCH  61  65
ATOM     65  S   UNL A   1      33.964  34.691  28.525  1.00  0.00     0.124 S 
ATOM     66  O   UNL A   1      34.688  35.957  28.572  1.00  0.00    -0.237 OA
ATOM     67  O   UNL A   1      34.183  33.861  27.347  1.00  0.00    -0.237 OA
ATOM     68  O   UNL A   1      32.575  34.761  28.980  1.00  0.00    -0.744 OA
ENDBRANCH  61  65
ENDBRANCH  44  58
BRANCH  45  69
ATOM     69  C   UNL A   1      45.108  27.165  29.566  1.00  0.00     0.023 A 
ATOM     70  C   UNL A   1      44.645  27.141  28.211  1.00  0.00     0.031 A 
ATOM     71  C   UNL A   1      46.271  26.433  29.844  1.00  0.00     0.131 A 
ATOM     72  C   UNL A   1      45.405  26.527  27.186  1.00  0.00     0.055 A 
ATOM     73  C   UNL A   1      47.014  25.812  28.822  1.00  0.00     0.041 A 
ATOM     74  F   UNL A   1      46.790  26.419  31.080  1.00  0.00    -0.206 F 
ATOM     75  C   UNL A   1      46.612  25.897  27.489  1.00  0.00     0.022 A 
BRANCH  72  76
ATOM     76  S   UNL A   1      44.999  26.810  25.415  1.00  0.00     0.124 S 
ATOM     77  O   UNL A   1      46.311  27.055  24.829  1.00  0.00    -0.237 OA
ATOM     78  O   UNL A   1      44.341  25.574  25.015  1.00  0.00    -0.237 OA
ATOM     79  O   UNL A   1      44.101  27.966  25.453  1.00  0.00    -0.744 OA
ENDBRANCH  72  76
ENDBRANCH  45  69
BRANCH  57  80
ATOM     80  C   UNL A   1      43.252  34.285  30.186  1.00  0.00     0.023 A 
ATOM     81  C   UNL A   1      43.019  34.816  28.915  1.00  0.00     0.031 A 
ATOM     82  C   UNL A   1      43.642  35.223  31.172  1.00  0.00     0.131 A 
ATOM     83  C   UNL A   1      43.281  36.159  28.621  1.00  0.00     0.055 A 
ATOM     84  C   UNL A   1      43.784  36.587  30.909  1.00  0.00     0.041 A 
ATOM     85  F   UNL A   1      43.880  34.871  32.443  1.00  0.00    -0.206 F 
ATOM     86  C   UNL A   1      43.629  37.062  29.616  1.00  0.00     0.022 A 
BRANCH  83  87
ATOM     87  S   UNL A   1      43.238  36.642  26.882  1.00  0.00     0.124 S 
ATOM     88  O   UNL A   1      42.758  35.417  26.246  1.00  0.00    -0.237 OA
ATOM     89  O   UNL A   1      42.298  37.758  26.887  1.00  0.00    -0.237 OA
ATOM     90  O   UNL A   1      44.625  36.994  26.590  1.00  0.00    -0.744 OA
ENDBRANCH  83  87
ENDBRANCH  57  80
ENDBRANCH  31  32
ENDBRANCH  24  26
ENDBRANCH  23  24
ENDBRANCH  22  23
ENDBRANCH   1  22
TORSDOF 19
ENDMDL
