MODEL 1
REMARK VINA RESULT:     -11.9      0.000      0.000
REMARK SMILES CC1(C)[C@@](C)(C(=O)Nc2ccc(Cl)cc2Cl)CC[C@]1(C)C(=O)OCCOCCOC(=O)c1ccc(-c2c3nc(c(-c4cc(S(=O)(=O)[O-])ccc4F)c4ccc([nH]4)c(-c4cc(S(=O)(=O)[O-])ccc4F)c4nc(c(-c5cc(S(=O)(=O)[O-])ccc5F)c5ccc2[nH]5)C=C4)C=C3)cc1
REMARK SMILES IDX 27 1 26 2 25 3 24 4 23 5 21 6 22 7 19 8 1 9 2 10 3 11 4 12
REMARK SMILES IDX 5 13 17 14 18 15 20 16 6 17 7 18 8 19 9 21 10 22 15 23 11 24
REMARK SMILES IDX 14 25 16 26 12 27 13 28 28 29 29 30 30 31 31 32 32 33 33 34
REMARK SMILES IDX 94 35 34 36 93 37 35 38 36 39 37 40 87 41 38 42 92 43 86 44
REMARK SMILES IDX 88 45 39 46 91 47 85 48 84 49 40 51 72 52 52 53 71 54 53 55
REMARK SMILES IDX 56 56 70 57 89 58 54 59 55 60 69 62 90 63 57 64 41 65 42 66
REMARK SMILES IDX 50 67 43 68 49 69 51 70 48 71 44 72 45 73 46 74 47 75 73 76
REMARK SMILES IDX 74 77 82 78 75 79 81 80 83 81 80 82 76 83 77 84 78 85 79 86
REMARK SMILES IDX 58 87 59 88 67 89 60 90 66 91 68 92 65 93 61 94 62 95 63 96
REMARK SMILES IDX 64 97
REMARK H PARENT 8 20 88 50 56 61
REMARK Flexibility Score: inf
ROOT
ATOM      1  C   UNL A   1      37.276  19.720  24.974  1.00  0.00     0.202 C 
ENDROOT
BRANCH   1   2
ATOM      2  O   UNL A   1      36.890  21.068  24.725  1.00  0.00    -0.374 OA
BRANCH   2   3
ATOM      3  C   UNL A   1      36.145  21.725  25.750  1.00  0.00     0.202 C 
BRANCH   3   4
ATOM      4  C   UNL A   1      34.674  21.325  25.913  1.00  0.00     0.261 C 
BRANCH   4   5
ATOM      5  O   UNL A   1      33.975  21.230  24.652  1.00  0.00    -0.463 OA
BRANCH   5   6
ATOM      6  C   UNL A   1      32.670  21.600  24.654  1.00  0.00     0.312 C 
ATOM      7  O   UNL A   1      31.767  20.907  25.114  1.00  0.00    -0.252 OA
BRANCH   6   8
ATOM      8  C   UNL A   1      32.403  22.955  23.957  1.00  0.00     0.071 C 
ATOM      9  C   UNL A   1      33.867  24.766  24.958  1.00  0.00     0.013 C 
ATOM     10  C   UNL A   1      32.391  24.293  24.837  1.00  0.00    -0.005 C 
ATOM     11  C   UNL A   1      31.884  24.099  26.277  1.00  0.00     0.013 C 
ATOM     12  C   UNL A   1      31.325  25.264  24.115  1.00  0.00     0.053 C 
ATOM     13  C   UNL A   1      30.311  26.104  24.959  1.00  0.00     0.022 C 
ATOM     14  C   UNL A   1      30.347  24.235  23.446  1.00  0.00     0.018 C 
ATOM     15  C   UNL A   1      30.993  22.872  23.356  1.00  0.00     0.020 C 
ATOM     16  C   UNL A   1      33.420  22.980  22.788  1.00  0.00     0.024 C 
BRANCH  12  17
ATOM     17  C   UNL A   1      31.911  26.208  23.034  1.00  0.00     0.230 C 
ATOM     18  O   UNL A   1      31.941  25.846  21.850  1.00  0.00    -0.274 OA
ATOM     19  N   UNL A   1      32.344  27.485  23.260  1.00  0.00    -0.324 N 
ATOM     20  H   UNL A   1      32.474  27.973  22.415  1.00  0.00     0.170 HD
BRANCH  19  21
ATOM     21  C   UNL A   1      32.659  28.298  24.375  1.00  0.00     0.060 A 
ATOM     22  C   UNL A   1      33.807  28.153  25.143  1.00  0.00     0.029 A 
ATOM     23  C   UNL A   1      31.797  29.355  24.724  1.00  0.00     0.066 A 
ATOM     24  C   UNL A   1      34.131  29.015  26.193  1.00  0.00     0.023 A 
ATOM     25  C   UNL A   1      32.088  30.210  25.798  1.00  0.00     0.043 A 
ATOM     26  Cl  UNL A   1      30.311  29.607  23.874  1.00  0.00    -0.082 Cl
ATOM     27  C   UNL A   1      33.264  30.040  26.520  1.00  0.00     0.042 A 
ATOM     28  Cl  UNL A   1      33.643  31.080  27.831  1.00  0.00    -0.084 Cl
ENDBRANCH  19  21
ENDBRANCH  12  17
ENDBRANCH   6   8
ENDBRANCH   5   6
ENDBRANCH   4   5
ENDBRANCH   3   4
ENDBRANCH   2   3
ENDBRANCH   1   2
BRANCH   1  29
ATOM     29  C   UNL A   1      38.752  19.482  25.351  1.00  0.00     0.261 C 
BRANCH  29  30
ATOM     30  O   UNL A   1      39.488  20.707  25.555  1.00  0.00    -0.460 OA
BRANCH  30  31
ATOM     31  C   UNL A   1      40.458  20.640  26.497  1.00  0.00     0.338 C 
ATOM     32  O   UNL A   1      41.208  19.692  26.700  1.00  0.00    -0.246 OA
BRANCH  31  33
ATOM     33  C   UNL A   1      40.665  21.954  27.143  1.00  0.00     0.060 A 
ATOM     34  C   UNL A   1      40.076  23.059  26.517  1.00  0.00     0.016 A 
ATOM     35  C   UNL A   1      41.481  22.138  28.263  1.00  0.00     0.016 A 
ATOM     36  C   UNL A   1      40.357  24.351  26.954  1.00  0.00     0.010 A 
ATOM     37  C   UNL A   1      41.764  23.443  28.702  1.00  0.00     0.010 A 
ATOM     38  C   UNL A   1      41.243  24.561  28.019  1.00  0.00    -0.014 A 
BRANCH  38  39
ATOM     39  C   UNL A   1      41.733  25.946  28.276  1.00  0.00     0.031 A 
ATOM     40  C   UNL A   1      43.071  26.367  27.721  1.00  0.00     0.074 A 
ATOM     41  C   UNL A   1      40.959  26.855  28.901  1.00  0.00     0.049 A 
ATOM     42  N   UNL A   1      43.668  27.531  27.779  1.00  0.00    -0.248 NA
ATOM     43  C   UNL A   1      43.833  25.338  26.998  1.00  0.00     0.031 C 
ATOM     44  C   UNL A   1      39.621  26.598  29.431  1.00  0.00     0.029 A 
ATOM     45  N   UNL A   1      41.180  28.183  29.180  1.00  0.00    -0.354 N 
ATOM     46  C   UNL A   1      44.874  27.377  27.102  1.00  0.00     0.074 A 
ATOM     47  C   UNL A   1      44.942  25.992  26.684  1.00  0.00     0.031 C 
ATOM     48  C   UNL A   1      39.138  27.734  29.963  1.00  0.00     0.029 A 
ATOM     49  C   UNL A   1      40.144  28.790  29.851  1.00  0.00     0.049 A 
ATOM     50  H   UNL A   1      42.006  28.655  28.923  1.00  0.00     0.167 HD
ATOM     51  C   UNL A   1      45.832  28.302  26.839  1.00  0.00     0.034 A 
ATOM     52  C   UNL A   1      40.025  30.043  30.339  1.00  0.00     0.034 A 
ATOM     53  C   UNL A   1      45.760  29.680  27.261  1.00  0.00     0.049 A 
ATOM     54  C   UNL A   1      41.151  31.030  30.125  1.00  0.00     0.074 A 
ATOM     55  C   UNL A   1      46.670  30.699  27.033  1.00  0.00     0.029 A 
ATOM     56  N   UNL A   1      44.731  30.235  28.012  1.00  0.00    -0.354 N 
ATOM     57  N   UNL A   1      42.282  30.868  29.479  1.00  0.00    -0.248 NA
ATOM     58  C   UNL A   1      40.975  32.371  30.699  1.00  0.00     0.031 C 
ATOM     59  C   UNL A   1      46.237  31.840  27.715  1.00  0.00     0.029 A 
ATOM     60  C   UNL A   1      45.007  31.567  28.290  1.00  0.00     0.049 A 
ATOM     61  H   UNL A   1      43.922  29.755  28.303  1.00  0.00     0.167 HD
ATOM     62  C   UNL A   1      42.936  32.098  29.542  1.00  0.00     0.074 A 
ATOM     63  C   UNL A   1      42.065  32.993  30.274  1.00  0.00     0.031 C 
ATOM     64  C   UNL A   1      44.143  32.456  29.032  1.00  0.00     0.034 A 
BRANCH  51  65
ATOM     65  C   UNL A   1      47.067  27.837  26.103  1.00  0.00     0.023 A 
ATOM     66  C   UNL A   1      47.238  28.050  24.724  1.00  0.00     0.031 A 
ATOM     67  C   UNL A   1      48.085  27.154  26.793  1.00  0.00     0.131 A 
ATOM     68  C   UNL A   1      48.362  27.524  24.068  1.00  0.00     0.055 A 
ATOM     69  C   UNL A   1      49.242  26.708  26.150  1.00  0.00     0.041 A 
ATOM     70  F   UNL A   1      47.969  26.900  28.106  1.00  0.00    -0.206 F 
ATOM     71  C   UNL A   1      49.379  26.880  24.777  1.00  0.00     0.022 A 
BRANCH  68  72
ATOM     72  S   UNL A   1      48.406  27.563  22.255  1.00  0.00     0.124 S 
ATOM     73  O   UNL A   1      47.100  28.137  21.941  1.00  0.00    -0.237 OA
ATOM     74  O   UNL A   1      49.560  28.413  21.986  1.00  0.00    -0.237 OA
ATOM     75  O   UNL A   1      48.566  26.158  21.887  1.00  0.00    -0.744 OA
ENDBRANCH  68  72
ENDBRANCH  51  65
BRANCH  52  76
ATOM     76  C   UNL A   1      38.817  30.438  31.123  1.00  0.00     0.023 A 
ATOM     77  C   UNL A   1      37.848  31.304  30.592  1.00  0.00     0.031 A 
ATOM     78  C   UNL A   1      38.653  30.005  32.452  1.00  0.00     0.131 A 
ATOM     79  C   UNL A   1      36.789  31.748  31.400  1.00  0.00     0.055 A 
ATOM     80  C   UNL A   1      37.565  30.400  33.231  1.00  0.00     0.041 A 
ATOM     81  F   UNL A   1      39.554  29.183  33.015  1.00  0.00    -0.206 F 
ATOM     82  C   UNL A   1      36.631  31.290  32.710  1.00  0.00     0.022 A 
BRANCH  79  83
ATOM     83  S   UNL A   1      35.668  33.017  30.747  1.00  0.00     0.124 S 
ATOM     84  O   UNL A   1      36.013  34.169  31.573  1.00  0.00    -0.237 OA
ATOM     85  O   UNL A   1      36.073  33.086  29.347  1.00  0.00    -0.237 OA
ATOM     86  O   UNL A   1      34.340  32.454  30.983  1.00  0.00    -0.744 OA
ENDBRANCH  79  83
ENDBRANCH  52  76
BRANCH  64  87
ATOM     87  C   UNL A   1      44.574  33.895  29.208  1.00  0.00     0.023 A 
ATOM     88  C   UNL A   1      44.125  34.917  28.353  1.00  0.00     0.031 A 
ATOM     89  C   UNL A   1      45.457  34.247  30.245  1.00  0.00     0.131 A 
ATOM     90  C   UNL A   1      44.603  36.228  28.514  1.00  0.00     0.055 A 
ATOM     91  C   UNL A   1      45.876  35.563  30.443  1.00  0.00     0.041 A 
ATOM     92  F   UNL A   1      45.923  33.314  31.091  1.00  0.00    -0.206 F 
ATOM     93  C   UNL A   1      45.460  36.560  29.567  1.00  0.00     0.022 A 
BRANCH  90  94
ATOM     94  S   UNL A   1      44.170  37.476  27.270  1.00  0.00     0.124 S 
ATOM     95  O   UNL A   1      45.416  37.602  26.522  1.00  0.00    -0.237 OA
ATOM     96  O   UNL A   1      43.063  36.840  26.564  1.00  0.00    -0.237 OA
ATOM     97  O   UNL A   1      43.805  38.645  28.069  1.00  0.00    -0.744 OA
ENDBRANCH  90  94
ENDBRANCH  64  87
ENDBRANCH  38  39
ENDBRANCH  31  33
ENDBRANCH  30  31
ENDBRANCH  29  30
ENDBRANCH   1  29
TORSDOF 19
ENDMDL
MODEL 2
REMARK VINA RESULT:     -11.5      5.217      8.834
REMARK SMILES CC1(C)[C@@](C)(C(=O)Nc2ccc(Cl)cc2Cl)CC[C@]1(C)C(=O)OCCOCCOC(=O)c1ccc(-c2c3nc(c(-c4cc(S(=O)(=O)[O-])ccc4F)c4ccc([nH]4)c(-c4cc(S(=O)(=O)[O-])ccc4F)c4nc(c(-c5cc(S(=O)(=O)[O-])ccc5F)c5ccc2[nH]5)C=C4)C=C3)cc1
REMARK SMILES IDX 27 1 26 2 25 3 24 4 23 5 21 6 22 7 19 8 1 9 2 10 3 11 4 12
REMARK SMILES IDX 5 13 17 14 18 15 20 16 6 17 7 18 8 19 9 21 10 22 15 23 11 24
REMARK SMILES IDX 14 25 16 26 12 27 13 28 28 29 29 30 30 31 31 32 32 33 33 34
REMARK SMILES IDX 94 35 34 36 93 37 35 38 36 39 37 40 87 41 38 42 92 43 86 44
REMARK SMILES IDX 88 45 39 46 91 47 85 48 84 49 40 51 72 52 52 53 71 54 53 55
REMARK SMILES IDX 56 56 70 57 89 58 54 59 55 60 69 62 90 63 57 64 41 65 42 66
REMARK SMILES IDX 50 67 43 68 49 69 51 70 48 71 44 72 45 73 46 74 47 75 73 76
REMARK SMILES IDX 74 77 82 78 75 79 81 80 83 81 80 82 76 83 77 84 78 85 79 86
REMARK SMILES IDX 58 87 59 88 67 89 60 90 66 91 68 92 65 93 61 94 62 95 63 96
REMARK SMILES IDX 64 97
REMARK H PARENT 8 20 88 50 56 61
REMARK Flexibility Score: inf
ROOT
ATOM      1  C   UNL A   1      31.666  31.862  26.758  1.00  0.00     0.202 C 
ENDROOT
BRANCH   1   2
ATOM      2  O   UNL A   1      32.691  30.899  26.980  1.00  0.00    -0.374 OA
BRANCH   2   3
ATOM      3  C   UNL A   1      33.054  30.075  25.873  1.00  0.00     0.202 C 
BRANCH   3   4
ATOM      4  C   UNL A   1      32.881  28.561  26.040  1.00  0.00     0.261 C 
BRANCH   4   5
ATOM      5  O   UNL A   1      31.512  28.131  25.877  1.00  0.00    -0.463 OA
BRANCH   5   6
ATOM      6  C   UNL A   1      31.223  27.447  24.743  1.00  0.00     0.312 C 
ATOM      7  O   UNL A   1      31.024  27.982  23.656  1.00  0.00    -0.252 OA
BRANCH   6   8
ATOM      8  C   UNL A   1      31.096  25.918  24.949  1.00  0.00     0.071 C 
ATOM      9  C   UNL A   1      33.171  25.005  26.083  1.00  0.00     0.013 C 
ATOM     10  C   UNL A   1      32.388  24.995  24.740  1.00  0.00    -0.005 C 
ATOM     11  C   UNL A   1      33.366  25.510  23.669  1.00  0.00     0.013 C 
ATOM     12  C   UNL A   1      31.819  23.591  24.188  1.00  0.00     0.053 C 
ATOM     13  C   UNL A   1      32.547  22.837  23.027  1.00  0.00     0.022 C 
ATOM     14  C   UNL A   1      30.506  24.037  23.452  1.00  0.00     0.018 C 
ATOM     15  C   UNL A   1      30.086  25.415  23.909  1.00  0.00     0.020 C 
ATOM     16  C   UNL A   1      30.447  25.783  26.350  1.00  0.00     0.024 C 
BRANCH  12  17
ATOM     17  C   UNL A   1      31.479  22.538  25.273  1.00  0.00     0.230 C 
ATOM     18  O   UNL A   1      30.377  22.568  25.838  1.00  0.00    -0.274 OA
ATOM     19  N   UNL A   1      32.281  21.489  25.626  1.00  0.00    -0.324 N 
ATOM     20  H   UNL A   1      31.790  20.831  26.171  1.00  0.00     0.170 HD
BRANCH  19  21
ATOM     21  C   UNL A   1      33.624  21.088  25.425  1.00  0.00     0.060 A 
ATOM     22  C   UNL A   1      34.726  21.839  25.815  1.00  0.00     0.029 A 
ATOM     23  C   UNL A   1      33.891  19.837  24.838  1.00  0.00     0.066 A 
ATOM     24  C   UNL A   1      36.039  21.389  25.673  1.00  0.00     0.023 A 
ATOM     25  C   UNL A   1      35.205  19.382  24.654  1.00  0.00     0.043 A 
ATOM     26  Cl  UNL A   1      32.603  18.832  24.265  1.00  0.00    -0.082 Cl
ATOM     27  C   UNL A   1      36.274  20.160  25.086  1.00  0.00     0.042 A 
ATOM     28  Cl  UNL A   1      37.889  19.618  24.878  1.00  0.00    -0.084 Cl
ENDBRANCH  19  21
ENDBRANCH  12  17
ENDBRANCH   6   8
ENDBRANCH   5   6
ENDBRANCH   4   5
ENDBRANCH   3   4
ENDBRANCH   2   3
ENDBRANCH   1   2
BRANCH   1  29
ATOM     29  C   UNL A   1      32.084  33.345  26.826  1.00  0.00     0.261 C 
BRANCH  29  30
ATOM     30  O   UNL A   1      32.184  33.842  28.177  1.00  0.00    -0.460 OA
BRANCH  30  31
ATOM     31  C   UNL A   1      33.273  34.608  28.425  1.00  0.00     0.338 C 
ATOM     32  O   UNL A   1      33.289  35.827  28.547  1.00  0.00    -0.246 OA
BRANCH  31  33
ATOM     33  C   UNL A   1      34.450  33.773  28.749  1.00  0.00     0.060 A 
ATOM     34  C   UNL A   1      34.208  32.614  29.496  1.00  0.00     0.016 A 
ATOM     35  C   UNL A   1      35.760  34.139  28.431  1.00  0.00     0.016 A 
ATOM     36  C   UNL A   1      35.268  31.860  29.993  1.00  0.00     0.010 A 
ATOM     37  C   UNL A   1      36.830  33.377  28.934  1.00  0.00     0.010 A 
ATOM     38  C   UNL A   1      36.591  32.260  29.760  1.00  0.00    -0.014 A 
BRANCH  38  39
ATOM     39  C   UNL A   1      37.682  31.597  30.531  1.00  0.00     0.031 A 
ATOM     40  C   UNL A   1      38.525  30.543  29.855  1.00  0.00     0.074 A 
ATOM     41  C   UNL A   1      37.996  31.996  31.779  1.00  0.00     0.049 A 
ATOM     42  N   UNL A   1      39.552  29.876  30.316  1.00  0.00    -0.248 NA
ATOM     43  C   UNL A   1      38.160  30.202  28.472  1.00  0.00     0.031 C 
ATOM     44  C   UNL A   1      37.306  33.046  32.525  1.00  0.00     0.029 A 
ATOM     45  N   UNL A   1      38.989  31.577  32.632  1.00  0.00    -0.354 N 
ATOM     46  C   UNL A   1      39.959  29.037  29.282  1.00  0.00     0.074 A 
ATOM     47  C   UNL A   1      39.035  29.248  28.187  1.00  0.00     0.031 C 
ATOM     48  C   UNL A   1      37.900  33.194  33.721  1.00  0.00     0.029 A 
ATOM     49  C   UNL A   1      38.988  32.224  33.847  1.00  0.00     0.049 A 
ATOM     50  H   UNL A   1      39.640  30.876  32.396  1.00  0.00     0.167 HD
ATOM     51  C   UNL A   1      41.011  28.181  29.240  1.00  0.00     0.034 A 
ATOM     52  C   UNL A   1      39.758  32.044  34.941  1.00  0.00     0.034 A 
ATOM     53  C   UNL A   1      41.927  27.972  30.336  1.00  0.00     0.049 A 
ATOM     54  C   UNL A   1      40.859  31.009  34.909  1.00  0.00     0.074 A 
ATOM     55  C   UNL A   1      43.031  27.138  30.388  1.00  0.00     0.029 A 
ATOM     56  N   UNL A   1      41.841  28.587  31.579  1.00  0.00    -0.354 N 
ATOM     57  N   UNL A   1      41.232  30.228  33.921  1.00  0.00    -0.248 NA
ATOM     58  C   UNL A   1      41.648  30.840  36.136  1.00  0.00     0.031 C 
ATOM     59  C   UNL A   1      43.558  27.182  31.682  1.00  0.00     0.029 A 
ATOM     60  C   UNL A   1      42.845  28.117  32.414  1.00  0.00     0.049 A 
ATOM     61  H   UNL A   1      41.167  29.259  31.831  1.00  0.00     0.167 HD
ATOM     62  C   UNL A   1      42.321  29.501  34.401  1.00  0.00     0.074 A 
ATOM     63  C   UNL A   1      42.553  29.948  35.759  1.00  0.00     0.031 C 
ATOM     64  C   UNL A   1      43.067  28.556  33.773  1.00  0.00     0.034 A 
BRANCH  51  65
ATOM     65  C   UNL A   1      41.194  27.363  27.982  1.00  0.00     0.023 A 
ATOM     66  C   UNL A   1      40.843  26.003  27.919  1.00  0.00     0.031 A 
ATOM     67  C   UNL A   1      41.745  27.954  26.830  1.00  0.00     0.131 A 
ATOM     68  C   UNL A   1      41.112  25.264  26.756  1.00  0.00     0.055 A 
ATOM     69  C   UNL A   1      41.930  27.233  25.648  1.00  0.00     0.041 A 
ATOM     70  F   UNL A   1      42.121  29.242  26.836  1.00  0.00    -0.206 F 
ATOM     71  C   UNL A   1      41.627  25.877  25.611  1.00  0.00     0.022 A 
BRANCH  68  72
ATOM     72  S   UNL A   1      40.918  23.461  26.810  1.00  0.00     0.124 S 
ATOM     73  O   UNL A   1      39.515  23.304  26.437  1.00  0.00    -0.237 OA
ATOM     74  O   UNL A   1      41.896  23.010  25.827  1.00  0.00    -0.237 OA
ATOM     75  O   UNL A   1      41.227  23.126  28.198  1.00  0.00    -0.744 OA
ENDBRANCH  68  72
ENDBRANCH  51  65
BRANCH  52  76
ATOM     76  C   UNL A   1      39.494  32.823  36.187  1.00  0.00     0.023 A 
ATOM     77  C   UNL A   1      38.649  32.333  37.196  1.00  0.00     0.031 A 
ATOM     78  C   UNL A   1      40.036  34.112  36.354  1.00  0.00     0.131 A 
ATOM     79  C   UNL A   1      38.329  33.143  38.297  1.00  0.00     0.055 A 
ATOM     80  C   UNL A   1      39.764  34.889  37.481  1.00  0.00     0.041 A 
ATOM     81  F   UNL A   1      40.844  34.635  35.417  1.00  0.00    -0.206 F 
ATOM     82  C   UNL A   1      38.894  34.411  38.455  1.00  0.00     0.022 A 
BRANCH  79  83
ATOM     83  S   UNL A   1      37.082  32.557  39.477  1.00  0.00     0.124 S 
ATOM     84  O   UNL A   1      35.853  32.701  38.704  1.00  0.00    -0.237 OA
ATOM     85  O   UNL A   1      37.525  31.191  39.732  1.00  0.00    -0.237 OA
ATOM     86  O   UNL A   1      37.222  33.476  40.605  1.00  0.00    -0.744 OA
ENDBRANCH  79  83
ENDBRANCH  52  76
BRANCH  64  87
ATOM     87  C   UNL A   1      44.238  27.973  34.533  1.00  0.00     0.023 A 
ATOM     88  C   UNL A   1      44.078  26.940  35.473  1.00  0.00     0.031 A 
ATOM     89  C   UNL A   1      45.538  28.467  34.316  1.00  0.00     0.131 A 
ATOM     90  C   UNL A   1      45.185  26.475  36.201  1.00  0.00     0.055 A 
ATOM     91  C   UNL A   1      46.645  27.954  34.992  1.00  0.00     0.041 A 
ATOM     92  F   UNL A   1      45.754  29.456  33.433  1.00  0.00    -0.206 F 
ATOM     93  C   UNL A   1      46.470  26.962  35.951  1.00  0.00     0.022 A 
BRANCH  90  94
ATOM     94  S   UNL A   1      44.910  25.294  37.551  1.00  0.00     0.124 S 
ATOM     95  O   UNL A   1      43.588  25.684  38.029  1.00  0.00    -0.237 OA
ATOM     96  O   UNL A   1      44.986  24.010  36.862  1.00  0.00    -0.237 OA
ATOM     97  O   UNL A   1      46.009  25.567  38.475  1.00  0.00    -0.744 OA
ENDBRANCH  90  94
ENDBRANCH  64  87
ENDBRANCH  38  39
ENDBRANCH  31  33
ENDBRANCH  30  31
ENDBRANCH  29  30
ENDBRANCH   1  29
TORSDOF 19
ENDMDL
MODEL 3
REMARK VINA RESULT:     -11.4      1.401      7.449
REMARK SMILES CC1(C)[C@@](C)(C(=O)Nc2ccc(Cl)cc2Cl)CC[C@]1(C)C(=O)OCCOCCOC(=O)c1ccc(-c2c3nc(c(-c4cc(S(=O)(=O)[O-])ccc4F)c4ccc([nH]4)c(-c4cc(S(=O)(=O)[O-])ccc4F)c4nc(c(-c5cc(S(=O)(=O)[O-])ccc5F)c5ccc2[nH]5)C=C4)C=C3)cc1
REMARK SMILES IDX 27 1 26 2 25 3 24 4 23 5 21 6 22 7 19 8 1 9 2 10 3 11 4 12
REMARK SMILES IDX 5 13 17 14 18 15 20 16 6 17 7 18 8 19 9 21 10 22 15 23 11 24
REMARK SMILES IDX 14 25 16 26 12 27 13 28 28 29 29 30 30 31 31 32 32 33 33 34
REMARK SMILES IDX 94 35 34 36 93 37 35 38 36 39 37 40 87 41 38 42 92 43 86 44
REMARK SMILES IDX 88 45 39 46 91 47 85 48 84 49 40 51 72 52 52 53 71 54 53 55
REMARK SMILES IDX 56 56 70 57 89 58 54 59 55 60 69 62 90 63 57 64 41 65 42 66
REMARK SMILES IDX 50 67 43 68 49 69 51 70 48 71 44 72 45 73 46 74 47 75 73 76
REMARK SMILES IDX 74 77 82 78 75 79 81 80 83 81 80 82 76 83 77 84 78 85 79 86
REMARK SMILES IDX 58 87 59 88 67 89 60 90 66 91 68 92 65 93 61 94 62 95 63 96
REMARK SMILES IDX 64 97
REMARK H PARENT 8 20 88 50 56 61
REMARK Flexibility Score: inf
ROOT
ATOM      1  C   UNL A   1      37.725  19.836  24.979  1.00  0.00     0.202 C 
ENDROOT
BRANCH   1   2
ATOM      2  O   UNL A   1      37.581  21.237  24.766  1.00  0.00    -0.374 OA
BRANCH   2   3
ATOM      3  C   UNL A   1      36.879  21.973  25.766  1.00  0.00     0.202 C 
BRANCH   3   4
ATOM      4  C   UNL A   1      35.399  21.633  25.977  1.00  0.00     0.261 C 
BRANCH   4   5
ATOM      5  O   UNL A   1      34.697  21.389  24.739  1.00  0.00    -0.463 OA
BRANCH   5   6
ATOM      6  C   UNL A   1      33.358  21.606  24.750  1.00  0.00     0.312 C 
ATOM      7  O   UNL A   1      32.553  20.869  25.311  1.00  0.00    -0.252 OA
BRANCH   6   8
ATOM      8  C   UNL A   1      32.918  22.840  23.925  1.00  0.00     0.071 C 
ATOM      9  C   UNL A   1      34.033  24.937  24.813  1.00  0.00     0.013 C 
ATOM     10  C   UNL A   1      32.656  24.227  24.682  1.00  0.00    -0.005 C 
ATOM     11  C   UNL A   1      32.115  24.074  26.115  1.00  0.00     0.013 C 
ATOM     12  C   UNL A   1      31.489  24.953  23.839  1.00  0.00     0.053 C 
ATOM     13  C   UNL A   1      30.317  25.689  24.570  1.00  0.00     0.022 C 
ATOM     14  C   UNL A   1      30.716  23.731  23.230  1.00  0.00     0.018 C 
ATOM     15  C   UNL A   1      31.570  22.485  23.285  1.00  0.00     0.020 C 
ATOM     16  C   UNL A   1      33.975  22.930  22.795  1.00  0.00     0.024 C 
BRANCH  12  17
ATOM     17  C   UNL A   1      31.973  25.887  22.700  1.00  0.00     0.230 C 
ATOM     18  O   UNL A   1      32.200  25.420  21.575  1.00  0.00    -0.274 OA
ATOM     19  N   UNL A   1      32.105  27.244  22.801  1.00  0.00    -0.324 N 
ATOM     20  H   UNL A   1      32.216  27.659  21.915  1.00  0.00     0.170 HD
BRANCH  19  21
ATOM     21  C   UNL A   1      32.127  28.216  23.829  1.00  0.00     0.060 A 
ATOM     22  C   UNL A   1      33.196  28.407  24.696  1.00  0.00     0.029 A 
ATOM     23  C   UNL A   1      31.032  29.088  23.979  1.00  0.00     0.066 A 
ATOM     24  C   UNL A   1      33.224  29.422  25.654  1.00  0.00     0.023 A 
ATOM     25  C   UNL A   1      31.026  30.092  24.959  1.00  0.00     0.043 A 
ATOM     26  Cl  UNL A   1      29.621  28.919  22.991  1.00  0.00    -0.082 Cl
ATOM     27  C   UNL A   1      32.133  30.260  25.785  1.00  0.00     0.042 A 
ATOM     28  Cl  UNL A   1      32.149  31.487  26.985  1.00  0.00    -0.084 Cl
ENDBRANCH  19  21
ENDBRANCH  12  17
ENDBRANCH   6   8
ENDBRANCH   5   6
ENDBRANCH   4   5
ENDBRANCH   3   4
ENDBRANCH   2   3
ENDBRANCH   1   2
BRANCH   1  29
ATOM     29  C   UNL A   1      39.067  19.360  25.569  1.00  0.00     0.261 C 
BRANCH  29  30
ATOM     30  O   UNL A   1      40.020  20.431  25.740  1.00  0.00    -0.460 OA
BRANCH  30  31
ATOM     31  C   UNL A   1      40.652  20.448  26.938  1.00  0.00     0.338 C 
ATOM     32  O   UNL A   1      41.142  19.483  27.513  1.00  0.00    -0.246 OA
BRANCH  31  33
ATOM     33  C   UNL A   1      40.879  21.834  27.400  1.00  0.00     0.060 A 
ATOM     34  C   UNL A   1      40.297  22.853  26.635  1.00  0.00     0.016 A 
ATOM     35  C   UNL A   1      41.707  22.156  28.479  1.00  0.00     0.016 A 
ATOM     36  C   UNL A   1      40.598  24.188  26.893  1.00  0.00     0.010 A 
ATOM     37  C   UNL A   1      42.009  23.505  28.738  1.00  0.00     0.010 A 
ATOM     38  C   UNL A   1      41.495  24.528  27.914  1.00  0.00    -0.014 A 
BRANCH  38  39
ATOM     39  C   UNL A   1      42.003  25.928  27.980  1.00  0.00     0.031 A 
ATOM     40  C   UNL A   1      41.183  26.975  28.691  1.00  0.00     0.074 A 
ATOM     41  C   UNL A   1      43.226  26.249  27.512  1.00  0.00     0.049 A 
ATOM     42  N   UNL A   1      41.453  28.237  28.912  1.00  0.00    -0.248 NA
ATOM     43  C   UNL A   1      39.886  26.537  29.229  1.00  0.00     0.031 C 
ATOM     44  C   UNL A   1      44.148  25.321  26.861  1.00  0.00     0.029 A 
ATOM     45  N   UNL A   1      43.908  27.442  27.528  1.00  0.00    -0.354 N 
ATOM     46  C   UNL A   1      40.363  28.745  29.614  1.00  0.00     0.074 A 
ATOM     47  C   UNL A   1      39.409  27.663  29.739  1.00  0.00     0.031 C 
ATOM     48  C   UNL A   1      45.278  25.977  26.546  1.00  0.00     0.029 A 
ATOM     49  C   UNL A   1      45.149  27.381  26.936  1.00  0.00     0.049 A 
ATOM     50  H   UNL A   1      43.542  28.265  27.927  1.00  0.00     0.167 HD
ATOM     51  C   UNL A   1      40.177  29.990  30.120  1.00  0.00     0.034 A 
ATOM     52  C   UNL A   1      46.066  28.346  26.712  1.00  0.00     0.034 A 
ATOM     53  C   UNL A   1      41.131  31.066  29.989  1.00  0.00     0.049 A 
ATOM     54  C   UNL A   1      45.793  29.753  27.194  1.00  0.00     0.074 A 
ATOM     55  C   UNL A   1      41.043  32.358  30.479  1.00  0.00     0.029 A 
ATOM     56  N   UNL A   1      42.340  30.985  29.309  1.00  0.00    -0.354 N 
ATOM     57  N   UNL A   1      44.759  30.213  27.860  1.00  0.00    -0.248 NA
ATOM     58  C   UNL A   1      46.816  30.765  26.901  1.00  0.00     0.031 C 
ATOM     59  C   UNL A   1      42.150  33.080  30.023  1.00  0.00     0.029 A 
ATOM     60  C   UNL A   1      42.982  32.215  29.331  1.00  0.00     0.049 A 
ATOM     61  H   UNL A   1      42.691  30.174  28.876  1.00  0.00     0.167 HD
ATOM     62  C   UNL A   1      45.027  31.562  28.093  1.00  0.00     0.074 A 
ATOM     63  C   UNL A   1      46.324  31.834  27.511  1.00  0.00     0.031 C 
ATOM     64  C   UNL A   1      44.272  32.488  28.738  1.00  0.00     0.034 A 
BRANCH  51  65
ATOM     65  C   UNL A   1      38.866  30.271  30.817  1.00  0.00     0.023 A 
ATOM     66  C   UNL A   1      37.796  30.909  30.165  1.00  0.00     0.031 A 
ATOM     67  C   UNL A   1      38.690  29.905  32.165  1.00  0.00     0.131 A 
ATOM     68  C   UNL A   1      36.630  31.225  30.879  1.00  0.00     0.055 A 
ATOM     69  C   UNL A   1      37.495  30.147  32.845  1.00  0.00     0.041 A 
ATOM     70  F   UNL A   1      39.683  29.314  32.848  1.00  0.00    -0.206 F 
ATOM     71  C   UNL A   1      36.461  30.823  32.206  1.00  0.00     0.022 A 
BRANCH  68  72
ATOM     72  S   UNL A   1      35.398  32.300  30.094  1.00  0.00     0.124 S 
ATOM     73  O   UNL A   1      34.882  31.435  29.036  1.00  0.00    -0.237 OA
ATOM     74  O   UNL A   1      34.481  32.584  31.192  1.00  0.00    -0.237 OA
ATOM     75  O   UNL A   1      36.185  33.440  29.628  1.00  0.00    -0.744 OA
ENDBRANCH  68  72
ENDBRANCH  51  65
BRANCH  52  76
ATOM     76  C   UNL A   1      47.317  28.040  25.955  1.00  0.00     0.023 A 
ATOM     77  C   UNL A   1      47.368  28.131  24.555  1.00  0.00     0.031 A 
ATOM     78  C   UNL A   1      48.465  27.579  26.626  1.00  0.00     0.131 A 
ATOM     79  C   UNL A   1      48.522  27.721  23.869  1.00  0.00     0.055 A 
ATOM     80  C   UNL A   1      49.631  27.231  25.943  1.00  0.00     0.041 A 
ATOM     81  F   UNL A   1      48.469  27.464  27.964  1.00  0.00    -0.206 F 
ATOM     82  C   UNL A   1      49.660  27.287  24.554  1.00  0.00     0.022 A 
BRANCH  79  83
ATOM     83  S   UNL A   1      48.484  27.664  22.056  1.00  0.00     0.124 S 
ATOM     84  O   UNL A   1      48.686  26.243  21.800  1.00  0.00    -0.237 OA
ATOM     85  O   UNL A   1      47.154  28.188  21.765  1.00  0.00    -0.237 OA
ATOM     86  O   UNL A   1      49.593  28.533  21.665  1.00  0.00    -0.744 OA
ENDBRANCH  79  83
ENDBRANCH  52  76
BRANCH  64  87
ATOM     87  C   UNL A   1      44.852  33.877  28.891  1.00  0.00     0.023 A 
ATOM     88  C   UNL A   1      45.650  34.234  29.993  1.00  0.00     0.031 A 
ATOM     89  C   UNL A   1      44.596  34.862  27.920  1.00  0.00     0.131 A 
ATOM     90  C   UNL A   1      46.114  35.553  30.126  1.00  0.00     0.055 A 
ATOM     91  C   UNL A   1      45.116  36.153  28.022  1.00  0.00     0.041 A 
ATOM     92  F   UNL A   1      43.838  34.582  26.847  1.00  0.00    -0.206 F 
ATOM     93  C   UNL A   1      45.868  36.508  29.137  1.00  0.00     0.022 A 
BRANCH  90  94
ATOM     94  S   UNL A   1      46.959  36.032  31.659  1.00  0.00     0.124 S 
ATOM     95  O   UNL A   1      45.841  36.191  32.583  1.00  0.00    -0.237 OA
ATOM     96  O   UNL A   1      47.831  34.888  31.904  1.00  0.00    -0.237 OA
ATOM     97  O   UNL A   1      47.647  37.270  31.298  1.00  0.00    -0.744 OA
ENDBRANCH  90  94
ENDBRANCH  64  87
ENDBRANCH  38  39
ENDBRANCH  31  33
ENDBRANCH  30  31
ENDBRANCH  29  30
ENDBRANCH   1  29
TORSDOF 19
ENDMDL
