MODEL 1
REMARK VINA RESULT:     -11.0      0.000      0.000
REMARK SMILES CC[C@@H]1CCCN1C(=O)N1CC[C@@H](C(=O)OCCOCCOC(=O)c2ccc(-c3c4nc(c(-c5cc(S(=O)(=O)[O-])ccc5F)c5ccc([nH]5)c(-c5cc(S(=O)(=O)[O-])ccc5F)c5nc(c(-c6cc(S(=O)(=O)[O-])ccc6F)c6ccc3[nH]6)C=C5)C=C4)cc2)[C@@H]1C
REMARK SMILES IDX 19 1 18 2 17 3 16 4 14 5 15 6 13 7 10 8 11 9 88 10 12 11
REMARK SMILES IDX 89 12 8 13 9 14 7 15 3 16 4 17 5 18 6 19 2 20 1 21 20 22
REMARK SMILES IDX 21 23 22 24 23 25 24 26 25 27 26 28 87 29 27 30 86 31 28 32
REMARK SMILES IDX 29 33 30 34 80 35 31 36 85 37 79 38 81 39 32 40 84 41 78 42
REMARK SMILES IDX 77 43 33 45 65 46 45 47 64 48 46 49 49 50 63 51 82 52 47 53
REMARK SMILES IDX 48 54 62 56 83 57 50 58 34 59 35 60 43 61 36 62 42 63 44 64
REMARK SMILES IDX 41 65 37 66 38 67 39 68 40 69 66 70 67 71 75 72 68 73 74 74
REMARK SMILES IDX 76 75 73 76 69 77 70 78 71 79 72 80 51 81 52 82 60 83 53 84
REMARK SMILES IDX 59 85 61 86 58 87 54 88 55 89 56 90 57 91
REMARK H PARENT 81 44 49 55
REMARK Flexibility Score: inf
ROOT
ATOM      1  O   UNL A   1      35.404  18.606  24.580  1.00  0.00    -0.374 OA
ENDROOT
BRANCH   1   2
ATOM      2  C   UNL A   1      34.030  18.829  24.246  1.00  0.00     0.202 C 
BRANCH   2   3
ATOM      3  C   UNL A   1      33.078  18.802  25.446  1.00  0.00     0.261 C 
BRANCH   3   4
ATOM      4  O   UNL A   1      32.140  19.889  25.340  1.00  0.00    -0.463 OA
BRANCH   4   5
ATOM      5  C   UNL A   1      32.550  21.107  25.770  1.00  0.00     0.311 C 
ATOM      6  O   UNL A   1      33.418  21.297  26.612  1.00  0.00    -0.252 OA
BRANCH   5   7
ATOM      7  C   UNL A   1      31.812  22.233  25.072  1.00  0.00     0.123 C 
ATOM      8  N   UNL A   1      31.562  24.566  25.301  1.00  0.00    -0.321 N 
ATOM      9  C   UNL A   1      32.686  24.408  24.407  1.00  0.00     0.122 C 
ATOM     10  C   UNL A   1      31.474  23.342  26.091  1.00  0.00     0.098 C 
ATOM     11  C   UNL A   1      32.579  22.966  23.942  1.00  0.00     0.039 C 
ATOM     12  C   UNL A   1      30.125  23.144  26.772  1.00  0.00     0.032 C 
BRANCH   8  13
ATOM     13  C   UNL A   1      31.338  25.796  25.859  1.00  0.00     0.320 C 
ATOM     14  O   UNL A   1      31.604  26.009  27.043  1.00  0.00    -0.248 OA
BRANCH  13  15
ATOM     15  N   UNL A   1      30.846  26.781  25.029  1.00  0.00    -0.322 N 
ATOM     16  C   UNL A   1      31.499  27.965  24.433  1.00  0.00     0.086 C 
ATOM     17  C   UNL A   1      30.288  28.707  23.843  1.00  0.00     0.027 C 
ATOM     18  C   UNL A   1      29.449  27.580  23.268  1.00  0.00     0.024 C 
ATOM     19  C   UNL A   1      29.648  26.449  24.265  1.00  0.00     0.122 C 
BRANCH  16  20
ATOM     20  C   UNL A   1      32.346  28.946  25.248  1.00  0.00     0.022 C 
ATOM     21  C   UNL A   1      31.640  30.263  25.538  1.00  0.00     0.006 C 
ENDBRANCH  16  20
ENDBRANCH  13  15
ENDBRANCH   8  13
ENDBRANCH   5   7
ENDBRANCH   4   5
ENDBRANCH   3   4
ENDBRANCH   2   3
ENDBRANCH   1   2
BRANCH   1  22
ATOM     22  C   UNL A   1      36.155  19.747  24.997  1.00  0.00     0.202 C 
BRANCH  22  23
ATOM     23  C   UNL A   1      37.673  19.555  25.005  1.00  0.00     0.261 C 
BRANCH  23  24
ATOM     24  O   UNL A   1      38.339  20.784  25.355  1.00  0.00    -0.460 OA
BRANCH  24  25
ATOM     25  C   UNL A   1      39.490  20.618  26.046  1.00  0.00     0.338 C 
ATOM     26  O   UNL A   1      40.237  19.647  26.000  1.00  0.00    -0.246 OA
BRANCH  25  27
ATOM     27  C   UNL A   1      39.859  21.856  26.755  1.00  0.00     0.060 A 
ATOM     28  C   UNL A   1      39.227  23.034  26.339  1.00  0.00     0.016 A 
ATOM     29  C   UNL A   1      40.858  21.897  27.733  1.00  0.00     0.016 A 
ATOM     30  C   UNL A   1      39.639  24.264  26.842  1.00  0.00     0.010 A 
ATOM     31  C   UNL A   1      41.273  23.138  28.237  1.00  0.00     0.010 A 
ATOM     32  C   UNL A   1      40.697  24.330  27.759  1.00  0.00    -0.014 A 
BRANCH  32  33
ATOM     33  C   UNL A   1      41.296  25.656  28.062  1.00  0.00     0.031 A 
ATOM     34  C   UNL A   1      42.684  25.962  27.561  1.00  0.00     0.074 A 
ATOM     35  C   UNL A   1      40.586  26.607  28.697  1.00  0.00     0.049 A 
ATOM     36  N   UNL A   1      43.386  27.061  27.670  1.00  0.00    -0.248 NA
ATOM     37  C   UNL A   1      43.369  24.880  26.836  1.00  0.00     0.031 C 
ATOM     38  C   UNL A   1      39.215  26.454  29.182  1.00  0.00     0.029 A 
ATOM     39  N   UNL A   1      40.919  27.896  29.034  1.00  0.00    -0.354 N 
ATOM     40  C   UNL A   1      44.595  26.804  27.032  1.00  0.00     0.074 A 
ATOM     41  C   UNL A   1      44.544  25.432  26.574  1.00  0.00     0.031 C 
ATOM     42  C   UNL A   1      38.821  27.607  29.747  1.00  0.00     0.029 A 
ATOM     43  C   UNL A   1      39.920  28.570  29.699  1.00  0.00     0.049 A 
ATOM     44  H   UNL A   1      41.791  28.300  28.820  1.00  0.00     0.167 HD
ATOM     45  C   UNL A   1      45.648  27.637  26.836  1.00  0.00     0.034 A 
ATOM     46  C   UNL A   1      39.903  29.812  30.221  1.00  0.00     0.034 A 
ATOM     47  C   UNL A   1      45.688  29.005  27.297  1.00  0.00     0.049 A 
ATOM     48  C   UNL A   1      41.121  30.693  30.069  1.00  0.00     0.074 A 
ATOM     49  C   UNL A   1      46.693  29.942  27.127  1.00  0.00     0.029 A 
ATOM     50  N   UNL A   1      44.687  29.627  28.032  1.00  0.00    -0.354 N 
ATOM     51  N   UNL A   1      42.253  30.441  29.454  1.00  0.00    -0.248 NA
ATOM     52  C   UNL A   1      41.054  32.028  30.680  1.00  0.00     0.031 C 
ATOM     53  C   UNL A   1      46.334  31.102  27.822  1.00  0.00     0.029 A 
ATOM     54  C   UNL A   1      45.070  30.920  28.359  1.00  0.00     0.049 A 
ATOM     55  H   UNL A   1      43.832  29.212  28.285  1.00  0.00     0.167 HD
ATOM     56  C   UNL A   1      43.017  31.600  29.574  1.00  0.00     0.074 A 
ATOM     57  C   UNL A   1      42.214  32.551  30.313  1.00  0.00     0.031 C 
ATOM     58  C   UNL A   1      44.266  31.858  29.109  1.00  0.00     0.034 A 
BRANCH  45  59
ATOM     59  C   UNL A   1      46.862  27.070  26.141  1.00  0.00     0.023 A 
ATOM     60  C   UNL A   1      47.872  26.390  26.842  1.00  0.00     0.031 A 
ATOM     61  C   UNL A   1      47.023  27.239  24.754  1.00  0.00     0.131 A 
ATOM     62  C   UNL A   1      49.029  25.967  26.167  1.00  0.00     0.055 A 
ATOM     63  C   UNL A   1      48.139  26.748  24.075  1.00  0.00     0.041 A 
ATOM     64  F   UNL A   1      46.101  27.901  24.035  1.00  0.00    -0.206 F 
ATOM     65  C   UNL A   1      49.158  26.120  24.785  1.00  0.00     0.022 A 
BRANCH  62  66
ATOM     66  S   UNL A   1      50.426  25.344  27.143  1.00  0.00     0.124 S 
ATOM     67  O   UNL A   1      49.810  24.229  27.859  1.00  0.00    -0.237 OA
ATOM     68  O   UNL A   1      51.394  24.987  26.114  1.00  0.00    -0.237 OA
ATOM     69  O   UNL A   1      50.795  26.484  27.980  1.00  0.00    -0.744 OA
ENDBRANCH  62  66
ENDBRANCH  45  59
BRANCH  46  70
ATOM     70  C   UNL A   1      38.709  30.299  30.971  1.00  0.00     0.023 A 
ATOM     71  C   UNL A   1      37.665  30.975  30.320  1.00  0.00     0.031 A 
ATOM     72  C   UNL A   1      38.629  30.150  32.368  1.00  0.00     0.131 A 
ATOM     73  C   UNL A   1      36.607  31.514  31.070  1.00  0.00     0.055 A 
ATOM     74  C   UNL A   1      37.550  30.643  33.102  1.00  0.00     0.041 A 
ATOM     75  F   UNL A   1      39.603  29.515  33.040  1.00  0.00    -0.206 F 
ATOM     76  C   UNL A   1      36.536  31.342  32.455  1.00  0.00     0.022 A 
BRANCH  73  77
ATOM     77  S   UNL A   1      35.361  32.521  30.218  1.00  0.00     0.124 S 
ATOM     78  O   UNL A   1      36.111  33.737  29.928  1.00  0.00    -0.237 OA
ATOM     79  O   UNL A   1      35.028  31.682  29.071  1.00  0.00    -0.237 OA
ATOM     80  O   UNL A   1      34.300  32.662  31.212  1.00  0.00    -0.744 OA
ENDBRANCH  73  77
ENDBRANCH  46  70
BRANCH  58  81
ATOM     81  C   UNL A   1      44.818  33.243  29.347  1.00  0.00     0.023 A 
ATOM     82  C   UNL A   1      44.658  34.277  28.408  1.00  0.00     0.031 A 
ATOM     83  C   UNL A   1      45.525  33.529  30.529  1.00  0.00     0.131 A 
ATOM     84  C   UNL A   1      45.244  35.532  28.641  1.00  0.00     0.055 A 
ATOM     85  C   UNL A   1      46.055  34.795  30.782  1.00  0.00     0.041 A 
ATOM     86  F   UNL A   1      45.711  32.579  31.460  1.00  0.00    -0.206 F 
ATOM     87  C   UNL A   1      45.928  35.801  29.829  1.00  0.00     0.022 A 
BRANCH  84  88
ATOM     88  S   UNL A   1      45.180  36.782  27.328  1.00  0.00     0.124 S 
ATOM     89  O   UNL A   1      43.746  36.894  27.085  1.00  0.00    -0.237 OA
ATOM     90  O   UNL A   1      45.811  37.935  27.964  1.00  0.00    -0.237 OA
ATOM     91  O   UNL A   1      45.948  36.178  26.241  1.00  0.00    -0.744 OA
ENDBRANCH  84  88
ENDBRANCH  58  81
ENDBRANCH  32  33
ENDBRANCH  25  27
ENDBRANCH  24  25
ENDBRANCH  23  24
ENDBRANCH  22  23
ENDBRANCH   1  22
TORSDOF 20
ENDMDL
MODEL 2
REMARK VINA RESULT:     -10.8      1.574      2.062
REMARK SMILES CC[C@@H]1CCCN1C(=O)N1CC[C@@H](C(=O)OCCOCCOC(=O)c2ccc(-c3c4nc(c(-c5cc(S(=O)(=O)[O-])ccc5F)c5ccc([nH]5)c(-c5cc(S(=O)(=O)[O-])ccc5F)c5nc(c(-c6cc(S(=O)(=O)[O-])ccc6F)c6ccc3[nH]6)C=C5)C=C4)cc2)[C@@H]1C
REMARK SMILES IDX 19 1 18 2 17 3 16 4 14 5 15 6 13 7 10 8 11 9 88 10 12 11
REMARK SMILES IDX 89 12 8 13 9 14 7 15 3 16 4 17 5 18 6 19 2 20 1 21 20 22
REMARK SMILES IDX 21 23 22 24 23 25 24 26 25 27 26 28 87 29 27 30 86 31 28 32
REMARK SMILES IDX 29 33 30 34 80 35 31 36 85 37 79 38 81 39 32 40 84 41 78 42
REMARK SMILES IDX 77 43 33 45 65 46 45 47 64 48 46 49 49 50 63 51 82 52 47 53
REMARK SMILES IDX 48 54 62 56 83 57 50 58 34 59 35 60 43 61 36 62 42 63 44 64
REMARK SMILES IDX 41 65 37 66 38 67 39 68 40 69 66 70 67 71 75 72 68 73 74 74
REMARK SMILES IDX 76 75 73 76 69 77 70 78 71 79 72 80 51 81 52 82 60 83 53 84
REMARK SMILES IDX 59 85 61 86 58 87 54 88 55 89 56 90 57 91
REMARK H PARENT 81 44 49 55
REMARK Flexibility Score: inf
ROOT
ATOM      1  O   UNL A   1      35.863  21.194  25.937  1.00  0.00    -0.374 OA
ENDROOT
BRANCH   1   2
ATOM      2  C   UNL A   1      35.452  22.468  25.432  1.00  0.00     0.202 C 
BRANCH   2   3
ATOM      3  C   UNL A   1      35.266  22.513  23.912  1.00  0.00     0.261 C 
BRANCH   3   4
ATOM      4  O   UNL A   1      33.927  22.944  23.604  1.00  0.00    -0.463 OA
BRANCH   4   5
ATOM      5  C   UNL A   1      32.918  22.087  23.893  1.00  0.00     0.311 C 
ATOM      6  O   UNL A   1      32.985  20.868  23.798  1.00  0.00    -0.252 OA
BRANCH   5   7
ATOM      7  C   UNL A   1      31.675  22.815  24.368  1.00  0.00     0.123 C 
ATOM      8  N   UNL A   1      31.012  25.033  24.814  1.00  0.00    -0.321 N 
ATOM      9  C   UNL A   1      30.667  24.824  23.427  1.00  0.00     0.122 C 
ATOM     10  C   UNL A   1      32.084  24.094  25.130  1.00  0.00     0.098 C 
ATOM     11  C   UNL A   1      30.703  23.314  23.269  1.00  0.00     0.039 C 
ATOM     12  C   UNL A   1      32.283  23.867  26.625  1.00  0.00     0.032 C 
BRANCH   8  13
ATOM     13  C   UNL A   1      31.015  26.312  25.303  1.00  0.00     0.320 C 
ATOM     14  O   UNL A   1      30.473  26.578  26.377  1.00  0.00    -0.248 OA
BRANCH  13  15
ATOM     15  N   UNL A   1      31.683  27.265  24.563  1.00  0.00    -0.322 N 
ATOM     16  C   UNL A   1      31.181  28.374  23.727  1.00  0.00     0.086 C 
ATOM     17  C   UNL A   1      32.475  28.839  23.040  1.00  0.00     0.027 C 
ATOM     18  C   UNL A   1      33.498  28.759  24.158  1.00  0.00     0.024 C 
ATOM     19  C   UNL A   1      33.068  27.529  24.941  1.00  0.00     0.122 C 
BRANCH  16  20
ATOM     20  C   UNL A   1      30.085  28.191  22.673  1.00  0.00     0.022 C 
ATOM     21  C   UNL A   1      28.788  28.913  23.014  1.00  0.00     0.006 C 
ENDBRANCH  16  20
ENDBRANCH  13  15
ENDBRANCH   8  13
ENDBRANCH   5   7
ENDBRANCH   4   5
ENDBRANCH   3   4
ENDBRANCH   2   3
ENDBRANCH   1   2
BRANCH   1  22
ATOM     22  C   UNL A   1      36.247  20.215  24.970  1.00  0.00     0.202 C 
BRANCH  22  23
ATOM     23  C   UNL A   1      37.723  19.815  25.004  1.00  0.00     0.261 C 
BRANCH  23  24
ATOM     24  O   UNL A   1      38.556  20.963  25.261  1.00  0.00    -0.460 OA
BRANCH  24  25
ATOM     25  C   UNL A   1      39.573  20.733  26.121  1.00  0.00     0.338 C 
ATOM     26  O   UNL A   1      40.226  19.701  26.223  1.00  0.00    -0.246 OA
BRANCH  25  27
ATOM     27  C   UNL A   1      39.948  21.969  26.831  1.00  0.00     0.060 A 
ATOM     28  C   UNL A   1      39.267  23.137  26.468  1.00  0.00     0.016 A 
ATOM     29  C   UNL A   1      40.995  22.020  27.758  1.00  0.00     0.016 A 
ATOM     30  C   UNL A   1      39.674  24.369  26.969  1.00  0.00     0.010 A 
ATOM     31  C   UNL A   1      41.404  23.263  28.260  1.00  0.00     0.010 A 
ATOM     32  C   UNL A   1      40.776  24.448  27.832  1.00  0.00    -0.014 A 
BRANCH  32  33
ATOM     33  C   UNL A   1      41.357  25.784  28.126  1.00  0.00     0.031 A 
ATOM     34  C   UNL A   1      42.738  26.107  27.617  1.00  0.00     0.074 A 
ATOM     35  C   UNL A   1      40.637  26.727  28.760  1.00  0.00     0.049 A 
ATOM     36  N   UNL A   1      43.425  27.216  27.718  1.00  0.00    -0.248 NA
ATOM     37  C   UNL A   1      43.435  25.032  26.893  1.00  0.00     0.031 C 
ATOM     38  C   UNL A   1      39.271  26.557  29.252  1.00  0.00     0.029 A 
ATOM     39  N   UNL A   1      40.953  28.022  29.090  1.00  0.00    -0.354 N 
ATOM     40  C   UNL A   1      44.634  26.974  27.075  1.00  0.00     0.074 A 
ATOM     41  C   UNL A   1      44.601  25.599  26.623  1.00  0.00     0.031 C 
ATOM     42  C   UNL A   1      38.863  27.707  29.815  1.00  0.00     0.029 A 
ATOM     43  C   UNL A   1      39.948  28.685  29.756  1.00  0.00     0.049 A 
ATOM     44  H   UNL A   1      41.818  28.438  28.869  1.00  0.00     0.167 HD
ATOM     45  C   UNL A   1      45.674  27.822  26.870  1.00  0.00     0.034 A 
ATOM     46  C   UNL A   1      39.915  29.930  30.273  1.00  0.00     0.034 A 
ATOM     47  C   UNL A   1      45.697  29.192  27.324  1.00  0.00     0.049 A 
ATOM     48  C   UNL A   1      41.119  30.826  30.111  1.00  0.00     0.074 A 
ATOM     49  C   UNL A   1      46.687  30.142  27.146  1.00  0.00     0.029 A 
ATOM     50  N   UNL A   1      44.691  29.803  28.061  1.00  0.00    -0.354 N 
ATOM     51  N   UNL A   1      42.252  30.589  29.491  1.00  0.00    -0.248 NA
ATOM     52  C   UNL A   1      41.036  32.163  30.716  1.00  0.00     0.031 C 
ATOM     53  C   UNL A   1      46.315  31.301  27.837  1.00  0.00     0.029 A 
ATOM     54  C   UNL A   1      45.056  31.103  28.381  1.00  0.00     0.049 A 
ATOM     55  H   UNL A   1      43.843  29.376  28.321  1.00  0.00     0.167 HD
ATOM     56  C   UNL A   1      43.000  31.759  29.603  1.00  0.00     0.074 A 
ATOM     57  C   UNL A   1      42.186  32.702  30.341  1.00  0.00     0.031 C 
ATOM     58  C   UNL A   1      44.243  32.032  29.130  1.00  0.00     0.034 A 
BRANCH  45  59
ATOM     59  C   UNL A   1      46.893  27.268  26.171  1.00  0.00     0.023 A 
ATOM     60  C   UNL A   1      47.947  26.664  26.878  1.00  0.00     0.031 A 
ATOM     61  C   UNL A   1      47.013  27.375  24.774  1.00  0.00     0.131 A 
ATOM     62  C   UNL A   1      49.103  26.255  26.195  1.00  0.00     0.055 A 
ATOM     63  C   UNL A   1      48.131  26.894  24.091  1.00  0.00     0.041 A 
ATOM     64  F   UNL A   1      46.047  27.963  24.049  1.00  0.00    -0.206 F 
ATOM     65  C   UNL A   1      49.192  26.343  24.803  1.00  0.00     0.022 A 
BRANCH  62  66
ATOM     66  S   UNL A   1      50.548  25.736  27.162  1.00  0.00     0.124 S 
ATOM     67  O   UNL A   1      51.620  25.853  26.176  1.00  0.00    -0.237 OA
ATOM     68  O   UNL A   1      50.567  26.711  28.246  1.00  0.00    -0.237 OA
ATOM     69  O   UNL A   1      50.222  24.368  27.558  1.00  0.00    -0.744 OA
ENDBRANCH  62  66
ENDBRANCH  45  59
BRANCH  46  70
ATOM     70  C   UNL A   1      38.718  30.403  31.026  1.00  0.00     0.023 A 
ATOM     71  C   UNL A   1      37.652  31.044  30.375  1.00  0.00     0.031 A 
ATOM     72  C   UNL A   1      38.655  30.276  32.426  1.00  0.00     0.131 A 
ATOM     73  C   UNL A   1      36.590  31.572  31.126  1.00  0.00     0.055 A 
ATOM     74  C   UNL A   1      37.573  30.758  33.163  1.00  0.00     0.041 A 
ATOM     75  F   UNL A   1      39.649  29.675  33.099  1.00  0.00    -0.206 F 
ATOM     76  C   UNL A   1      36.537  31.422  32.514  1.00  0.00     0.022 A 
BRANCH  73  77
ATOM     77  S   UNL A   1      35.314  32.536  30.270  1.00  0.00     0.124 S 
ATOM     78  O   UNL A   1      36.041  33.751  29.924  1.00  0.00    -0.237 OA
ATOM     79  O   UNL A   1      34.967  31.656  29.158  1.00  0.00    -0.237 OA
ATOM     80  O   UNL A   1      34.272  32.696  31.281  1.00  0.00    -0.744 OA
ENDBRANCH  73  77
ENDBRANCH  46  70
BRANCH  58  81
ATOM     81  C   UNL A   1      44.776  33.426  29.360  1.00  0.00     0.023 A 
ATOM     82  C   UNL A   1      45.545  33.749  30.492  1.00  0.00     0.031 A 
ATOM     83  C   UNL A   1      44.500  34.450  28.435  1.00  0.00     0.131 A 
ATOM     84  C   UNL A   1      45.965  35.074  30.698  1.00  0.00     0.055 A 
ATOM     85  C   UNL A   1      44.969  35.751  28.616  1.00  0.00     0.041 A 
ATOM     86  F   UNL A   1      43.769  34.199  27.338  1.00  0.00    -0.206 F 
ATOM     87  C   UNL A   1      45.695  36.072  29.759  1.00  0.00     0.022 A 
BRANCH  84  88
ATOM     88  S   UNL A   1      46.791  35.495  32.257  1.00  0.00     0.124 S 
ATOM     89  O   UNL A   1      47.558  36.678  31.886  1.00  0.00    -0.237 OA
ATOM     90  O   UNL A   1      45.663  35.722  33.156  1.00  0.00    -0.237 OA
ATOM     91  O   UNL A   1      47.589  34.306  32.554  1.00  0.00    -0.744 OA
ENDBRANCH  84  88
ENDBRANCH  58  81
ENDBRANCH  32  33
ENDBRANCH  25  27
ENDBRANCH  24  25
ENDBRANCH  23  24
ENDBRANCH  22  23
ENDBRANCH   1  22
TORSDOF 20
ENDMDL
MODEL 3
REMARK VINA RESULT:     -10.8      1.700      1.971
REMARK SMILES CC[C@@H]1CCCN1C(=O)N1CC[C@@H](C(=O)OCCOCCOC(=O)c2ccc(-c3c4nc(c(-c5cc(S(=O)(=O)[O-])ccc5F)c5ccc([nH]5)c(-c5cc(S(=O)(=O)[O-])ccc5F)c5nc(c(-c6cc(S(=O)(=O)[O-])ccc6F)c6ccc3[nH]6)C=C5)C=C4)cc2)[C@@H]1C
REMARK SMILES IDX 19 1 18 2 17 3 16 4 14 5 15 6 13 7 10 8 11 9 88 10 12 11
REMARK SMILES IDX 89 12 8 13 9 14 7 15 3 16 4 17 5 18 6 19 2 20 1 21 20 22
REMARK SMILES IDX 21 23 22 24 23 25 24 26 25 27 26 28 87 29 27 30 86 31 28 32
REMARK SMILES IDX 29 33 30 34 80 35 31 36 85 37 79 38 81 39 32 40 84 41 78 42
REMARK SMILES IDX 77 43 33 45 65 46 45 47 64 48 46 49 49 50 63 51 82 52 47 53
REMARK SMILES IDX 48 54 62 56 83 57 50 58 34 59 35 60 43 61 36 62 42 63 44 64
REMARK SMILES IDX 41 65 37 66 38 67 39 68 40 69 66 70 67 71 75 72 68 73 74 74
REMARK SMILES IDX 76 75 73 76 69 77 70 78 71 79 72 80 51 81 52 82 60 83 53 84
REMARK SMILES IDX 59 85 61 86 58 87 54 88 55 89 56 90 57 91
REMARK H PARENT 81 44 49 55
REMARK Flexibility Score: inf
ROOT
ATOM      1  O   UNL A   1      35.342  21.481  25.839  1.00  0.00    -0.374 OA
ENDROOT
BRANCH   1   2
ATOM      2  C   UNL A   1      34.012  21.871  25.483  1.00  0.00     0.202 C 
BRANCH   2   3
ATOM      3  C   UNL A   1      32.941  20.826  25.811  1.00  0.00     0.261 C 
BRANCH   3   4
ATOM      4  O   UNL A   1      31.653  21.305  25.379  1.00  0.00    -0.463 OA
BRANCH   4   5
ATOM      5  C   UNL A   1      31.211  22.467  25.919  1.00  0.00     0.311 C 
ATOM      6  O   UNL A   1      31.135  22.697  27.119  1.00  0.00    -0.252 OA
BRANCH   5   7
ATOM      7  C   UNL A   1      30.825  23.475  24.855  1.00  0.00     0.123 C 
ATOM      8  N   UNL A   1      31.700  25.458  23.927  1.00  0.00    -0.321 N 
ATOM      9  C   UNL A   1      32.232  24.403  23.095  1.00  0.00     0.122 C 
ATOM     10  C   UNL A   1      31.395  24.862  25.224  1.00  0.00     0.098 C 
ATOM     11  C   UNL A   1      31.357  23.207  23.424  1.00  0.00     0.039 C 
ATOM     12  C   UNL A   1      30.446  25.696  26.078  1.00  0.00     0.032 C 
BRANCH   8  13
ATOM     13  C   UNL A   1      32.245  26.710  23.826  1.00  0.00     0.320 C 
ATOM     14  O   UNL A   1      33.467  26.869  23.837  1.00  0.00    -0.248 OA
BRANCH  13  15
ATOM     15  N   UNL A   1      31.370  27.764  23.670  1.00  0.00    -0.322 N 
ATOM     16  C   UNL A   1      31.538  29.211  23.915  1.00  0.00     0.086 C 
ATOM     17  C   UNL A   1      30.093  29.710  23.756  1.00  0.00     0.027 C 
ATOM     18  C   UNL A   1      29.588  28.907  22.571  1.00  0.00     0.024 C 
ATOM     19  C   UNL A   1      30.253  27.552  22.755  1.00  0.00     0.122 C 
BRANCH  16  20
ATOM     20  C   UNL A   1      32.127  29.772  25.213  1.00  0.00     0.022 C 
ATOM     21  C   UNL A   1      31.769  28.954  26.446  1.00  0.00     0.006 C 
ENDBRANCH  16  20
ENDBRANCH  13  15
ENDBRANCH   8  13
ENDBRANCH   5   7
ENDBRANCH   4   5
ENDBRANCH   3   4
ENDBRANCH   2   3
ENDBRANCH   1   2
BRANCH   1  22
ATOM     22  C   UNL A   1      35.979  20.525  24.991  1.00  0.00     0.202 C 
BRANCH  22  23
ATOM     23  C   UNL A   1      37.503  20.465  25.112  1.00  0.00     0.261 C 
BRANCH  23  24
ATOM     24  O   UNL A   1      38.012  21.667  25.723  1.00  0.00    -0.460 OA
BRANCH  24  25
ATOM     25  C   UNL A   1      39.301  21.586  26.125  1.00  0.00     0.338 C 
ATOM     26  O   UNL A   1      40.116  20.729  25.801  1.00  0.00    -0.246 OA
BRANCH  25  27
ATOM     27  C   UNL A   1      39.690  22.787  26.885  1.00  0.00     0.060 A 
ATOM     28  C   UNL A   1      38.956  23.953  26.640  1.00  0.00     0.016 A 
ATOM     29  C   UNL A   1      40.793  22.813  27.743  1.00  0.00     0.016 A 
ATOM     30  C   UNL A   1      39.363  25.165  27.190  1.00  0.00     0.010 A 
ATOM     31  C   UNL A   1      41.203  24.035  28.295  1.00  0.00     0.010 A 
ATOM     32  C   UNL A   1      40.517  25.224  27.983  1.00  0.00    -0.014 A 
BRANCH  32  33
ATOM     33  C   UNL A   1      41.081  26.557  28.322  1.00  0.00     0.031 A 
ATOM     34  C   UNL A   1      42.495  26.877  27.910  1.00  0.00     0.074 A 
ATOM     35  C   UNL A   1      40.323  27.500  28.909  1.00  0.00     0.049 A 
ATOM     36  N   UNL A   1      43.177  27.983  28.063  1.00  0.00    -0.248 NA
ATOM     37  C   UNL A   1      43.236  25.802  27.232  1.00  0.00     0.031 C 
ATOM     38  C   UNL A   1      38.925  27.333  29.305  1.00  0.00     0.029 A 
ATOM     39  N   UNL A   1      40.620  28.793  29.265  1.00  0.00    -0.354 N 
ATOM     40  C   UNL A   1      44.427  27.739  27.504  1.00  0.00     0.074 A 
ATOM     41  C   UNL A   1      44.420  26.366  27.045  1.00  0.00     0.031 C 
ATOM     42  C   UNL A   1      38.484  28.482  29.843  1.00  0.00     0.029 A 
ATOM     43  C   UNL A   1      39.574  29.456  29.864  1.00  0.00     0.049 A 
ATOM     44  H   UNL A   1      41.499  29.206  29.106  1.00  0.00     0.167 HD
ATOM     45  C   UNL A   1      45.482  28.583  27.374  1.00  0.00     0.034 A 
ATOM     46  C   UNL A   1      39.510  30.699  30.382  1.00  0.00     0.034 A 
ATOM     47  C   UNL A   1      45.478  29.951  27.835  1.00  0.00     0.049 A 
ATOM     48  C   UNL A   1      40.725  31.592  30.308  1.00  0.00     0.074 A 
ATOM     49  C   UNL A   1      46.482  30.898  27.729  1.00  0.00     0.029 A 
ATOM     50  N   UNL A   1      44.426  30.563  28.504  1.00  0.00    -0.354 N 
ATOM     51  N   UNL A   1      41.897  31.352  29.766  1.00  0.00    -0.248 NA
ATOM     52  C   UNL A   1      40.606  32.927  30.911  1.00  0.00     0.031 C 
ATOM     53  C   UNL A   1      46.067  32.056  28.398  1.00  0.00     0.029 A 
ATOM     54  C   UNL A   1      44.773  31.861  28.853  1.00  0.00     0.049 A 
ATOM     55  H   UNL A   1      43.561  30.139  28.703  1.00  0.00     0.167 HD
ATOM     56  C   UNL A   1      42.640  32.519  29.933  1.00  0.00     0.074 A 
ATOM     57  C   UNL A   1      41.781  33.463  30.618  1.00  0.00     0.031 C 
ATOM     58  C   UNL A   1      43.914  32.790  29.549  1.00  0.00     0.034 A 
BRANCH  45  59
ATOM     59  C   UNL A   1      46.744  28.027  26.759  1.00  0.00     0.023 A 
ATOM     60  C   UNL A   1      47.014  28.139  25.384  1.00  0.00     0.031 A 
ATOM     61  C   UNL A   1      47.678  27.348  27.560  1.00  0.00     0.131 A 
ATOM     62  C   UNL A   1      48.152  27.520  24.843  1.00  0.00     0.055 A 
ATOM     63  C   UNL A   1      48.847  26.802  27.029  1.00  0.00     0.041 A 
ATOM     64  F   UNL A   1      47.461  27.189  28.877  1.00  0.00    -0.206 F 
ATOM     65  C   UNL A   1      49.083  26.873  25.660  1.00  0.00     0.022 A 
BRANCH  62  66
ATOM     66  S   UNL A   1      48.327  27.448  23.038  1.00  0.00     0.124 S 
ATOM     67  O   UNL A   1      47.155  28.202  22.599  1.00  0.00    -0.237 OA
ATOM     68  O   UNL A   1      49.618  28.088  22.821  1.00  0.00    -0.237 OA
ATOM     69  O   UNL A   1      48.282  26.017  22.747  1.00  0.00    -0.744 OA
ENDBRANCH  62  66
ENDBRANCH  45  59
BRANCH  46  70
ATOM     70  C   UNL A   1      38.266  31.174  31.054  1.00  0.00     0.023 A 
ATOM     71  C   UNL A   1      37.237  31.795  30.328  1.00  0.00     0.031 A 
ATOM     72  C   UNL A   1      38.119  31.070  32.449  1.00  0.00     0.131 A 
ATOM     73  C   UNL A   1      36.127  32.326  31.005  1.00  0.00     0.055 A 
ATOM     74  C   UNL A   1      36.990  31.554  33.111  1.00  0.00     0.041 A 
ATOM     75  F   UNL A   1      39.075  30.488  33.191  1.00  0.00    -0.206 F 
ATOM     76  C   UNL A   1      35.990  32.199  32.389  1.00  0.00     0.022 A 
BRANCH  73  77
ATOM     77  S   UNL A   1      34.898  33.265  30.056  1.00  0.00     0.124 S 
ATOM     78  O   UNL A   1      35.736  34.233  29.360  1.00  0.00    -0.237 OA
ATOM     79  O   UNL A   1      34.295  32.224  29.229  1.00  0.00    -0.237 OA
ATOM     80  O   UNL A   1      34.024  33.820  31.087  1.00  0.00    -0.744 OA
ENDBRANCH  73  77
ENDBRANCH  46  70
BRANCH  58  81
ATOM     81  C   UNL A   1      44.435  34.181  29.820  1.00  0.00     0.023 A 
ATOM     82  C   UNL A   1      44.274  35.227  28.893  1.00  0.00     0.031 A 
ATOM     83  C   UNL A   1      45.112  34.461  31.020  1.00  0.00     0.131 A 
ATOM     84  C   UNL A   1      44.832  36.488  29.159  1.00  0.00     0.055 A 
ATOM     85  C   UNL A   1      45.613  35.732  31.304  1.00  0.00     0.041 A 
ATOM     86  F   UNL A   1      45.296  33.500  31.940  1.00  0.00    -0.206 F 
ATOM     87  C   UNL A   1      45.486  36.751  30.365  1.00  0.00     0.022 A 
BRANCH  84  88
ATOM     88  S   UNL A   1      44.772  37.758  27.864  1.00  0.00     0.124 S 
ATOM     89  O   UNL A   1      43.407  37.621  27.368  1.00  0.00    -0.237 OA
ATOM     90  O   UNL A   1      45.059  38.979  28.611  1.00  0.00    -0.237 OA
ATOM     91  O   UNL A   1      45.816  37.345  26.929  1.00  0.00    -0.744 OA
ENDBRANCH  84  88
ENDBRANCH  58  81
ENDBRANCH  32  33
ENDBRANCH  25  27
ENDBRANCH  24  25
ENDBRANCH  23  24
ENDBRANCH  22  23
ENDBRANCH   1  22
TORSDOF 20
ENDMDL
