MODEL 1
REMARK VINA RESULT:     -11.1      0.000      0.000
REMARK SMILES CC1(C)CCC[C@@]1(CC(=O)OCCOCCOC(=O)c1ccc(-c2c3nc(c(-c4cc(S(=O)(=O)[O-])ccc4F)c4ccc([nH]4)c(-c4cc(S(=O)(=O)[O-])ccc4F)c4nc(c(-c5cc(S(=O)(=O)[O-])ccc5F)c5ccc2[nH]5)C=C4)C=C3)cc1)[NH+]1CCCCC1
REMARK SMILES IDX 15 1 14 2 13 3 12 4 11 5 9 6 10 7 8 8 7 9 1 10 2 11 3 12
REMARK SMILES IDX 4 13 5 14 6 15 83 16 84 17 88 18 85 20 87 21 86 22 16 23
REMARK SMILES IDX 17 24 18 25 19 26 20 27 21 28 82 29 22 30 81 31 23 32 24 33
REMARK SMILES IDX 25 34 75 35 26 36 80 37 74 38 76 39 27 40 79 41 73 42 72 43
REMARK SMILES IDX 28 45 60 46 40 47 59 48 41 49 44 50 58 51 77 52 42 53 43 54
REMARK SMILES IDX 57 56 78 57 45 58 29 59 30 60 38 61 31 62 37 63 39 64 36 65
REMARK SMILES IDX 32 66 33 67 34 68 35 69 61 70 62 71 70 72 63 73 69 74 71 75
REMARK SMILES IDX 68 76 64 77 65 78 66 79 67 80 46 81 47 82 55 83 48 84 54 85
REMARK SMILES IDX 56 86 53 87 49 88 50 89 51 90 52 91
REMARK H PARENT 83 19 76 44 44 55
REMARK Flexibility Score: inf
ROOT
ATOM      1  C   UNL A   1      35.821  20.170  24.852  1.00  0.00     0.202 C 
ENDROOT
BRANCH   1   2
ATOM      2  O   UNL A   1      35.188  21.370  25.282  1.00  0.00    -0.374 OA
BRANCH   2   3
ATOM      3  C   UNL A   1      34.308  21.285  26.410  1.00  0.00     0.202 C 
BRANCH   3   4
ATOM      4  C   UNL A   1      33.114  22.250  26.438  1.00  0.00     0.261 C 
BRANCH   4   5
ATOM      5  O   UNL A   1      33.502  23.577  26.845  1.00  0.00    -0.463 OA
BRANCH   5   6
ATOM      6  C   UNL A   1      32.668  24.571  26.431  1.00  0.00     0.312 C 
ATOM      7  O   UNL A   1      31.521  24.718  26.832  1.00  0.00    -0.252 OA
BRANCH   6   8
ATOM      8  C   UNL A   1      33.401  25.585  25.565  1.00  0.00     0.191 C 
BRANCH   8   9
ATOM      9  C   UNL A   1      32.766  26.121  24.224  1.00  0.00     0.113 C 
ATOM     10  C   UNL A   1      31.589  23.900  23.357  1.00  0.00     0.018 C 
ATOM     11  C   UNL A   1      32.734  24.912  23.153  1.00  0.00     0.020 C 
ATOM     12  C   UNL A   1      34.032  24.054  23.127  1.00  0.00     0.018 C 
ATOM     13  C   UNL A   1      32.683  25.616  21.781  1.00  0.00     0.013 C 
ATOM     14  C   UNL A   1      33.507  26.885  21.955  1.00  0.00     0.007 C 
ATOM     15  C   UNL A   1      33.663  27.134  23.461  1.00  0.00     0.070 C 
BRANCH   9  16
ATOM     16  N   UNL A   1      31.402  26.707  24.556  1.00  0.00    -0.329 N 
ATOM     17  C   UNL A   1      30.257  26.633  23.640  1.00  0.00     0.262 C 
ATOM     18  C   UNL A   1      31.315  27.985  25.293  1.00  0.00     0.262 C 
ATOM     19  H   UNL A   1      31.296  25.915  25.190  1.00  0.00     0.348 HD
ATOM     20  C   UNL A   1      30.089  27.822  22.694  1.00  0.00     0.062 C 
ATOM     21  C   UNL A   1      31.137  29.249  24.442  1.00  0.00     0.062 C 
ATOM     22  C   UNL A   1      29.983  29.127  23.465  1.00  0.00     0.012 C 
ENDBRANCH   9  16
ENDBRANCH   8   9
ENDBRANCH   6   8
ENDBRANCH   5   6
ENDBRANCH   4   5
ENDBRANCH   3   4
ENDBRANCH   2   3
ENDBRANCH   1   2
BRANCH   1  23
ATOM     23  C   UNL A   1      37.319  20.015  25.153  1.00  0.00     0.261 C 
BRANCH  23  24
ATOM     24  O   UNL A   1      37.974  21.242  25.486  1.00  0.00    -0.460 OA
BRANCH  24  25
ATOM     25  C   UNL A   1      39.196  21.102  26.049  1.00  0.00     0.338 C 
ATOM     26  O   UNL A   1      39.859  20.085  26.125  1.00  0.00    -0.246 OA
BRANCH  25  27
ATOM     27  C   UNL A   1      39.629  22.407  26.576  1.00  0.00     0.060 A 
ATOM     28  C   UNL A   1      39.026  23.581  26.111  1.00  0.00     0.016 A 
ATOM     29  C   UNL A   1      40.704  22.463  27.466  1.00  0.00     0.016 A 
ATOM     30  C   UNL A   1      39.525  24.822  26.517  1.00  0.00     0.010 A 
ATOM     31  C   UNL A   1      41.187  23.707  27.885  1.00  0.00     0.010 A 
ATOM     32  C   UNL A   1      40.623  24.895  27.391  1.00  0.00    -0.014 A 
BRANCH  32  33
ATOM     33  C   UNL A   1      41.237  26.214  27.706  1.00  0.00     0.031 A 
ATOM     34  C   UNL A   1      42.622  26.525  27.201  1.00  0.00     0.074 A 
ATOM     35  C   UNL A   1      40.558  27.130  28.423  1.00  0.00     0.049 A 
ATOM     36  N   UNL A   1      43.335  27.612  27.352  1.00  0.00    -0.248 NA
ATOM     37  C   UNL A   1      43.293  25.470  26.426  1.00  0.00     0.031 C 
ATOM     38  C   UNL A   1      39.208  26.948  28.958  1.00  0.00     0.029 A 
ATOM     39  N   UNL A   1      40.909  28.394  28.828  1.00  0.00    -0.354 N 
ATOM     40  C   UNL A   1      44.536  27.375  26.691  1.00  0.00     0.074 A 
ATOM     41  C   UNL A   1      44.468  26.026  26.169  1.00  0.00     0.031 C 
ATOM     42  C   UNL A   1      38.847  28.060  29.622  1.00  0.00     0.029 A 
ATOM     43  C   UNL A   1      39.947  29.022  29.586  1.00  0.00     0.049 A 
ATOM     44  H   UNL A   1      41.770  28.813  28.597  1.00  0.00     0.167 HD
ATOM     45  C   UNL A   1      45.592  28.209  26.526  1.00  0.00     0.034 A 
ATOM     46  C   UNL A   1      39.958  30.225  30.196  1.00  0.00     0.034 A 
ATOM     47  C   UNL A   1      45.650  29.551  27.053  1.00  0.00     0.049 A 
ATOM     48  C   UNL A   1      41.171  31.113  30.040  1.00  0.00     0.074 A 
ATOM     49  C   UNL A   1      46.659  30.490  26.907  1.00  0.00     0.029 A 
ATOM     50  N   UNL A   1      44.670  30.141  27.838  1.00  0.00    -0.354 N 
ATOM     51  N   UNL A   1      42.279  30.890  29.370  1.00  0.00    -0.248 NA
ATOM     52  C   UNL A   1      41.130  32.419  30.714  1.00  0.00     0.031 C 
ATOM     53  C   UNL A   1      46.319  31.619  27.660  1.00  0.00     0.029 A 
ATOM     54  C   UNL A   1      45.065  31.416  28.215  1.00  0.00     0.049 A 
ATOM     55  H   UNL A   1      43.818  29.717  28.090  1.00  0.00     0.167 HD
ATOM     56  C   UNL A   1      43.048  32.043  29.515  1.00  0.00     0.074 A 
ATOM     57  C   UNL A   1      42.273  32.962  30.322  1.00  0.00     0.031 C 
ATOM     58  C   UNL A   1      44.283  32.319  29.024  1.00  0.00     0.034 A 
BRANCH  45  59
ATOM     59  C   UNL A   1      46.791  27.680  25.778  1.00  0.00     0.023 A 
ATOM     60  C   UNL A   1      47.024  28.000  24.429  1.00  0.00     0.031 A 
ATOM     61  C   UNL A   1      47.721  26.852  26.430  1.00  0.00     0.131 A 
ATOM     62  C   UNL A   1      48.134  27.456  23.763  1.00  0.00     0.055 A 
ATOM     63  C   UNL A   1      48.857  26.366  25.781  1.00  0.00     0.041 A 
ATOM     64  F   UNL A   1      47.537  26.498  27.713  1.00  0.00    -0.206 F 
ATOM     65  C   UNL A   1      49.064  26.660  24.437  1.00  0.00     0.022 A 
BRANCH  62  66
ATOM     66  S   UNL A   1      48.296  27.722  21.976  1.00  0.00     0.124 S 
ATOM     67  O   UNL A   1      49.430  28.642  21.916  1.00  0.00    -0.237 OA
ATOM     68  O   UNL A   1      48.540  26.374  21.476  1.00  0.00    -0.237 OA
ATOM     69  O   UNL A   1      47.010  28.304  21.598  1.00  0.00    -0.744 OA
ENDBRANCH  62  66
ENDBRANCH  45  59
BRANCH  46  70
ATOM     70  C   UNL A   1      38.809  30.663  31.043  1.00  0.00     0.023 A 
ATOM     71  C   UNL A   1      37.665  31.246  30.476  1.00  0.00     0.031 A 
ATOM     72  C   UNL A   1      38.876  30.575  32.446  1.00  0.00     0.131 A 
ATOM     73  C   UNL A   1      36.662  31.773  31.307  1.00  0.00     0.055 A 
ATOM     74  C   UNL A   1      37.850  31.046  33.266  1.00  0.00     0.041 A 
ATOM     75  F   UNL A   1      39.948  30.028  33.041  1.00  0.00    -0.206 F 
ATOM     76  C   UNL A   1      36.742  31.666  32.697  1.00  0.00     0.022 A 
BRANCH  73  77
ATOM     77  S   UNL A   1      35.302  32.703  30.546  1.00  0.00     0.124 S 
ATOM     78  O   UNL A   1      34.361  32.815  31.654  1.00  0.00    -0.237 OA
ATOM     79  O   UNL A   1      35.970  33.937  30.145  1.00  0.00    -0.237 OA
ATOM     80  O   UNL A   1      34.874  31.841  29.446  1.00  0.00    -0.744 OA
ENDBRANCH  73  77
ENDBRANCH  46  70
BRANCH  58  81
ATOM     81  C   UNL A   1      44.846  33.690  29.311  1.00  0.00     0.023 A 
ATOM     82  C   UNL A   1      44.660  34.767  28.427  1.00  0.00     0.031 A 
ATOM     83  C   UNL A   1      45.591  33.917  30.483  1.00  0.00     0.131 A 
ATOM     84  C   UNL A   1      45.258  36.007  28.701  1.00  0.00     0.055 A 
ATOM     85  C   UNL A   1      46.134  35.168  30.779  1.00  0.00     0.041 A 
ATOM     86  F   UNL A   1      45.800  32.924  31.363  1.00  0.00    -0.206 F 
ATOM     87  C   UNL A   1      45.980  36.218  29.879  1.00  0.00     0.022 A 
BRANCH  84  88
ATOM     88  S   UNL A   1      45.153  37.319  27.453  1.00  0.00     0.124 S 
ATOM     89  O   UNL A   1      43.754  37.240  27.044  1.00  0.00    -0.237 OA
ATOM     90  O   UNL A   1      45.528  38.506  28.215  1.00  0.00    -0.237 OA
ATOM     91  O   UNL A   1      46.120  36.905  26.437  1.00  0.00    -0.744 OA
ENDBRANCH  84  88
ENDBRANCH  58  81
ENDBRANCH  32  33
ENDBRANCH  25  27
ENDBRANCH  24  25
ENDBRANCH  23  24
ENDBRANCH   1  23
TORSDOF 19
ENDMDL
MODEL 2
REMARK VINA RESULT:     -11.1      4.995      7.650
REMARK SMILES CC1(C)CCC[C@@]1(CC(=O)OCCOCCOC(=O)c1ccc(-c2c3nc(c(-c4cc(S(=O)(=O)[O-])ccc4F)c4ccc([nH]4)c(-c4cc(S(=O)(=O)[O-])ccc4F)c4nc(c(-c5cc(S(=O)(=O)[O-])ccc5F)c5ccc2[nH]5)C=C4)C=C3)cc1)[NH+]1CCCCC1
REMARK SMILES IDX 15 1 14 2 13 3 12 4 11 5 9 6 10 7 8 8 7 9 1 10 2 11 3 12
REMARK SMILES IDX 4 13 5 14 6 15 83 16 84 17 88 18 85 20 87 21 86 22 16 23
REMARK SMILES IDX 17 24 18 25 19 26 20 27 21 28 82 29 22 30 81 31 23 32 24 33
REMARK SMILES IDX 25 34 75 35 26 36 80 37 74 38 76 39 27 40 79 41 73 42 72 43
REMARK SMILES IDX 28 45 60 46 40 47 59 48 41 49 44 50 58 51 77 52 42 53 43 54
REMARK SMILES IDX 57 56 78 57 45 58 29 59 30 60 38 61 31 62 37 63 39 64 36 65
REMARK SMILES IDX 32 66 33 67 34 68 35 69 61 70 62 71 70 72 63 73 69 74 71 75
REMARK SMILES IDX 68 76 64 77 65 78 66 79 67 80 46 81 47 82 55 83 48 84 54 85
REMARK SMILES IDX 56 86 53 87 49 88 50 89 51 90 52 91
REMARK H PARENT 83 19 76 44 44 55
REMARK Flexibility Score: inf
ROOT
ATOM      1  C   UNL A   1      31.100  29.477  24.588  1.00  0.00     0.202 C 
ENDROOT
BRANCH   1   2
ATOM      2  O   UNL A   1      32.015  28.430  24.281  1.00  0.00    -0.374 OA
BRANCH   2   3
ATOM      3  C   UNL A   1      31.740  27.631  23.123  1.00  0.00     0.202 C 
BRANCH   3   4
ATOM      4  C   UNL A   1      32.858  26.698  22.638  1.00  0.00     0.261 C 
BRANCH   4   5
ATOM      5  O   UNL A   1      32.366  25.377  22.338  1.00  0.00    -0.463 OA
BRANCH   5   6
ATOM      6  C   UNL A   1      33.307  24.392  22.374  1.00  0.00     0.312 C 
ATOM      7  O   UNL A   1      33.563  23.650  21.436  1.00  0.00    -0.252 OA
BRANCH   6   8
ATOM      8  C   UNL A   1      34.133  24.463  23.651  1.00  0.00     0.191 C 
BRANCH   8   9
ATOM      9  C   UNL A   1      34.167  23.254  24.665  1.00  0.00     0.113 C 
ATOM     10  C   UNL A   1      36.511  23.705  25.835  1.00  0.00     0.018 C 
ATOM     11  C   UNL A   1      35.704  22.807  24.877  1.00  0.00     0.020 C 
ATOM     12  C   UNL A   1      36.539  22.764  23.565  1.00  0.00     0.018 C 
ATOM     13  C   UNL A   1      35.615  21.341  25.352  1.00  0.00     0.013 C 
ATOM     14  C   UNL A   1      34.410  20.761  24.625  1.00  0.00     0.007 C 
ATOM     15  C   UNL A   1      33.577  21.935  24.094  1.00  0.00     0.070 C 
BRANCH   9  16
ATOM     16  N   UNL A   1      33.454  23.692  25.936  1.00  0.00    -0.329 N 
ATOM     17  C   UNL A   1      32.628  22.783  26.740  1.00  0.00     0.262 C 
ATOM     18  C   UNL A   1      32.857  25.040  26.013  1.00  0.00     0.262 C 
ATOM     19  H   UNL A   1      34.377  23.678  26.371  1.00  0.00     0.348 HD
ATOM     20  C   UNL A   1      31.138  22.763  26.394  1.00  0.00     0.062 C 
ATOM     21  C   UNL A   1      31.360  25.140  25.691  1.00  0.00     0.062 C 
ATOM     22  C   UNL A   1      30.533  24.153  26.493  1.00  0.00     0.012 C 
ENDBRANCH   9  16
ENDBRANCH   8   9
ENDBRANCH   6   8
ENDBRANCH   5   6
ENDBRANCH   4   5
ENDBRANCH   3   4
ENDBRANCH   2   3
ENDBRANCH   1   2
BRANCH   1  23
ATOM     23  C   UNL A   1      31.443  30.388  25.775  1.00  0.00     0.261 C 
BRANCH  23  24
ATOM     24  O   UNL A   1      32.839  30.440  26.082  1.00  0.00    -0.460 OA
BRANCH  24  25
ATOM     25  C   UNL A   1      33.192  31.393  26.976  1.00  0.00     0.338 C 
ATOM     26  O   UNL A   1      32.574  32.402  27.258  1.00  0.00    -0.246 OA
BRANCH  25  27
ATOM     27  C   UNL A   1      34.479  31.019  27.586  1.00  0.00     0.060 A 
ATOM     28  C   UNL A   1      34.730  29.684  27.921  1.00  0.00     0.016 A 
ATOM     29  C   UNL A   1      35.397  32.019  27.912  1.00  0.00     0.016 A 
ATOM     30  C   UNL A   1      35.897  29.352  28.615  1.00  0.00     0.010 A 
ATOM     31  C   UNL A   1      36.573  31.680  28.589  1.00  0.00     0.010 A 
ATOM     32  C   UNL A   1      36.819  30.350  28.972  1.00  0.00    -0.014 A 
BRANCH  32  33
ATOM     33  C   UNL A   1      37.986  30.013  29.832  1.00  0.00     0.031 A 
ATOM     34  C   UNL A   1      39.013  29.029  29.334  1.00  0.00     0.074 A 
ATOM     35  C   UNL A   1      38.134  30.592  31.039  1.00  0.00     0.049 A 
ATOM     36  N   UNL A   1      40.105  28.605  29.917  1.00  0.00    -0.248 NA
ATOM     37  C   UNL A   1      38.774  28.444  28.006  1.00  0.00     0.031 C 
ATOM     38  C   UNL A   1      37.213  31.566  31.625  1.00  0.00     0.029 A 
ATOM     39  N   UNL A   1      39.113  30.445  31.991  1.00  0.00    -0.354 N 
ATOM     40  C   UNL A   1      40.686  27.706  29.028  1.00  0.00     0.074 A 
ATOM     41  C   UNL A   1      39.805  27.619  27.883  1.00  0.00     0.031 C 
ATOM     42  C   UNL A   1      37.670  31.927  32.836  1.00  0.00     0.029 A 
ATOM     43  C   UNL A   1      38.899  31.191  33.128  1.00  0.00     0.049 A 
ATOM     44  H   UNL A   1      39.896  29.860  31.872  1.00  0.00     0.167 HD
ATOM     45  C   UNL A   1      41.852  27.024  29.151  1.00  0.00     0.034 A 
ATOM     46  C   UNL A   1      39.602  31.260  34.277  1.00  0.00     0.034 A 
ATOM     47  C   UNL A   1      42.722  27.116  30.299  1.00  0.00     0.049 A 
ATOM     48  C   UNL A   1      40.869  30.447  34.409  1.00  0.00     0.074 A 
ATOM     49  C   UNL A   1      43.943  26.496  30.504  1.00  0.00     0.029 A 
ATOM     50  N   UNL A   1      42.458  27.859  31.441  1.00  0.00    -0.354 N 
ATOM     51  N   UNL A   1      41.428  29.640  33.537  1.00  0.00    -0.248 NA
ATOM     52  C   UNL A   1      41.606  30.566  35.676  1.00  0.00     0.031 C 
ATOM     53  C   UNL A   1      44.384  26.811  31.794  1.00  0.00     0.029 A 
ATOM     54  C   UNL A   1      43.475  27.686  32.368  1.00  0.00     0.049 A 
ATOM     55  H   UNL A   1      41.665  28.427  31.573  1.00  0.00     0.167 HD
ATOM     56  C   UNL A   1      42.599  29.183  34.140  1.00  0.00     0.074 A 
ATOM     57  C   UNL A   1      42.672  29.816  35.440  1.00  0.00     0.031 C 
ATOM     58  C   UNL A   1      43.531  28.320  33.663  1.00  0.00     0.034 A 
BRANCH  45  59
ATOM     59  C   UNL A   1      42.236  26.086  28.034  1.00  0.00     0.023 A 
ATOM     60  C   UNL A   1      41.738  24.773  27.963  1.00  0.00     0.031 A 
ATOM     61  C   UNL A   1      43.108  26.518  27.019  1.00  0.00     0.131 A 
ATOM     62  C   UNL A   1      42.151  23.924  26.924  1.00  0.00     0.055 A 
ATOM     63  C   UNL A   1      43.465  25.690  25.953  1.00  0.00     0.041 A 
ATOM     64  F   UNL A   1      43.629  27.755  27.048  1.00  0.00    -0.206 F 
ATOM     65  C   UNL A   1      42.993  24.381  25.906  1.00  0.00     0.022 A 
BRANCH  62  66
ATOM     66  S   UNL A   1      41.652  22.181  26.972  1.00  0.00     0.124 S 
ATOM     67  O   UNL A   1      42.542  21.648  28.001  1.00  0.00    -0.237 OA
ATOM     68  O   UNL A   1      40.241  22.265  27.329  1.00  0.00    -0.237 OA
ATOM     69  O   UNL A   1      41.926  21.708  25.616  1.00  0.00    -0.744 OA
ENDBRANCH  62  66
ENDBRANCH  45  59
BRANCH  46  70
ATOM     70  C   UNL A   1      39.120  32.095  35.418  1.00  0.00     0.023 A 
ATOM     71  C   UNL A   1      39.570  33.413  35.598  1.00  0.00     0.031 A 
ATOM     72  C   UNL A   1      38.262  31.554  36.392  1.00  0.00     0.131 A 
ATOM     73  C   UNL A   1      39.208  34.125  36.754  1.00  0.00     0.055 A 
ATOM     74  C   UNL A   1      37.857  32.285  37.509  1.00  0.00     0.041 A 
ATOM     75  F   UNL A   1      37.803  30.298  36.270  1.00  0.00    -0.206 F 
ATOM     76  C   UNL A   1      38.345  33.574  37.704  1.00  0.00     0.022 A 
BRANCH  73  77
ATOM     77  S   UNL A   1      39.973  35.742  37.055  1.00  0.00     0.124 S 
ATOM     78  O   UNL A   1      41.370  35.377  37.258  1.00  0.00    -0.237 OA
ATOM     79  O   UNL A   1      39.669  36.453  35.818  1.00  0.00    -0.237 OA
ATOM     80  O   UNL A   1      39.276  36.232  38.242  1.00  0.00    -0.744 OA
ENDBRANCH  73  77
ENDBRANCH  46  70
BRANCH  58  81
ATOM     81  C   UNL A   1      44.732  28.052  34.537  1.00  0.00     0.023 A 
ATOM     82  C   UNL A   1      44.754  26.992  35.460  1.00  0.00     0.031 A 
ATOM     83  C   UNL A   1      45.867  28.880  34.453  1.00  0.00     0.131 A 
ATOM     84  C   UNL A   1      45.865  26.820  36.301  1.00  0.00     0.055 A 
ATOM     85  C   UNL A   1      46.992  28.668  35.250  1.00  0.00     0.041 A 
ATOM     86  F   UNL A   1      45.900  29.908  33.589  1.00  0.00    -0.206 F 
ATOM     87  C   UNL A   1      46.990  27.642  36.190  1.00  0.00     0.022 A 
BRANCH  84  88
ATOM     88  S   UNL A   1      45.786  25.559  37.602  1.00  0.00     0.124 S 
ATOM     89  O   UNL A   1      46.845  25.989  38.509  1.00  0.00    -0.237 OA
ATOM     90  O   UNL A   1      44.422  25.708  38.099  1.00  0.00    -0.237 OA
ATOM     91  O   UNL A   1      46.050  24.311  36.887  1.00  0.00    -0.744 OA
ENDBRANCH  84  88
ENDBRANCH  58  81
ENDBRANCH  32  33
ENDBRANCH  25  27
ENDBRANCH  24  25
ENDBRANCH  23  24
ENDBRANCH   1  23
TORSDOF 19
ENDMDL
MODEL 3
REMARK VINA RESULT:     -11.0      1.087      2.185
REMARK SMILES CC1(C)CCC[C@@]1(CC(=O)OCCOCCOC(=O)c1ccc(-c2c3nc(c(-c4cc(S(=O)(=O)[O-])ccc4F)c4ccc([nH]4)c(-c4cc(S(=O)(=O)[O-])ccc4F)c4nc(c(-c5cc(S(=O)(=O)[O-])ccc5F)c5ccc2[nH]5)C=C4)C=C3)cc1)[NH+]1CCCCC1
REMARK SMILES IDX 15 1 14 2 13 3 12 4 11 5 9 6 10 7 8 8 7 9 1 10 2 11 3 12
REMARK SMILES IDX 4 13 5 14 6 15 83 16 84 17 88 18 85 20 87 21 86 22 16 23
REMARK SMILES IDX 17 24 18 25 19 26 20 27 21 28 82 29 22 30 81 31 23 32 24 33
REMARK SMILES IDX 25 34 75 35 26 36 80 37 74 38 76 39 27 40 79 41 73 42 72 43
REMARK SMILES IDX 28 45 60 46 40 47 59 48 41 49 44 50 58 51 77 52 42 53 43 54
REMARK SMILES IDX 57 56 78 57 45 58 29 59 30 60 38 61 31 62 37 63 39 64 36 65
REMARK SMILES IDX 32 66 33 67 34 68 35 69 61 70 62 71 70 72 63 73 69 74 71 75
REMARK SMILES IDX 68 76 64 77 65 78 66 79 67 80 46 81 47 82 55 83 48 84 54 85
REMARK SMILES IDX 56 86 53 87 49 88 50 89 51 90 52 91
REMARK H PARENT 83 19 76 44 44 55
REMARK Flexibility Score: inf
ROOT
ATOM      1  C   UNL A   1      36.065  21.777  24.551  1.00  0.00     0.202 C 
ENDROOT
BRANCH   1   2
ATOM      2  O   UNL A   1      35.744  22.536  23.390  1.00  0.00    -0.374 OA
BRANCH   2   3
ATOM      3  C   UNL A   1      34.382  22.952  23.229  1.00  0.00     0.202 C 
BRANCH   3   4
ATOM      4  C   UNL A   1      34.122  24.462  23.124  1.00  0.00     0.261 C 
BRANCH   4   5
ATOM      5  O   UNL A   1      33.107  24.768  22.148  1.00  0.00    -0.463 OA
BRANCH   5   6
ATOM      6  C   UNL A   1      32.931  26.096  21.901  1.00  0.00     0.312 C 
ATOM      7  O   UNL A   1      33.732  26.795  21.296  1.00  0.00    -0.252 OA
BRANCH   6   8
ATOM      8  C   UNL A   1      31.532  26.552  22.293  1.00  0.00     0.191 C 
BRANCH   8   9
ATOM      9  C   UNL A   1      31.276  27.314  23.650  1.00  0.00     0.113 C 
ATOM     10  C   UNL A   1      29.003  28.558  23.054  1.00  0.00     0.018 C 
ATOM     11  C   UNL A   1      30.515  28.700  23.324  1.00  0.00     0.020 C 
ATOM     12  C   UNL A   1      31.076  29.456  22.085  1.00  0.00     0.018 C 
ATOM     13  C   UNL A   1      30.831  29.606  24.532  1.00  0.00     0.013 C 
ATOM     14  C   UNL A   1      32.242  29.220  24.958  1.00  0.00     0.007 C 
ATOM     15  C   UNL A   1      32.566  27.864  24.318  1.00  0.00     0.070 C 
BRANCH   9  16
ATOM     16  N   UNL A   1      30.514  26.376  24.575  1.00  0.00    -0.329 N 
ATOM     17  C   UNL A   1      30.885  26.165  25.979  1.00  0.00     0.262 C 
ATOM     18  C   UNL A   1      29.980  25.104  24.048  1.00  0.00     0.262 C 
ATOM     19  H   UNL A   1      29.791  27.095  24.589  1.00  0.00     0.348 HD
ATOM     20  C   UNL A   1      31.837  24.998  26.243  1.00  0.00     0.062 C 
ATOM     21  C   UNL A   1      30.851  23.860  24.262  1.00  0.00     0.062 C 
ATOM     22  C   UNL A   1      31.268  23.694  25.711  1.00  0.00     0.012 C 
ENDBRANCH   9  16
ENDBRANCH   8   9
ENDBRANCH   6   8
ENDBRANCH   5   6
ENDBRANCH   4   5
ENDBRANCH   3   4
ENDBRANCH   2   3
ENDBRANCH   1   2
BRANCH   1  23
ATOM     23  C   UNL A   1      37.491  21.217  24.656  1.00  0.00     0.261 C 
BRANCH  23  24
ATOM     24  O   UNL A   1      37.930  20.999  26.000  1.00  0.00    -0.460 OA
BRANCH  24  25
ATOM     25  C   UNL A   1      39.273  20.996  26.167  1.00  0.00     0.338 C 
ATOM     26  O   UNL A   1      40.041  20.079  25.946  1.00  0.00    -0.246 OA
BRANCH  25  27
ATOM     27  C   UNL A   1      39.692  22.315  26.672  1.00  0.00     0.060 A 
ATOM     28  C   UNL A   1      39.082  23.475  26.180  1.00  0.00     0.016 A 
ATOM     29  C   UNL A   1      40.760  22.397  27.567  1.00  0.00     0.016 A 
ATOM     30  C   UNL A   1      39.568  24.728  26.565  1.00  0.00     0.010 A 
ATOM     31  C   UNL A   1      41.229  23.653  27.965  1.00  0.00     0.010 A 
ATOM     32  C   UNL A   1      40.658  24.827  27.446  1.00  0.00    -0.014 A 
BRANCH  32  33
ATOM     33  C   UNL A   1      41.259  26.156  27.739  1.00  0.00     0.031 A 
ATOM     34  C   UNL A   1      42.630  26.484  27.205  1.00  0.00     0.074 A 
ATOM     35  C   UNL A   1      40.580  27.068  28.463  1.00  0.00     0.049 A 
ATOM     36  N   UNL A   1      43.329  27.583  27.334  1.00  0.00    -0.248 NA
ATOM     37  C   UNL A   1      43.300  25.433  26.424  1.00  0.00     0.031 C 
ATOM     38  C   UNL A   1      39.245  26.871  29.025  1.00  0.00     0.029 A 
ATOM     39  N   UNL A   1      40.921  28.340  28.852  1.00  0.00    -0.354 N 
ATOM     40  C   UNL A   1      44.520  27.358  26.652  1.00  0.00     0.074 A 
ATOM     41  C   UNL A   1      44.462  26.005  26.141  1.00  0.00     0.031 C 
ATOM     42  C   UNL A   1      38.880  27.982  29.688  1.00  0.00     0.029 A 
ATOM     43  C   UNL A   1      39.965  28.960  29.624  1.00  0.00     0.049 A 
ATOM     44  H   UNL A   1      41.771  28.770  28.601  1.00  0.00     0.167 HD
ATOM     45  C   UNL A   1      45.561  28.206  26.460  1.00  0.00     0.034 A 
ATOM     46  C   UNL A   1      39.970  30.167  30.225  1.00  0.00     0.034 A 
ATOM     47  C   UNL A   1      45.610  29.553  26.976  1.00  0.00     0.049 A 
ATOM     48  C   UNL A   1      41.167  31.071  30.039  1.00  0.00     0.074 A 
ATOM     49  C   UNL A   1      46.601  30.505  26.805  1.00  0.00     0.029 A 
ATOM     50  N   UNL A   1      44.636  30.134  27.777  1.00  0.00    -0.354 N 
ATOM     51  N   UNL A   1      42.264  30.860  29.349  1.00  0.00    -0.248 NA
ATOM     52  C   UNL A   1      41.120  32.382  30.704  1.00  0.00     0.031 C 
ATOM     53  C   UNL A   1      46.259  31.634  27.556  1.00  0.00     0.029 A 
ATOM     54  C   UNL A   1      45.019  31.418  28.136  1.00  0.00     0.049 A 
ATOM     55  H   UNL A   1      43.796  29.700  28.048  1.00  0.00     0.167 HD
ATOM     56  C   UNL A   1      43.019  32.024  29.471  1.00  0.00     0.074 A 
ATOM     57  C   UNL A   1      42.247  32.938  30.286  1.00  0.00     0.031 C 
ATOM     58  C   UNL A   1      44.240  32.315  28.955  1.00  0.00     0.034 A 
BRANCH  45  59
ATOM     59  C   UNL A   1      46.753  27.689  25.692  1.00  0.00     0.023 A 
ATOM     60  C   UNL A   1      46.964  28.017  24.342  1.00  0.00     0.031 A 
ATOM     61  C   UNL A   1      47.697  26.864  26.328  1.00  0.00     0.131 A 
ATOM     62  C   UNL A   1      48.069  27.484  23.658  1.00  0.00     0.055 A 
ATOM     63  C   UNL A   1      48.827  26.389  25.660  1.00  0.00     0.041 A 
ATOM     64  F   UNL A   1      47.535  26.503  27.611  1.00  0.00    -0.206 F 
ATOM     65  C   UNL A   1      49.014  26.691  24.314  1.00  0.00     0.022 A 
BRANCH  62  66
ATOM     66  S   UNL A   1      48.203  27.760  21.870  1.00  0.00     0.124 S 
ATOM     67  O   UNL A   1      48.471  26.409  21.383  1.00  0.00    -0.237 OA
ATOM     68  O   UNL A   1      46.895  28.312  21.536  1.00  0.00    -0.237 OA
ATOM     69  O   UNL A   1      49.323  28.692  21.750  1.00  0.00    -0.744 OA
ENDBRANCH  62  66
ENDBRANCH  45  59
BRANCH  46  70
ATOM     70  C   UNL A   1      38.831  30.594  31.091  1.00  0.00     0.023 A 
ATOM     71  C   UNL A   1      37.689  31.202  30.547  1.00  0.00     0.031 A 
ATOM     72  C   UNL A   1      38.908  30.472  32.491  1.00  0.00     0.131 A 
ATOM     73  C   UNL A   1      36.696  31.717  31.398  1.00  0.00     0.055 A 
ATOM     74  C   UNL A   1      37.893  30.932  33.330  1.00  0.00     0.041 A 
ATOM     75  F   UNL A   1      39.979  29.901  33.064  1.00  0.00    -0.206 F 
ATOM     76  C   UNL A   1      36.786  31.575  32.785  1.00  0.00     0.022 A 
BRANCH  73  77
ATOM     77  S   UNL A   1      35.340  32.677  30.671  1.00  0.00     0.124 S 
ATOM     78  O   UNL A   1      34.290  32.515  31.669  1.00  0.00    -0.237 OA
ATOM     79  O   UNL A   1      35.932  34.007  30.573  1.00  0.00    -0.237 OA
ATOM     80  O   UNL A   1      35.096  32.009  29.394  1.00  0.00    -0.744 OA
ENDBRANCH  73  77
ENDBRANCH  46  70
BRANCH  58  81
ATOM     81  C   UNL A   1      44.789  33.696  29.221  1.00  0.00     0.023 A 
ATOM     82  C   UNL A   1      44.481  34.788  28.391  1.00  0.00     0.031 A 
ATOM     83  C   UNL A   1      45.644  33.918  30.316  1.00  0.00     0.131 A 
ATOM     84  C   UNL A   1      45.066  36.040  28.637  1.00  0.00     0.055 A 
ATOM     85  C   UNL A   1      46.176  35.178  30.590  1.00  0.00     0.041 A 
ATOM     86  F   UNL A   1      45.972  32.910  31.141  1.00  0.00    -0.206 F 
ATOM     87  C   UNL A   1      45.900  36.245  29.740  1.00  0.00     0.022 A 
BRANCH  84  88
ATOM     88  S   UNL A   1      44.793  37.379  27.444  1.00  0.00     0.124 S 
ATOM     89  O   UNL A   1      44.737  38.552  28.310  1.00  0.00    -0.237 OA
ATOM     90  O   UNL A   1      45.967  37.276  26.584  1.00  0.00    -0.237 OA
ATOM     91  O   UNL A   1      43.527  37.017  26.808  1.00  0.00    -0.744 OA
ENDBRANCH  84  88
ENDBRANCH  58  81
ENDBRANCH  32  33
ENDBRANCH  25  27
ENDBRANCH  24  25
ENDBRANCH  23  24
ENDBRANCH   1  23
TORSDOF 19
ENDMDL
