MODEL 1
REMARK VINA RESULT:     -11.3      0.000      0.000
REMARK SMILES N#Cc1ccccc1S(=O)(=O)N1CCC(C(=O)OCCOCCOC(=O)c2ccc(-c3c4nc(c(-c5cc(S(=O)(=O)[O-])ccc5F)c5ccc([nH]5)c(-c5cc(S(=O)(=O)[O-])ccc5F)c5nc(c(-c6cc(S(=O)(=O)[O-])ccc6F)c6ccc3[nH]6)C=C5)C=C4)cc2)CC1
REMARK SMILES IDX 21 1 20 2 19 3 18 4 16 5 17 6 15 7 12 8 13 9 91 10 14 11
REMARK SMILES IDX 90 12 9 13 10 14 11 15 8 16 3 17 4 18 5 19 7 20 6 21 2 22
REMARK SMILES IDX 1 23 22 24 23 25 24 26 25 27 26 28 27 29 28 30 89 31 29 32
REMARK SMILES IDX 88 33 30 34 31 35 32 36 82 37 33 38 87 39 81 40 83 41 34 42
REMARK SMILES IDX 86 43 80 44 79 45 35 47 67 48 47 49 66 50 48 51 51 52 65 53
REMARK SMILES IDX 84 54 49 55 50 56 64 58 85 59 52 60 36 61 37 62 45 63 38 64
REMARK SMILES IDX 44 65 46 66 43 67 39 68 40 69 41 70 42 71 68 72 69 73 77 74
REMARK SMILES IDX 70 75 76 76 78 77 75 78 71 79 72 80 73 81 74 82 53 83 54 84
REMARK SMILES IDX 62 85 55 86 61 87 63 88 60 89 56 90 57 91 58 92 59 93
REMARK H PARENT 83 46 51 57
REMARK Flexibility Score: inf
ROOT
ATOM      1  O   UNL A   1      32.457  30.781  26.380  1.00  0.00    -0.374 OA
ENDROOT
BRANCH   1   2
ATOM      2  C   UNL A   1      31.912  29.576  25.850  1.00  0.00     0.202 C 
BRANCH   2   3
ATOM      3  C   UNL A   1      31.549  29.524  24.364  1.00  0.00     0.261 C 
BRANCH   3   4
ATOM      4  O   UNL A   1      30.259  28.941  24.146  1.00  0.00    -0.463 OA
BRANCH   4   5
ATOM      5  C   UNL A   1      30.173  28.150  23.049  1.00  0.00     0.309 C 
ATOM      6  O   UNL A   1      29.548  28.412  22.028  1.00  0.00    -0.252 OA
BRANCH   5   7
ATOM      7  C   UNL A   1      30.942  26.860  23.201  1.00  0.00     0.102 C 
ATOM      8  N   UNL A   1      32.170  24.304  22.836  1.00  0.00    -0.198 NA
ATOM      9  C   UNL A   1      30.995  24.367  23.729  1.00  0.00     0.103 C 
ATOM     10  C   UNL A   1      32.703  25.488  22.142  1.00  0.00     0.103 C 
ATOM     11  C   UNL A   1      30.149  25.628  23.618  1.00  0.00     0.032 C 
ATOM     12  C   UNL A   1      31.660  26.559  21.904  1.00  0.00     0.032 C 
BRANCH   8  13
ATOM     13  S   UNL A   1      33.151  22.939  22.941  1.00  0.00     0.244 S 
ATOM     14  O   UNL A   1      34.426  23.303  22.355  1.00  0.00    -0.207 OA
ATOM     15  O   UNL A   1      32.405  21.800  22.453  1.00  0.00    -0.207 OA
BRANCH  13  16
ATOM     16  C   UNL A   1      33.525  22.560  24.645  1.00  0.00     0.100 A 
ATOM     17  C   UNL A   1      33.983  23.428  25.637  1.00  0.00     0.072 A 
ATOM     18  C   UNL A   1      34.267  22.913  26.920  1.00  0.00     0.021 A 
ATOM     19  C   UNL A   1      34.061  21.570  27.228  1.00  0.00     0.001 A 
ATOM     20  C   UNL A   1      33.313  21.203  24.973  1.00  0.00     0.023 A 
ATOM     21  C   UNL A   1      33.568  20.716  26.255  1.00  0.00     0.001 A 
BRANCH  17  22
ATOM     22  C   UNL A   1      34.148  24.838  25.529  1.00  0.00     0.101 C 
ATOM     23  N   UNL A   1      34.143  25.995  25.417  1.00  0.00    -0.192 NA
ENDBRANCH  17  22
ENDBRANCH  13  16
ENDBRANCH   8  13
ENDBRANCH   5   7
ENDBRANCH   4   5
ENDBRANCH   3   4
ENDBRANCH   2   3
ENDBRANCH   1   2
BRANCH   1  24
ATOM     24  C   UNL A   1      31.566  31.799  26.829  1.00  0.00     0.202 C 
BRANCH  24  25
ATOM     25  C   UNL A   1      32.053  33.257  26.890  1.00  0.00     0.261 C 
BRANCH  25  26
ATOM     26  O   UNL A   1      32.458  33.684  28.204  1.00  0.00    -0.460 OA
BRANCH  26  27
ATOM     27  C   UNL A   1      33.623  34.383  28.227  1.00  0.00     0.338 C 
ATOM     28  O   UNL A   1      33.748  35.596  28.196  1.00  0.00    -0.246 OA
BRANCH  27  29
ATOM     29  C   UNL A   1      34.757  33.486  28.518  1.00  0.00     0.060 A 
ATOM     30  C   UNL A   1      34.479  32.287  29.190  1.00  0.00     0.016 A 
ATOM     31  C   UNL A   1      36.073  33.857  28.245  1.00  0.00     0.016 A 
ATOM     32  C   UNL A   1      35.519  31.475  29.632  1.00  0.00     0.010 A 
ATOM     33  C   UNL A   1      37.118  33.042  28.700  1.00  0.00     0.010 A 
ATOM     34  C   UNL A   1      36.846  31.867  29.427  1.00  0.00    -0.014 A 
BRANCH  34  35
ATOM     35  C   UNL A   1      37.940  31.120  30.098  1.00  0.00     0.031 A 
ATOM     36  C   UNL A   1      38.225  31.390  31.552  1.00  0.00     0.074 A 
ATOM     37  C   UNL A   1      38.638  30.181  29.435  1.00  0.00     0.049 A 
ATOM     38  N   UNL A   1      39.161  30.894  32.320  1.00  0.00    -0.248 NA
ATOM     39  C   UNL A   1      37.340  32.352  32.225  1.00  0.00     0.031 C 
ATOM     40  C   UNL A   1      38.409  29.790  28.044  1.00  0.00     0.029 A 
ATOM     41  N   UNL A   1      39.680  29.387  29.840  1.00  0.00    -0.354 N 
ATOM     42  C   UNL A   1      38.986  31.492  33.564  1.00  0.00     0.074 A 
ATOM     43  C   UNL A   1      37.879  32.416  33.434  1.00  0.00     0.031 C 
ATOM     44  C   UNL A   1      39.290  28.832  27.712  1.00  0.00     0.029 A 
ATOM     45  C   UNL A   1      40.178  28.579  28.844  1.00  0.00     0.049 A 
ATOM     46  H   UNL A   1      40.039  29.395  30.757  1.00  0.00     0.167 HD
ATOM     47  C   UNL A   1      39.681  31.281  34.710  1.00  0.00     0.034 A 
ATOM     48  C   UNL A   1      41.247  27.757  28.837  1.00  0.00     0.034 A 
ATOM     49  C   UNL A   1      40.787  30.361  34.818  1.00  0.00     0.049 A 
ATOM     50  C   UNL A   1      42.071  27.618  30.096  1.00  0.00     0.074 A 
ATOM     51  C   UNL A   1      41.549  30.058  35.933  1.00  0.00     0.029 A 
ATOM     52  N   UNL A   1      41.303  29.605  33.772  1.00  0.00    -0.354 N 
ATOM     53  N   UNL A   1      41.895  28.186  31.266  1.00  0.00    -0.248 NA
ATOM     54  C   UNL A   1      43.234  26.724  30.031  1.00  0.00     0.031 C 
ATOM     55  C   UNL A   1      42.580  29.199  35.541  1.00  0.00     0.029 A 
ATOM     56  C   UNL A   1      42.400  28.876  34.206  1.00  0.00     0.049 A 
ATOM     57  H   UNL A   1      40.941  29.590  32.856  1.00  0.00     0.167 HD
ATOM     58  C   UNL A   1      42.905  27.687  32.087  1.00  0.00     0.074 A 
ATOM     59  C   UNL A   1      43.672  26.762  31.280  1.00  0.00     0.031 C 
ATOM     60  C   UNL A   1      43.168  27.963  33.390  1.00  0.00     0.034 A 
BRANCH  47  61
ATOM     61  C   UNL A   1      39.303  32.104  35.919  1.00  0.00     0.023 A 
ATOM     62  C   UNL A   1      38.531  31.576  36.969  1.00  0.00     0.031 A 
ATOM     63  C   UNL A   1      39.708  33.448  36.016  1.00  0.00     0.131 A 
ATOM     64  C   UNL A   1      38.129  32.404  38.029  1.00  0.00     0.055 A 
ATOM     65  C   UNL A   1      39.381  34.241  37.118  1.00  0.00     0.041 A 
ATOM     66  F   UNL A   1      40.424  34.018  35.034  1.00  0.00    -0.206 F 
ATOM     67  C   UNL A   1      38.575  33.725  38.126  1.00  0.00     0.022 A 
BRANCH  64  68
ATOM     68  S   UNL A   1      36.889  31.778  39.196  1.00  0.00     0.124 S 
ATOM     69  O   UNL A   1      37.539  32.030  40.480  1.00  0.00    -0.237 OA
ATOM     70  O   UNL A   1      35.728  32.606  38.894  1.00  0.00    -0.237 OA
ATOM     71  O   UNL A   1      36.762  30.367  38.836  1.00  0.00    -0.744 OA
ENDBRANCH  64  68
ENDBRANCH  47  61
BRANCH  48  72
ATOM     72  C   UNL A   1      41.636  27.034  27.590  1.00  0.00     0.023 A 
ATOM     73  C   UNL A   1      41.477  25.645  27.475  1.00  0.00     0.031 A 
ATOM     74  C   UNL A   1      42.232  27.719  26.516  1.00  0.00     0.131 A 
ATOM     75  C   UNL A   1      41.956  24.978  26.336  1.00  0.00     0.055 A 
ATOM     76  C   UNL A   1      42.644  27.059  25.356  1.00  0.00     0.041 A 
ATOM     77  F   UNL A   1      42.417  29.047  26.573  1.00  0.00    -0.206 F 
ATOM     78  C   UNL A   1      42.521  25.677  25.268  1.00  0.00     0.022 A 
BRANCH  75  79
ATOM     79  S   UNL A   1      41.932  23.164  26.321  1.00  0.00     0.124 S 
ATOM     80  O   UNL A   1      40.503  22.887  26.416  1.00  0.00    -0.237 OA
ATOM     81  O   UNL A   1      42.559  22.864  25.038  1.00  0.00    -0.237 OA
ATOM     82  O   UNL A   1      42.718  22.804  27.498  1.00  0.00    -0.744 OA
ENDBRANCH  75  79
ENDBRANCH  48  72
BRANCH  60  83
ATOM     83  C   UNL A   1      44.308  27.212  34.041  1.00  0.00     0.023 A 
ATOM     84  C   UNL A   1      44.172  25.883  34.481  1.00  0.00     0.031 A 
ATOM     85  C   UNL A   1      45.552  27.843  34.231  1.00  0.00     0.131 A 
ATOM     86  C   UNL A   1      45.236  25.253  35.144  1.00  0.00     0.055 A 
ATOM     87  C   UNL A   1      46.632  27.184  34.821  1.00  0.00     0.041 A 
ATOM     88  F   UNL A   1      45.741  29.113  33.839  1.00  0.00    -0.206 F 
ATOM     89  C   UNL A   1      46.472  25.886  35.296  1.00  0.00     0.022 A 
BRANCH  86  90
ATOM     90  S   UNL A   1      44.947  23.634  35.911  1.00  0.00     0.124 S 
ATOM     91  O   UNL A   1      46.012  22.827  35.325  1.00  0.00    -0.237 OA
ATOM     92  O   UNL A   1      45.083  23.933  37.333  1.00  0.00    -0.237 OA
ATOM     93  O   UNL A   1      43.595  23.286  35.477  1.00  0.00    -0.744 OA
ENDBRANCH  86  90
ENDBRANCH  60  83
ENDBRANCH  34  35
ENDBRANCH  27  29
ENDBRANCH  26  27
ENDBRANCH  25  26
ENDBRANCH  24  25
ENDBRANCH   1  24
TORSDOF 20
ENDMDL
MODEL 2
REMARK VINA RESULT:     -11.1      4.840     10.835
REMARK SMILES N#Cc1ccccc1S(=O)(=O)N1CCC(C(=O)OCCOCCOC(=O)c2ccc(-c3c4nc(c(-c5cc(S(=O)(=O)[O-])ccc5F)c5ccc([nH]5)c(-c5cc(S(=O)(=O)[O-])ccc5F)c5nc(c(-c6cc(S(=O)(=O)[O-])ccc6F)c6ccc3[nH]6)C=C5)C=C4)cc2)CC1
REMARK SMILES IDX 21 1 20 2 19 3 18 4 16 5 17 6 15 7 12 8 13 9 91 10 14 11
REMARK SMILES IDX 90 12 9 13 10 14 11 15 8 16 3 17 4 18 5 19 7 20 6 21 2 22
REMARK SMILES IDX 1 23 22 24 23 25 24 26 25 27 26 28 27 29 28 30 89 31 29 32
REMARK SMILES IDX 88 33 30 34 31 35 32 36 82 37 33 38 87 39 81 40 83 41 34 42
REMARK SMILES IDX 86 43 80 44 79 45 35 47 67 48 47 49 66 50 48 51 51 52 65 53
REMARK SMILES IDX 84 54 49 55 50 56 64 58 85 59 52 60 36 61 37 62 45 63 38 64
REMARK SMILES IDX 44 65 46 66 43 67 39 68 40 69 41 70 42 71 68 72 69 73 77 74
REMARK SMILES IDX 70 75 76 76 78 77 75 78 71 79 72 80 73 81 74 82 53 83 54 84
REMARK SMILES IDX 62 85 55 86 61 87 63 88 60 89 56 90 57 91 58 92 59 93
REMARK H PARENT 83 46 51 57
REMARK Flexibility Score: inf
ROOT
ATOM      1  O   UNL A   1      36.355  20.708  25.147  1.00  0.00    -0.374 OA
ENDROOT
BRANCH   1   2
ATOM      2  C   UNL A   1      35.512  21.635  25.822  1.00  0.00     0.202 C 
BRANCH   2   3
ATOM      3  C   UNL A   1      34.082  21.834  25.315  1.00  0.00     0.261 C 
BRANCH   3   4
ATOM      4  O   UNL A   1      34.004  21.772  23.886  1.00  0.00    -0.463 OA
BRANCH   4   5
ATOM      5  C   UNL A   1      34.475  22.869  23.244  1.00  0.00     0.309 C 
ATOM      6  O   UNL A   1      35.490  22.912  22.558  1.00  0.00    -0.252 OA
BRANCH   5   7
ATOM      7  C   UNL A   1      33.609  24.086  23.461  1.00  0.00     0.102 C 
ATOM      8  N   UNL A   1      31.750  26.244  23.220  1.00  0.00    -0.198 NA
ATOM      9  C   UNL A   1      33.187  26.581  23.158  1.00  0.00     0.103 C 
ATOM     10  C   UNL A   1      31.266  24.864  23.389  1.00  0.00     0.103 C 
ATOM     11  C   UNL A   1      34.129  25.409  22.915  1.00  0.00     0.032 C 
ATOM     12  C   UNL A   1      32.238  23.824  22.876  1.00  0.00     0.032 C 
BRANCH   8  13
ATOM     13  S   UNL A   1      30.671  27.504  23.513  1.00  0.00     0.244 S 
ATOM     14  O   UNL A   1      29.406  26.890  23.862  1.00  0.00    -0.207 OA
ATOM     15  O   UNL A   1      30.765  28.450  22.422  1.00  0.00    -0.207 OA
BRANCH  13  16
ATOM     16  C   UNL A   1      31.149  28.419  24.970  1.00  0.00     0.100 A 
ATOM     17  C   UNL A   1      31.469  27.917  26.232  1.00  0.00     0.072 A 
ATOM     18  C   UNL A   1      31.775  28.822  27.271  1.00  0.00     0.021 A 
ATOM     19  C   UNL A   1      31.807  30.198  27.054  1.00  0.00     0.001 A 
ATOM     20  C   UNL A   1      31.193  29.815  24.761  1.00  0.00     0.023 A 
ATOM     21  C   UNL A   1      31.530  30.694  25.790  1.00  0.00     0.001 A 
BRANCH  17  22
ATOM     22  C   UNL A   1      31.587  26.547  26.603  1.00  0.00     0.101 C 
ATOM     23  N   UNL A   1      31.545  25.418  26.875  1.00  0.00    -0.192 NA
ENDBRANCH  17  22
ENDBRANCH  13  16
ENDBRANCH   8  13
ENDBRANCH   5   7
ENDBRANCH   4   5
ENDBRANCH   3   4
ENDBRANCH   2   3
ENDBRANCH   1   2
BRANCH   1  24
ATOM     24  C   UNL A   1      37.756  20.963  25.097  1.00  0.00     0.202 C 
BRANCH  24  25
ATOM     25  C   UNL A   1      38.740  19.883  25.579  1.00  0.00     0.261 C 
BRANCH  25  26
ATOM     26  O   UNL A   1      40.117  20.302  25.581  1.00  0.00    -0.460 OA
BRANCH  26  27
ATOM     27  C   UNL A   1      40.678  20.362  26.817  1.00  0.00     0.338 C 
ATOM     28  O   UNL A   1      41.185  19.440  27.434  1.00  0.00    -0.246 OA
BRANCH  27  29
ATOM     29  C   UNL A   1      40.801  21.764  27.261  1.00  0.00     0.060 A 
ATOM     30  C   UNL A   1      40.302  22.759  26.409  1.00  0.00     0.016 A 
ATOM     31  C   UNL A   1      41.489  22.105  28.424  1.00  0.00     0.016 A 
ATOM     32  C   UNL A   1      40.527  24.102  26.695  1.00  0.00     0.010 A 
ATOM     33  C   UNL A   1      41.723  23.457  28.704  1.00  0.00     0.010 A 
ATOM     34  C   UNL A   1      41.275  24.460  27.823  1.00  0.00    -0.014 A 
BRANCH  34  35
ATOM     35  C   UNL A   1      41.706  25.870  27.994  1.00  0.00     0.031 A 
ATOM     36  C   UNL A   1      43.034  26.304  27.431  1.00  0.00     0.074 A 
ATOM     37  C   UNL A   1      40.906  26.763  28.603  1.00  0.00     0.049 A 
ATOM     38  N   UNL A   1      43.629  27.466  27.509  1.00  0.00    -0.248 NA
ATOM     39  C   UNL A   1      43.791  25.288  26.685  1.00  0.00     0.031 C 
ATOM     40  C   UNL A   1      39.573  26.474  29.133  1.00  0.00     0.029 A 
ATOM     41  N   UNL A   1      41.096  28.093  28.881  1.00  0.00    -0.354 N 
ATOM     42  C   UNL A   1      44.837  27.319  26.834  1.00  0.00     0.074 A 
ATOM     43  C   UNL A   1      44.903  25.943  26.388  1.00  0.00     0.031 C 
ATOM     44  C   UNL A   1      39.069  27.594  29.675  1.00  0.00     0.029 A 
ATOM     45  C   UNL A   1      40.059  28.664  29.580  1.00  0.00     0.049 A 
ATOM     46  H   UNL A   1      41.899  28.592  28.605  1.00  0.00     0.167 HD
ATOM     47  C   UNL A   1      45.796  28.250  26.601  1.00  0.00     0.034 A 
ATOM     48  C   UNL A   1      39.937  29.898  30.112  1.00  0.00     0.034 A 
ATOM     49  C   UNL A   1      45.714  29.616  27.061  1.00  0.00     0.049 A 
ATOM     50  C   UNL A   1      41.065  30.887  29.931  1.00  0.00     0.074 A 
ATOM     51  C   UNL A   1      46.619  30.645  26.867  1.00  0.00     0.029 A 
ATOM     52  N   UNL A   1      44.676  30.142  27.821  1.00  0.00    -0.354 N 
ATOM     53  N   UNL A   1      42.200  30.738  29.289  1.00  0.00    -0.248 NA
ATOM     54  C   UNL A   1      40.890  32.210  30.543  1.00  0.00     0.031 C 
ATOM     55  C   UNL A   1      46.178  31.759  27.587  1.00  0.00     0.029 A 
ATOM     56  C   UNL A   1      44.944  31.465  28.142  1.00  0.00     0.049 A 
ATOM     57  H   UNL A   1      43.869  29.648  28.091  1.00  0.00     0.167 HD
ATOM     58  C   UNL A   1      42.858  31.962  29.390  1.00  0.00     0.074 A 
ATOM     59  C   UNL A   1      41.983  32.840  30.140  1.00  0.00     0.031 C 
ATOM     60  C   UNL A   1      44.070  32.331  28.901  1.00  0.00     0.034 A 
BRANCH  47  61
ATOM     61  C   UNL A   1      47.040  27.806  25.869  1.00  0.00     0.023 A 
ATOM     62  C   UNL A   1      47.225  28.052  24.497  1.00  0.00     0.031 A 
ATOM     63  C   UNL A   1      48.052  27.107  26.552  1.00  0.00     0.131 A 
ATOM     64  C   UNL A   1      48.356  27.543  23.840  1.00  0.00     0.055 A 
ATOM     65  C   UNL A   1      49.218  26.682  25.911  1.00  0.00     0.041 A 
ATOM     66  F   UNL A   1      47.922  26.817  27.855  1.00  0.00    -0.206 F 
ATOM     67  C   UNL A   1      49.368  26.885  24.544  1.00  0.00     0.022 A 
BRANCH  64  68
ATOM     68  S   UNL A   1      48.411  27.612  22.028  1.00  0.00     0.124 S 
ATOM     69  O   UNL A   1      47.095  28.165  21.715  1.00  0.00    -0.237 OA
ATOM     70  O   UNL A   1      49.548  28.491  21.781  1.00  0.00    -0.237 OA
ATOM     71  O   UNL A   1      48.602  26.217  21.638  1.00  0.00    -0.744 OA
ENDBRANCH  64  68
ENDBRANCH  47  61
BRANCH  48  72
ATOM     72  C   UNL A   1      38.727  30.262  30.907  1.00  0.00     0.023 A 
ATOM     73  C   UNL A   1      37.659  30.963  30.327  1.00  0.00     0.031 A 
ATOM     74  C   UNL A   1      38.650  29.965  32.280  1.00  0.00     0.131 A 
ATOM     75  C   UNL A   1      36.586  31.390  31.126  1.00  0.00     0.055 A 
ATOM     76  C   UNL A   1      37.548  30.332  33.055  1.00  0.00     0.041 A 
ATOM     77  F   UNL A   1      39.646  29.304  32.891  1.00  0.00    -0.206 F 
ATOM     78  C   UNL A   1      36.515  31.063  32.481  1.00  0.00     0.022 A 
BRANCH  75  79
ATOM     79  S   UNL A   1      35.337  32.480  30.388  1.00  0.00     0.124 S 
ATOM     80  O   UNL A   1      34.920  31.705  29.225  1.00  0.00    -0.237 OA
ATOM     81  O   UNL A   1      34.361  32.594  31.466  1.00  0.00    -0.237 OA
ATOM     82  O   UNL A   1      36.084  33.700  30.093  1.00  0.00    -0.744 OA
ENDBRANCH  75  79
ENDBRANCH  48  72
BRANCH  60  83
ATOM     83  C   UNL A   1      44.499  33.764  29.118  1.00  0.00     0.023 A 
ATOM     84  C   UNL A   1      43.966  34.825  28.366  1.00  0.00     0.031 A 
ATOM     85  C   UNL A   1      45.467  34.071  30.092  1.00  0.00     0.131 A 
ATOM     86  C   UNL A   1      44.448  36.129  28.555  1.00  0.00     0.055 A 
ATOM     87  C   UNL A   1      45.887  35.381  30.330  1.00  0.00     0.041 A 
ATOM     88  F   UNL A   1      46.020  33.100  30.837  1.00  0.00    -0.206 F 
ATOM     89  C   UNL A   1      45.388  36.417  29.547  1.00  0.00     0.022 A 
BRANCH  86  90
ATOM     90  S   UNL A   1      43.918  37.429  27.404  1.00  0.00     0.124 S 
ATOM     91  O   UNL A   1      43.268  38.379  28.302  1.00  0.00    -0.237 OA
ATOM     92  O   UNL A   1      45.181  37.865  26.821  1.00  0.00    -0.237 OA
ATOM     93  O   UNL A   1      43.019  36.729  26.487  1.00  0.00    -0.744 OA
ENDBRANCH  86  90
ENDBRANCH  60  83
ENDBRANCH  34  35
ENDBRANCH  27  29
ENDBRANCH  26  27
ENDBRANCH  25  26
ENDBRANCH  24  25
ENDBRANCH   1  24
TORSDOF 20
ENDMDL
MODEL 3
REMARK VINA RESULT:     -10.9      1.842      2.317
REMARK SMILES N#Cc1ccccc1S(=O)(=O)N1CCC(C(=O)OCCOCCOC(=O)c2ccc(-c3c4nc(c(-c5cc(S(=O)(=O)[O-])ccc5F)c5ccc([nH]5)c(-c5cc(S(=O)(=O)[O-])ccc5F)c5nc(c(-c6cc(S(=O)(=O)[O-])ccc6F)c6ccc3[nH]6)C=C5)C=C4)cc2)CC1
REMARK SMILES IDX 21 1 20 2 19 3 18 4 16 5 17 6 15 7 12 8 13 9 91 10 14 11
REMARK SMILES IDX 90 12 9 13 10 14 11 15 8 16 3 17 4 18 5 19 7 20 6 21 2 22
REMARK SMILES IDX 1 23 22 24 23 25 24 26 25 27 26 28 27 29 28 30 89 31 29 32
REMARK SMILES IDX 88 33 30 34 31 35 32 36 82 37 33 38 87 39 81 40 83 41 34 42
REMARK SMILES IDX 86 43 80 44 79 45 35 47 67 48 47 49 66 50 48 51 51 52 65 53
REMARK SMILES IDX 84 54 49 55 50 56 64 58 85 59 52 60 36 61 37 62 45 63 38 64
REMARK SMILES IDX 44 65 46 66 43 67 39 68 40 69 41 70 42 71 68 72 69 73 77 74
REMARK SMILES IDX 70 75 76 76 78 77 75 78 71 79 72 80 73 81 74 82 53 83 54 84
REMARK SMILES IDX 62 85 55 86 61 87 63 88 60 89 56 90 57 91 58 92 59 93
REMARK H PARENT 83 46 51 57
REMARK Flexibility Score: inf
ROOT
ATOM      1  O   UNL A   1      30.836  30.845  25.300  1.00  0.00    -0.374 OA
ENDROOT
BRANCH   1   2
ATOM      2  C   UNL A   1      31.055  29.617  24.612  1.00  0.00     0.202 C 
BRANCH   2   3
ATOM      3  C   UNL A   1      30.253  29.334  23.340  1.00  0.00     0.261 C 
BRANCH   3   4
ATOM      4  O   UNL A   1      30.367  27.967  22.925  1.00  0.00    -0.463 OA
BRANCH   4   5
ATOM      5  C   UNL A   1      29.424  27.139  23.436  1.00  0.00     0.309 C 
ATOM      6  O   UNL A   1      28.218  27.358  23.456  1.00  0.00    -0.252 OA
BRANCH   5   7
ATOM      7  C   UNL A   1      30.012  25.873  24.009  1.00  0.00     0.102 C 
ATOM      8  N   UNL A   1      31.528  23.925  25.451  1.00  0.00    -0.198 NA
ATOM      9  C   UNL A   1      31.824  24.081  24.013  1.00  0.00     0.103 C 
ATOM     10  C   UNL A   1      30.507  24.730  26.142  1.00  0.00     0.103 C 
ATOM     11  C   UNL A   1      31.288  25.349  23.363  1.00  0.00     0.032 C 
ATOM     12  C   UNL A   1      30.263  26.072  25.488  1.00  0.00     0.032 C 
BRANCH   8  13
ATOM     13  S   UNL A   1      32.079  22.524  26.209  1.00  0.00     0.244 S 
ATOM     14  O   UNL A   1      31.374  21.418  25.592  1.00  0.00    -0.207 OA
ATOM     15  O   UNL A   1      32.035  22.731  27.640  1.00  0.00    -0.207 OA
BRANCH  13  16
ATOM     16  C   UNL A   1      33.799  22.236  25.829  1.00  0.00     0.100 A 
ATOM     17  C   UNL A   1      34.366  21.124  25.205  1.00  0.00     0.072 A 
ATOM     18  C   UNL A   1      35.767  21.071  25.041  1.00  0.00     0.021 A 
ATOM     19  C   UNL A   1      36.589  22.119  25.448  1.00  0.00     0.001 A 
ATOM     20  C   UNL A   1      34.643  23.295  26.230  1.00  0.00     0.023 A 
ATOM     21  C   UNL A   1      36.022  23.242  26.031  1.00  0.00     0.001 A 
BRANCH  17  22
ATOM     22  C   UNL A   1      33.673  20.018  24.636  1.00  0.00     0.101 C 
ATOM     23  N   UNL A   1      33.011  19.210  24.126  1.00  0.00    -0.192 NA
ENDBRANCH  17  22
ENDBRANCH  13  16
ENDBRANCH   8  13
ENDBRANCH   5   7
ENDBRANCH   4   5
ENDBRANCH   3   4
ENDBRANCH   2   3
ENDBRANCH   1   2
BRANCH   1  24
ATOM     24  C   UNL A   1      31.702  31.192  26.377  1.00  0.00     0.202 C 
BRANCH  24  25
ATOM     25  C   UNL A   1      31.590  32.586  27.019  1.00  0.00     0.261 C 
BRANCH  25  26
ATOM     26  O   UNL A   1      32.761  33.405  26.848  1.00  0.00    -0.460 OA
BRANCH  26  27
ATOM     27  C   UNL A   1      33.312  33.836  28.014  1.00  0.00     0.338 C 
ATOM     28  O   UNL A   1      32.810  34.605  28.818  1.00  0.00    -0.246 OA
BRANCH  27  29
ATOM     29  C   UNL A   1      34.540  33.077  28.316  1.00  0.00     0.060 A 
ATOM     30  C   UNL A   1      34.394  31.744  28.726  1.00  0.00     0.016 A 
ATOM     31  C   UNL A   1      35.795  33.684  28.310  1.00  0.00     0.016 A 
ATOM     32  C   UNL A   1      35.497  31.026  29.174  1.00  0.00     0.010 A 
ATOM     33  C   UNL A   1      36.902  32.961  28.771  1.00  0.00     0.010 A 
ATOM     34  C   UNL A   1      36.752  31.641  29.239  1.00  0.00    -0.014 A 
BRANCH  34  35
ATOM     35  C   UNL A   1      37.869  30.949  29.931  1.00  0.00     0.031 A 
ATOM     36  C   UNL A   1      38.169  31.296  31.365  1.00  0.00     0.074 A 
ATOM     37  C   UNL A   1      38.576  29.992  29.304  1.00  0.00     0.049 A 
ATOM     38  N   UNL A   1      39.125  30.857  32.143  1.00  0.00    -0.248 NA
ATOM     39  C   UNL A   1      37.274  32.273  32.003  1.00  0.00     0.031 C 
ATOM     40  C   UNL A   1      38.337  29.529  27.937  1.00  0.00     0.029 A 
ATOM     41  N   UNL A   1      39.640  29.239  29.732  1.00  0.00    -0.354 N 
ATOM     42  C   UNL A   1      38.955  31.511  33.358  1.00  0.00     0.074 A 
ATOM     43  C   UNL A   1      37.829  32.406  33.199  1.00  0.00     0.031 C 
ATOM     44  C   UNL A   1      39.232  28.572  27.640  1.00  0.00     0.029 A 
ATOM     45  C   UNL A   1      40.140  28.393  28.770  1.00  0.00     0.049 A 
ATOM     46  H   UNL A   1      40.011  29.299  30.642  1.00  0.00     0.167 HD
ATOM     47  C   UNL A   1      39.670  31.371  34.503  1.00  0.00     0.034 A 
ATOM     48  C   UNL A   1      41.225  27.592  28.787  1.00  0.00     0.034 A 
ATOM     49  C   UNL A   1      40.795  30.478  34.640  1.00  0.00     0.049 A 
ATOM     50  C   UNL A   1      42.068  27.531  30.039  1.00  0.00     0.074 A 
ATOM     51  C   UNL A   1      41.579  30.245  35.757  1.00  0.00     0.029 A 
ATOM     52  N   UNL A   1      41.312  29.682  33.624  1.00  0.00    -0.354 N 
ATOM     53  N   UNL A   1      41.898  28.153  31.183  1.00  0.00    -0.248 NA
ATOM     54  C   UNL A   1      43.248  26.657  30.002  1.00  0.00     0.031 C 
ATOM     55  C   UNL A   1      42.621  29.388  35.392  1.00  0.00     0.029 A 
ATOM     56  C   UNL A   1      42.429  28.996  34.077  1.00  0.00     0.049 A 
ATOM     57  H   UNL A   1      40.938  29.614  32.716  1.00  0.00     0.167 HD
ATOM     58  C   UNL A   1      42.928  27.714  32.012  1.00  0.00     0.074 A 
ATOM     59  C   UNL A   1      43.703  26.765  31.241  1.00  0.00     0.031 C 
ATOM     60  C   UNL A   1      43.204  28.059  33.297  1.00  0.00     0.034 A 
BRANCH  47  61
ATOM     61  C   UNL A   1      39.292  32.246  35.676  1.00  0.00     0.023 A 
ATOM     62  C   UNL A   1      39.791  33.552  35.821  1.00  0.00     0.031 A 
ATOM     63  C   UNL A   1      38.431  31.758  36.675  1.00  0.00     0.131 A 
ATOM     64  C   UNL A   1      39.483  34.296  36.971  1.00  0.00     0.055 A 
ATOM     65  C   UNL A   1      38.056  32.536  37.772  1.00  0.00     0.041 A 
ATOM     66  F   UNL A   1      37.943  30.510  36.607  1.00  0.00    -0.206 F 
ATOM     67  C   UNL A   1      38.595  33.808  37.933  1.00  0.00     0.022 A 
BRANCH  64  68
ATOM     68  S   UNL A   1      40.384  35.841  37.271  1.00  0.00     0.124 S 
ATOM     69  O   UNL A   1      40.022  36.129  38.657  1.00  0.00    -0.237 OA
ATOM     70  O   UNL A   1      41.769  35.449  37.040  1.00  0.00    -0.237 OA
ATOM     71  O   UNL A   1      39.822  36.761  36.283  1.00  0.00    -0.744 OA
ENDBRANCH  64  68
ENDBRANCH  47  61
BRANCH  48  72
ATOM     72  C   UNL A   1      41.611  26.816  27.572  1.00  0.00     0.023 A 
ATOM     73  C   UNL A   1      41.373  25.436  27.484  1.00  0.00     0.031 A 
ATOM     74  C   UNL A   1      42.283  27.437  26.503  1.00  0.00     0.131 A 
ATOM     75  C   UNL A   1      41.848  24.713  26.378  1.00  0.00     0.055 A 
ATOM     76  C   UNL A   1      42.692  26.725  25.374  1.00  0.00     0.041 A 
ATOM     77  F   UNL A   1      42.546  28.753  26.536  1.00  0.00    -0.206 F 
ATOM     78  C   UNL A   1      42.489  25.351  25.315  1.00  0.00     0.022 A 
BRANCH  75  79
ATOM     79  S   UNL A   1      41.715  22.904  26.404  1.00  0.00     0.124 S 
ATOM     80  O   UNL A   1      42.520  22.533  25.246  1.00  0.00    -0.237 OA
ATOM     81  O   UNL A   1      42.281  22.577  27.709  1.00  0.00    -0.237 OA
ATOM     82  O   UNL A   1      40.280  22.667  26.271  1.00  0.00    -0.744 OA
ENDBRANCH  75  79
ENDBRANCH  48  72
BRANCH  60  83
ATOM     83  C   UNL A   1      44.367  27.362  33.967  1.00  0.00     0.023 A 
ATOM     84  C   UNL A   1      44.247  26.079  34.527  1.00  0.00     0.031 A 
ATOM     85  C   UNL A   1      45.618  28.002  34.053  1.00  0.00     0.131 A 
ATOM     86  C   UNL A   1      45.335  25.504  35.201  1.00  0.00     0.055 A 
ATOM     87  C   UNL A   1      46.719  27.392  34.656  1.00  0.00     0.041 A 
ATOM     88  F   UNL A   1      45.794  29.232  33.544  1.00  0.00    -0.206 F 
ATOM     89  C   UNL A   1      46.576  26.142  35.249  1.00  0.00     0.022 A 
BRANCH  86  90
ATOM     90  S   UNL A   1      45.073  23.961  36.119  1.00  0.00     0.124 S 
ATOM     91  O   UNL A   1      46.336  23.261  35.899  1.00  0.00    -0.237 OA
ATOM     92  O   UNL A   1      44.839  24.440  37.476  1.00  0.00    -0.237 OA
ATOM     93  O   UNL A   1      43.911  23.364  35.462  1.00  0.00    -0.744 OA
ENDBRANCH  86  90
ENDBRANCH  60  83
ENDBRANCH  34  35
ENDBRANCH  27  29
ENDBRANCH  26  27
ENDBRANCH  25  26
ENDBRANCH  24  25
ENDBRANCH   1  24
TORSDOF 20
ENDMDL
