MODEL 1
REMARK VINA RESULT:     -11.2      0.000      0.000
REMARK SMILES COC(=O)c1ccc(C)c2c1[C@H]1C=CC[C@H]1[C@@H](c1ccc(C(=O)OCCOCCOC(=O)c3ccc(-c4c5nc(c(-c6cc(S(=O)(=O)[O-])ccc6F)c6ccc([nH]6)c(-c6cc(S(=O)(=O)[O-])ccc6F)c6nc(c(-c7cc(S(=O)(=O)[O-])ccc7F)c7ccc4[nH]7)C=C6)C=C5)cc3)cc1)N2
REMARK SMILES IDX 27 1 26 2 25 3 24 4 22 5 23 6 21 7 18 8 19 9 97 10 20 11
REMARK SMILES IDX 96 12 17 13 5 14 6 15 11 16 7 17 10 18 12 19 8 20 98 21
REMARK SMILES IDX 13 22 16 23 9 24 14 26 15 27 3 28 4 29 2 30 1 31 28 32 29 33
REMARK SMILES IDX 30 34 31 35 32 36 33 37 34 38 95 39 35 40 94 41 36 42 37 43
REMARK SMILES IDX 38 44 88 45 39 46 93 47 87 48 89 49 40 50 92 51 86 52 85 53
REMARK SMILES IDX 41 55 73 56 53 57 72 58 54 59 57 60 71 61 90 62 55 63 56 64
REMARK SMILES IDX 70 66 91 67 58 68 42 69 43 70 51 71 44 72 50 73 52 74 49 75
REMARK SMILES IDX 45 76 46 77 47 78 48 79 74 80 75 81 83 82 76 83 82 84 84 85
REMARK SMILES IDX 81 86 77 87 78 88 79 89 80 90 59 91 60 92 68 93 61 94 67 95
REMARK SMILES IDX 69 96 66 97 62 98 63 99 64 100 65 101
REMARK H PARENT 98 25 89 54 57 65
REMARK Flexibility Score: inf
ROOT
ATOM      1  O   UNL A   1      34.621  33.111  28.604  1.00  0.00    -0.374 OA
ENDROOT
BRANCH   1   2
ATOM      2  C   UNL A   1      35.695  32.313  28.108  1.00  0.00     0.202 C 
BRANCH   2   3
ATOM      3  C   UNL A   1      35.332  30.932  27.557  1.00  0.00     0.261 C 
BRANCH   3   4
ATOM      4  O   UNL A   1      34.060  30.489  28.051  1.00  0.00    -0.460 OA
BRANCH   4   5
ATOM      5  C   UNL A   1      33.087  30.426  27.112  1.00  0.00     0.338 C 
ATOM      6  O   UNL A   1      32.254  31.282  26.856  1.00  0.00    -0.246 OA
BRANCH   5   7
ATOM      7  C   UNL A   1      33.292  29.240  26.254  1.00  0.00     0.060 A 
ATOM      8  C   UNL A   1      33.631  27.091  24.448  1.00  0.00    -0.025 A 
ATOM      9  C   UNL A   1      33.371  28.397  23.998  1.00  0.00     0.007 A 
ATOM     10  C   UNL A   1      33.760  26.901  25.838  1.00  0.00     0.007 A 
ATOM     11  C   UNL A   1      33.190  29.454  24.882  1.00  0.00     0.016 A 
ATOM     12  C   UNL A   1      33.604  27.968  26.738  1.00  0.00     0.016 A 
BRANCH   8  13
ATOM     13  C   UNL A   1      33.735  25.898  23.488  1.00  0.00     0.114 C 
ATOM     14  C   UNL A   1      32.502  22.796  26.136  1.00  0.00     0.065 A 
ATOM     15  C   UNL A   1      33.429  22.285  27.048  1.00  0.00     0.016 A 
ATOM     16  C   UNL A   1      32.905  23.658  25.092  1.00  0.00    -0.003 A 
ATOM     17  C   UNL A   1      34.773  22.610  26.918  1.00  0.00     0.006 A 
ATOM     18  C   UNL A   1      34.281  23.989  24.965  1.00  0.00     0.042 A 
ATOM     19  C   UNL A   1      31.887  24.240  24.128  1.00  0.00     0.050 C 
ATOM     20  C   UNL A   1      35.215  23.454  25.884  1.00  0.00    -0.028 A 
ATOM     21  N   UNL A   1      34.682  24.913  24.005  1.00  0.00    -0.377 N 
ATOM     22  C   UNL A   1      30.828  25.144  24.715  1.00  0.00    -0.023 C 
ATOM     23  C   UNL A   1      32.466  25.152  23.030  1.00  0.00     0.031 C 
ATOM     24  C   UNL A   1      36.687  23.784  25.879  1.00  0.00     0.046 C 
ATOM     25  H   UNL A   1      35.608  24.902  23.673  1.00  0.00     0.161 HD
ATOM     26  C   UNL A   1      30.500  26.133  23.875  1.00  0.00    -0.030 C 
ATOM     27  C   UNL A   1      31.312  26.075  22.623  1.00  0.00     0.034 C 
BRANCH  14  28
ATOM     28  C   UNL A   1      31.089  22.406  26.310  1.00  0.00     0.338 C 
ATOM     29  O   UNL A   1      30.502  21.591  25.613  1.00  0.00    -0.246 OA
BRANCH  28  30
ATOM     30  O   UNL A   1      30.562  23.151  27.313  1.00  0.00    -0.465 OA
ATOM     31  C   UNL A   1      29.182  22.890  27.565  1.00  0.00     0.282 C 
ENDBRANCH  28  30
ENDBRANCH  14  28
ENDBRANCH   8  13
ENDBRANCH   5   7
ENDBRANCH   4   5
ENDBRANCH   3   4
ENDBRANCH   2   3
ENDBRANCH   1   2
BRANCH   1  32
ATOM     32  C   UNL A   1      34.649  34.506  28.284  1.00  0.00     0.202 C 
BRANCH  32  33
ATOM     33  C   UNL A   1      33.531  35.376  28.873  1.00  0.00     0.261 C 
BRANCH  33  34
ATOM     34  O   UNL A   1      32.957  34.784  30.053  1.00  0.00    -0.460 OA
BRANCH  34  35
ATOM     35  C   UNL A   1      33.134  35.488  31.198  1.00  0.00     0.338 C 
ATOM     36  O   UNL A   1      32.454  36.414  31.609  1.00  0.00    -0.246 OA
BRANCH  35  37
ATOM     37  C   UNL A   1      34.176  34.838  32.012  1.00  0.00     0.060 A 
ATOM     38  C   UNL A   1      35.401  35.502  32.163  1.00  0.00     0.016 A 
ATOM     39  C   UNL A   1      33.982  33.565  32.549  1.00  0.00     0.016 A 
ATOM     40  C   UNL A   1      36.454  34.878  32.826  1.00  0.00     0.010 A 
ATOM     41  C   UNL A   1      35.047  32.932  33.194  1.00  0.00     0.010 A 
ATOM     42  C   UNL A   1      36.295  33.572  33.302  1.00  0.00    -0.014 A 
BRANCH  42  43
ATOM     43  C   UNL A   1      37.482  32.813  33.754  1.00  0.00     0.031 A 
ATOM     44  C   UNL A   1      38.167  33.235  35.023  1.00  0.00     0.074 A 
ATOM     45  C   UNL A   1      37.933  31.757  33.056  1.00  0.00     0.049 A 
ATOM     46  N   UNL A   1      39.234  32.739  35.589  1.00  0.00    -0.248 NA
ATOM     47  C   UNL A   1      37.569  34.368  35.749  1.00  0.00     0.031 C 
ATOM     48  C   UNL A   1      37.325  31.239  31.833  1.00  0.00     0.029 A 
ATOM     49  N   UNL A   1      39.015  30.941  33.270  1.00  0.00    -0.354 N 
ATOM     50  C   UNL A   1      39.436  33.493  36.738  1.00  0.00     0.074 A 
ATOM     51  C   UNL A   1      38.402  34.503  36.771  1.00  0.00     0.031 C 
ATOM     52  C   UNL A   1      38.057  30.202  31.391  1.00  0.00     0.029 A 
ATOM     53  C   UNL A   1      39.200  30.003  32.284  1.00  0.00     0.049 A 
ATOM     54  H   UNL A   1      39.603  31.020  34.057  1.00  0.00     0.167 HD
ATOM     55  C   UNL A   1      40.390  33.345  37.685  1.00  0.00     0.034 A 
ATOM     56  C   UNL A   1      40.189  29.102  32.109  1.00  0.00     0.034 A 
ATOM     57  C   UNL A   1      41.418  32.340  37.637  1.00  0.00     0.049 A 
ATOM     58  C   UNL A   1      41.281  28.994  33.143  1.00  0.00     0.074 A 
ATOM     59  C   UNL A   1      42.420  32.102  38.560  1.00  0.00     0.029 A 
ATOM     60  N   UNL A   1      41.581  31.414  36.618  1.00  0.00    -0.354 N 
ATOM     61  N   UNL A   1      41.433  29.679  34.254  1.00  0.00    -0.248 NA
ATOM     62  C   UNL A   1      42.331  27.991  32.914  1.00  0.00     0.031 C 
ATOM     63  C   UNL A   1      43.222  31.070  38.072  1.00  0.00     0.029 A 
ATOM     64  C   UNL A   1      42.683  30.619  36.877  1.00  0.00     0.049 A 
ATOM     65  H   UNL A   1      41.000  31.335  35.827  1.00  0.00     0.167 HD
ATOM     66  C   UNL A   1      42.575  29.170  34.867  1.00  0.00     0.074 A 
ATOM     67  C   UNL A   1      43.069  28.112  34.012  1.00  0.00     0.031 C 
ATOM     68  C   UNL A   1      43.157  29.549  36.032  1.00  0.00     0.034 A 
BRANCH  55  69
ATOM     69  C   UNL A   1      40.381  34.281  38.863  1.00  0.00     0.023 A 
ATOM     70  C   UNL A   1      39.577  33.994  39.980  1.00  0.00     0.031 A 
ATOM     71  C   UNL A   1      41.069  35.505  38.828  1.00  0.00     0.131 A 
ATOM     72  C   UNL A   1      39.449  34.941  41.004  1.00  0.00     0.055 A 
ATOM     73  C   UNL A   1      40.967  36.430  39.867  1.00  0.00     0.041 A 
ATOM     74  F   UNL A   1      41.854  35.817  37.784  1.00  0.00    -0.206 F 
ATOM     75  C   UNL A   1      40.144  36.155  40.956  1.00  0.00     0.022 A 
BRANCH  72  76
ATOM     76  S   UNL A   1      38.342  34.653  42.410  1.00  0.00     0.124 S 
ATOM     77  O   UNL A   1      38.651  35.790  43.275  1.00  0.00    -0.237 OA
ATOM     78  O   UNL A   1      37.028  34.691  41.775  1.00  0.00    -0.237 OA
ATOM     79  O   UNL A   1      38.760  33.355  42.925  1.00  0.00    -0.744 OA
ENDBRANCH  72  76
ENDBRANCH  55  69
BRANCH  56  80
ATOM     80  C   UNL A   1      40.153  28.219  30.909  1.00  0.00     0.023 A 
ATOM     81  C   UNL A   1      41.046  28.421  29.842  1.00  0.00     0.031 A 
ATOM     82  C   UNL A   1      39.163  27.233  30.769  1.00  0.00     0.131 A 
ATOM     83  C   UNL A   1      40.890  27.692  28.656  1.00  0.00     0.055 A 
ATOM     84  C   UNL A   1      39.051  26.464  29.610  1.00  0.00     0.041 A 
ATOM     85  F   UNL A   1      38.285  27.011  31.760  1.00  0.00    -0.206 F 
ATOM     86  C   UNL A   1      39.908  26.703  28.539  1.00  0.00     0.022 A 
BRANCH  83  87
ATOM     87  S   UNL A   1      41.892  28.074  27.193  1.00  0.00     0.124 S 
ATOM     88  O   UNL A   1      43.047  27.199  27.372  1.00  0.00    -0.237 OA
ATOM     89  O   UNL A   1      40.984  27.707  26.110  1.00  0.00    -0.237 OA
ATOM     90  O   UNL A   1      42.162  29.502  27.324  1.00  0.00    -0.744 OA
ENDBRANCH  83  87
ENDBRANCH  56  80
BRANCH  68  91
ATOM     91  C   UNL A   1      44.396  28.824  36.499  1.00  0.00     0.023 A 
ATOM     92  C   UNL A   1      44.280  27.768  37.425  1.00  0.00     0.031 A 
ATOM     93  C   UNL A   1      45.681  29.287  36.173  1.00  0.00     0.131 A 
ATOM     94  C   UNL A   1      45.429  27.243  38.030  1.00  0.00     0.055 A 
ATOM     95  C   UNL A   1      46.825  28.729  36.745  1.00  0.00     0.041 A 
ATOM     96  F   UNL A   1      45.840  30.298  35.305  1.00  0.00    -0.206 F 
ATOM     97  C   UNL A   1      46.701  27.713  37.690  1.00  0.00     0.022 A 
BRANCH  94  98
ATOM     98  S   UNL A   1      45.308  25.989  39.335  1.00  0.00     0.124 S 
ATOM     99  O   UNL A   1      46.706  25.822  39.726  1.00  0.00    -0.237 OA
ATOM    100  O   UNL A   1      44.459  26.652  40.320  1.00  0.00    -0.237 OA
ATOM    101  O   UNL A   1      44.713  24.837  38.663  1.00  0.00    -0.744 OA
ENDBRANCH  94  98
ENDBRANCH  68  91
ENDBRANCH  42  43
ENDBRANCH  35  37
ENDBRANCH  34  35
ENDBRANCH  33  34
ENDBRANCH  32  33
ENDBRANCH   1  32
TORSDOF 20
ENDMDL
MODEL 2
REMARK VINA RESULT:     -11.1      1.722      2.371
REMARK SMILES COC(=O)c1ccc(C)c2c1[C@H]1C=CC[C@H]1[C@@H](c1ccc(C(=O)OCCOCCOC(=O)c3ccc(-c4c5nc(c(-c6cc(S(=O)(=O)[O-])ccc6F)c6ccc([nH]6)c(-c6cc(S(=O)(=O)[O-])ccc6F)c6nc(c(-c7cc(S(=O)(=O)[O-])ccc7F)c7ccc4[nH]7)C=C6)C=C5)cc3)cc1)N2
REMARK SMILES IDX 27 1 26 2 25 3 24 4 22 5 23 6 21 7 18 8 19 9 97 10 20 11
REMARK SMILES IDX 96 12 17 13 5 14 6 15 11 16 7 17 10 18 12 19 8 20 98 21
REMARK SMILES IDX 13 22 16 23 9 24 14 26 15 27 3 28 4 29 2 30 1 31 28 32 29 33
REMARK SMILES IDX 30 34 31 35 32 36 33 37 34 38 95 39 35 40 94 41 36 42 37 43
REMARK SMILES IDX 38 44 88 45 39 46 93 47 87 48 89 49 40 50 92 51 86 52 85 53
REMARK SMILES IDX 41 55 73 56 53 57 72 58 54 59 57 60 71 61 90 62 55 63 56 64
REMARK SMILES IDX 70 66 91 67 58 68 42 69 43 70 51 71 44 72 50 73 52 74 49 75
REMARK SMILES IDX 45 76 46 77 47 78 48 79 74 80 75 81 83 82 76 83 82 84 84 85
REMARK SMILES IDX 81 86 77 87 78 88 79 89 80 90 59 91 60 92 68 93 61 94 67 95
REMARK SMILES IDX 69 96 66 97 62 98 63 99 64 100 65 101
REMARK H PARENT 98 25 89 54 57 65
REMARK Flexibility Score: inf
ROOT
ATOM      1  O   UNL A   1      32.823  32.042  27.283  1.00  0.00    -0.374 OA
ENDROOT
BRANCH   1   2
ATOM      2  C   UNL A   1      33.958  31.422  27.886  1.00  0.00     0.202 C 
BRANCH   2   3
ATOM      3  C   UNL A   1      34.470  30.135  27.235  1.00  0.00     0.261 C 
BRANCH   3   4
ATOM      4  O   UNL A   1      33.871  28.975  27.830  1.00  0.00    -0.460 OA
BRANCH   4   5
ATOM      5  C   UNL A   1      32.720  28.576  27.240  1.00  0.00     0.338 C 
ATOM      6  O   UNL A   1      31.592  28.975  27.482  1.00  0.00    -0.246 OA
BRANCH   5   7
ATOM      7  C   UNL A   1      33.022  27.719  26.075  1.00  0.00     0.060 A 
ATOM      8  C   UNL A   1      33.679  25.938  23.978  1.00  0.00    -0.025 A 
ATOM      9  C   UNL A   1      33.814  25.569  25.328  1.00  0.00     0.007 A 
ATOM     10  C   UNL A   1      33.160  27.220  23.709  1.00  0.00     0.007 A 
ATOM     11  C   UNL A   1      33.506  26.446  26.362  1.00  0.00     0.016 A 
ATOM     12  C   UNL A   1      32.822  28.103  24.747  1.00  0.00     0.016 A 
BRANCH   8  13
ATOM     13  C   UNL A   1      34.109  25.017  22.828  1.00  0.00     0.114 C 
ATOM     14  C   UNL A   1      33.645  21.254  24.773  1.00  0.00     0.065 A 
ATOM     15  C   UNL A   1      34.650  20.821  25.643  1.00  0.00     0.016 A 
ATOM     16  C   UNL A   1      33.841  22.374  23.934  1.00  0.00    -0.003 A 
ATOM     17  C   UNL A   1      35.868  21.486  25.673  1.00  0.00     0.006 A 
ATOM     18  C   UNL A   1      35.088  23.052  23.971  1.00  0.00     0.042 A 
ATOM     19  C   UNL A   1      32.731  22.863  23.021  1.00  0.00     0.050 C 
ATOM     20  C   UNL A   1      36.105  22.597  24.844  1.00  0.00    -0.028 A 
ATOM     21  N   UNL A   1      35.263  24.215  23.226  1.00  0.00    -0.377 N 
ATOM     22  C   UNL A   1      31.462  23.346  23.682  1.00  0.00    -0.023 C 
ATOM     23  C   UNL A   1      33.085  24.085  22.152  1.00  0.00     0.031 C 
ATOM     24  C   UNL A   1      37.443  23.273  25.006  1.00  0.00     0.046 C 
ATOM     25  H   UNL A   1      36.169  24.497  22.966  1.00  0.00     0.161 HD
ATOM     26  C   UNL A   1      30.913  24.368  23.014  1.00  0.00    -0.030 C 
ATOM     27  C   UNL A   1      31.744  24.755  21.835  1.00  0.00     0.034 C 
BRANCH  14  28
ATOM     28  C   UNL A   1      32.376  20.502  24.770  1.00  0.00     0.338 C 
ATOM     29  O   UNL A   1      31.488  20.634  25.600  1.00  0.00    -0.246 OA
BRANCH  28  30
ATOM     30  O   UNL A   1      32.408  19.615  23.745  1.00  0.00    -0.465 OA
ATOM     31  C   UNL A   1      32.336  18.250  24.159  1.00  0.00     0.282 C 
ENDBRANCH  28  30
ENDBRANCH  14  28
ENDBRANCH   8  13
ENDBRANCH   5   7
ENDBRANCH   4   5
ENDBRANCH   3   4
ENDBRANCH   2   3
ENDBRANCH   1   2
BRANCH   1  32
ATOM     32  C   UNL A   1      32.559  33.403  27.644  1.00  0.00     0.202 C 
BRANCH  32  33
ATOM     33  C   UNL A   1      33.771  34.274  27.998  1.00  0.00     0.261 C 
BRANCH  33  34
ATOM     34  O   UNL A   1      33.428  35.317  28.929  1.00  0.00    -0.460 OA
BRANCH  34  35
ATOM     35  C   UNL A   1      33.507  34.974  30.238  1.00  0.00     0.338 C 
ATOM     36  O   UNL A   1      32.700  35.225  31.118  1.00  0.00    -0.246 OA
BRANCH  35  37
ATOM     37  C   UNL A   1      34.642  34.055  30.432  1.00  0.00     0.060 A 
ATOM     38  C   UNL A   1      34.441  32.922  31.232  1.00  0.00     0.016 A 
ATOM     39  C   UNL A   1      35.902  34.343  29.906  1.00  0.00     0.016 A 
ATOM     40  C   UNL A   1      35.511  32.087  31.538  1.00  0.00     0.010 A 
ATOM     41  C   UNL A   1      36.979  33.516  30.233  1.00  0.00     0.010 A 
ATOM     42  C   UNL A   1      36.793  32.407  31.078  1.00  0.00    -0.014 A 
BRANCH  42  43
ATOM     43  C   UNL A   1      37.963  31.686  31.626  1.00  0.00     0.031 A 
ATOM     44  C   UNL A   1      38.516  32.113  32.956  1.00  0.00     0.074 A 
ATOM     45  C   UNL A   1      38.514  30.658  30.958  1.00  0.00     0.049 A 
ATOM     46  N   UNL A   1      39.546  31.647  33.609  1.00  0.00    -0.248 NA
ATOM     47  C   UNL A   1      37.813  33.212  33.639  1.00  0.00     0.031 C 
ATOM     48  C   UNL A   1      38.038  30.137  29.680  1.00  0.00     0.029 A 
ATOM     49  N   UNL A   1      39.603  29.879  31.259  1.00  0.00    -0.354 N 
ATOM     50  C   UNL A   1      39.616  32.391  34.781  1.00  0.00     0.074 A 
ATOM     51  C   UNL A   1      38.545  33.362  34.734  1.00  0.00     0.031 C 
ATOM     52  C   UNL A   1      38.845  29.134  29.293  1.00  0.00     0.029 A 
ATOM     53  C   UNL A   1      39.911  28.964  30.282  1.00  0.00     0.049 A 
ATOM     54  H   UNL A   1      40.115  29.968  32.096  1.00  0.00     0.167 HD
ATOM     55  C   UNL A   1      40.486  32.264  35.808  1.00  0.00     0.034 A 
ATOM     56  C   UNL A   1      40.945  28.102  30.185  1.00  0.00     0.034 A 
ATOM     57  C   UNL A   1      41.552  31.298  35.840  1.00  0.00     0.049 A 
ATOM     58  C   UNL A   1      41.943  28.018  31.312  1.00  0.00     0.074 A 
ATOM     59  C   UNL A   1      42.476  31.082  36.846  1.00  0.00     0.029 A 
ATOM     60  N   UNL A   1      41.840  30.394  34.829  1.00  0.00    -0.354 N 
ATOM     61  N   UNL A   1      41.969  28.691  32.440  1.00  0.00    -0.248 NA
ATOM     62  C   UNL A   1      43.047  27.058  31.167  1.00  0.00     0.031 C 
ATOM     63  C   UNL A   1      43.356  30.088  36.420  1.00  0.00     0.029 A 
ATOM     64  C   UNL A   1      42.944  29.636  35.176  1.00  0.00     0.049 A 
ATOM     65  H   UNL A   1      41.335  30.305  33.988  1.00  0.00     0.167 HD
ATOM     66  C   UNL A   1      43.071  28.215  33.147  1.00  0.00     0.074 A 
ATOM     67  C   UNL A   1      43.679  27.189  32.327  1.00  0.00     0.031 C 
ATOM     68  C   UNL A   1      43.532  28.597  34.365  1.00  0.00     0.034 A 
BRANCH  55  69
ATOM     69  C   UNL A   1      40.337  33.180  36.992  1.00  0.00     0.023 A 
ATOM     70  C   UNL A   1      39.665  32.734  38.144  1.00  0.00     0.031 A 
ATOM     71  C   UNL A   1      40.749  34.522  36.933  1.00  0.00     0.131 A 
ATOM     72  C   UNL A   1      39.389  33.636  39.178  1.00  0.00     0.055 A 
ATOM     73  C   UNL A   1      40.505  35.408  37.982  1.00  0.00     0.041 A 
ATOM     74  F   UNL A   1      41.401  34.988  35.855  1.00  0.00    -0.206 F 
ATOM     75  C   UNL A   1      39.811  34.969  39.106  1.00  0.00     0.022 A 
BRANCH  72  76
ATOM     76  S   UNL A   1      38.435  33.126  40.633  1.00  0.00     0.124 S 
ATOM     77  O   UNL A   1      38.834  34.126  41.621  1.00  0.00    -0.237 OA
ATOM     78  O   UNL A   1      37.062  33.238  40.151  1.00  0.00    -0.237 OA
ATOM     79  O   UNL A   1      38.905  31.772  40.902  1.00  0.00    -0.744 OA
ENDBRANCH  72  76
ENDBRANCH  55  69
BRANCH  56  80
ATOM     80  C   UNL A   1      41.049  27.237  28.977  1.00  0.00     0.023 A 
ATOM     81  C   UNL A   1      42.027  27.486  27.998  1.00  0.00     0.031 A 
ATOM     82  C   UNL A   1      40.113  26.219  28.736  1.00  0.00     0.131 A 
ATOM     83  C   UNL A   1      42.006  26.771  26.794  1.00  0.00     0.055 A 
ATOM     84  C   UNL A   1      40.133  25.464  27.561  1.00  0.00     0.041 A 
ATOM     85  F   UNL A   1      39.158  25.952  29.640  1.00  0.00    -0.206 F 
ATOM     86  C   UNL A   1      41.075  25.750  26.576  1.00  0.00     0.022 A 
BRANCH  83  87
ATOM     87  S   UNL A   1      43.122  27.210  25.433  1.00  0.00     0.124 S 
ATOM     88  O   UNL A   1      42.331  28.187  24.689  1.00  0.00    -0.237 OA
ATOM     89  O   UNL A   1      44.271  27.748  26.156  1.00  0.00    -0.237 OA
ATOM     90  O   UNL A   1      43.352  25.941  24.752  1.00  0.00    -0.744 OA
ENDBRANCH  83  87
ENDBRANCH  56  80
BRANCH  68  91
ATOM     91  C   UNL A   1      44.750  27.910  34.932  1.00  0.00     0.023 A 
ATOM     92  C   UNL A   1      44.595  26.770  35.746  1.00  0.00     0.031 A 
ATOM     93  C   UNL A   1      46.029  28.479  34.819  1.00  0.00     0.131 A 
ATOM     94  C   UNL A   1      45.692  26.265  36.454  1.00  0.00     0.055 A 
ATOM     95  C   UNL A   1      47.129  27.944  35.491  1.00  0.00     0.041 A 
ATOM     96  F   UNL A   1      46.224  29.572  34.064  1.00  0.00    -0.206 F 
ATOM     97  C   UNL A   1      46.959  26.841  36.325  1.00  0.00     0.022 A 
BRANCH  94  98
ATOM     98  S   UNL A   1      45.498  24.894  37.625  1.00  0.00     0.124 S 
ATOM     99  O   UNL A   1      46.821  24.831  38.242  1.00  0.00    -0.237 OA
ATOM    100  O   UNL A   1      44.428  25.380  38.491  1.00  0.00    -0.237 OA
ATOM    101  O   UNL A   1      45.155  23.754  36.779  1.00  0.00    -0.744 OA
ENDBRANCH  94  98
ENDBRANCH  68  91
ENDBRANCH  42  43
ENDBRANCH  35  37
ENDBRANCH  34  35
ENDBRANCH  33  34
ENDBRANCH  32  33
ENDBRANCH   1  32
TORSDOF 20
ENDMDL
MODEL 3
REMARK VINA RESULT:     -10.7      1.368      7.304
REMARK SMILES COC(=O)c1ccc(C)c2c1[C@H]1C=CC[C@H]1[C@@H](c1ccc(C(=O)OCCOCCOC(=O)c3ccc(-c4c5nc(c(-c6cc(S(=O)(=O)[O-])ccc6F)c6ccc([nH]6)c(-c6cc(S(=O)(=O)[O-])ccc6F)c6nc(c(-c7cc(S(=O)(=O)[O-])ccc7F)c7ccc4[nH]7)C=C6)C=C5)cc3)cc1)N2
REMARK SMILES IDX 27 1 26 2 25 3 24 4 22 5 23 6 21 7 18 8 19 9 97 10 20 11
REMARK SMILES IDX 96 12 17 13 5 14 6 15 11 16 7 17 10 18 12 19 8 20 98 21
REMARK SMILES IDX 13 22 16 23 9 24 14 26 15 27 3 28 4 29 2 30 1 31 28 32 29 33
REMARK SMILES IDX 30 34 31 35 32 36 33 37 34 38 95 39 35 40 94 41 36 42 37 43
REMARK SMILES IDX 38 44 88 45 39 46 93 47 87 48 89 49 40 50 92 51 86 52 85 53
REMARK SMILES IDX 41 55 73 56 53 57 72 58 54 59 57 60 71 61 90 62 55 63 56 64
REMARK SMILES IDX 70 66 91 67 58 68 42 69 43 70 51 71 44 72 50 73 52 74 49 75
REMARK SMILES IDX 45 76 46 77 47 78 48 79 74 80 75 81 83 82 76 83 82 84 84 85
REMARK SMILES IDX 81 86 77 87 78 88 79 89 80 90 59 91 60 92 68 93 61 94 67 95
REMARK SMILES IDX 69 96 66 97 62 98 63 99 64 100 65 101
REMARK H PARENT 98 25 89 54 57 65
REMARK Flexibility Score: inf
ROOT
ATOM      1  O   UNL A   1      35.816  33.336  28.848  1.00  0.00    -0.374 OA
ENDROOT
BRANCH   1   2
ATOM      2  C   UNL A   1      35.804  31.909  28.846  1.00  0.00     0.202 C 
BRANCH   2   3
ATOM      3  C   UNL A   1      35.195  31.224  27.620  1.00  0.00     0.261 C 
BRANCH   3   4
ATOM      4  O   UNL A   1      34.013  30.488  27.967  1.00  0.00    -0.460 OA
BRANCH   4   5
ATOM      5  C   UNL A   1      33.016  30.569  27.055  1.00  0.00     0.338 C 
ATOM      6  O   UNL A   1      32.244  31.501  26.888  1.00  0.00    -0.246 OA
BRANCH   5   7
ATOM      7  C   UNL A   1      33.110  29.441  26.104  1.00  0.00     0.060 A 
ATOM      8  C   UNL A   1      33.357  27.164  24.446  1.00  0.00    -0.025 A 
ATOM      9  C   UNL A   1      33.528  27.083  25.839  1.00  0.00     0.007 A 
ATOM     10  C   UNL A   1      33.014  28.421  23.910  1.00  0.00     0.007 A 
ATOM     11  C   UNL A   1      33.421  28.202  26.657  1.00  0.00     0.016 A 
ATOM     12  C   UNL A   1      32.879  29.553  24.732  1.00  0.00     0.016 A 
BRANCH   8  13
ATOM     13  C   UNL A   1      33.569  25.957  23.522  1.00  0.00     0.114 C 
ATOM     14  C   UNL A   1      32.443  22.847  26.208  1.00  0.00     0.065 A 
ATOM     15  C   UNL A   1      33.369  22.418  27.163  1.00  0.00     0.016 A 
ATOM     16  C   UNL A   1      32.827  23.708  25.155  1.00  0.00    -0.003 A 
ATOM     17  C   UNL A   1      34.693  22.825  27.068  1.00  0.00     0.006 A 
ATOM     18  C   UNL A   1      34.183  24.123  25.064  1.00  0.00     0.042 A 
ATOM     19  C   UNL A   1      31.807  24.201  24.144  1.00  0.00     0.050 C 
ATOM     20  C   UNL A   1      35.117  23.671  26.028  1.00  0.00    -0.028 A 
ATOM     21  N   UNL A   1      34.558  25.047  24.095  1.00  0.00    -0.377 N 
ATOM     22  C   UNL A   1      30.674  25.049  24.672  1.00  0.00    -0.023 C 
ATOM     23  C   UNL A   1      32.366  25.122  23.042  1.00  0.00     0.031 C 
ATOM     24  C   UNL A   1      36.564  24.093  26.062  1.00  0.00     0.046 C 
ATOM     25  H   UNL A   1      35.494  25.088  23.793  1.00  0.00     0.161 HD
ATOM     26  C   UNL A   1      30.314  25.995  23.797  1.00  0.00    -0.030 C 
ATOM     27  C   UNL A   1      31.171  25.959  22.574  1.00  0.00     0.034 C 
BRANCH  14  28
ATOM     28  C   UNL A   1      31.053  22.373  26.346  1.00  0.00     0.338 C 
ATOM     29  O   UNL A   1      30.524  21.548  25.613  1.00  0.00    -0.246 OA
BRANCH  28  30
ATOM     30  O   UNL A   1      30.469  23.053  27.362  1.00  0.00    -0.465 OA
ATOM     31  C   UNL A   1      29.094  22.727  27.563  1.00  0.00     0.282 C 
ENDBRANCH  28  30
ENDBRANCH  14  28
ENDBRANCH   8  13
ENDBRANCH   5   7
ENDBRANCH   4   5
ENDBRANCH   3   4
ENDBRANCH   2   3
ENDBRANCH   1   2
BRANCH   1  32
ATOM     32  C   UNL A   1      34.819  33.994  28.059  1.00  0.00     0.202 C 
BRANCH  32  33
ATOM     33  C   UNL A   1      33.863  34.940  28.798  1.00  0.00     0.261 C 
BRANCH  33  34
ATOM     34  O   UNL A   1      33.311  34.330  29.979  1.00  0.00    -0.460 OA
BRANCH  34  35
ATOM     35  C   UNL A   1      33.402  35.071  31.110  1.00  0.00     0.338 C 
ATOM     36  O   UNL A   1      32.623  35.927  31.497  1.00  0.00    -0.246 OA
BRANCH  35  37
ATOM     37  C   UNL A   1      34.501  34.555  31.943  1.00  0.00     0.060 A 
ATOM     38  C   UNL A   1      35.714  35.258  31.942  1.00  0.00     0.016 A 
ATOM     39  C   UNL A   1      34.371  33.359  32.650  1.00  0.00     0.016 A 
ATOM     40  C   UNL A   1      36.816  34.748  32.621  1.00  0.00     0.010 A 
ATOM     41  C   UNL A   1      35.484  32.837  33.313  1.00  0.00     0.010 A 
ATOM     42  C   UNL A   1      36.717  33.512  33.270  1.00  0.00    -0.014 A 
BRANCH  42  43
ATOM     43  C   UNL A   1      37.947  32.843  33.751  1.00  0.00     0.031 A 
ATOM     44  C   UNL A   1      38.525  31.724  32.933  1.00  0.00     0.074 A 
ATOM     45  C   UNL A   1      38.547  33.237  34.888  1.00  0.00     0.049 A 
ATOM     46  N   UNL A   1      39.571  30.981  33.174  1.00  0.00    -0.248 NA
ATOM     47  C   UNL A   1      37.831  31.400  31.675  1.00  0.00     0.031 C 
ATOM     48  C   UNL A   1      38.093  34.333  35.739  1.00  0.00     0.029 A 
ATOM     49  N   UNL A   1      39.658  32.747  35.526  1.00  0.00    -0.354 N 
ATOM     50  C   UNL A   1      39.665  30.104  32.102  1.00  0.00     0.074 A 
ATOM     51  C   UNL A   1      38.551  30.383  31.224  1.00  0.00     0.031 C 
ATOM     52  C   UNL A   1      38.909  34.421  36.803  1.00  0.00     0.029 A 
ATOM     53  C   UNL A   1      39.924  33.368  36.721  1.00  0.00     0.049 A 
ATOM     54  H   UNL A   1      40.213  32.020  35.160  1.00  0.00     0.167 HD
ATOM     55  C   UNL A   1      40.605  29.161  31.865  1.00  0.00     0.034 A 
ATOM     56  C   UNL A   1      40.863  33.106  37.654  1.00  0.00     0.034 A 
ATOM     57  C   UNL A   1      41.706  28.887  32.750  1.00  0.00     0.049 A 
ATOM     58  C   UNL A   1      41.865  32.007  37.403  1.00  0.00     0.074 A 
ATOM     59  C   UNL A   1      42.720  27.961  32.587  1.00  0.00     0.029 A 
ATOM     60  N   UNL A   1      41.937  29.529  33.957  1.00  0.00    -0.354 N 
ATOM     61  N   UNL A   1      41.976  31.218  36.359  1.00  0.00    -0.248 NA
ATOM     62  C   UNL A   1      42.876  31.765  38.443  1.00  0.00     0.031 C 
ATOM     63  C   UNL A   1      43.531  28.002  33.721  1.00  0.00     0.029 A 
ATOM     64  C   UNL A   1      43.064  29.000  34.563  1.00  0.00     0.049 A 
ATOM     65  H   UNL A   1      41.383  30.252  34.329  1.00  0.00     0.167 HD
ATOM     66  C   UNL A   1      43.082  30.408  36.604  1.00  0.00     0.074 A 
ATOM     67  C   UNL A   1      43.615  30.810  37.889  1.00  0.00     0.031 C 
ATOM     68  C   UNL A   1      43.604  29.422  35.833  1.00  0.00     0.034 A 
BRANCH  55  69
ATOM     69  C   UNL A   1      40.504  28.347  30.603  1.00  0.00     0.023 A 
ATOM     70  C   UNL A   1      41.361  28.619  29.523  1.00  0.00     0.031 A 
ATOM     71  C   UNL A   1      39.486  27.394  30.430  1.00  0.00     0.131 A 
ATOM     72  C   UNL A   1      41.160  27.970  28.298  1.00  0.00     0.055 A 
ATOM     73  C   UNL A   1      39.313  26.724  29.219  1.00  0.00     0.041 A 
ATOM     74  F   UNL A   1      38.650  27.099  31.438  1.00  0.00    -0.206 F 
ATOM     75  C   UNL A   1      40.144  27.020  28.142  1.00  0.00     0.022 A 
BRANCH  72  76
ATOM     76  S   UNL A   1      42.178  28.368  26.852  1.00  0.00     0.124 S 
ATOM     77  O   UNL A   1      41.183  28.395  25.782  1.00  0.00    -0.237 OA
ATOM     78  O   UNL A   1      42.734  29.667  27.220  1.00  0.00    -0.237 OA
ATOM     79  O   UNL A   1      43.131  27.267  26.781  1.00  0.00    -0.744 OA
ENDBRANCH  72  76
ENDBRANCH  55  69
BRANCH  56  80
ATOM     80  C   UNL A   1      40.898  33.933  38.893  1.00  0.00     0.023 A 
ATOM     81  C   UNL A   1      41.734  35.060  38.981  1.00  0.00     0.031 A 
ATOM     82  C   UNL A   1      40.178  33.550  40.036  1.00  0.00     0.131 A 
ATOM     83  C   UNL A   1      41.880  35.726  40.203  1.00  0.00     0.055 A 
ATOM     84  C   UNL A   1      40.277  34.255  41.237  1.00  0.00     0.041 A 
ATOM     85  F   UNL A   1      39.374  32.477  40.000  1.00  0.00    -0.206 F 
ATOM     86  C   UNL A   1      41.144  35.341  41.329  1.00  0.00     0.022 A 
BRANCH  83  87
ATOM     87  S   UNL A   1      43.104  37.050  40.400  1.00  0.00     0.124 S 
ATOM     88  O   UNL A   1      43.060  37.707  39.096  1.00  0.00    -0.237 OA
ATOM     89  O   UNL A   1      42.538  37.812  41.510  1.00  0.00    -0.237 OA
ATOM     90  O   UNL A   1      44.340  36.335  40.700  1.00  0.00    -0.744 OA
ENDBRANCH  83  87
ENDBRANCH  56  80
BRANCH  68  91
ATOM     91  C   UNL A   1      44.833  28.690  36.316  1.00  0.00     0.023 A 
ATOM     92  C   UNL A   1      44.692  27.539  37.115  1.00  0.00     0.031 A 
ATOM     93  C   UNL A   1      46.119  29.227  36.140  1.00  0.00     0.131 A 
ATOM     94  C   UNL A   1      45.813  26.990  37.749  1.00  0.00     0.055 A 
ATOM     95  C   UNL A   1      47.240  28.648  36.737  1.00  0.00     0.041 A 
ATOM     96  F   UNL A   1      46.301  30.328  35.395  1.00  0.00    -0.206 F 
ATOM     97  C   UNL A   1      47.087  27.533  37.559  1.00  0.00     0.022 A 
BRANCH  94  98
ATOM     98  S   UNL A   1      45.648  25.600  38.904  1.00  0.00     0.124 S 
ATOM     99  O   UNL A   1      44.985  26.230  40.044  1.00  0.00    -0.237 OA
ATOM    100  O   UNL A   1      44.825  24.665  38.142  1.00  0.00    -0.237 OA
ATOM    101  O   UNL A   1      47.024  25.177  39.145  1.00  0.00    -0.744 OA
ENDBRANCH  94  98
ENDBRANCH  68  91
ENDBRANCH  42  43
ENDBRANCH  35  37
ENDBRANCH  34  35
ENDBRANCH  33  34
ENDBRANCH  32  33
ENDBRANCH   1  32
TORSDOF 20
ENDMDL
