MODEL 1
REMARK VINA RESULT:     -11.7      0.000      0.000
REMARK SMILES C[C@@H]1CCC[C@H]1NC(=O)c1csc(/C=C/C(=O)OCCOCCOC(=O)c2ccc(-c3c4nc(c(-c5cc(S(=O)(=O)[O-])ccc5F)c5ccc([nH]5)c(-c5cc(S(=O)(=O)[O-])ccc5F)c5nc(c(-c6cc(S(=O)(=O)[O-])ccc6F)c6ccc3[nH]6)C=C5)C=C4)cc2)c1
REMARK SMILES IDX 21 1 20 2 19 3 18 4 16 5 17 6 15 7 14 8 13 9 10 10 11 11
REMARK SMILES IDX 90 12 12 13 8 14 7 15 9 17 6 18 1 19 2 20 3 21 4 22 5 23
REMARK SMILES IDX 22 24 23 25 24 26 25 27 26 28 27 29 28 30 89 31 29 32 88 33
REMARK SMILES IDX 30 34 31 35 32 36 82 37 33 38 87 39 81 40 83 41 34 42 86 43
REMARK SMILES IDX 80 44 79 45 35 47 67 48 47 49 66 50 48 51 51 52 65 53 84 54
REMARK SMILES IDX 49 55 50 56 64 58 85 59 52 60 36 61 37 62 45 63 38 64 44 65
REMARK SMILES IDX 46 66 43 67 39 68 40 69 41 70 42 71 68 72 69 73 77 74 70 75
REMARK SMILES IDX 76 76 78 77 75 78 71 79 72 80 73 81 74 82 53 83 54 84 62 85
REMARK SMILES IDX 55 86 61 87 63 88 60 89 56 90 57 91 58 92 59 93
REMARK H PARENT 7 16 83 46 51 57
REMARK Flexibility Score: inf
ROOT
ATOM      1  O   UNL A   1      35.742  21.730  25.983  1.00  0.00    -0.374 OA
ENDROOT
BRANCH   1   2
ATOM      2  C   UNL A   1      34.549  21.512  26.738  1.00  0.00     0.202 C 
BRANCH   2   3
ATOM      3  C   UNL A   1      33.848  22.782  27.229  1.00  0.00     0.261 C 
BRANCH   3   4
ATOM      4  O   UNL A   1      32.593  22.471  27.858  1.00  0.00    -0.460 OA
BRANCH   4   5
ATOM      5  C   UNL A   1      31.519  23.120  27.354  1.00  0.00     0.330 C 
ATOM      6  O   UNL A   1      30.354  22.751  27.398  1.00  0.00    -0.247 OA
BRANCH   5   7
ATOM      7  C   UNL A   1      31.872  24.428  26.769  1.00  0.00     0.095 C 
ATOM      8  C   UNL A   1      31.294  25.017  25.710  1.00  0.00     0.026 C 
BRANCH   8   9
ATOM      9  C   UNL A   1      31.704  26.305  25.235  1.00  0.00     0.028 A 
ATOM     10  C   UNL A   1      31.742  28.649  24.831  1.00  0.00     0.051 A 
ATOM     11  C   UNL A   1      32.964  28.246  24.333  1.00  0.00     0.079 A 
ATOM     12  C   UNL A   1      31.031  27.511  25.360  1.00  0.00     0.033 A 
ATOM     13  S   UNL A   1      33.175  26.559  24.371  1.00  0.00    -0.144 S 
BRANCH  10  14
ATOM     14  C   UNL A   1      31.279  30.030  24.936  1.00  0.00     0.252 C 
ATOM     15  N   UNL A   1      30.331  30.525  24.076  1.00  0.00    -0.349 N 
ATOM     16  H   UNL A   1      30.231  31.504  24.099  1.00  0.00     0.164 HD
ATOM     17  O   UNL A   1      31.723  30.787  25.797  1.00  0.00    -0.269 OA
BRANCH  15  18
ATOM     18  C   UNL A   1      29.444  29.848  23.134  1.00  0.00     0.085 C 
ATOM     19  C   UNL A   1      27.079  28.953  22.954  1.00  0.00     0.010 C 
ATOM     20  C   UNL A   1      27.972  30.058  23.521  1.00  0.00     0.008 C 
ATOM     21  C   UNL A   1      27.640  31.421  22.915  1.00  0.00     0.005 C 
ATOM     22  C   UNL A   1      28.431  31.488  21.614  1.00  0.00     0.002 C 
ATOM     23  C   UNL A   1      29.569  30.471  21.740  1.00  0.00     0.025 C 
ENDBRANCH  15  18
ENDBRANCH  10  14
ENDBRANCH   8   9
ENDBRANCH   5   7
ENDBRANCH   4   5
ENDBRANCH   3   4
ENDBRANCH   2   3
ENDBRANCH   1   2
BRANCH   1  24
ATOM     24  C   UNL A   1      36.137  20.679  25.100  1.00  0.00     0.202 C 
BRANCH  24  25
ATOM     25  C   UNL A   1      37.644  20.397  25.029  1.00  0.00     0.261 C 
BRANCH  25  26
ATOM     26  O   UNL A   1      38.423  21.570  25.325  1.00  0.00    -0.460 OA
BRANCH  26  27
ATOM     27  C   UNL A   1      39.458  21.365  26.175  1.00  0.00     0.338 C 
ATOM     28  O   UNL A   1      40.112  20.337  26.295  1.00  0.00    -0.246 OA
BRANCH  27  29
ATOM     29  C   UNL A   1      39.837  22.629  26.835  1.00  0.00     0.060 A 
ATOM     30  C   UNL A   1      39.153  23.788  26.447  1.00  0.00     0.016 A 
ATOM     31  C   UNL A   1      40.874  22.702  27.770  1.00  0.00     0.016 A 
ATOM     32  C   UNL A   1      39.538  25.030  26.948  1.00  0.00     0.010 A 
ATOM     33  C   UNL A   1      41.263  23.952  28.268  1.00  0.00     0.010 A 
ATOM     34  C   UNL A   1      40.620  25.125  27.832  1.00  0.00    -0.014 A 
BRANCH  34  35
ATOM     35  C   UNL A   1      41.165  26.466  28.171  1.00  0.00     0.031 A 
ATOM     36  C   UNL A   1      42.582  26.795  27.786  1.00  0.00     0.074 A 
ATOM     37  C   UNL A   1      40.392  27.394  28.765  1.00  0.00     0.049 A 
ATOM     38  N   UNL A   1      43.260  27.898  27.973  1.00  0.00    -0.248 NA
ATOM     39  C   UNL A   1      43.334  25.735  27.097  1.00  0.00     0.031 C 
ATOM     40  C   UNL A   1      38.993  27.205  29.148  1.00  0.00     0.029 A 
ATOM     41  N   UNL A   1      40.674  28.681  29.148  1.00  0.00    -0.354 N 
ATOM     42  C   UNL A   1      44.518  27.669  27.424  1.00  0.00     0.074 A 
ATOM     43  C   UNL A   1      44.519  26.305  26.938  1.00  0.00     0.031 C 
ATOM     44  C   UNL A   1      38.540  28.337  29.713  1.00  0.00     0.029 A 
ATOM     45  C   UNL A   1      39.623  29.318  29.763  1.00  0.00     0.049 A 
ATOM     46  H   UNL A   1      41.548  29.108  28.996  1.00  0.00     0.167 HD
ATOM     47  C   UNL A   1      45.569  28.521  27.322  1.00  0.00     0.034 A 
ATOM     48  C   UNL A   1      39.549  30.546  30.318  1.00  0.00     0.034 A 
ATOM     49  C   UNL A   1      45.559  29.873  27.824  1.00  0.00     0.049 A 
ATOM     50  C   UNL A   1      40.761  31.446  30.269  1.00  0.00     0.074 A 
ATOM     51  C   UNL A   1      46.565  30.822  27.767  1.00  0.00     0.029 A 
ATOM     52  N   UNL A   1      44.493  30.468  28.488  1.00  0.00    -0.354 N 
ATOM     53  N   UNL A   1      41.940  31.220  29.736  1.00  0.00    -0.248 NA
ATOM     54  C   UNL A   1      40.624  32.772  30.887  1.00  0.00     0.031 C 
ATOM     55  C   UNL A   1      46.133  31.962  28.454  1.00  0.00     0.029 A 
ATOM     56  C   UNL A   1      44.829  31.757  28.874  1.00  0.00     0.049 A 
ATOM     57  H   UNL A   1      43.624  30.037  28.659  1.00  0.00     0.167 HD
ATOM     58  C   UNL A   1      42.673  32.389  29.928  1.00  0.00     0.074 A 
ATOM     59  C   UNL A   1      41.799  33.320  30.612  1.00  0.00     0.031 C 
ATOM     60  C   UNL A   1      43.951  32.671  29.567  1.00  0.00     0.034 A 
BRANCH  47  61
ATOM     61  C   UNL A   1      46.831  27.987  26.686  1.00  0.00     0.023 A 
ATOM     62  C   UNL A   1      47.081  28.126  25.309  1.00  0.00     0.031 A 
ATOM     63  C   UNL A   1      47.782  27.303  27.462  1.00  0.00     0.131 A 
ATOM     64  C   UNL A   1      48.217  27.528  24.740  1.00  0.00     0.055 A 
ATOM     65  C   UNL A   1      48.948  26.777  26.903  1.00  0.00     0.041 A 
ATOM     66  F   UNL A   1      47.586  27.118  28.778  1.00  0.00    -0.206 F 
ATOM     67  C   UNL A   1      49.164  26.875  25.532  1.00  0.00     0.022 A 
BRANCH  64  68
ATOM     68  S   UNL A   1      48.366  27.492  22.933  1.00  0.00     0.124 S 
ATOM     69  O   UNL A   1      47.184  28.247  22.525  1.00  0.00    -0.237 OA
ATOM     70  O   UNL A   1      49.650  28.146  22.709  1.00  0.00    -0.237 OA
ATOM     71  O   UNL A   1      48.327  26.067  22.614  1.00  0.00    -0.744 OA
ENDBRANCH  64  68
ENDBRANCH  47  61
BRANCH  48  72
ATOM     72  C   UNL A   1      38.301  30.994  31.001  1.00  0.00     0.023 A 
ATOM     73  C   UNL A   1      37.266  31.623  30.290  1.00  0.00     0.031 A 
ATOM     74  C   UNL A   1      38.154  30.851  32.392  1.00  0.00     0.131 A 
ATOM     75  C   UNL A   1      36.153  32.130  30.978  1.00  0.00     0.055 A 
ATOM     76  C   UNL A   1      37.020  31.311  33.065  1.00  0.00     0.041 A 
ATOM     77  F   UNL A   1      39.113  30.259  33.120  1.00  0.00    -0.206 F 
ATOM     78  C   UNL A   1      36.017  31.967  32.358  1.00  0.00     0.022 A 
BRANCH  75  79
ATOM     79  S   UNL A   1      34.921  33.086  30.052  1.00  0.00     0.124 S 
ATOM     80  O   UNL A   1      34.363  32.072  29.165  1.00  0.00    -0.237 OA
ATOM     81  O   UNL A   1      34.043  33.560  31.117  1.00  0.00    -0.237 OA
ATOM     82  O   UNL A   1      35.716  34.122  29.395  1.00  0.00    -0.744 OA
ENDBRANCH  75  79
ENDBRANCH  48  72
BRANCH  60  83
ATOM     83  C   UNL A   1      44.458  34.063  29.865  1.00  0.00     0.023 A 
ATOM     84  C   UNL A   1      44.348  35.108  28.932  1.00  0.00     0.031 A 
ATOM     85  C   UNL A   1      45.077  34.340  31.098  1.00  0.00     0.131 A 
ATOM     86  C   UNL A   1      44.900  36.365  29.222  1.00  0.00     0.055 A 
ATOM     87  C   UNL A   1      45.572  35.609  31.404  1.00  0.00     0.041 A 
ATOM     88  F   UNL A   1      45.212  33.378  32.025  1.00  0.00    -0.206 F 
ATOM     89  C   UNL A   1      45.497  36.626  30.459  1.00  0.00     0.022 A 
BRANCH  86  90
ATOM     90  S   UNL A   1      44.915  37.633  27.924  1.00  0.00     0.124 S 
ATOM     91  O   UNL A   1      46.009  37.181  27.071  1.00  0.00    -0.237 OA
ATOM     92  O   UNL A   1      43.574  37.515  27.358  1.00  0.00    -0.237 OA
ATOM     93  O   UNL A   1      45.171  38.872  28.656  1.00  0.00    -0.744 OA
ENDBRANCH  86  90
ENDBRANCH  60  83
ENDBRANCH  34  35
ENDBRANCH  27  29
ENDBRANCH  26  27
ENDBRANCH  25  26
ENDBRANCH  24  25
ENDBRANCH   1  24
TORSDOF 20
ENDMDL
MODEL 2
REMARK VINA RESULT:     -11.2      4.955     10.825
REMARK SMILES C[C@@H]1CCC[C@H]1NC(=O)c1csc(/C=C/C(=O)OCCOCCOC(=O)c2ccc(-c3c4nc(c(-c5cc(S(=O)(=O)[O-])ccc5F)c5ccc([nH]5)c(-c5cc(S(=O)(=O)[O-])ccc5F)c5nc(c(-c6cc(S(=O)(=O)[O-])ccc6F)c6ccc3[nH]6)C=C5)C=C4)cc2)c1
REMARK SMILES IDX 21 1 20 2 19 3 18 4 16 5 17 6 15 7 14 8 13 9 10 10 11 11
REMARK SMILES IDX 90 12 12 13 8 14 7 15 9 17 6 18 1 19 2 20 3 21 4 22 5 23
REMARK SMILES IDX 22 24 23 25 24 26 25 27 26 28 27 29 28 30 89 31 29 32 88 33
REMARK SMILES IDX 30 34 31 35 32 36 82 37 33 38 87 39 81 40 83 41 34 42 86 43
REMARK SMILES IDX 80 44 79 45 35 47 67 48 47 49 66 50 48 51 51 52 65 53 84 54
REMARK SMILES IDX 49 55 50 56 64 58 85 59 52 60 36 61 37 62 45 63 38 64 44 65
REMARK SMILES IDX 46 66 43 67 39 68 40 69 41 70 42 71 68 72 69 73 77 74 70 75
REMARK SMILES IDX 76 76 78 77 75 78 71 79 72 80 73 81 74 82 53 83 54 84 62 85
REMARK SMILES IDX 55 86 61 87 63 88 60 89 56 90 57 91 58 92 59 93
REMARK H PARENT 7 16 83 46 51 57
REMARK Flexibility Score: inf
ROOT
ATOM      1  O   UNL A   1      32.062  30.238  26.834  1.00  0.00    -0.374 OA
ENDROOT
BRANCH   1   2
ATOM      2  C   UNL A   1      32.783  29.323  26.008  1.00  0.00     0.202 C 
BRANCH   2   3
ATOM      3  C   UNL A   1      31.997  28.085  25.568  1.00  0.00     0.261 C 
BRANCH   3   4
ATOM      4  O   UNL A   1      31.583  28.195  24.195  1.00  0.00    -0.460 OA
BRANCH   4   5
ATOM      5  C   UNL A   1      31.607  27.040  23.491  1.00  0.00     0.330 C 
ATOM      6  O   UNL A   1      31.255  26.883  22.331  1.00  0.00    -0.247 OA
BRANCH   5   7
ATOM      7  C   UNL A   1      32.197  25.925  24.256  1.00  0.00     0.095 C 
ATOM      8  C   UNL A   1      32.096  24.616  23.974  1.00  0.00     0.026 C 
BRANCH   8   9
ATOM      9  C   UNL A   1      32.728  23.611  24.777  1.00  0.00     0.028 A 
ATOM     10  C   UNL A   1      34.096  21.774  25.422  1.00  0.00     0.051 A 
ATOM     11  C   UNL A   1      33.646  22.245  26.638  1.00  0.00     0.079 A 
ATOM     12  C   UNL A   1      33.562  22.587  24.355  1.00  0.00     0.033 A 
ATOM     13  S   UNL A   1      32.519  23.511  26.486  1.00  0.00    -0.144 S 
BRANCH  10  14
ATOM     14  C   UNL A   1      35.069  20.702  25.231  1.00  0.00     0.252 C 
ATOM     15  N   UNL A   1      34.666  19.426  24.932  1.00  0.00    -0.349 N 
ATOM     16  H   UNL A   1      35.371  18.744  25.016  1.00  0.00     0.164 HD
ATOM     17  O   UNL A   1      36.277  20.914  25.331  1.00  0.00    -0.269 OA
BRANCH  15  18
ATOM     18  C   UNL A   1      33.369  18.905  24.508  1.00  0.00     0.085 C 
ATOM     19  C   UNL A   1      32.235  17.845  22.503  1.00  0.00     0.010 C 
ATOM     20  C   UNL A   1      33.527  17.949  23.315  1.00  0.00     0.008 C 
ATOM     21  C   UNL A   1      33.890  16.619  23.975  1.00  0.00     0.005 C 
ATOM     22  C   UNL A   1      33.106  16.590  25.282  1.00  0.00     0.002 C 
ATOM     23  C   UNL A   1      32.752  18.042  25.614  1.00  0.00     0.025 C 
ENDBRANCH  15  18
ENDBRANCH  10  14
ENDBRANCH   8   9
ENDBRANCH   5   7
ENDBRANCH   4   5
ENDBRANCH   3   4
ENDBRANCH   2   3
ENDBRANCH   1   2
BRANCH   1  24
ATOM     24  C   UNL A   1      31.414  31.323  26.168  1.00  0.00     0.202 C 
BRANCH  24  25
ATOM     25  C   UNL A   1      31.479  32.679  26.882  1.00  0.00     0.261 C 
BRANCH  25  26
ATOM     26  O   UNL A   1      32.781  33.282  26.769  1.00  0.00    -0.460 OA
BRANCH  26  27
ATOM     27  C   UNL A   1      33.292  33.752  27.933  1.00  0.00     0.338 C 
ATOM     28  O   UNL A   1      32.749  34.528  28.709  1.00  0.00    -0.246 OA
BRANCH  27  29
ATOM     29  C   UNL A   1      34.550  33.053  28.259  1.00  0.00     0.060 A 
ATOM     30  C   UNL A   1      34.456  31.715  28.663  1.00  0.00     0.016 A 
ATOM     31  C   UNL A   1      35.790  33.696  28.231  1.00  0.00     0.016 A 
ATOM     32  C   UNL A   1      35.592  31.032  29.092  1.00  0.00     0.010 A 
ATOM     33  C   UNL A   1      36.930  33.009  28.669  1.00  0.00     0.010 A 
ATOM     34  C   UNL A   1      36.830  31.685  29.135  1.00  0.00    -0.014 A 
BRANCH  34  35
ATOM     35  C   UNL A   1      37.977  31.025  29.811  1.00  0.00     0.031 A 
ATOM     36  C   UNL A   1      38.275  31.371  31.245  1.00  0.00     0.074 A 
ATOM     37  C   UNL A   1      38.708  30.092  29.174  1.00  0.00     0.049 A 
ATOM     38  N   UNL A   1      39.215  30.916  32.033  1.00  0.00    -0.248 NA
ATOM     39  C   UNL A   1      37.392  32.365  31.874  1.00  0.00     0.031 C 
ATOM     40  C   UNL A   1      38.490  29.644  27.799  1.00  0.00     0.029 A 
ATOM     41  N   UNL A   1      39.783  29.352  29.601  1.00  0.00    -0.354 N 
ATOM     42  C   UNL A   1      39.038  31.564  33.251  1.00  0.00     0.074 A 
ATOM     43  C   UNL A   1      37.926  32.477  33.080  1.00  0.00     0.031 C 
ATOM     44  C   UNL A   1      39.403  28.707  27.496  1.00  0.00     0.029 A 
ATOM     45  C   UNL A   1      40.292  28.511  28.641  1.00  0.00     0.049 A 
ATOM     46  H   UNL A   1      40.153  29.418  30.511  1.00  0.00     0.167 HD
ATOM     47  C   UNL A   1      39.728  31.403  34.408  1.00  0.00     0.034 A 
ATOM     48  C   UNL A   1      41.363  27.692  28.675  1.00  0.00     0.034 A 
ATOM     49  C   UNL A   1      40.842  30.500  34.560  1.00  0.00     0.049 A 
ATOM     50  C   UNL A   1      42.169  27.593  29.949  1.00  0.00     0.074 A 
ATOM     51  C   UNL A   1      41.606  30.255  35.689  1.00  0.00     0.029 A 
ATOM     52  N   UNL A   1      41.363  29.702  33.550  1.00  0.00    -0.354 N 
ATOM     53  N   UNL A   1      41.983  28.204  31.097  1.00  0.00    -0.248 NA
ATOM     54  C   UNL A   1      43.324  26.685  29.932  1.00  0.00     0.031 C 
ATOM     55  C   UNL A   1      42.627  29.363  35.342  1.00  0.00     0.029 A 
ATOM     56  C   UNL A   1      42.457  28.990  34.019  1.00  0.00     0.049 A 
ATOM     57  H   UNL A   1      41.007  29.649  32.633  1.00  0.00     0.167 HD
ATOM     58  C   UNL A   1      42.978  27.727  31.947  1.00  0.00     0.074 A 
ATOM     59  C   UNL A   1      43.752  26.769  31.183  1.00  0.00     0.031 C 
ATOM     60  C   UNL A   1      43.228  28.046  33.243  1.00  0.00     0.034 A 
BRANCH  47  61
ATOM     61  C   UNL A   1      39.319  32.265  35.580  1.00  0.00     0.023 A 
ATOM     62  C   UNL A   1      39.819  33.567  35.752  1.00  0.00     0.031 A 
ATOM     63  C   UNL A   1      38.440  31.763  36.557  1.00  0.00     0.131 A 
ATOM     64  C   UNL A   1      39.494  34.296  36.907  1.00  0.00     0.055 A 
ATOM     65  C   UNL A   1      38.060  32.522  37.664  1.00  0.00     0.041 A 
ATOM     66  F   UNL A   1      37.949  30.517  36.459  1.00  0.00    -0.206 F 
ATOM     67  C   UNL A   1      38.598  33.791  37.852  1.00  0.00     0.022 A 
BRANCH  64  68
ATOM     68  S   UNL A   1      40.368  35.853  37.226  1.00  0.00     0.124 S 
ATOM     69  O   UNL A   1      41.753  35.474  36.957  1.00  0.00    -0.237 OA
ATOM     70  O   UNL A   1      39.755  36.762  36.265  1.00  0.00    -0.237 OA
ATOM     71  O   UNL A   1      40.068  36.133  38.629  1.00  0.00    -0.744 OA
ENDBRANCH  64  68
ENDBRANCH  47  61
BRANCH  48  72
ATOM     72  C   UNL A   1      41.766  26.921  27.464  1.00  0.00     0.023 A 
ATOM     73  C   UNL A   1      41.561  25.534  27.381  1.00  0.00     0.031 A 
ATOM     74  C   UNL A   1      42.420  27.556  26.394  1.00  0.00     0.131 A 
ATOM     75  C   UNL A   1      42.049  24.820  26.275  1.00  0.00     0.055 A 
ATOM     76  C   UNL A   1      42.857  26.850  25.272  1.00  0.00     0.041 A 
ATOM     77  F   UNL A   1      42.643  28.879  26.422  1.00  0.00    -0.206 F 
ATOM     78  C   UNL A   1      42.684  25.471  25.215  1.00  0.00     0.022 A 
BRANCH  75  79
ATOM     79  S   UNL A   1      41.920  23.011  26.282  1.00  0.00     0.124 S 
ATOM     80  O   UNL A   1      42.656  22.656  25.074  1.00  0.00    -0.237 OA
ATOM     81  O   UNL A   1      42.559  22.667  27.547  1.00  0.00    -0.237 OA
ATOM     82  O   UNL A   1      40.479  22.773  26.228  1.00  0.00    -0.744 OA
ENDBRANCH  75  79
ENDBRANCH  48  72
BRANCH  60  83
ATOM     83  C   UNL A   1      44.358  27.313  33.925  1.00  0.00     0.023 A 
ATOM     84  C   UNL A   1      44.229  25.977  34.346  1.00  0.00     0.031 A 
ATOM     85  C   UNL A   1      45.578  27.968  34.173  1.00  0.00     0.131 A 
ATOM     86  C   UNL A   1      45.278  25.359  35.043  1.00  0.00     0.055 A 
ATOM     87  C   UNL A   1      46.640  27.328  34.814  1.00  0.00     0.041 A 
ATOM     88  F   UNL A   1      45.757  29.244  33.795  1.00  0.00    -0.206 F 
ATOM     89  C   UNL A   1      46.489  26.022  35.266  1.00  0.00     0.022 A 
BRANCH  86  90
ATOM     90  S   UNL A   1      45.008  23.707  35.742  1.00  0.00     0.124 S 
ATOM     91  O   UNL A   1      45.625  22.847  34.738  1.00  0.00    -0.237 OA
ATOM     92  O   UNL A   1      45.703  23.793  37.023  1.00  0.00    -0.237 OA
ATOM     93  O   UNL A   1      43.552  23.607  35.834  1.00  0.00    -0.744 OA
ENDBRANCH  86  90
ENDBRANCH  60  83
ENDBRANCH  34  35
ENDBRANCH  27  29
ENDBRANCH  26  27
ENDBRANCH  25  26
ENDBRANCH  24  25
ENDBRANCH   1  24
TORSDOF 20
ENDMDL
MODEL 3
REMARK VINA RESULT:     -11.2      5.784      9.408
REMARK SMILES C[C@@H]1CCC[C@H]1NC(=O)c1csc(/C=C/C(=O)OCCOCCOC(=O)c2ccc(-c3c4nc(c(-c5cc(S(=O)(=O)[O-])ccc5F)c5ccc([nH]5)c(-c5cc(S(=O)(=O)[O-])ccc5F)c5nc(c(-c6cc(S(=O)(=O)[O-])ccc6F)c6ccc3[nH]6)C=C5)C=C4)cc2)c1
REMARK SMILES IDX 21 1 20 2 19 3 18 4 16 5 17 6 15 7 14 8 13 9 10 10 11 11
REMARK SMILES IDX 90 12 12 13 8 14 7 15 9 17 6 18 1 19 2 20 3 21 4 22 5 23
REMARK SMILES IDX 22 24 23 25 24 26 25 27 26 28 27 29 28 30 89 31 29 32 88 33
REMARK SMILES IDX 30 34 31 35 32 36 82 37 33 38 87 39 81 40 83 41 34 42 86 43
REMARK SMILES IDX 80 44 79 45 35 47 67 48 47 49 66 50 48 51 51 52 65 53 84 54
REMARK SMILES IDX 49 55 50 56 64 58 85 59 52 60 36 61 37 62 45 63 38 64 44 65
REMARK SMILES IDX 46 66 43 67 39 68 40 69 41 70 42 71 68 72 69 73 77 74 70 75
REMARK SMILES IDX 76 76 78 77 75 78 71 79 72 80 73 81 74 82 53 83 54 84 62 85
REMARK SMILES IDX 55 86 61 87 63 88 60 89 56 90 57 91 58 92 59 93
REMARK H PARENT 7 16 83 46 51 57
REMARK Flexibility Score: inf
ROOT
ATOM      1  O   UNL A   1      34.360  30.968  27.449  1.00  0.00    -0.374 OA
ENDROOT
BRANCH   1   2
ATOM      2  C   UNL A   1      34.892  29.644  27.376  1.00  0.00     0.202 C 
BRANCH   2   3
ATOM      3  C   UNL A   1      33.898  28.567  26.935  1.00  0.00     0.261 C 
BRANCH   3   4
ATOM      4  O   UNL A   1      34.099  28.210  25.556  1.00  0.00    -0.460 OA
BRANCH   4   5
ATOM      5  C   UNL A   1      33.210  27.321  25.056  1.00  0.00     0.330 C 
ATOM      6  O   UNL A   1      32.301  27.558  24.272  1.00  0.00    -0.247 OA
BRANCH   5   7
ATOM      7  C   UNL A   1      33.481  25.940  25.499  1.00  0.00     0.095 C 
ATOM      8  C   UNL A   1      33.880  24.914  24.730  1.00  0.00     0.026 C 
BRANCH   8   9
ATOM      9  C   UNL A   1      34.135  23.610  25.270  1.00  0.00     0.028 A 
ATOM     10  C   UNL A   1      34.954  21.389  25.500  1.00  0.00     0.051 A 
ATOM     11  C   UNL A   1      34.397  21.625  26.740  1.00  0.00     0.079 A 
ATOM     12  C   UNL A   1      34.803  22.557  24.666  1.00  0.00     0.033 A 
ATOM     13  S   UNL A   1      33.601  23.126  26.837  1.00  0.00    -0.144 S 
BRANCH  10  14
ATOM     14  C   UNL A   1      35.705  20.196  25.117  1.00  0.00     0.252 C 
ATOM     15  N   UNL A   1      35.059  19.047  24.736  1.00  0.00    -0.349 N 
ATOM     16  H   UNL A   1      35.637  18.251  24.688  1.00  0.00     0.164 HD
ATOM     17  O   UNL A   1      36.935  20.187  25.125  1.00  0.00    -0.269 OA
BRANCH  15  18
ATOM     18  C   UNL A   1      33.663  18.803  24.386  1.00  0.00     0.085 C 
ATOM     19  C   UNL A   1      32.237  17.911  22.489  1.00  0.00     0.010 C 
ATOM     20  C   UNL A   1      33.555  17.771  23.252  1.00  0.00     0.008 C 
ATOM     21  C   UNL A   1      33.647  16.433  23.985  1.00  0.00     0.005 C 
ATOM     22  C   UNL A   1      32.933  16.651  25.314  1.00  0.00     0.002 C 
ATOM     23  C   UNL A   1      32.921  18.161  25.563  1.00  0.00     0.025 C 
ENDBRANCH  15  18
ENDBRANCH  10  14
ENDBRANCH   8   9
ENDBRANCH   5   7
ENDBRANCH   4   5
ENDBRANCH   3   4
ENDBRANCH   2   3
ENDBRANCH   1   2
BRANCH   1  24
ATOM     24  C   UNL A   1      32.967  31.111  27.161  1.00  0.00     0.202 C 
BRANCH  24  25
ATOM     25  C   UNL A   1      32.418  32.543  27.217  1.00  0.00     0.261 C 
BRANCH  25  26
ATOM     26  O   UNL A   1      33.473  33.518  27.301  1.00  0.00    -0.460 OA
BRANCH  26  27
ATOM     27  C   UNL A   1      33.422  34.316  28.396  1.00  0.00     0.338 C 
ATOM     28  O   UNL A   1      32.553  35.135  28.664  1.00  0.00    -0.246 OA
BRANCH  27  29
ATOM     29  C   UNL A   1      34.481  33.941  29.352  1.00  0.00     0.060 A 
ATOM     30  C   UNL A   1      35.800  34.271  29.015  1.00  0.00     0.016 A 
ATOM     31  C   UNL A   1      34.210  33.230  30.525  1.00  0.00     0.016 A 
ATOM     32  C   UNL A   1      36.856  33.847  29.819  1.00  0.00     0.010 A 
ATOM     33  C   UNL A   1      35.274  32.799  31.328  1.00  0.00     0.010 A 
ATOM     34  C   UNL A   1      36.604  33.074  30.959  1.00  0.00    -0.014 A 
BRANCH  34  35
ATOM     35  C   UNL A   1      37.741  32.435  31.670  1.00  0.00     0.031 A 
ATOM     36  C   UNL A   1      38.472  31.301  31.003  1.00  0.00     0.074 A 
ATOM     37  C   UNL A   1      38.152  32.893  32.867  1.00  0.00     0.049 A 
ATOM     38  N   UNL A   1      39.493  30.603  31.430  1.00  0.00    -0.248 NA
ATOM     39  C   UNL A   1      37.983  30.901  29.675  1.00  0.00     0.031 C 
ATOM     40  C   UNL A   1      37.550  34.011  33.593  1.00  0.00     0.029 A 
ATOM     41  N   UNL A   1      39.173  32.475  33.682  1.00  0.00    -0.354 N 
ATOM     42  C   UNL A   1      39.772  29.683  30.425  1.00  0.00     0.074 A 
ATOM     43  C   UNL A   1      38.782  29.885  29.387  1.00  0.00     0.031 C 
ATOM     44  C   UNL A   1      38.214  34.189  34.747  1.00  0.00     0.029 A 
ATOM     45  C   UNL A   1      39.265  33.179  34.859  1.00  0.00     0.049 A 
ATOM     46  H   UNL A   1      39.784  31.740  33.446  1.00  0.00     0.167 HD
ATOM     47  C   UNL A   1      40.769  28.764  30.366  1.00  0.00     0.034 A 
ATOM     48  C   UNL A   1      40.090  33.015  35.914  1.00  0.00     0.034 A 
ATOM     49  C   UNL A   1      41.740  28.564  31.413  1.00  0.00     0.049 A 
ATOM     50  C   UNL A   1      41.139  31.929  35.862  1.00  0.00     0.074 A 
ATOM     51  C   UNL A   1      42.794  27.668  31.452  1.00  0.00     0.029 A 
ATOM     52  N   UNL A   1      41.770  29.261  32.615  1.00  0.00    -0.354 N 
ATOM     53  N   UNL A   1      41.398  31.073  34.900  1.00  0.00    -0.248 NA
ATOM     54  C   UNL A   1      42.011  31.795  37.036  1.00  0.00     0.031 C 
ATOM     55  C   UNL A   1      43.417  27.776  32.701  1.00  0.00     0.029 A 
ATOM     56  C   UNL A   1      42.802  28.793  33.414  1.00  0.00     0.049 A 
ATOM     57  H   UNL A   1      41.148  29.984  32.863  1.00  0.00     0.167 HD
ATOM     58  C   UNL A   1      42.486  30.323  35.342  1.00  0.00     0.074 A 
ATOM     59  C   UNL A   1      42.840  30.836  36.649  1.00  0.00     0.031 C 
ATOM     60  C   UNL A   1      43.137  29.305  34.722  1.00  0.00     0.034 A 
BRANCH  47  61
ATOM     61  C   UNL A   1      40.819  27.877  29.144  1.00  0.00     0.023 A 
ATOM     62  C   UNL A   1      41.726  28.112  28.095  1.00  0.00     0.031 A 
ATOM     63  C   UNL A   1      39.925  26.800  29.013  1.00  0.00     0.131 A 
ATOM     64  C   UNL A   1      41.671  27.325  26.933  1.00  0.00     0.055 A 
ATOM     65  C   UNL A   1      39.928  25.974  27.887  1.00  0.00     0.041 A 
ATOM     66  F   UNL A   1      39.020  26.541  29.970  1.00  0.00    -0.206 F 
ATOM     67  C   UNL A   1      40.795  26.243  26.833  1.00  0.00     0.022 A 
BRANCH  64  68
ATOM     68  S   UNL A   1      42.664  27.826  25.500  1.00  0.00     0.124 S 
ATOM     69  O   UNL A   1      43.916  28.231  26.134  1.00  0.00    -0.237 OA
ATOM     70  O   UNL A   1      42.715  26.602  24.709  1.00  0.00    -0.237 OA
ATOM     71  O   UNL A   1      41.890  28.917  24.912  1.00  0.00    -0.744 OA
ENDBRANCH  64  68
ENDBRANCH  47  61
BRANCH  48  72
ATOM     72  C   UNL A   1      39.947  33.871  37.127  1.00  0.00     0.023 A 
ATOM     73  C   UNL A   1      39.252  33.418  38.260  1.00  0.00     0.031 A 
ATOM     74  C   UNL A   1      40.456  35.181  37.146  1.00  0.00     0.131 A 
ATOM     75  C   UNL A   1      39.041  34.286  39.343  1.00  0.00     0.055 A 
ATOM     76  C   UNL A   1      40.290  36.022  38.247  1.00  0.00     0.041 A 
ATOM     77  F   UNL A   1      41.128  35.664  36.089  1.00  0.00    -0.206 F 
ATOM     78  C   UNL A   1      39.567  35.580  39.350  1.00  0.00     0.022 A 
BRANCH  75  79
ATOM     79  S   UNL A   1      37.993  33.726  40.714  1.00  0.00     0.124 S 
ATOM     80  O   UNL A   1      37.693  34.983  41.391  1.00  0.00    -0.237 OA
ATOM     81  O   UNL A   1      36.881  33.098  40.008  1.00  0.00    -0.237 OA
ATOM     82  O   UNL A   1      38.859  32.809  41.452  1.00  0.00    -0.744 OA
ENDBRANCH  75  79
ENDBRANCH  48  72
BRANCH  60  83
ATOM     83  C   UNL A   1      44.330  28.717  35.438  1.00  0.00     0.023 A 
ATOM     84  C   UNL A   1      44.189  27.732  36.431  1.00  0.00     0.031 A 
ATOM     85  C   UNL A   1      45.629  29.163  35.131  1.00  0.00     0.131 A 
ATOM     86  C   UNL A   1      45.318  27.268  37.122  1.00  0.00     0.055 A 
ATOM     87  C   UNL A   1      46.754  28.655  35.780  1.00  0.00     0.041 A 
ATOM     88  F   UNL A   1      45.823  30.104  34.192  1.00  0.00    -0.206 F 
ATOM     89  C   UNL A   1      46.602  27.712  36.791  1.00  0.00     0.022 A 
BRANCH  86  90
ATOM     90  S   UNL A   1      45.082  26.146  38.528  1.00  0.00     0.124 S 
ATOM     91  O   UNL A   1      45.264  24.839  37.906  1.00  0.00    -0.237 OA
ATOM     92  O   UNL A   1      46.136  26.569  39.445  1.00  0.00    -0.237 OA
ATOM     93  O   UNL A   1      43.720  26.436  38.974  1.00  0.00    -0.744 OA
ENDBRANCH  86  90
ENDBRANCH  60  83
ENDBRANCH  34  35
ENDBRANCH  27  29
ENDBRANCH  26  27
ENDBRANCH  25  26
ENDBRANCH  24  25
ENDBRANCH   1  24
TORSDOF 20
ENDMDL
