MODEL 1
REMARK VINA RESULT:     -11.5      0.000      0.000
REMARK SMILES C[C@H]1[C@@H](C(=O)OCCOCCOC(=O)c2ccc(-c3c4nc(c(-c5cc(S(=O)(=O)[O-])ccc5F)c5ccc([nH]5)c(-c5cc(S(=O)(=O)[O-])ccc5F)c5nc(c(-c6cc(S(=O)(=O)[O-])ccc6F)c6ccc3[nH]6)C=C5)C=C4)cc2)CCN1C(=O)/C=C/c1cccc(F)c1
REMARK SMILES IDX 9 1 8 2 7 3 6 4 4 5 5 6 3 7 1 8 2 9 80 10 78 11 79 12 81 13
REMARK SMILES IDX 82 14 83 15 84 16 85 17 86 18 91 19 87 20 89 21 88 22 90 23
REMARK SMILES IDX 10 24 11 25 12 26 13 27 14 28 15 29 16 30 77 31 17 32 76 33
REMARK SMILES IDX 18 34 19 35 20 36 70 37 21 38 75 39 69 40 71 41 22 42 74 43
REMARK SMILES IDX 68 44 67 45 23 47 55 48 35 49 54 50 36 51 39 52 53 53 72 54
REMARK SMILES IDX 37 55 38 56 52 58 73 59 40 60 24 61 25 62 33 63 26 64 32 65
REMARK SMILES IDX 34 66 31 67 27 68 28 69 29 70 30 71 56 72 57 73 65 74 58 75
REMARK SMILES IDX 64 76 66 77 63 78 59 79 60 80 61 81 62 82 41 83 42 84 50 85
REMARK SMILES IDX 43 86 49 87 51 88 48 89 44 90 45 91 46 92 47 93
REMARK H PARENT 71 46 39 57
REMARK Flexibility Score: inf
ROOT
ATOM      1  O   UNL A   1      30.579  29.369  24.741  1.00  0.00    -0.374 OA
ENDROOT
BRANCH   1   2
ATOM      2  C   UNL A   1      30.040  29.764  23.474  1.00  0.00     0.202 C 
BRANCH   2   3
ATOM      3  C   UNL A   1      29.981  28.639  22.434  1.00  0.00     0.261 C 
BRANCH   3   4
ATOM      4  O   UNL A   1      31.279  28.024  22.317  1.00  0.00    -0.463 OA
BRANCH   4   5
ATOM      5  C   UNL A   1      31.326  26.683  22.202  1.00  0.00     0.311 C 
ATOM      6  O   UNL A   1      31.679  26.089  21.188  1.00  0.00    -0.252 OA
BRANCH   5   7
ATOM      7  C   UNL A   1      30.929  25.947  23.474  1.00  0.00     0.123 C 
ATOM      8  C   UNL A   1      33.179  26.571  24.742  1.00  0.00     0.032 C 
ATOM      9  C   UNL A   1      31.786  25.946  24.769  1.00  0.00     0.096 C 
ATOM     10  N   UNL A   1      31.830  24.534  25.200  1.00  0.00    -0.336 N 
ATOM     11  C   UNL A   1      30.675  24.463  23.139  1.00  0.00     0.039 C 
ATOM     12  C   UNL A   1      31.490  23.646  24.116  1.00  0.00     0.121 C 
BRANCH  10  13
ATOM     13  C   UNL A   1      32.243  23.977  26.396  1.00  0.00     0.246 C 
ATOM     14  O   UNL A   1      31.502  23.878  27.374  1.00  0.00    -0.270 OA
BRANCH  13  15
ATOM     15  C   UNL A   1      33.590  23.362  26.487  1.00  0.00     0.072 C 
ATOM     16  C   UNL A   1      34.641  23.771  25.764  1.00  0.00     0.014 C 
BRANCH  16  17
ATOM     17  C   UNL A   1      35.964  23.123  25.711  1.00  0.00    -0.023 A 
ATOM     18  C   UNL A   1      36.029  21.810  25.214  1.00  0.00     0.008 A 
ATOM     19  C   UNL A   1      37.147  23.724  26.154  1.00  0.00     0.047 A 
ATOM     20  C   UNL A   1      37.241  21.115  25.159  1.00  0.00     0.004 A 
ATOM     21  C   UNL A   1      38.351  23.026  26.091  1.00  0.00     0.123 A 
ATOM     22  C   UNL A   1      38.409  21.728  25.599  1.00  0.00     0.039 A 
ATOM     23  F   UNL A   1      39.476  23.618  26.513  1.00  0.00    -0.207 F 
ENDBRANCH  16  17
ENDBRANCH  13  15
ENDBRANCH  10  13
ENDBRANCH   5   7
ENDBRANCH   4   5
ENDBRANCH   3   4
ENDBRANCH   2   3
ENDBRANCH   1   2
BRANCH   1  24
ATOM     24  C   UNL A   1      31.774  30.021  25.160  1.00  0.00     0.202 C 
BRANCH  24  25
ATOM     25  C   UNL A   1      31.638  30.994  26.337  1.00  0.00     0.261 C 
BRANCH  25  26
ATOM     26  O   UNL A   1      32.686  30.803  27.301  1.00  0.00    -0.460 OA
BRANCH  26  27
ATOM     27  C   UNL A   1      33.426  31.912  27.528  1.00  0.00     0.338 C 
ATOM     28  O   UNL A   1      33.007  33.057  27.627  1.00  0.00    -0.246 OA
BRANCH  27  29
ATOM     29  C   UNL A   1      34.827  31.551  27.824  1.00  0.00     0.060 A 
ATOM     30  C   UNL A   1      35.099  30.188  27.983  1.00  0.00     0.016 A 
ATOM     31  C   UNL A   1      35.836  32.501  28.010  1.00  0.00     0.016 A 
ATOM     32  C   UNL A   1      36.348  29.774  28.428  1.00  0.00     0.010 A 
ATOM     33  C   UNL A   1      37.099  32.082  28.448  1.00  0.00     0.010 A 
ATOM     34  C   UNL A   1      37.339  30.722  28.718  1.00  0.00    -0.014 A 
BRANCH  34  35
ATOM     35  C   UNL A   1      38.530  30.276  29.484  1.00  0.00     0.031 A 
ATOM     36  C   UNL A   1      38.687  30.735  30.911  1.00  0.00     0.074 A 
ATOM     37  C   UNL A   1      39.391  29.387  28.956  1.00  0.00     0.049 A 
ATOM     38  N   UNL A   1      39.591  30.405  31.797  1.00  0.00    -0.248 NA
ATOM     39  C   UNL A   1      37.688  31.697  31.404  1.00  0.00     0.031 C 
ATOM     40  C   UNL A   1      39.311  28.841  27.602  1.00  0.00     0.029 A 
ATOM     41  N   UNL A   1      40.488  28.772  29.503  1.00  0.00    -0.354 N 
ATOM     42  C   UNL A   1      39.269  31.114  32.951  1.00  0.00     0.074 A 
ATOM     43  C   UNL A   1      38.121  31.933  32.633  1.00  0.00     0.031 C 
ATOM     44  C   UNL A   1      40.310  27.958  27.429  1.00  0.00     0.029 A 
ATOM     45  C   UNL A   1      41.117  27.901  28.645  1.00  0.00     0.049 A 
ATOM     46  H   UNL A   1      40.795  28.938  30.423  1.00  0.00     0.167 HD
ATOM     47  C   UNL A   1      39.865  31.072  34.168  1.00  0.00     0.034 A 
ATOM     48  C   UNL A   1      42.222  27.148  28.822  1.00  0.00     0.034 A 
ATOM     49  C   UNL A   1      41.017  30.254  34.466  1.00  0.00     0.049 A 
ATOM     50  C   UNL A   1      42.912  27.172  30.164  1.00  0.00     0.074 A 
ATOM     51  C   UNL A   1      41.698  30.128  35.664  1.00  0.00     0.029 A 
ATOM     52  N   UNL A   1      41.665  29.430  33.553  1.00  0.00    -0.354 N 
ATOM     53  N   UNL A   1      42.589  27.837  31.252  1.00  0.00    -0.248 NA
ATOM     54  C   UNL A   1      44.105  26.330  30.308  1.00  0.00     0.031 C 
ATOM     55  C   UNL A   1      42.801  29.292  35.455  1.00  0.00     0.029 A 
ATOM     56  C   UNL A   1      42.757  28.821  34.152  1.00  0.00     0.049 A 
ATOM     57  H   UNL A   1      41.388  29.298  32.618  1.00  0.00     0.167 HD
ATOM     58  C   UNL A   1      43.521  27.463  32.217  1.00  0.00     0.074 A 
ATOM     59  C   UNL A   1      44.403  26.501  31.588  1.00  0.00     0.031 C 
ATOM     60  C   UNL A   1      43.638  27.873  33.508  1.00  0.00     0.034 A 
BRANCH  47  61
ATOM     61  C   UNL A   1      39.311  31.976  35.245  1.00  0.00     0.023 A 
ATOM     62  C   UNL A   1      39.707  33.321  35.364  1.00  0.00     0.031 A 
ATOM     63  C   UNL A   1      38.398  31.476  36.190  1.00  0.00     0.131 A 
ATOM     64  C   UNL A   1      39.249  34.094  36.445  1.00  0.00     0.055 A 
ATOM     65  C   UNL A   1      37.881  32.274  37.212  1.00  0.00     0.041 A 
ATOM     66  F   UNL A   1      38.002  30.194  36.144  1.00  0.00    -0.206 F 
ATOM     67  C   UNL A   1      38.319  33.588  37.353  1.00  0.00     0.022 A 
BRANCH  64  68
ATOM     68  S   UNL A   1      40.004  35.719  36.731  1.00  0.00     0.124 S 
ATOM     69  O   UNL A   1      41.413  35.366  36.887  1.00  0.00    -0.237 OA
ATOM     70  O   UNL A   1      39.657  36.446  35.516  1.00  0.00    -0.237 OA
ATOM     71  O   UNL A   1      39.347  36.191  37.949  1.00  0.00    -0.744 OA
ENDBRANCH  64  68
ENDBRANCH  47  61
BRANCH  48  72
ATOM     72  C   UNL A   1      42.765  26.326  27.701  1.00  0.00     0.023 A 
ATOM     73  C   UNL A   1      42.464  24.960  27.580  1.00  0.00     0.031 A 
ATOM     74  C   UNL A   1      43.647  26.891  26.761  1.00  0.00     0.131 A 
ATOM     75  C   UNL A   1      43.079  24.194  26.576  1.00  0.00     0.055 A 
ATOM     76  C   UNL A   1      44.210  26.139  25.730  1.00  0.00     0.041 A 
ATOM     77  F   UNL A   1      43.970  28.193  26.828  1.00  0.00    -0.206 F 
ATOM     78  C   UNL A   1      43.938  24.777  25.642  1.00  0.00     0.022 A 
BRANCH  75  79
ATOM     79  S   UNL A   1      42.812  22.401  26.564  1.00  0.00     0.124 S 
ATOM     80  O   UNL A   1      41.982  22.231  25.377  1.00  0.00    -0.237 OA
ATOM     81  O   UNL A   1      44.177  21.893  26.471  1.00  0.00    -0.237 OA
ATOM     82  O   UNL A   1      42.141  22.148  27.837  1.00  0.00    -0.744 OA
ENDBRANCH  75  79
ENDBRANCH  48  72
BRANCH  60  83
ATOM     83  C   UNL A   1      44.736  27.240  34.331  1.00  0.00     0.023 A 
ATOM     84  C   UNL A   1      44.564  26.003  34.976  1.00  0.00     0.031 A 
ATOM     85  C   UNL A   1      45.965  27.905  34.502  1.00  0.00     0.131 A 
ATOM     86  C   UNL A   1      45.567  25.507  35.821  1.00  0.00     0.055 A 
ATOM     87  C   UNL A   1      46.990  27.369  35.284  1.00  0.00     0.041 A 
ATOM     88  F   UNL A   1      46.189  29.091  33.914  1.00  0.00    -0.206 F 
ATOM     89  C   UNL A   1      46.786  26.173  35.965  1.00  0.00     0.022 A 
BRANCH  86  90
ATOM     90  S   UNL A   1      45.206  24.047  36.837  1.00  0.00     0.124 S 
ATOM     91  O   UNL A   1      44.475  24.631  37.958  1.00  0.00    -0.237 OA
ATOM     92  O   UNL A   1      44.421  23.221  35.926  1.00  0.00    -0.237 OA
ATOM     93  O   UNL A   1      46.529  23.523  37.166  1.00  0.00    -0.744 OA
ENDBRANCH  86  90
ENDBRANCH  60  83
ENDBRANCH  34  35
ENDBRANCH  27  29
ENDBRANCH  26  27
ENDBRANCH  25  26
ENDBRANCH  24  25
ENDBRANCH   1  24
TORSDOF 20
ENDMDL
MODEL 2
REMARK VINA RESULT:     -11.5      1.660      2.065
REMARK SMILES C[C@H]1[C@@H](C(=O)OCCOCCOC(=O)c2ccc(-c3c4nc(c(-c5cc(S(=O)(=O)[O-])ccc5F)c5ccc([nH]5)c(-c5cc(S(=O)(=O)[O-])ccc5F)c5nc(c(-c6cc(S(=O)(=O)[O-])ccc6F)c6ccc3[nH]6)C=C5)C=C4)cc2)CCN1C(=O)/C=C/c1cccc(F)c1
REMARK SMILES IDX 9 1 8 2 7 3 6 4 4 5 5 6 3 7 1 8 2 9 80 10 78 11 79 12 81 13
REMARK SMILES IDX 82 14 83 15 84 16 85 17 86 18 91 19 87 20 89 21 88 22 90 23
REMARK SMILES IDX 10 24 11 25 12 26 13 27 14 28 15 29 16 30 77 31 17 32 76 33
REMARK SMILES IDX 18 34 19 35 20 36 70 37 21 38 75 39 69 40 71 41 22 42 74 43
REMARK SMILES IDX 68 44 67 45 23 47 55 48 35 49 54 50 36 51 39 52 53 53 72 54
REMARK SMILES IDX 37 55 38 56 52 58 73 59 40 60 24 61 25 62 33 63 26 64 32 65
REMARK SMILES IDX 34 66 31 67 27 68 28 69 29 70 30 71 56 72 57 73 65 74 58 75
REMARK SMILES IDX 64 76 66 77 63 78 59 79 60 80 61 81 62 82 41 83 42 84 50 85
REMARK SMILES IDX 43 86 49 87 51 88 48 89 44 90 45 91 46 92 47 93
REMARK H PARENT 71 46 39 57
REMARK Flexibility Score: inf
ROOT
ATOM      1  O   UNL A   1      31.115  29.439  24.135  1.00  0.00    -0.374 OA
ENDROOT
BRANCH   1   2
ATOM      2  C   UNL A   1      32.023  29.123  23.074  1.00  0.00     0.202 C 
BRANCH   2   3
ATOM      3  C   UNL A   1      33.262  28.335  23.517  1.00  0.00     0.261 C 
BRANCH   3   4
ATOM      4  O   UNL A   1      33.757  27.556  22.410  1.00  0.00    -0.463 OA
BRANCH   4   5
ATOM      5  C   UNL A   1      33.238  26.328  22.229  1.00  0.00     0.311 C 
ATOM      6  O   UNL A   1      33.442  25.630  21.240  1.00  0.00    -0.252 OA
BRANCH   5   7
ATOM      7  C   UNL A   1      32.386  25.848  23.395  1.00  0.00     0.123 C 
ATOM      8  C   UNL A   1      34.300  24.289  24.378  1.00  0.00     0.032 C 
ATOM      9  C   UNL A   1      32.911  24.908  24.515  1.00  0.00     0.096 C 
ATOM     10  N   UNL A   1      31.868  23.876  24.673  1.00  0.00    -0.336 N 
ATOM     11  C   UNL A   1      31.114  25.170  22.845  1.00  0.00     0.039 C 
ATOM     12  C   UNL A   1      31.008  23.819  23.516  1.00  0.00     0.121 C 
BRANCH  10  13
ATOM     13  C   UNL A   1      31.686  22.933  25.667  1.00  0.00     0.246 C 
ATOM     14  O   UNL A   1      31.038  23.161  26.689  1.00  0.00    -0.270 OA
BRANCH  13  15
ATOM     15  C   UNL A   1      32.183  21.550  25.461  1.00  0.00     0.072 C 
ATOM     16  C   UNL A   1      32.745  21.128  24.320  1.00  0.00     0.014 C 
BRANCH  16  17
ATOM     17  C   UNL A   1      33.137  19.742  24.007  1.00  0.00    -0.023 A 
ATOM     18  C   UNL A   1      32.356  19.036  23.075  1.00  0.00     0.008 A 
ATOM     19  C   UNL A   1      34.218  19.082  24.602  1.00  0.00     0.047 A 
ATOM     20  C   UNL A   1      32.645  17.709  22.746  1.00  0.00     0.004 A 
ATOM     21  C   UNL A   1      34.500  17.760  24.264  1.00  0.00     0.123 A 
ATOM     22  C   UNL A   1      33.725  17.068  23.343  1.00  0.00     0.039 A 
ATOM     23  F   UNL A   1      35.542  17.144  24.839  1.00  0.00    -0.207 F 
ENDBRANCH  16  17
ENDBRANCH  13  15
ENDBRANCH  10  13
ENDBRANCH   5   7
ENDBRANCH   4   5
ENDBRANCH   3   4
ENDBRANCH   2   3
ENDBRANCH   1   2
BRANCH   1  24
ATOM     24  C   UNL A   1      31.648  29.436  25.456  1.00  0.00     0.202 C 
BRANCH  24  25
ATOM     25  C   UNL A   1      31.740  30.798  26.152  1.00  0.00     0.261 C 
BRANCH  25  26
ATOM     26  O   UNL A   1      32.581  30.739  27.315  1.00  0.00    -0.460 OA
BRANCH  26  27
ATOM     27  C   UNL A   1      33.309  31.860  27.519  1.00  0.00     0.338 C 
ATOM     28  O   UNL A   1      32.877  33.002  27.603  1.00  0.00    -0.246 OA
BRANCH  27  29
ATOM     29  C   UNL A   1      34.717  31.521  27.809  1.00  0.00     0.060 A 
ATOM     30  C   UNL A   1      35.008  30.163  27.977  1.00  0.00     0.016 A 
ATOM     31  C   UNL A   1      35.714  32.487  27.981  1.00  0.00     0.016 A 
ATOM     32  C   UNL A   1      36.265  29.771  28.419  1.00  0.00     0.010 A 
ATOM     33  C   UNL A   1      36.985  32.088  28.415  1.00  0.00     0.010 A 
ATOM     34  C   UNL A   1      37.245  30.734  28.695  1.00  0.00    -0.014 A 
BRANCH  34  35
ATOM     35  C   UNL A   1      38.447  30.311  29.457  1.00  0.00     0.031 A 
ATOM     36  C   UNL A   1      38.616  30.800  30.873  1.00  0.00     0.074 A 
ATOM     37  C   UNL A   1      39.308  29.417  28.938  1.00  0.00     0.049 A 
ATOM     38  N   UNL A   1      39.531  30.493  31.755  1.00  0.00    -0.248 NA
ATOM     39  C   UNL A   1      37.616  31.765  31.357  1.00  0.00     0.031 C 
ATOM     40  C   UNL A   1      39.217  28.842  27.596  1.00  0.00     0.029 A 
ATOM     41  N   UNL A   1      40.413  28.819  29.486  1.00  0.00    -0.354 N 
ATOM     42  C   UNL A   1      39.217  31.224  32.898  1.00  0.00     0.074 A 
ATOM     43  C   UNL A   1      38.060  32.029  32.575  1.00  0.00     0.031 C 
ATOM     44  C   UNL A   1      40.219  27.962  27.431  1.00  0.00     0.029 A 
ATOM     45  C   UNL A   1      41.039  27.934  28.639  1.00  0.00     0.049 A 
ATOM     46  H   UNL A   1      40.730  29.005  30.399  1.00  0.00     0.167 HD
ATOM     47  C   UNL A   1      39.826  31.210  34.109  1.00  0.00     0.034 A 
ATOM     48  C   UNL A   1      42.151  27.191  28.820  1.00  0.00     0.034 A 
ATOM     49  C   UNL A   1      40.986  30.405  34.412  1.00  0.00     0.049 A 
ATOM     50  C   UNL A   1      42.854  27.247  30.154  1.00  0.00     0.074 A 
ATOM     51  C   UNL A   1      41.681  30.307  35.604  1.00  0.00     0.029 A 
ATOM     52  N   UNL A   1      41.629  29.566  33.509  1.00  0.00    -0.354 N 
ATOM     53  N   UNL A   1      42.539  27.932  31.231  1.00  0.00    -0.248 NA
ATOM     54  C   UNL A   1      44.054  26.415  30.302  1.00  0.00     0.031 C 
ATOM     55  C   UNL A   1      42.786  29.473  35.401  1.00  0.00     0.029 A 
ATOM     56  C   UNL A   1      42.731  28.975  34.108  1.00  0.00     0.049 A 
ATOM     57  H   UNL A   1      41.343  29.414  32.580  1.00  0.00     0.167 HD
ATOM     58  C   UNL A   1      43.483  27.583  32.194  1.00  0.00     0.074 A 
ATOM     59  C   UNL A   1      44.364  26.613  31.575  1.00  0.00     0.031 C 
ATOM     60  C   UNL A   1      43.611  28.020  33.474  1.00  0.00     0.034 A 
BRANCH  47  61
ATOM     61  C   UNL A   1      39.277  32.132  35.174  1.00  0.00     0.023 A 
ATOM     62  C   UNL A   1      39.694  33.472  35.284  1.00  0.00     0.031 A 
ATOM     63  C   UNL A   1      38.350  31.655  36.116  1.00  0.00     0.131 A 
ATOM     64  C   UNL A   1      39.240  34.262  36.353  1.00  0.00     0.055 A 
ATOM     65  C   UNL A   1      37.837  32.470  37.127  1.00  0.00     0.041 A 
ATOM     66  F   UNL A   1      37.935  30.379  36.079  1.00  0.00    -0.206 F 
ATOM     67  C   UNL A   1      38.294  33.778  37.259  1.00  0.00     0.022 A 
BRANCH  64  68
ATOM     68  S   UNL A   1      40.017  35.878  36.630  1.00  0.00     0.124 S 
ATOM     69  O   UNL A   1      41.417  35.504  36.813  1.00  0.00    -0.237 OA
ATOM     70  O   UNL A   1      39.701  36.595  35.400  1.00  0.00    -0.237 OA
ATOM     71  O   UNL A   1      39.350  36.376  37.832  1.00  0.00    -0.744 OA
ENDBRANCH  64  68
ENDBRANCH  47  61
BRANCH  48  72
ATOM     72  C   UNL A   1      42.687  26.350  27.710  1.00  0.00     0.023 A 
ATOM     73  C   UNL A   1      42.174  25.070  27.446  1.00  0.00     0.031 A 
ATOM     74  C   UNL A   1      43.768  26.799  26.929  1.00  0.00     0.131 A 
ATOM     75  C   UNL A   1      42.775  24.264  26.465  1.00  0.00     0.055 A 
ATOM     76  C   UNL A   1      44.324  26.017  25.916  1.00  0.00     0.041 A 
ATOM     77  F   UNL A   1      44.298  28.015  27.136  1.00  0.00    -0.206 F 
ATOM     78  C   UNL A   1      43.836  24.734  25.689  1.00  0.00     0.022 A 
BRANCH  75  79
ATOM     79  S   UNL A   1      42.208  22.551  26.280  1.00  0.00     0.124 S 
ATOM     80  O   UNL A   1      42.805  21.912  27.447  1.00  0.00    -0.237 OA
ATOM     81  O   UNL A   1      40.757  22.708  26.307  1.00  0.00    -0.237 OA
ATOM     82  O   UNL A   1      42.765  22.146  24.992  1.00  0.00    -0.744 OA
ENDBRANCH  75  79
ENDBRANCH  48  72
BRANCH  60  83
ATOM     83  C   UNL A   1      44.722  27.410  34.298  1.00  0.00     0.023 A 
ATOM     84  C   UNL A   1      44.546  26.214  35.015  1.00  0.00     0.031 A 
ATOM     85  C   UNL A   1      45.967  28.058  34.397  1.00  0.00     0.131 A 
ATOM     86  C   UNL A   1      45.565  25.744  35.856  1.00  0.00     0.055 A 
ATOM     87  C   UNL A   1      47.005  27.545  35.177  1.00  0.00     0.041 A 
ATOM     88  F   UNL A   1      46.196  29.206  33.739  1.00  0.00    -0.206 F 
ATOM     89  C   UNL A   1      46.800  26.391  35.928  1.00  0.00     0.022 A 
BRANCH  86  90
ATOM     90  S   UNL A   1      45.207  24.348  36.960  1.00  0.00     0.124 S 
ATOM     91  O   UNL A   1      44.449  23.458  36.086  1.00  0.00    -0.237 OA
ATOM     92  O   UNL A   1      46.543  23.893  37.328  1.00  0.00    -0.237 OA
ATOM     93  O   UNL A   1      44.438  24.957  38.043  1.00  0.00    -0.744 OA
ENDBRANCH  86  90
ENDBRANCH  60  83
ENDBRANCH  34  35
ENDBRANCH  27  29
ENDBRANCH  26  27
ENDBRANCH  25  26
ENDBRANCH  24  25
ENDBRANCH   1  24
TORSDOF 20
ENDMDL
MODEL 3
REMARK VINA RESULT:     -11.3      2.029      8.028
REMARK SMILES C[C@H]1[C@@H](C(=O)OCCOCCOC(=O)c2ccc(-c3c4nc(c(-c5cc(S(=O)(=O)[O-])ccc5F)c5ccc([nH]5)c(-c5cc(S(=O)(=O)[O-])ccc5F)c5nc(c(-c6cc(S(=O)(=O)[O-])ccc6F)c6ccc3[nH]6)C=C5)C=C4)cc2)CCN1C(=O)/C=C/c1cccc(F)c1
REMARK SMILES IDX 9 1 8 2 7 3 6 4 4 5 5 6 3 7 1 8 2 9 80 10 78 11 79 12 81 13
REMARK SMILES IDX 82 14 83 15 84 16 85 17 86 18 91 19 87 20 89 21 88 22 90 23
REMARK SMILES IDX 10 24 11 25 12 26 13 27 14 28 15 29 16 30 77 31 17 32 76 33
REMARK SMILES IDX 18 34 19 35 20 36 70 37 21 38 75 39 69 40 71 41 22 42 74 43
REMARK SMILES IDX 68 44 67 45 23 47 55 48 35 49 54 50 36 51 39 52 53 53 72 54
REMARK SMILES IDX 37 55 38 56 52 58 73 59 40 60 24 61 25 62 33 63 26 64 32 65
REMARK SMILES IDX 34 66 31 67 27 68 28 69 29 70 30 71 56 72 57 73 65 74 58 75
REMARK SMILES IDX 64 76 66 77 63 78 59 79 60 80 61 81 62 82 41 83 42 84 50 85
REMARK SMILES IDX 43 86 49 87 51 88 48 89 44 90 45 91 46 92 47 93
REMARK H PARENT 71 46 39 57
REMARK Flexibility Score: inf
ROOT
ATOM      1  O   UNL A   1      30.738  29.139  24.129  1.00  0.00    -0.374 OA
ENDROOT
BRANCH   1   2
ATOM      2  C   UNL A   1      31.123  28.758  22.803  1.00  0.00     0.202 C 
BRANCH   2   3
ATOM      3  C   UNL A   1      31.429  27.265  22.639  1.00  0.00     0.261 C 
BRANCH   3   4
ATOM      4  O   UNL A   1      32.832  27.033  22.875  1.00  0.00    -0.463 OA
BRANCH   4   5
ATOM      5  C   UNL A   1      33.373  25.909  22.370  1.00  0.00     0.311 C 
ATOM      6  O   UNL A   1      33.470  25.667  21.171  1.00  0.00    -0.252 OA
BRANCH   5   7
ATOM      7  C   UNL A   1      33.899  24.954  23.432  1.00  0.00     0.123 C 
ATOM      8  C   UNL A   1      31.828  23.302  23.218  1.00  0.00     0.032 C 
ATOM      9  C   UNL A   1      33.200  23.619  23.809  1.00  0.00     0.096 C 
ATOM     10  N   UNL A   1      33.174  23.602  25.286  1.00  0.00    -0.336 N 
ATOM     11  C   UNL A   1      34.077  25.721  24.757  1.00  0.00     0.039 C 
ATOM     12  C   UNL A   1      33.364  24.926  25.827  1.00  0.00     0.121 C 
BRANCH  10  13
ATOM     13  C   UNL A   1      32.891  22.573  26.164  1.00  0.00     0.246 C 
ATOM     14  O   UNL A   1      32.136  22.708  27.126  1.00  0.00    -0.270 OA
BRANCH  13  15
ATOM     15  C   UNL A   1      33.415  21.213  25.885  1.00  0.00     0.072 C 
ATOM     16  C   UNL A   1      32.676  20.228  25.356  1.00  0.00     0.014 C 
BRANCH  16  17
ATOM     17  C   UNL A   1      33.096  18.827  25.176  1.00  0.00    -0.023 A 
ATOM     18  C   UNL A   1      34.126  18.566  24.256  1.00  0.00     0.008 A 
ATOM     19  C   UNL A   1      32.513  17.745  25.843  1.00  0.00     0.047 A 
ATOM     20  C   UNL A   1      34.562  17.262  24.006  1.00  0.00     0.004 A 
ATOM     21  C   UNL A   1      32.957  16.448  25.591  1.00  0.00     0.123 A 
ATOM     22  C   UNL A   1      33.974  16.196  24.680  1.00  0.00     0.039 A 
ATOM     23  F   UNL A   1      32.391  15.423  26.241  1.00  0.00    -0.207 F 
ENDBRANCH  16  17
ENDBRANCH  13  15
ENDBRANCH  10  13
ENDBRANCH   5   7
ENDBRANCH   4   5
ENDBRANCH   3   4
ENDBRANCH   2   3
ENDBRANCH   1   2
BRANCH   1  24
ATOM     24  C   UNL A   1      31.787  29.506  25.020  1.00  0.00     0.202 C 
BRANCH  24  25
ATOM     25  C   UNL A   1      31.538  30.745  25.886  1.00  0.00     0.261 C 
BRANCH  25  26
ATOM     26  O   UNL A   1      32.300  30.699  27.103  1.00  0.00    -0.460 OA
BRANCH  26  27
ATOM     27  C   UNL A   1      33.025  31.817  27.335  1.00  0.00     0.338 C 
ATOM     28  O   UNL A   1      32.607  32.967  27.338  1.00  0.00    -0.246 OA
BRANCH  27  29
ATOM     29  C   UNL A   1      34.393  31.469  27.768  1.00  0.00     0.060 A 
ATOM     30  C   UNL A   1      34.661  30.108  27.951  1.00  0.00     0.016 A 
ATOM     31  C   UNL A   1      35.369  32.428  28.055  1.00  0.00     0.016 A 
ATOM     32  C   UNL A   1      35.864  29.706  28.518  1.00  0.00     0.010 A 
ATOM     33  C   UNL A   1      36.586  32.020  28.617  1.00  0.00     0.010 A 
ATOM     34  C   UNL A   1      36.811  30.662  28.907  1.00  0.00    -0.014 A 
BRANCH  34  35
ATOM     35  C   UNL A   1      37.925  30.226  29.787  1.00  0.00     0.031 A 
ATOM     36  C   UNL A   1      38.941  29.254  29.243  1.00  0.00     0.074 A 
ATOM     37  C   UNL A   1      38.092  30.775  31.004  1.00  0.00     0.049 A 
ATOM     38  N   UNL A   1      40.039  28.805  29.792  1.00  0.00    -0.248 NA
ATOM     39  C   UNL A   1      38.680  28.719  27.897  1.00  0.00     0.031 C 
ATOM     40  C   UNL A   1      37.197  31.758  31.614  1.00  0.00     0.029 A 
ATOM     41  N   UNL A   1      39.084  30.600  31.935  1.00  0.00    -0.354 N 
ATOM     42  C   UNL A   1      40.602  27.938  28.859  1.00  0.00     0.074 A 
ATOM     43  C   UNL A   1      39.693  27.883  27.735  1.00  0.00     0.031 C 
ATOM     44  C   UNL A   1      37.689  32.111  32.813  1.00  0.00     0.029 A 
ATOM     45  C   UNL A   1      38.915  31.358  33.070  1.00  0.00     0.049 A 
ATOM     46  H   UNL A   1      39.845  29.991  31.803  1.00  0.00     0.167 HD
ATOM     47  C   UNL A   1      41.777  27.263  28.927  1.00  0.00     0.034 A 
ATOM     48  C   UNL A   1      39.662  31.429  34.191  1.00  0.00     0.034 A 
ATOM     49  C   UNL A   1      42.669  27.323  30.060  1.00  0.00     0.049 A 
ATOM     50  C   UNL A   1      40.929  30.613  34.273  1.00  0.00     0.074 A 
ATOM     51  C   UNL A   1      43.885  26.688  30.235  1.00  0.00     0.029 A 
ATOM     52  N   UNL A   1      42.434  28.053  31.219  1.00  0.00    -0.354 N 
ATOM     53  N   UNL A   1      41.457  29.808  33.378  1.00  0.00    -0.248 NA
ATOM     54  C   UNL A   1      41.711  30.731  35.509  1.00  0.00     0.031 C 
ATOM     55  C   UNL A   1      44.347  26.971  31.525  1.00  0.00     0.029 A 
ATOM     56  C   UNL A   1      43.465  27.857  32.125  1.00  0.00     0.049 A 
ATOM     57  H   UNL A   1      41.649  28.627  31.374  1.00  0.00     0.167 HD
ATOM     58  C   UNL A   1      42.651  29.352  33.934  1.00  0.00     0.074 A 
ATOM     59  C   UNL A   1      42.772  29.990  35.229  1.00  0.00     0.031 C 
ATOM     60  C   UNL A   1      43.567  28.489  33.421  1.00  0.00     0.034 A 
BRANCH  47  61
ATOM     61  C   UNL A   1      42.130  26.366  27.763  1.00  0.00     0.023 A 
ATOM     62  C   UNL A   1      41.684  25.033  27.688  1.00  0.00     0.031 A 
ATOM     63  C   UNL A   1      42.957  26.839  26.729  1.00  0.00     0.131 A 
ATOM     64  C   UNL A   1      42.126  24.203  26.645  1.00  0.00     0.055 A 
ATOM     65  C   UNL A   1      43.324  26.033  25.649  1.00  0.00     0.041 A 
ATOM     66  F   UNL A   1      43.436  28.092  26.757  1.00  0.00    -0.206 F 
ATOM     67  C   UNL A   1      42.921  24.701  25.611  1.00  0.00     0.022 A 
BRANCH  64  68
ATOM     68  S   UNL A   1      41.772  22.426  26.739  1.00  0.00     0.124 S 
ATOM     69  O   UNL A   1      42.263  21.959  25.445  1.00  0.00    -0.237 OA
ATOM     70  O   UNL A   1      42.545  22.012  27.904  1.00  0.00    -0.237 OA
ATOM     71  O   UNL A   1      40.320  22.375  26.903  1.00  0.00    -0.744 OA
ENDBRANCH  64  68
ENDBRANCH  47  61
BRANCH  48  72
ATOM     72  C   UNL A   1      39.228  32.280  35.337  1.00  0.00     0.023 A 
ATOM     73  C   UNL A   1      39.669  33.605  35.475  1.00  0.00     0.031 A 
ATOM     74  C   UNL A   1      38.404  31.753  36.349  1.00  0.00     0.131 A 
ATOM     75  C   UNL A   1      39.329  34.341  36.621  1.00  0.00     0.055 A 
ATOM     76  C   UNL A   1      38.020  32.507  37.458  1.00  0.00     0.041 A 
ATOM     77  F   UNL A   1      37.951  30.491  36.269  1.00  0.00    -0.206 F 
ATOM     78  C   UNL A   1      38.495  33.806  37.606  1.00  0.00     0.022 A 
BRANCH  75  79
ATOM     79  S   UNL A   1      40.067  35.981  36.855  1.00  0.00     0.124 S 
ATOM     80  O   UNL A   1      39.763  36.628  35.584  1.00  0.00    -0.237 OA
ATOM     81  O   UNL A   1      39.340  36.477  38.019  1.00  0.00    -0.237 OA
ATOM     82  O   UNL A   1      41.480  35.689  37.084  1.00  0.00    -0.744 OA
ENDBRANCH  75  79
ENDBRANCH  48  72
BRANCH  60  83
ATOM     83  C   UNL A   1      44.801  28.225  34.253  1.00  0.00     0.023 A 
ATOM     84  C   UNL A   1      44.807  27.286  35.299  1.00  0.00     0.031 A 
ATOM     85  C   UNL A   1      45.982  28.953  34.016  1.00  0.00     0.131 A 
ATOM     86  C   UNL A   1      45.939  27.155  36.116  1.00  0.00     0.055 A 
ATOM     87  C   UNL A   1      47.131  28.763  34.785  1.00  0.00     0.041 A 
ATOM     88  F   UNL A   1      46.038  29.866  33.033  1.00  0.00    -0.206 F 
ATOM     89  C   UNL A   1      47.107  27.874  35.855  1.00  0.00     0.022 A 
BRANCH  86  90
ATOM     90  S   UNL A   1      45.820  26.130  37.609  1.00  0.00     0.124 S 
ATOM     91  O   UNL A   1      45.795  27.136  38.666  1.00  0.00    -0.237 OA
ATOM     92  O   UNL A   1      44.572  25.405  37.389  1.00  0.00    -0.237 OA
ATOM     93  O   UNL A   1      47.029  25.312  37.561  1.00  0.00    -0.744 OA
ENDBRANCH  86  90
ENDBRANCH  60  83
ENDBRANCH  34  35
ENDBRANCH  27  29
ENDBRANCH  26  27
ENDBRANCH  25  26
ENDBRANCH  24  25
ENDBRANCH   1  24
TORSDOF 20
ENDMDL
