MODEL 1
REMARK VINA RESULT:     -10.8      0.000      0.000
REMARK SMILES NC(=O)[C@@H]1CCCCN1c1cncc(C(=O)OCCOCCOC(=O)c2ccc(-c3c4nc(c(-c5cc(S(=O)(=O)[O-])ccc5F)c5ccc([nH]5)c(-c5cc(S(=O)(=O)[O-])ccc5F)c5nc(c(-c6cc(S(=O)(=O)[O-])ccc6F)c6ccc3[nH]6)C=C5)C=C4)cc2)n1
REMARK SMILES IDX 21 1 20 2 19 3 18 4 17 5 15 6 16 7 14 8 10 9 11 10 89 11
REMARK SMILES IDX 12 12 13 13 9 14 4 15 5 16 6 17 8 18 7 19 2 20 1 21 3 24
REMARK SMILES IDX 22 25 23 26 24 27 25 28 26 29 27 30 88 31 28 32 87 33 29 34
REMARK SMILES IDX 30 35 31 36 81 37 32 38 86 39 80 40 82 41 33 42 85 43 79 44
REMARK SMILES IDX 78 45 34 47 66 48 46 49 65 50 47 51 50 52 64 53 83 54 48 55
REMARK SMILES IDX 49 56 63 58 84 59 51 60 35 61 36 62 44 63 37 64 43 65 45 66
REMARK SMILES IDX 42 67 38 68 39 69 40 70 41 71 67 72 68 73 76 74 69 75 75 76
REMARK SMILES IDX 77 77 74 78 70 79 71 80 72 81 73 82 52 83 53 84 61 85 54 86
REMARK SMILES IDX 60 87 62 88 59 89 55 90 56 91 57 92 58 93
REMARK H PARENT 1 22 1 23 82 46 50 57
REMARK Flexibility Score: inf
ROOT
ATOM      1  C   UNL A   1      32.490  29.253  24.909  1.00  0.00     0.202 C 
ENDROOT
BRANCH   1   2
ATOM      2  O   UNL A   1      31.987  28.971  23.602  1.00  0.00    -0.374 OA
BRANCH   2   3
ATOM      3  C   UNL A   1      31.284  27.738  23.438  1.00  0.00     0.202 C 
BRANCH   3   4
ATOM      4  C   UNL A   1      29.956  27.620  24.196  1.00  0.00     0.261 C 
BRANCH   4   5
ATOM      5  O   UNL A   1      29.882  26.390  24.938  1.00  0.00    -0.458 OA
BRANCH   5   6
ATOM      6  C   UNL A   1      30.684  26.323  26.031  1.00  0.00     0.358 C 
ATOM      7  O   UNL A   1      30.661  27.072  26.997  1.00  0.00    -0.244 OA
BRANCH   6   8
ATOM      8  C   UNL A   1      31.472  25.071  26.019  1.00  0.00     0.169 A 
ATOM      9  C   UNL A   1      33.370  23.863  25.500  1.00  0.00     0.148 A 
ATOM     10  C   UNL A   1      32.695  22.725  25.975  1.00  0.00     0.157 A 
ATOM     11  N   UNL A   1      32.725  25.052  25.484  1.00  0.00    -0.220 NA
ATOM     12  N   UNL A   1      31.430  22.719  26.469  1.00  0.00    -0.258 NA
ATOM     13  C   UNL A   1      30.843  23.933  26.501  1.00  0.00     0.147 A 
BRANCH   9  14
ATOM     14  N   UNL A   1      34.680  23.802  25.082  1.00  0.00    -0.343 N 
ATOM     15  C   UNL A   1      35.056  23.815  23.649  1.00  0.00     0.172 C 
ATOM     16  C   UNL A   1      35.834  22.533  23.336  1.00  0.00     0.035 C 
ATOM     17  C   UNL A   1      37.047  22.408  24.260  1.00  0.00     0.004 C 
ATOM     18  C   UNL A   1      35.785  23.719  26.031  1.00  0.00     0.119 C 
ATOM     19  C   UNL A   1      36.629  22.476  25.729  1.00  0.00     0.022 C 
BRANCH  15  20
ATOM     20  C   UNL A   1      33.927  24.178  22.654  1.00  0.00     0.240 C 
ATOM     21  N   UNL A   1      33.117  23.177  22.200  1.00  0.00    -0.368 N 
ATOM     22  H   UNL A   1      32.392  23.378  21.566  1.00  0.00     0.159 HD
ATOM     23  H   UNL A   1      33.260  22.251  22.507  1.00  0.00     0.159 HD
ATOM     24  O   UNL A   1      33.747  25.329  22.248  1.00  0.00    -0.273 OA
ENDBRANCH  15  20
ENDBRANCH   9  14
ENDBRANCH   6   8
ENDBRANCH   5   6
ENDBRANCH   4   5
ENDBRANCH   3   4
ENDBRANCH   2   3
ENDBRANCH   1   2
BRANCH   1  25
ATOM     25  C   UNL A   1      31.813  30.395  25.678  1.00  0.00     0.261 C 
BRANCH  25  26
ATOM     26  O   UNL A   1      32.326  30.520  27.015  1.00  0.00    -0.460 OA
BRANCH  26  27
ATOM     27  C   UNL A   1      33.019  31.658  27.252  1.00  0.00     0.338 C 
ATOM     28  O   UNL A   1      32.587  32.803  27.204  1.00  0.00    -0.246 OA
BRANCH  27  29
ATOM     29  C   UNL A   1      34.359  31.332  27.775  1.00  0.00     0.060 A 
ATOM     30  C   UNL A   1      34.635  29.986  28.043  1.00  0.00     0.016 A 
ATOM     31  C   UNL A   1      35.311  32.318  28.046  1.00  0.00     0.016 A 
ATOM     32  C   UNL A   1      35.843  29.624  28.634  1.00  0.00     0.010 A 
ATOM     33  C   UNL A   1      36.522  31.953  28.644  1.00  0.00     0.010 A 
ATOM     34  C   UNL A   1      36.779  30.609  28.972  1.00  0.00    -0.014 A 
BRANCH  34  35
ATOM     35  C   UNL A   1      37.957  30.245  29.798  1.00  0.00     0.031 A 
ATOM     36  C   UNL A   1      38.948  29.253  29.255  1.00  0.00     0.074 A 
ATOM     37  C   UNL A   1      38.149  30.803  31.005  1.00  0.00     0.049 A 
ATOM     38  N   UNL A   1      40.023  28.759  29.813  1.00  0.00    -0.248 NA
ATOM     39  C   UNL A   1      38.679  28.740  27.904  1.00  0.00     0.031 C 
ATOM     40  C   UNL A   1      37.270  31.795  31.623  1.00  0.00     0.029 A 
ATOM     41  N   UNL A   1      39.139  30.604  31.934  1.00  0.00    -0.354 N 
ATOM     42  C   UNL A   1      40.555  27.869  28.886  1.00  0.00     0.074 A 
ATOM     43  C   UNL A   1      39.657  27.862  27.750  1.00  0.00     0.031 C 
ATOM     44  C   UNL A   1      37.750  32.102  32.839  1.00  0.00     0.029 A 
ATOM     45  C   UNL A   1      38.947  31.304  33.100  1.00  0.00     0.049 A 
ATOM     46  H   UNL A   1      39.914  30.016  31.779  1.00  0.00     0.167 HD
ATOM     47  C   UNL A   1      41.693  27.134  28.972  1.00  0.00     0.034 A 
ATOM     48  C   UNL A   1      39.636  31.278  34.259  1.00  0.00     0.034 A 
ATOM     49  C   UNL A   1      42.569  27.147  30.120  1.00  0.00     0.049 A 
ATOM     50  C   UNL A   1      40.862  30.408  34.364  1.00  0.00     0.074 A 
ATOM     51  C   UNL A   1      43.767  26.478  30.299  1.00  0.00     0.029 A 
ATOM     52  N   UNL A   1      42.329  27.849  31.296  1.00  0.00    -0.354 N 
ATOM     53  N   UNL A   1      41.380  29.597  33.469  1.00  0.00    -0.248 NA
ATOM     54  C   UNL A   1      41.605  30.458  35.630  1.00  0.00     0.031 C 
ATOM     55  C   UNL A   1      44.206  26.707  31.609  1.00  0.00     0.029 A 
ATOM     56  C   UNL A   1      43.332  27.592  32.220  1.00  0.00     0.049 A 
ATOM     57  H   UNL A   1      41.559  28.443  31.451  1.00  0.00     0.167 HD
ATOM     58  C   UNL A   1      42.522  29.058  34.056  1.00  0.00     0.074 A 
ATOM     59  C   UNL A   1      42.623  29.647  35.377  1.00  0.00     0.031 C 
ATOM     60  C   UNL A   1      43.410  28.164  33.547  1.00  0.00     0.034 A 
BRANCH  47  61
ATOM     61  C   UNL A   1      42.006  26.209  27.818  1.00  0.00     0.023 A 
ATOM     62  C   UNL A   1      41.537  24.882  27.778  1.00  0.00     0.031 A 
ATOM     63  C   UNL A   1      42.838  26.639  26.769  1.00  0.00     0.131 A 
ATOM     64  C   UNL A   1      41.982  24.011  26.771  1.00  0.00     0.055 A 
ATOM     65  C   UNL A   1      43.201  25.794  25.719  1.00  0.00     0.041 A 
ATOM     66  F   UNL A   1      43.336  27.886  26.760  1.00  0.00    -0.206 F 
ATOM     67  C   UNL A   1      42.789  24.465  25.727  1.00  0.00     0.022 A 
BRANCH  64  68
ATOM     68  S   UNL A   1      41.641  22.238  26.949  1.00  0.00     0.124 S 
ATOM     69  O   UNL A   1      42.474  21.891  28.099  1.00  0.00    -0.237 OA
ATOM     70  O   UNL A   1      40.200  22.215  27.172  1.00  0.00    -0.237 OA
ATOM     71  O   UNL A   1      42.085  21.675  25.676  1.00  0.00    -0.744 OA
ENDBRANCH  64  68
ENDBRANCH  47  61
BRANCH  48  72
ATOM     72  C   UNL A   1      39.147  32.064  35.427  1.00  0.00     0.023 A 
ATOM     73  C   UNL A   1      38.470  31.453  36.494  1.00  0.00     0.031 A 
ATOM     74  C   UNL A   1      39.346  33.456  35.481  1.00  0.00     0.131 A 
ATOM     75  C   UNL A   1      37.995  32.237  37.558  1.00  0.00     0.055 A 
ATOM     76  C   UNL A   1      38.913  34.224  36.563  1.00  0.00     0.041 A 
ATOM     77  F   UNL A   1      39.993  34.088  34.488  1.00  0.00    -0.206 F 
ATOM     78  C   UNL A   1      38.225  33.614  37.606  1.00  0.00     0.022 A 
BRANCH  75  79
ATOM     79  S   UNL A   1      37.025  31.436  38.865  1.00  0.00     0.124 S 
ATOM     80  O   UNL A   1      37.904  31.583  40.019  1.00  0.00    -0.237 OA
ATOM     81  O   UNL A   1      35.809  32.242  38.875  1.00  0.00    -0.237 OA
ATOM     82  O   UNL A   1      36.859  30.069  38.375  1.00  0.00    -0.744 OA
ENDBRANCH  75  79
ENDBRANCH  48  72
BRANCH  60  83
ATOM     83  C   UNL A   1      44.591  27.795  34.414  1.00  0.00     0.023 A 
ATOM     84  C   UNL A   1      44.551  26.704  35.299  1.00  0.00     0.031 A 
ATOM     85  C   UNL A   1      45.775  28.553  34.357  1.00  0.00     0.131 A 
ATOM     86  C   UNL A   1      45.652  26.432  36.128  1.00  0.00     0.055 A 
ATOM     87  C   UNL A   1      46.890  28.241  35.137  1.00  0.00     0.041 A 
ATOM     88  F   UNL A   1      45.870  29.610  33.534  1.00  0.00    -0.206 F 
ATOM     89  C   UNL A   1      46.827  27.183  36.039  1.00  0.00     0.022 A 
BRANCH  86  90
ATOM     90  S   UNL A   1      45.494  25.144  37.395  1.00  0.00     0.124 S 
ATOM     91  O   UNL A   1      44.821  24.078  36.663  1.00  0.00    -0.237 OA
ATOM     92  O   UNL A   1      46.885  24.891  37.758  1.00  0.00    -0.237 OA
ATOM     93  O   UNL A   1      44.691  25.783  38.436  1.00  0.00    -0.744 OA
ENDBRANCH  86  90
ENDBRANCH  60  83
ENDBRANCH  34  35
ENDBRANCH  27  29
ENDBRANCH  26  27
ENDBRANCH  25  26
ENDBRANCH   1  25
TORSDOF 19
ENDMDL
MODEL 2
REMARK VINA RESULT:     -10.7      1.588      1.830
REMARK SMILES NC(=O)[C@@H]1CCCCN1c1cncc(C(=O)OCCOCCOC(=O)c2ccc(-c3c4nc(c(-c5cc(S(=O)(=O)[O-])ccc5F)c5ccc([nH]5)c(-c5cc(S(=O)(=O)[O-])ccc5F)c5nc(c(-c6cc(S(=O)(=O)[O-])ccc6F)c6ccc3[nH]6)C=C5)C=C4)cc2)n1
REMARK SMILES IDX 21 1 20 2 19 3 18 4 17 5 15 6 16 7 14 8 10 9 11 10 89 11
REMARK SMILES IDX 12 12 13 13 9 14 4 15 5 16 6 17 8 18 7 19 2 20 1 21 3 24
REMARK SMILES IDX 22 25 23 26 24 27 25 28 26 29 27 30 88 31 28 32 87 33 29 34
REMARK SMILES IDX 30 35 31 36 81 37 32 38 86 39 80 40 82 41 33 42 85 43 79 44
REMARK SMILES IDX 78 45 34 47 66 48 46 49 65 50 47 51 50 52 64 53 83 54 48 55
REMARK SMILES IDX 49 56 63 58 84 59 51 60 35 61 36 62 44 63 37 64 43 65 45 66
REMARK SMILES IDX 42 67 38 68 39 69 40 70 41 71 67 72 68 73 76 74 69 75 75 76
REMARK SMILES IDX 77 77 74 78 70 79 71 80 72 81 73 82 52 83 53 84 61 85 54 86
REMARK SMILES IDX 60 87 62 88 59 89 55 90 56 91 57 92 58 93
REMARK H PARENT 1 22 1 23 82 46 50 57
REMARK Flexibility Score: inf
ROOT
ATOM      1  C   UNL A   1      31.117  29.580  25.095  1.00  0.00     0.202 C 
ENDROOT
BRANCH   1   2
ATOM      2  O   UNL A   1      30.558  29.695  23.786  1.00  0.00    -0.374 OA
BRANCH   2   3
ATOM      3  C   UNL A   1      31.170  28.916  22.756  1.00  0.00     0.202 C 
BRANCH   3   4
ATOM      4  C   UNL A   1      30.337  27.743  22.221  1.00  0.00     0.261 C 
BRANCH   4   5
ATOM      5  O   UNL A   1      30.696  26.509  22.864  1.00  0.00    -0.458 OA
BRANCH   5   6
ATOM      6  C   UNL A   1      29.999  26.217  23.991  1.00  0.00     0.358 C 
ATOM      7  O   UNL A   1      28.816  26.453  24.197  1.00  0.00    -0.244 OA
BRANCH   6   8
ATOM      8  C   UNL A   1      30.803  25.361  24.891  1.00  0.00     0.169 A 
ATOM      9  C   UNL A   1      32.647  24.048  25.344  1.00  0.00     0.148 A 
ATOM     10  C   UNL A   1      32.053  23.760  26.586  1.00  0.00     0.157 A 
ATOM     11  N   UNL A   1      31.984  24.832  24.464  1.00  0.00    -0.220 NA
ATOM     12  N   UNL A   1      30.855  24.241  27.008  1.00  0.00    -0.258 NA
ATOM     13  C   UNL A   1      30.255  25.073  26.132  1.00  0.00     0.147 A 
BRANCH   9  14
ATOM     14  N   UNL A   1      33.900  23.580  25.018  1.00  0.00    -0.343 N 
ATOM     15  C   UNL A   1      34.117  22.576  23.951  1.00  0.00     0.172 C 
ATOM     16  C   UNL A   1      34.799  21.349  24.566  1.00  0.00     0.035 C 
ATOM     17  C   UNL A   1      36.099  21.757  25.262  1.00  0.00     0.004 C 
ATOM     18  C   UNL A   1      35.097  24.047  25.710  1.00  0.00     0.119 C 
ATOM     19  C   UNL A   1      35.847  22.850  26.302  1.00  0.00     0.022 C 
BRANCH  15  20
ATOM     20  C   UNL A   1      32.903  22.284  23.036  1.00  0.00     0.240 C 
ATOM     21  N   UNL A   1      32.676  23.116  21.977  1.00  0.00    -0.368 N 
ATOM     22  H   UNL A   1      31.911  22.954  21.379  1.00  0.00     0.159 HD
ATOM     23  H   UNL A   1      33.277  23.878  21.813  1.00  0.00     0.159 HD
ATOM     24  O   UNL A   1      32.132  21.342  23.239  1.00  0.00    -0.273 OA
ENDBRANCH  15  20
ENDBRANCH   9  14
ENDBRANCH   6   8
ENDBRANCH   5   6
ENDBRANCH   4   5
ENDBRANCH   3   4
ENDBRANCH   2   3
ENDBRANCH   1   2
BRANCH   1  25
ATOM     25  C   UNL A   1      31.475  30.888  25.811  1.00  0.00     0.261 C 
BRANCH  25  26
ATOM     26  O   UNL A   1      32.464  30.687  26.835  1.00  0.00    -0.460 OA
BRANCH  26  27
ATOM     27  C   UNL A   1      33.132  31.805  27.204  1.00  0.00     0.338 C 
ATOM     28  O   UNL A   1      32.680  32.942  27.269  1.00  0.00    -0.246 OA
BRANCH  27  29
ATOM     29  C   UNL A   1      34.468  31.449  27.716  1.00  0.00     0.060 A 
ATOM     30  C   UNL A   1      34.708  30.099  28.003  1.00  0.00     0.016 A 
ATOM     31  C   UNL A   1      35.452  32.410  27.958  1.00  0.00     0.016 A 
ATOM     32  C   UNL A   1      35.912  29.711  28.584  1.00  0.00     0.010 A 
ATOM     33  C   UNL A   1      36.660  32.020  28.547  1.00  0.00     0.010 A 
ATOM     34  C   UNL A   1      36.881  30.674  28.894  1.00  0.00    -0.014 A 
BRANCH  34  35
ATOM     35  C   UNL A   1      38.059  30.289  29.711  1.00  0.00     0.031 A 
ATOM     36  C   UNL A   1      39.029  29.279  29.161  1.00  0.00     0.074 A 
ATOM     37  C   UNL A   1      38.269  30.843  30.918  1.00  0.00     0.049 A 
ATOM     38  N   UNL A   1      40.099  28.766  29.711  1.00  0.00    -0.248 NA
ATOM     39  C   UNL A   1      38.740  28.772  27.812  1.00  0.00     0.031 C 
ATOM     40  C   UNL A   1      37.413  31.850  31.542  1.00  0.00     0.029 A 
ATOM     41  N   UNL A   1      39.263  30.626  31.838  1.00  0.00    -0.354 N 
ATOM     42  C   UNL A   1      40.608  27.867  28.780  1.00  0.00     0.074 A 
ATOM     43  C   UNL A   1      39.701  27.876  27.651  1.00  0.00     0.031 C 
ATOM     44  C   UNL A   1      37.907  32.148  32.755  1.00  0.00     0.029 A 
ATOM     45  C   UNL A   1      39.091  31.328  33.007  1.00  0.00     0.049 A 
ATOM     46  H   UNL A   1      40.026  30.025  31.678  1.00  0.00     0.167 HD
ATOM     47  C   UNL A   1      41.733  27.112  28.857  1.00  0.00     0.034 A 
ATOM     48  C   UNL A   1      39.789  31.290  34.160  1.00  0.00     0.034 A 
ATOM     49  C   UNL A   1      42.617  27.109  29.998  1.00  0.00     0.049 A 
ATOM     50  C   UNL A   1      41.000  30.398  34.255  1.00  0.00     0.074 A 
ATOM     51  C   UNL A   1      43.805  26.420  30.169  1.00  0.00     0.029 A 
ATOM     52  N   UNL A   1      42.399  27.815  31.176  1.00  0.00    -0.354 N 
ATOM     53  N   UNL A   1      41.497  29.579  33.356  1.00  0.00    -0.248 NA
ATOM     54  C   UNL A   1      41.753  30.435  35.516  1.00  0.00     0.031 C 
ATOM     55  C   UNL A   1      44.257  26.640  31.475  1.00  0.00     0.029 A 
ATOM     56  C   UNL A   1      43.404  27.540  32.093  1.00  0.00     0.049 A 
ATOM     57  H   UNL A   1      41.641  28.423  31.337  1.00  0.00     0.167 HD
ATOM     58  C   UNL A   1      42.634  29.020  33.935  1.00  0.00     0.074 A 
ATOM     59  C   UNL A   1      42.755  29.606  35.255  1.00  0.00     0.031 C 
ATOM     60  C   UNL A   1      43.502  28.110  33.419  1.00  0.00     0.034 A 
BRANCH  47  61
ATOM     61  C   UNL A   1      42.021  26.182  27.700  1.00  0.00     0.023 A 
ATOM     62  C   UNL A   1      41.664  24.821  27.732  1.00  0.00     0.031 A 
ATOM     63  C   UNL A   1      42.719  26.648  26.572  1.00  0.00     0.131 A 
ATOM     64  C   UNL A   1      42.091  23.960  26.708  1.00  0.00     0.055 A 
ATOM     65  C   UNL A   1      43.059  25.805  25.512  1.00  0.00     0.041 A 
ATOM     66  F   UNL A   1      43.108  27.931  26.491  1.00  0.00    -0.206 F 
ATOM     67  C   UNL A   1      42.763  24.447  25.587  1.00  0.00     0.022 A 
BRANCH  64  68
ATOM     68  S   UNL A   1      41.917  22.171  26.955  1.00  0.00     0.124 S 
ATOM     69  O   UNL A   1      41.674  22.094  28.395  1.00  0.00    -0.237 OA
ATOM     70  O   UNL A   1      40.786  21.843  26.097  1.00  0.00    -0.237 OA
ATOM     71  O   UNL A   1      43.207  21.639  26.521  1.00  0.00    -0.744 OA
ENDBRANCH  64  68
ENDBRANCH  47  61
BRANCH  48  72
ATOM     72  C   UNL A   1      39.322  32.084  35.332  1.00  0.00     0.023 A 
ATOM     73  C   UNL A   1      39.779  33.390  35.566  1.00  0.00     0.031 A 
ATOM     74  C   UNL A   1      38.409  31.529  36.248  1.00  0.00     0.131 A 
ATOM     75  C   UNL A   1      39.339  34.089  36.702  1.00  0.00     0.055 A 
ATOM     76  C   UNL A   1      37.940  32.245  37.350  1.00  0.00     0.041 A 
ATOM     77  F   UNL A   1      37.938  30.284  36.067  1.00  0.00    -0.206 F 
ATOM     78  C   UNL A   1      38.412  33.531  37.586  1.00  0.00     0.022 A 
BRANCH  75  79
ATOM     79  S   UNL A   1      40.034  35.730  37.038  1.00  0.00     0.124 S 
ATOM     80  O   UNL A   1      39.676  36.458  35.827  1.00  0.00    -0.237 OA
ATOM     81  O   UNL A   1      39.325  36.116  38.254  1.00  0.00    -0.237 OA
ATOM     82  O   UNL A   1      41.461  35.466  37.210  1.00  0.00    -0.744 OA
ENDBRANCH  75  79
ENDBRANCH  48  72
BRANCH  60  83
ATOM     83  C   UNL A   1      44.683  27.720  34.278  1.00  0.00     0.023 A 
ATOM     84  C   UNL A   1      44.640  26.611  35.141  1.00  0.00     0.031 A 
ATOM     85  C   UNL A   1      45.869  28.475  34.234  1.00  0.00     0.131 A 
ATOM     86  C   UNL A   1      45.741  26.319  35.962  1.00  0.00     0.055 A 
ATOM     87  C   UNL A   1      46.983  28.143  35.007  1.00  0.00     0.041 A 
ATOM     88  F   UNL A   1      45.966  29.548  33.433  1.00  0.00    -0.206 F 
ATOM     89  C   UNL A   1      46.918  27.068  35.887  1.00  0.00     0.022 A 
BRANCH  86  90
ATOM     90  S   UNL A   1      45.580  25.007  37.204  1.00  0.00     0.124 S 
ATOM     91  O   UNL A   1      46.913  24.414  37.192  1.00  0.00    -0.237 OA
ATOM     92  O   UNL A   1      45.225  25.755  38.405  1.00  0.00    -0.237 OA
ATOM     93  O   UNL A   1      44.519  24.155  36.669  1.00  0.00    -0.744 OA
ENDBRANCH  86  90
ENDBRANCH  60  83
ENDBRANCH  34  35
ENDBRANCH  27  29
ENDBRANCH  26  27
ENDBRANCH  25  26
ENDBRANCH   1  25
TORSDOF 19
ENDMDL
MODEL 3
REMARK VINA RESULT:     -10.7      5.198      7.795
REMARK SMILES NC(=O)[C@@H]1CCCCN1c1cncc(C(=O)OCCOCCOC(=O)c2ccc(-c3c4nc(c(-c5cc(S(=O)(=O)[O-])ccc5F)c5ccc([nH]5)c(-c5cc(S(=O)(=O)[O-])ccc5F)c5nc(c(-c6cc(S(=O)(=O)[O-])ccc6F)c6ccc3[nH]6)C=C5)C=C4)cc2)n1
REMARK SMILES IDX 21 1 20 2 19 3 18 4 17 5 15 6 16 7 14 8 10 9 11 10 89 11
REMARK SMILES IDX 12 12 13 13 9 14 4 15 5 16 6 17 8 18 7 19 2 20 1 21 3 24
REMARK SMILES IDX 22 25 23 26 24 27 25 28 26 29 27 30 88 31 28 32 87 33 29 34
REMARK SMILES IDX 30 35 31 36 81 37 32 38 86 39 80 40 82 41 33 42 85 43 79 44
REMARK SMILES IDX 78 45 34 47 66 48 46 49 65 50 47 51 50 52 64 53 83 54 48 55
REMARK SMILES IDX 49 56 63 58 84 59 51 60 35 61 36 62 44 63 37 64 43 65 45 66
REMARK SMILES IDX 42 67 38 68 39 69 40 70 41 71 67 72 68 73 76 74 69 75 75 76
REMARK SMILES IDX 77 77 74 78 70 79 71 80 72 81 73 82 52 83 53 84 61 85 54 86
REMARK SMILES IDX 60 87 62 88 59 89 55 90 56 91 57 92 58 93
REMARK H PARENT 1 22 1 23 82 46 50 57
REMARK Flexibility Score: inf
ROOT
ATOM      1  C   UNL A   1      36.081  19.991  24.983  1.00  0.00     0.202 C 
ENDROOT
BRANCH   1   2
ATOM      2  O   UNL A   1      35.388  20.890  25.850  1.00  0.00    -0.374 OA
BRANCH   2   3
ATOM      3  C   UNL A   1      34.433  21.761  25.240  1.00  0.00     0.202 C 
BRANCH   3   4
ATOM      4  C   UNL A   1      34.831  22.338  23.876  1.00  0.00     0.261 C 
BRANCH   4   5
ATOM      5  O   UNL A   1      33.688  22.841  23.165  1.00  0.00    -0.458 OA
BRANCH   5   6
ATOM      6  C   UNL A   1      33.592  24.193  23.102  1.00  0.00     0.358 C 
ATOM      7  O   UNL A   1      34.185  24.930  22.326  1.00  0.00    -0.244 OA
BRANCH   6   8
ATOM      8  C   UNL A   1      32.492  24.676  23.966  1.00  0.00     0.169 A 
ATOM      9  C   UNL A   1      31.481  26.295  25.265  1.00  0.00     0.148 A 
ATOM     10  C   UNL A   1      30.504  25.334  25.583  1.00  0.00     0.157 A 
ATOM     11  N   UNL A   1      32.519  25.940  24.472  1.00  0.00    -0.220 NA
ATOM     12  N   UNL A   1      30.488  24.057  25.124  1.00  0.00    -0.258 NA
ATOM     13  C   UNL A   1      31.500  23.760  24.283  1.00  0.00     0.147 A 
BRANCH   9  14
ATOM     14  N   UNL A   1      31.389  27.593  25.713  1.00  0.00    -0.343 N 
ATOM     15  C   UNL A   1      31.179  28.735  24.792  1.00  0.00     0.172 C 
ATOM     16  C   UNL A   1      32.349  29.710  24.949  1.00  0.00     0.035 C 
ATOM     17  C   UNL A   1      32.485  30.149  26.409  1.00  0.00     0.004 C 
ATOM     18  C   UNL A   1      31.494  27.925  27.130  1.00  0.00     0.119 C 
ATOM     19  C   UNL A   1      32.622  28.941  27.336  1.00  0.00     0.022 C 
BRANCH  15  20
ATOM     20  C   UNL A   1      30.793  28.373  23.337  1.00  0.00     0.240 C 
ATOM     21  N   UNL A   1      31.781  28.334  22.396  1.00  0.00    -0.368 N 
ATOM     22  H   UNL A   1      31.565  28.108  21.463  1.00  0.00     0.159 HD
ATOM     23  H   UNL A   1      32.712  28.534  22.651  1.00  0.00     0.159 HD
ATOM     24  O   UNL A   1      29.630  28.137  23.001  1.00  0.00    -0.273 OA
ENDBRANCH  15  20
ENDBRANCH   9  14
ENDBRANCH   6   8
ENDBRANCH   5   6
ENDBRANCH   4   5
ENDBRANCH   3   4
ENDBRANCH   2   3
ENDBRANCH   1   2
BRANCH   1  25
ATOM     25  C   UNL A   1      37.593  20.199  24.838  1.00  0.00     0.261 C 
BRANCH  25  26
ATOM     26  O   UNL A   1      38.054  21.332  25.592  1.00  0.00    -0.460 OA
BRANCH  26  27
ATOM     27  C   UNL A   1      39.261  21.166  26.183  1.00  0.00     0.338 C 
ATOM     28  O   UNL A   1      39.955  20.156  26.163  1.00  0.00    -0.246 OA
BRANCH  27  29
ATOM     29  C   UNL A   1      39.743  22.454  26.716  1.00  0.00     0.060 A 
ATOM     30  C   UNL A   1      39.183  23.621  26.181  1.00  0.00     0.016 A 
ATOM     31  C   UNL A   1      40.752  22.529  27.679  1.00  0.00     0.016 A 
ATOM     32  C   UNL A   1      39.666  24.868  26.568  1.00  0.00     0.010 A 
ATOM     33  C   UNL A   1      41.239  23.783  28.063  1.00  0.00     0.010 A 
ATOM     34  C   UNL A   1      40.723  24.956  27.483  1.00  0.00    -0.014 A 
BRANCH  34  35
ATOM     35  C   UNL A   1      41.378  26.267  27.719  1.00  0.00     0.031 A 
ATOM     36  C   UNL A   1      42.791  26.471  27.244  1.00  0.00     0.074 A 
ATOM     37  C   UNL A   1      40.718  27.265  28.330  1.00  0.00     0.049 A 
ATOM     38  N   UNL A   1      43.572  27.512  27.376  1.00  0.00    -0.248 NA
ATOM     39  C   UNL A   1      43.408  25.338  26.539  1.00  0.00     0.031 C 
ATOM     40  C   UNL A   1      39.339  27.192  28.810  1.00  0.00     0.029 A 
ATOM     41  N   UNL A   1      41.126  28.531  28.665  1.00  0.00    -0.354 N 
ATOM     42  C   UNL A   1      44.777  27.158  26.778  1.00  0.00     0.074 A 
ATOM     43  C   UNL A   1      44.633  25.790  26.325  1.00  0.00     0.031 C 
ATOM     44  C   UNL A   1      39.022  28.357  29.397  1.00  0.00     0.029 A 
ATOM     45  C   UNL A   1      40.184  29.243  29.368  1.00  0.00     0.049 A 
ATOM     46  H   UNL A   1      42.009  28.896  28.425  1.00  0.00     0.167 HD
ATOM     47  C   UNL A   1      45.895  27.910  26.614  1.00  0.00     0.034 A 
ATOM     48  C   UNL A   1      40.262  30.457  29.951  1.00  0.00     0.034 A 
ATOM     49  C   UNL A   1      46.021  29.269  27.085  1.00  0.00     0.049 A 
ATOM     50  C   UNL A   1      41.533  31.255  29.817  1.00  0.00     0.074 A 
ATOM     51  C   UNL A   1      47.088  30.139  26.937  1.00  0.00     0.029 A 
ATOM     52  N   UNL A   1      45.055  29.952  27.816  1.00  0.00    -0.354 N 
ATOM     53  N   UNL A   1      42.656  30.929  29.217  1.00  0.00    -0.248 NA
ATOM     54  C   UNL A   1      41.544  32.592  30.426  1.00  0.00     0.031 C 
ATOM     55  C   UNL A   1      46.802  31.309  27.649  1.00  0.00     0.029 A 
ATOM     56  C   UNL A   1      45.520  31.211  28.166  1.00  0.00     0.049 A 
ATOM     57  H   UNL A   1      44.169  29.593  28.051  1.00  0.00     0.167 HD
ATOM     58  C   UNL A   1      43.499  32.029  29.358  1.00  0.00     0.074 A 
ATOM     59  C   UNL A   1      42.748  33.032  30.088  1.00  0.00     0.031 C 
ATOM     60  C   UNL A   1      44.773  32.196  28.918  1.00  0.00     0.034 A 
BRANCH  47  61
ATOM     61  C   UNL A   1      47.084  27.244  25.959  1.00  0.00     0.023 A 
ATOM     62  C   UNL A   1      48.017  26.492  26.696  1.00  0.00     0.031 A 
ATOM     63  C   UNL A   1      47.325  27.416  24.584  1.00  0.00     0.131 A 
ATOM     64  C   UNL A   1      49.188  26.026  26.078  1.00  0.00     0.055 A 
ATOM     65  C   UNL A   1      48.446  26.871  23.956  1.00  0.00     0.041 A 
ATOM     66  F   UNL A   1      46.484  28.143  23.829  1.00  0.00    -0.206 F 
ATOM     67  C   UNL A   1      49.397  26.188  24.708  1.00  0.00     0.022 A 
BRANCH  64  68
ATOM     68  S   UNL A   1      50.517  25.372  27.126  1.00  0.00     0.124 S 
ATOM     69  O   UNL A   1      49.848  24.255  27.790  1.00  0.00    -0.237 OA
ATOM     70  O   UNL A   1      51.541  25.016  26.151  1.00  0.00    -0.237 OA
ATOM     71  O   UNL A   1      50.849  26.496  27.999  1.00  0.00    -0.744 OA
ENDBRANCH  64  68
ENDBRANCH  47  61
BRANCH  48  72
ATOM     72  C   UNL A   1      39.116  30.962  30.759  1.00  0.00     0.023 A 
ATOM     73  C   UNL A   1      38.024  31.612  30.163  1.00  0.00     0.031 A 
ATOM     74  C   UNL A   1      39.109  30.805  32.158  1.00  0.00     0.131 A 
ATOM     75  C   UNL A   1      36.982  32.103  30.967  1.00  0.00     0.055 A 
ATOM     76  C   UNL A   1      38.049  31.254  32.947  1.00  0.00     0.041 A 
ATOM     77  F   UNL A   1      40.127  30.186  32.776  1.00  0.00    -0.206 F 
ATOM     78  C   UNL A   1      36.981  31.915  32.351  1.00  0.00     0.022 A 
BRANCH  75  79
ATOM     79  S   UNL A   1      35.642  33.039  30.180  1.00  0.00     0.124 S 
ATOM     80  O   UNL A   1      34.913  33.543  31.338  1.00  0.00    -0.237 OA
ATOM     81  O   UNL A   1      36.380  34.029  29.404  1.00  0.00    -0.237 OA
ATOM     82  O   UNL A   1      34.941  32.029  29.390  1.00  0.00    -0.744 OA
ENDBRANCH  75  79
ENDBRANCH  48  72
BRANCH  60  83
ATOM     83  C   UNL A   1      45.425  33.533  29.187  1.00  0.00     0.023 A 
ATOM     84  C   UNL A   1      45.347  34.596  28.269  1.00  0.00     0.031 A 
ATOM     85  C   UNL A   1      46.140  33.744  30.379  1.00  0.00     0.131 A 
ATOM     86  C   UNL A   1      46.016  35.801  28.535  1.00  0.00     0.055 A 
ATOM     87  C   UNL A   1      46.751  34.966  30.667  1.00  0.00     0.041 A 
ATOM     88  F   UNL A   1      46.253  32.764  31.290  1.00  0.00    -0.206 F 
ATOM     89  C   UNL A   1      46.702  35.999  29.736  1.00  0.00     0.022 A 
BRANCH  86  90
ATOM     90  S   UNL A   1      46.062  37.078  27.247  1.00  0.00     0.124 S 
ATOM     91  O   UNL A   1      46.546  36.327  26.093  1.00  0.00    -0.237 OA
ATOM     92  O   UNL A   1      44.670  37.512  27.188  1.00  0.00    -0.237 OA
ATOM     93  O   UNL A   1      46.997  38.068  27.778  1.00  0.00    -0.744 OA
ENDBRANCH  86  90
ENDBRANCH  60  83
ENDBRANCH  34  35
ENDBRANCH  27  29
ENDBRANCH  26  27
ENDBRANCH  25  26
ENDBRANCH   1  25
TORSDOF 19
ENDMDL
