MODEL 1
REMARK VINA RESULT:     -13.0      0.000      0.000
REMARK SMILES C[C@]1(C(=O)OCCOCCOC(=O)c2ccc(-c3c4nc(c(-c5cc(S(=O)(=O)[O-])ccc5F)c5ccc([nH]5)c(-c5cc(S(=O)(=O)[O-])ccc5F)c5nc(c(-c6cc(S(=O)(=O)[O-])ccc6F)c6ccc3[nH]6)C=C5)C=C4)cc2)[NH2+]C2(C(=O)c3ccccc3C2=O)[C@@H]2C(=O)N(c3ccccc3)C(=O)[C@H]21
REMARK SMILES IDX 9 1 8 2 7 3 6 4 5 5 3 6 4 7 2 8 1 9 77 10 101 11 78 12 89 15
REMARK SMILES IDX 99 16 79 17 87 18 90 19 92 20 100 21 80 22 81 23 86 24 88 25
REMARK SMILES IDX 91 26 82 27 85 28 83 29 84 30 93 31 94 32 98 33 95 34 97 35
REMARK SMILES IDX 96 36 10 37 11 38 12 39 13 40 14 41 15 42 76 43 16 44 75 45
REMARK SMILES IDX 17 46 18 47 19 48 69 49 20 50 74 51 68 52 70 53 21 54 73 55
REMARK SMILES IDX 67 56 66 57 22 59 54 60 34 61 53 62 35 63 38 64 52 65 71 66
REMARK SMILES IDX 36 67 37 68 51 70 72 71 39 72 23 73 24 74 32 75 25 76 31 77
REMARK SMILES IDX 33 78 30 79 26 80 27 81 28 82 29 83 55 84 56 85 64 86 57 87
REMARK SMILES IDX 63 88 65 89 62 90 58 91 59 92 60 93 61 94 40 95 41 96 49 97
REMARK SMILES IDX 42 98 48 99 50 100 47 101 43 102 44 103 45 104 46 105
REMARK H PARENT 77 13 77 14 70 58 38 69
REMARK Flexibility Score: inf
ROOT
ATOM      1  C   UNL A   1      34.000  33.742  29.336  1.00  0.00     0.202 C 
ENDROOT
BRANCH   1   2
ATOM      2  O   UNL A   1      34.413  32.692  28.464  1.00  0.00    -0.374 OA
BRANCH   2   3
ATOM      3  C   UNL A   1      33.408  31.980  27.744  1.00  0.00     0.202 C 
BRANCH   3   4
ATOM      4  C   UNL A   1      33.514  30.456  27.690  1.00  0.00     0.261 C 
BRANCH   4   5
ATOM      5  O   UNL A   1      32.386  29.862  27.035  1.00  0.00    -0.459 OA
BRANCH   5   6
ATOM      6  C   UNL A   1      32.235  28.522  27.211  1.00  0.00     0.368 C 
ATOM      7  O   UNL A   1      31.506  28.016  28.056  1.00  0.00    -0.245 OA
BRANCH   6   8
ATOM      8  C   UNL A   1      33.102  27.697  26.218  1.00  0.00     0.205 C 
ATOM      9  C   UNL A   1      34.525  28.259  26.279  1.00  0.00     0.093 C 
ATOM     10  N   UNL A   1      33.153  26.197  26.512  1.00  0.00    -0.313 N 
ATOM     11  C   UNL A   1      32.502  27.723  24.842  1.00  0.00     0.172 C 
ATOM     12  C   UNL A   1      32.342  25.483  25.433  1.00  0.00     0.237 C 
ATOM     13  H   UNL A   1      32.752  26.009  27.431  1.00  0.00     0.348 HD
ATOM     14  H   UNL A   1      34.119  25.866  26.511  1.00  0.00     0.348 HD
ATOM     15  C   UNL A   1      31.490  26.592  24.924  1.00  0.00     0.177 C 
ATOM     16  C   UNL A   1      31.654  28.816  24.302  1.00  0.00     0.244 C 
ATOM     17  C   UNL A   1      33.256  24.788  24.424  1.00  0.00     0.232 C 
ATOM     18  C   UNL A   1      31.559  24.320  26.035  1.00  0.00     0.232 C 
ATOM     19  C   UNL A   1      30.777  26.790  23.638  1.00  0.00     0.245 C 
ATOM     20  N   UNL A   1      30.698  28.179  23.519  1.00  0.00    -0.250 N 
ATOM     21  O   UNL A   1      31.856  30.002  24.501  1.00  0.00    -0.273 OA
ATOM     22  O   UNL A   1      34.129  25.302  23.743  1.00  0.00    -0.286 OA
ATOM     23  C   UNL A   1      33.003  23.349  24.475  1.00  0.00     0.036 A 
ATOM     24  C   UNL A   1      32.029  23.074  25.427  1.00  0.00     0.036 A 
ATOM     25  O   UNL A   1      30.676  24.369  26.876  1.00  0.00    -0.286 OA
ATOM     26  O   UNL A   1      30.316  25.899  22.951  1.00  0.00    -0.273 OA
ATOM     27  C   UNL A   1      33.622  22.344  23.753  1.00  0.00     0.013 A 
ATOM     28  C   UNL A   1      31.635  21.776  25.700  1.00  0.00     0.013 A 
ATOM     29  C   UNL A   1      33.232  21.027  24.012  1.00  0.00     0.001 A 
ATOM     30  C   UNL A   1      32.248  20.745  24.980  1.00  0.00     0.001 A 
BRANCH  20  31
ATOM     31  C   UNL A   1      29.683  28.890  22.849  1.00  0.00     0.052 A 
ATOM     32  C   UNL A   1      30.012  29.888  21.921  1.00  0.00     0.027 A 
ATOM     33  C   UNL A   1      28.344  28.720  23.219  1.00  0.00     0.027 A 
ATOM     34  C   UNL A   1      29.027  30.716  21.387  1.00  0.00     0.002 A 
ATOM     35  C   UNL A   1      27.364  29.582  22.717  1.00  0.00     0.002 A 
ATOM     36  C   UNL A   1      27.706  30.577  21.801  1.00  0.00     0.000 A 
ENDBRANCH  20  31
ENDBRANCH   6   8
ENDBRANCH   5   6
ENDBRANCH   4   5
ENDBRANCH   3   4
ENDBRANCH   2   3
ENDBRANCH   1   2
BRANCH   1  37
ATOM     37  C   UNL A   1      34.397  33.671  30.816  1.00  0.00     0.261 C 
BRANCH  37  38
ATOM     38  O   UNL A   1      34.560  32.329  31.295  1.00  0.00    -0.460 OA
BRANCH  38  39
ATOM     39  C   UNL A   1      35.632  32.141  32.105  1.00  0.00     0.338 C 
ATOM     40  O   UNL A   1      35.704  32.416  33.291  1.00  0.00    -0.246 OA
BRANCH  39  41
ATOM     41  C   UNL A   1      36.665  31.354  31.400  1.00  0.00     0.060 A 
ATOM     42  C   UNL A   1      36.877  31.481  30.028  1.00  0.00     0.016 A 
ATOM     43  C   UNL A   1      37.465  30.492  32.162  1.00  0.00     0.016 A 
ATOM     44  C   UNL A   1      37.918  30.768  29.426  1.00  0.00     0.010 A 
ATOM     45  C   UNL A   1      38.513  29.791  31.563  1.00  0.00     0.010 A 
ATOM     46  C   UNL A   1      38.767  29.946  30.195  1.00  0.00    -0.014 A 
BRANCH  46  47
ATOM     47  C   UNL A   1      40.024  29.424  29.598  1.00  0.00     0.031 A 
ATOM     48  C   UNL A   1      40.117  28.064  28.973  1.00  0.00     0.074 A 
ATOM     49  C   UNL A   1      41.118  30.208  29.665  1.00  0.00     0.049 A 
ATOM     50  N   UNL A   1      41.119  27.536  28.318  1.00  0.00    -0.248 NA
ATOM     51  C   UNL A   1      38.954  27.178  29.111  1.00  0.00     0.031 C 
ATOM     52  C   UNL A   1      41.165  31.510  30.332  1.00  0.00     0.029 A 
ATOM     53  N   UNL A   1      42.387  30.041  29.169  1.00  0.00    -0.354 N 
ATOM     54  C   UNL A   1      40.706  26.262  27.948  1.00  0.00     0.074 A 
ATOM     55  C   UNL A   1      39.382  26.077  28.503  1.00  0.00     0.031 C 
ATOM     56  C   UNL A   1      42.380  32.045  30.163  1.00  0.00     0.029 A 
ATOM     57  C   UNL A   1      43.215  31.112  29.410  1.00  0.00     0.049 A 
ATOM     58  H   UNL A   1      42.676  29.232  28.688  1.00  0.00     0.167 HD
ATOM     59  C   UNL A   1      41.368  25.348  27.195  1.00  0.00     0.034 A 
ATOM     60  C   UNL A   1      44.499  31.331  29.059  1.00  0.00     0.034 A 
ATOM     61  C   UNL A   1      42.696  25.554  26.661  1.00  0.00     0.049 A 
ATOM     62  C   UNL A   1      45.205  30.307  28.212  1.00  0.00     0.074 A 
ATOM     63  C   UNL A   1      43.416  24.719  25.822  1.00  0.00     0.029 A 
ATOM     64  N   UNL A   1      43.511  26.648  26.919  1.00  0.00    -0.354 N 
ATOM     65  N   UNL A   1      44.747  29.174  27.734  1.00  0.00    -0.248 NA
ATOM     66  C   UNL A   1      46.595  30.596  27.835  1.00  0.00     0.031 C 
ATOM     67  C   UNL A   1      44.688  25.265  25.643  1.00  0.00     0.029 A 
ATOM     68  C   UNL A   1      44.739  26.487  26.293  1.00  0.00     0.049 A 
ATOM     69  H   UNL A   1      43.254  27.425  27.466  1.00  0.00     0.167 HD
ATOM     70  C   UNL A   1      45.787  28.619  26.994  1.00  0.00     0.074 A 
ATOM     71  C   UNL A   1      46.880  29.570  27.044  1.00  0.00     0.031 C 
ATOM     72  C   UNL A   1      45.836  27.427  26.347  1.00  0.00     0.034 A 
BRANCH  59  73
ATOM     73  C   UNL A   1      40.680  24.047  26.851  1.00  0.00     0.023 A 
ATOM     74  C   UNL A   1      39.440  24.057  26.183  1.00  0.00     0.031 A 
ATOM     75  C   UNL A   1      41.157  22.818  27.341  1.00  0.00     0.131 A 
ATOM     76  C   UNL A   1      38.699  22.873  26.069  1.00  0.00     0.055 A 
ATOM     77  C   UNL A   1      40.438  21.632  27.181  1.00  0.00     0.041 A 
ATOM     78  F   UNL A   1      42.328  22.752  27.995  1.00  0.00    -0.206 F 
ATOM     79  C   UNL A   1      39.195  21.660  26.557  1.00  0.00     0.022 A 
BRANCH  76  80
ATOM     80  S   UNL A   1      37.026  22.875  25.367  1.00  0.00     0.124 S 
ATOM     81  O   UNL A   1      37.304  22.902  23.931  1.00  0.00    -0.237 OA
ATOM     82  O   UNL A   1      36.484  21.617  25.873  1.00  0.00    -0.237 OA
ATOM     83  O   UNL A   1      36.420  24.087  25.904  1.00  0.00    -0.744 OA
ENDBRANCH  76  80
ENDBRANCH  59  73
BRANCH  60  84
ATOM     84  C   UNL A   1      45.148  32.617  29.455  1.00  0.00     0.023 A 
ATOM     85  C   UNL A   1      45.819  32.735  30.686  1.00  0.00     0.031 A 
ATOM     86  C   UNL A   1      45.001  33.772  28.669  1.00  0.00     0.131 A 
ATOM     87  C   UNL A   1      46.248  33.994  31.128  1.00  0.00     0.055 A 
ATOM     88  C   UNL A   1      45.505  35.009  29.076  1.00  0.00     0.041 A 
ATOM     89  F   UNL A   1      44.350  33.715  27.498  1.00  0.00    -0.206 F 
ATOM     90  C   UNL A   1      46.115  35.127  30.320  1.00  0.00     0.022 A 
BRANCH  87  91
ATOM     91  S   UNL A   1      46.851  34.226  32.823  1.00  0.00     0.124 S 
ATOM     92  O   UNL A   1      48.297  34.146  32.645  1.00  0.00    -0.237 OA
ATOM     93  O   UNL A   1      46.326  35.551  33.144  1.00  0.00    -0.237 OA
ATOM     94  O   UNL A   1      46.242  33.124  33.559  1.00  0.00    -0.744 OA
ENDBRANCH  87  91
ENDBRANCH  60  84
BRANCH  72  95
ATOM     95  C   UNL A   1      47.124  27.039  25.651  1.00  0.00     0.023 A 
ATOM     96  C   UNL A   1      48.161  26.405  26.364  1.00  0.00     0.031 A 
ATOM     97  C   UNL A   1      47.374  27.406  24.315  1.00  0.00     0.131 A 
ATOM     98  C   UNL A   1      49.403  26.190  25.752  1.00  0.00     0.055 A 
ATOM     99  C   UNL A   1      48.592  27.134  23.691  1.00  0.00     0.041 A 
ATOM    100  F   UNL A   1      46.429  28.028  23.592  1.00  0.00    -0.206 F 
ATOM    101  C   UNL A   1      49.619  26.536  24.415  1.00  0.00     0.022 A 
BRANCH  98 102
ATOM    102  S   UNL A   1      50.814  25.540  26.689  1.00  0.00     0.124 S 
ATOM    103  O   UNL A   1      51.713  25.107  25.622  1.00  0.00    -0.237 OA
ATOM    104  O   UNL A   1      51.254  26.715  27.436  1.00  0.00    -0.237 OA
ATOM    105  O   UNL A   1      50.238  24.465  27.493  1.00  0.00    -0.744 OA
ENDBRANCH  98 102
ENDBRANCH  72  95
ENDBRANCH  46  47
ENDBRANCH  39  41
ENDBRANCH  38  39
ENDBRANCH  37  38
ENDBRANCH   1  37
TORSDOF 18
ENDMDL
MODEL 2
REMARK VINA RESULT:     -12.9      1.963      2.194
REMARK SMILES C[C@]1(C(=O)OCCOCCOC(=O)c2ccc(-c3c4nc(c(-c5cc(S(=O)(=O)[O-])ccc5F)c5ccc([nH]5)c(-c5cc(S(=O)(=O)[O-])ccc5F)c5nc(c(-c6cc(S(=O)(=O)[O-])ccc6F)c6ccc3[nH]6)C=C5)C=C4)cc2)[NH2+]C2(C(=O)c3ccccc3C2=O)[C@@H]2C(=O)N(c3ccccc3)C(=O)[C@H]21
REMARK SMILES IDX 9 1 8 2 7 3 6 4 5 5 3 6 4 7 2 8 1 9 77 10 101 11 78 12 89 15
REMARK SMILES IDX 99 16 79 17 87 18 90 19 92 20 100 21 80 22 81 23 86 24 88 25
REMARK SMILES IDX 91 26 82 27 85 28 83 29 84 30 93 31 94 32 98 33 95 34 97 35
REMARK SMILES IDX 96 36 10 37 11 38 12 39 13 40 14 41 15 42 76 43 16 44 75 45
REMARK SMILES IDX 17 46 18 47 19 48 69 49 20 50 74 51 68 52 70 53 21 54 73 55
REMARK SMILES IDX 67 56 66 57 22 59 54 60 34 61 53 62 35 63 38 64 52 65 71 66
REMARK SMILES IDX 36 67 37 68 51 70 72 71 39 72 23 73 24 74 32 75 25 76 31 77
REMARK SMILES IDX 33 78 30 79 26 80 27 81 28 82 29 83 55 84 56 85 64 86 57 87
REMARK SMILES IDX 63 88 65 89 62 90 58 91 59 92 60 93 61 94 40 95 41 96 49 97
REMARK SMILES IDX 42 98 48 99 50 100 47 101 43 102 44 103 45 104 46 105
REMARK H PARENT 77 13 77 14 70 58 38 69
REMARK Flexibility Score: inf
ROOT
ATOM      1  C   UNL A   1      34.063  33.839  29.741  1.00  0.00     0.202 C 
ENDROOT
BRANCH   1   2
ATOM      2  O   UNL A   1      34.541  32.826  28.857  1.00  0.00    -0.374 OA
BRANCH   2   3
ATOM      3  C   UNL A   1      33.610  32.218  27.965  1.00  0.00     0.202 C 
BRANCH   3   4
ATOM      4  C   UNL A   1      33.688  30.703  27.777  1.00  0.00     0.261 C 
BRANCH   4   5
ATOM      5  O   UNL A   1      32.459  30.161  27.275  1.00  0.00    -0.459 OA
BRANCH   5   6
ATOM      6  C   UNL A   1      32.316  28.813  27.385  1.00  0.00     0.368 C 
ATOM      7  O   UNL A   1      31.664  28.258  28.262  1.00  0.00    -0.245 OA
BRANCH   6   8
ATOM      8  C   UNL A   1      33.086  28.047  26.272  1.00  0.00     0.205 C 
ATOM      9  C   UNL A   1      34.523  28.578  26.262  1.00  0.00     0.093 C 
ATOM     10  N   UNL A   1      33.125  26.529  26.453  1.00  0.00    -0.313 N 
ATOM     11  C   UNL A   1      32.383  28.184  24.952  1.00  0.00     0.172 C 
ATOM     12  C   UNL A   1      32.217  25.910  25.392  1.00  0.00     0.237 C 
ATOM     13  H   UNL A   1      32.790  26.282  27.384  1.00  0.00     0.348 HD
ATOM     14  H   UNL A   1      34.079  26.181  26.353  1.00  0.00     0.348 HD
ATOM     15  C   UNL A   1      31.355  27.068  25.032  1.00  0.00     0.177 C 
ATOM     16  C   UNL A   1      31.523  29.329  24.559  1.00  0.00     0.244 C 
ATOM     17  C   UNL A   1      33.035  25.275  24.268  1.00  0.00     0.232 C 
ATOM     18  C   UNL A   1      31.455  24.721  25.969  1.00  0.00     0.232 C 
ATOM     19  C   UNL A   1      30.551  27.372  23.822  1.00  0.00     0.245 C 
ATOM     20  N   UNL A   1      30.495  28.767  23.809  1.00  0.00    -0.250 N 
ATOM     21  O   UNL A   1      31.766  30.492  24.825  1.00  0.00    -0.273 OA
ATOM     22  O   UNL A   1      33.866  25.821  23.560  1.00  0.00    -0.286 OA
ATOM     23  C   UNL A   1      32.753  23.840  24.236  1.00  0.00     0.036 A 
ATOM     24  C   UNL A   1      31.848  23.514  25.238  1.00  0.00     0.036 A 
ATOM     25  O   UNL A   1      30.640  24.724  26.876  1.00  0.00    -0.286 OA
ATOM     26  O   UNL A   1      30.018  26.542  23.111  1.00  0.00    -0.273 OA
ATOM     27  C   UNL A   1      33.292  22.880  23.398  1.00  0.00     0.013 A 
ATOM     28  C   UNL A   1      31.446  22.207  25.448  1.00  0.00     0.013 A 
ATOM     29  C   UNL A   1      32.892  21.554  23.592  1.00  0.00     0.001 A 
ATOM     30  C   UNL A   1      31.978  21.220  24.610  1.00  0.00     0.001 A 
BRANCH  20  31
ATOM     31  C   UNL A   1      29.449  29.543  23.272  1.00  0.00     0.052 A 
ATOM     32  C   UNL A   1      28.987  29.305  21.970  1.00  0.00     0.027 A 
ATOM     33  C   UNL A   1      28.971  30.658  23.970  1.00  0.00     0.027 A 
ATOM     34  C   UNL A   1      28.081  30.174  21.365  1.00  0.00     0.002 A 
ATOM     35  C   UNL A   1      28.098  31.553  23.345  1.00  0.00     0.002 A 
ATOM     36  C   UNL A   1      27.653  31.310  22.045  1.00  0.00     0.000 A 
ENDBRANCH  20  31
ENDBRANCH   6   8
ENDBRANCH   5   6
ENDBRANCH   4   5
ENDBRANCH   3   4
ENDBRANCH   2   3
ENDBRANCH   1   2
BRANCH   1  37
ATOM     37  C   UNL A   1      34.339  33.696  31.243  1.00  0.00     0.261 C 
BRANCH  37  38
ATOM     38  O   UNL A   1      34.572  32.341  31.651  1.00  0.00    -0.460 OA
BRANCH  38  39
ATOM     39  C   UNL A   1      35.690  32.157  32.397  1.00  0.00     0.338 C 
ATOM     40  O   UNL A   1      35.824  32.414  33.582  1.00  0.00    -0.246 OA
BRANCH  39  41
ATOM     41  C   UNL A   1      36.693  31.397  31.622  1.00  0.00     0.060 A 
ATOM     42  C   UNL A   1      36.800  31.519  30.238  1.00  0.00     0.016 A 
ATOM     43  C   UNL A   1      37.574  30.566  32.328  1.00  0.00     0.016 A 
ATOM     44  C   UNL A   1      37.816  30.834  29.565  1.00  0.00     0.010 A 
ATOM     45  C   UNL A   1      38.596  29.893  31.658  1.00  0.00     0.010 A 
ATOM     46  C   UNL A   1      38.745  30.046  30.274  1.00  0.00    -0.014 A 
BRANCH  46  47
ATOM     47  C   UNL A   1      39.970  29.558  29.589  1.00  0.00     0.031 A 
ATOM     48  C   UNL A   1      40.051  28.208  28.943  1.00  0.00     0.074 A 
ATOM     49  C   UNL A   1      41.050  30.366  29.594  1.00  0.00     0.049 A 
ATOM     50  N   UNL A   1      41.019  27.709  28.217  1.00  0.00    -0.248 NA
ATOM     51  C   UNL A   1      38.919  27.295  29.146  1.00  0.00     0.031 C 
ATOM     52  C   UNL A   1      41.112  31.661  30.273  1.00  0.00     0.029 A 
ATOM     53  N   UNL A   1      42.286  30.232  29.014  1.00  0.00    -0.354 N 
ATOM     54  C   UNL A   1      40.611  26.431  27.859  1.00  0.00     0.074 A 
ATOM     55  C   UNL A   1      39.330  26.210  28.498  1.00  0.00     0.031 C 
ATOM     56  C   UNL A   1      42.302  32.225  30.031  1.00  0.00     0.029 A 
ATOM     57  C   UNL A   1      43.105  31.319  29.213  1.00  0.00     0.049 A 
ATOM     58  H   UNL A   1      42.560  29.436  28.505  1.00  0.00     0.167 HD
ATOM     59  C   UNL A   1      41.241  25.540  27.053  1.00  0.00     0.034 A 
ATOM     60  C   UNL A   1      44.358  31.571  28.781  1.00  0.00     0.034 A 
ATOM     61  C   UNL A   1      42.525  25.781  26.435  1.00  0.00     0.049 A 
ATOM     62  C   UNL A   1      45.029  30.572  27.876  1.00  0.00     0.074 A 
ATOM     63  C   UNL A   1      43.207  24.972  25.540  1.00  0.00     0.029 A 
ATOM     64  N   UNL A   1      43.332  26.891  26.653  1.00  0.00    -0.354 N 
ATOM     65  N   UNL A   1      44.564  29.435  27.416  1.00  0.00    -0.248 NA
ATOM     66  C   UNL A   1      46.384  30.896  27.413  1.00  0.00     0.031 C 
ATOM     67  C   UNL A   1      44.452  25.548  25.285  1.00  0.00     0.029 A 
ATOM     68  C   UNL A   1      44.519  26.764  25.945  1.00  0.00     0.049 A 
ATOM     69  H   UNL A   1      43.095  27.656  27.225  1.00  0.00     0.167 HD
ATOM     70  C   UNL A   1      45.565  28.911  26.602  1.00  0.00     0.074 A 
ATOM     71  C   UNL A   1      46.638  29.885  26.592  1.00  0.00     0.031 C 
ATOM     72  C   UNL A   1      45.598  27.727  25.939  1.00  0.00     0.034 A 
BRANCH  59  73
ATOM     73  C   UNL A   1      40.559  24.228  26.739  1.00  0.00     0.023 A 
ATOM     74  C   UNL A   1      39.306  24.217  26.096  1.00  0.00     0.031 A 
ATOM     75  C   UNL A   1      41.060  23.010  27.234  1.00  0.00     0.131 A 
ATOM     76  C   UNL A   1      38.576  23.024  26.012  1.00  0.00     0.055 A 
ATOM     77  C   UNL A   1      40.351  21.814  27.103  1.00  0.00     0.041 A 
ATOM     78  F   UNL A   1      42.245  22.964  27.865  1.00  0.00    -0.206 F 
ATOM     79  C   UNL A   1      39.095  21.822  26.504  1.00  0.00     0.022 A 
BRANCH  76  80
ATOM     80  S   UNL A   1      36.889  22.999  25.345  1.00  0.00     0.124 S 
ATOM     81  O   UNL A   1      37.121  23.298  23.933  1.00  0.00    -0.237 OA
ATOM     82  O   UNL A   1      36.470  21.630  25.631  1.00  0.00    -0.237 OA
ATOM     83  O   UNL A   1      36.199  24.042  26.095  1.00  0.00    -0.744 OA
ENDBRANCH  76  80
ENDBRANCH  59  73
BRANCH  60  84
ATOM     84  C   UNL A   1      45.003  32.866  29.149  1.00  0.00     0.023 A 
ATOM     85  C   UNL A   1      44.869  33.998  28.324  1.00  0.00     0.031 A 
ATOM     86  C   UNL A   1      45.859  32.957  30.260  1.00  0.00     0.131 A 
ATOM     87  C   UNL A   1      45.637  35.141  28.579  1.00  0.00     0.055 A 
ATOM     88  C   UNL A   1      46.558  34.128  30.558  1.00  0.00     0.041 A 
ATOM     89  F   UNL A   1      46.036  31.899  31.065  1.00  0.00    -0.206 F 
ATOM     90  C   UNL A   1      46.464  35.221  29.703  1.00  0.00     0.022 A 
BRANCH  87  91
ATOM     91  S   UNL A   1      45.705  36.500  27.378  1.00  0.00     0.124 S 
ATOM     92  O   UNL A   1      46.512  35.921  26.309  1.00  0.00    -0.237 OA
ATOM     93  O   UNL A   1      44.290  36.692  27.070  1.00  0.00    -0.237 OA
ATOM     94  O   UNL A   1      46.330  37.587  28.123  1.00  0.00    -0.744 OA
ENDBRANCH  87  91
ENDBRANCH  60  84
BRANCH  72  95
ATOM     95  C   UNL A   1      46.844  27.376  25.155  1.00  0.00     0.023 A 
ATOM     96  C   UNL A   1      47.007  27.827  23.830  1.00  0.00     0.031 A 
ATOM     97  C   UNL A   1      47.814  26.497  25.673  1.00  0.00     0.131 A 
ATOM     98  C   UNL A   1      48.087  27.372  23.062  1.00  0.00     0.055 A 
ATOM     99  C   UNL A   1      48.921  26.096  24.925  1.00  0.00     0.041 A 
ATOM    100  F   UNL A   1      47.702  26.021  26.924  1.00  0.00    -0.206 F 
ATOM    101  C   UNL A   1      49.054  26.522  23.607  1.00  0.00     0.022 A 
BRANCH  98 102
ATOM    102  S   UNL A   1      48.232  27.789  21.302  1.00  0.00     0.124 S 
ATOM    103  O   UNL A   1      48.651  26.515  20.723  1.00  0.00    -0.237 OA
ATOM    104  O   UNL A   1      46.872  28.205  20.972  1.00  0.00    -0.237 OA
ATOM    105  O   UNL A   1      49.237  28.847  21.272  1.00  0.00    -0.744 OA
ENDBRANCH  98 102
ENDBRANCH  72  95
ENDBRANCH  46  47
ENDBRANCH  39  41
ENDBRANCH  38  39
ENDBRANCH  37  38
ENDBRANCH   1  37
TORSDOF 18
ENDMDL
MODEL 3
REMARK VINA RESULT:     -12.6      4.452     10.231
REMARK SMILES C[C@]1(C(=O)OCCOCCOC(=O)c2ccc(-c3c4nc(c(-c5cc(S(=O)(=O)[O-])ccc5F)c5ccc([nH]5)c(-c5cc(S(=O)(=O)[O-])ccc5F)c5nc(c(-c6cc(S(=O)(=O)[O-])ccc6F)c6ccc3[nH]6)C=C5)C=C4)cc2)[NH2+]C2(C(=O)c3ccccc3C2=O)[C@@H]2C(=O)N(c3ccccc3)C(=O)[C@H]21
REMARK SMILES IDX 9 1 8 2 7 3 6 4 5 5 3 6 4 7 2 8 1 9 77 10 101 11 78 12 89 15
REMARK SMILES IDX 99 16 79 17 87 18 90 19 92 20 100 21 80 22 81 23 86 24 88 25
REMARK SMILES IDX 91 26 82 27 85 28 83 29 84 30 93 31 94 32 98 33 95 34 97 35
REMARK SMILES IDX 96 36 10 37 11 38 12 39 13 40 14 41 15 42 76 43 16 44 75 45
REMARK SMILES IDX 17 46 18 47 19 48 69 49 20 50 74 51 68 52 70 53 21 54 73 55
REMARK SMILES IDX 67 56 66 57 22 59 54 60 34 61 53 62 35 63 38 64 52 65 71 66
REMARK SMILES IDX 36 67 37 68 51 70 72 71 39 72 23 73 24 74 32 75 25 76 31 77
REMARK SMILES IDX 33 78 30 79 26 80 27 81 28 82 29 83 55 84 56 85 64 86 57 87
REMARK SMILES IDX 63 88 65 89 62 90 58 91 59 92 60 93 61 94 40 95 41 96 49 97
REMARK SMILES IDX 42 98 48 99 50 100 47 101 43 102 44 103 45 104 46 105
REMARK H PARENT 77 13 77 14 70 58 38 69
REMARK Flexibility Score: inf
ROOT
ATOM      1  C   UNL A   1      41.720  20.543  26.471  1.00  0.00     0.202 C 
ENDROOT
BRANCH   1   2
ATOM      2  O   UNL A   1      40.559  21.326  26.742  1.00  0.00    -0.374 OA
BRANCH   2   3
ATOM      3  C   UNL A   1      39.363  21.026  26.026  1.00  0.00     0.202 C 
BRANCH   3   4
ATOM      4  C   UNL A   1      38.620  22.185  25.361  1.00  0.00     0.261 C 
BRANCH   4   5
ATOM      5  O   UNL A   1      37.501  21.732  24.588  1.00  0.00    -0.459 OA
BRANCH   5   6
ATOM      6  C   UNL A   1      36.796  22.699  23.942  1.00  0.00     0.368 C 
ATOM      7  O   UNL A   1      36.928  22.973  22.755  1.00  0.00    -0.245 OA
BRANCH   6   8
ATOM      8  C   UNL A   1      35.799  23.429  24.887  1.00  0.00     0.205 C 
ATOM      9  C   UNL A   1      36.591  23.897  26.112  1.00  0.00     0.093 C 
ATOM     10  N   UNL A   1      35.101  24.639  24.263  1.00  0.00    -0.313 N 
ATOM     11  C   UNL A   1      34.638  22.540  25.222  1.00  0.00     0.172 C 
ATOM     12  C   UNL A   1      33.639  24.262  24.027  1.00  0.00     0.237 C 
ATOM     13  H   UNL A   1      35.546  24.878  23.377  1.00  0.00     0.348 HD
ATOM     14  H   UNL A   1      35.165  25.447  24.882  1.00  0.00     0.348 HD
ATOM     15  C   UNL A   1      33.714  22.775  24.039  1.00  0.00     0.177 C 
ATOM     16  C   UNL A   1      34.681  21.055  25.250  1.00  0.00     0.244 C 
ATOM     17  C   UNL A   1      32.725  24.921  25.059  1.00  0.00     0.232 C 
ATOM     18  C   UNL A   1      33.142  24.851  22.710  1.00  0.00     0.232 C 
ATOM     19  C   UNL A   1      32.693  21.729  24.297  1.00  0.00     0.245 C 
ATOM     20  N   UNL A   1      33.443  20.649  24.763  1.00  0.00    -0.250 N 
ATOM     21  O   UNL A   1      35.617  20.405  25.682  1.00  0.00    -0.273 OA
ATOM     22  O   UNL A   1      32.789  24.819  26.274  1.00  0.00    -0.286 OA
ATOM     23  C   UNL A   1      31.801  25.815  24.364  1.00  0.00     0.036 A 
ATOM     24  C   UNL A   1      32.056  25.790  22.999  1.00  0.00     0.036 A 
ATOM     25  O   UNL A   1      33.541  24.607  21.584  1.00  0.00    -0.286 OA
ATOM     26  O   UNL A   1      31.508  21.834  24.044  1.00  0.00    -0.273 OA
ATOM     27  C   UNL A   1      30.823  26.629  24.908  1.00  0.00     0.013 A 
ATOM     28  C   UNL A   1      31.343  26.583  22.118  1.00  0.00     0.013 A 
ATOM     29  C   UNL A   1      30.088  27.432  24.032  1.00  0.00     0.001 A 
ATOM     30  C   UNL A   1      30.347  27.412  22.648  1.00  0.00     0.001 A 
BRANCH  20  31
ATOM     31  C   UNL A   1      33.108  19.289  24.612  1.00  0.00     0.052 A 
ATOM     32  C   UNL A   1      32.770  18.515  25.731  1.00  0.00     0.027 A 
ATOM     33  C   UNL A   1      33.264  18.660  23.371  1.00  0.00     0.027 A 
ATOM     34  C   UNL A   1      32.610  17.135  25.621  1.00  0.00     0.002 A 
ATOM     35  C   UNL A   1      33.148  17.270  23.272  1.00  0.00     0.002 A 
ATOM     36  C   UNL A   1      32.820  16.510  24.395  1.00  0.00     0.000 A 
ENDBRANCH  20  31
ENDBRANCH   6   8
ENDBRANCH   5   6
ENDBRANCH   4   5
ENDBRANCH   3   4
ENDBRANCH   2   3
ENDBRANCH   1   2
BRANCH   1  37
ATOM     37  C   UNL A   1      42.891  21.194  25.725  1.00  0.00     0.261 C 
BRANCH  37  38
ATOM     38  O   UNL A   1      42.551  22.451  25.123  1.00  0.00    -0.460 OA
BRANCH  38  39
ATOM     39  C   UNL A   1      43.418  23.460  25.387  1.00  0.00     0.338 C 
ATOM     40  O   UNL A   1      44.518  23.624  24.886  1.00  0.00    -0.246 OA
BRANCH  39  41
ATOM     41  C   UNL A   1      42.762  24.479  26.233  1.00  0.00     0.060 A 
ATOM     42  C   UNL A   1      41.753  24.146  27.136  1.00  0.00     0.016 A 
ATOM     43  C   UNL A   1      43.213  25.802  26.135  1.00  0.00     0.016 A 
ATOM     44  C   UNL A   1      41.221  25.138  27.965  1.00  0.00     0.010 A 
ATOM     45  C   UNL A   1      42.691  26.789  26.972  1.00  0.00     0.010 A 
ATOM     46  C   UNL A   1      41.712  26.458  27.916  1.00  0.00    -0.014 A 
BRANCH  46  47
ATOM     47  C   UNL A   1      41.338  27.422  28.984  1.00  0.00     0.031 A 
ATOM     48  C   UNL A   1      40.152  28.332  28.873  1.00  0.00     0.074 A 
ATOM     49  C   UNL A   1      42.134  27.488  30.070  1.00  0.00     0.049 A 
ATOM     50  N   UNL A   1      39.653  29.135  29.777  1.00  0.00    -0.248 NA
ATOM     51  C   UNL A   1      39.444  28.361  27.586  1.00  0.00     0.031 C 
ATOM     52  C   UNL A   1      43.366  26.716  30.242  1.00  0.00     0.029 A 
ATOM     53  N   UNL A   1      42.033  28.218  31.227  1.00  0.00    -0.354 N 
ATOM     54  C   UNL A   1      38.563  29.755  29.181  1.00  0.00     0.074 A 
ATOM     55  C   UNL A   1      38.508  29.276  27.816  1.00  0.00     0.031 C 
ATOM     56  C   UNL A   1      43.879  26.974  31.451  1.00  0.00     0.029 A 
ATOM     57  C   UNL A   1      43.039  27.958  32.129  1.00  0.00     0.049 A 
ATOM     58  H   UNL A   1      41.311  28.865  31.396  1.00  0.00     0.167 HD
ATOM     59  C   UNL A   1      37.680  30.623  29.737  1.00  0.00     0.034 A 
ATOM     60  C   UNL A   1      43.261  28.445  33.367  1.00  0.00     0.034 A 
ATOM     61  C   UNL A   1      37.763  31.094  31.101  1.00  0.00     0.049 A 
ATOM     62  C   UNL A   1      42.259  29.396  33.964  1.00  0.00     0.074 A 
ATOM     63  C   UNL A   1      36.872  31.912  31.776  1.00  0.00     0.029 A 
ATOM     64  N   UNL A   1      38.791  30.814  31.992  1.00  0.00    -0.354 N 
ATOM     65  N   UNL A   1      41.143  29.852  33.445  1.00  0.00    -0.248 NA
ATOM     66  C   UNL A   1      42.530  29.885  35.323  1.00  0.00     0.031 C 
ATOM     67  C   UNL A   1      37.400  32.192  33.037  1.00  0.00     0.029 A 
ATOM     68  C   UNL A   1      38.577  31.479  33.191  1.00  0.00     0.049 A 
ATOM     69  H   UNL A   1      39.559  30.229  31.800  1.00  0.00     0.167 HD
ATOM     70  C   UNL A   1      40.575  30.673  34.415  1.00  0.00     0.074 A 
ATOM     71  C   UNL A   1      41.445  30.607  35.572  1.00  0.00     0.031 C 
ATOM     72  C   UNL A   1      39.446  31.424  34.345  1.00  0.00     0.034 A 
BRANCH  59  73
ATOM     73  C   UNL A   1      36.513  31.109  28.908  1.00  0.00     0.023 A 
ATOM     74  C   UNL A   1      36.208  32.483  28.852  1.00  0.00     0.031 A 
ATOM     75  C   UNL A   1      35.605  30.206  28.326  1.00  0.00     0.131 A 
ATOM     76  C   UNL A   1      35.003  32.907  28.276  1.00  0.00     0.055 A 
ATOM     77  C   UNL A   1      34.430  30.638  27.709  1.00  0.00     0.041 A 
ATOM     78  F   UNL A   1      35.841  28.884  28.360  1.00  0.00    -0.206 F 
ATOM     79  C   UNL A   1      34.117  31.993  27.697  1.00  0.00     0.022 A 
BRANCH  76  80
ATOM     80  S   UNL A   1      34.494  34.648  28.334  1.00  0.00     0.124 S 
ATOM     81  O   UNL A   1      35.505  35.226  29.219  1.00  0.00    -0.237 OA
ATOM     82  O   UNL A   1      34.596  35.041  26.932  1.00  0.00    -0.237 OA
ATOM     83  O   UNL A   1      33.144  34.601  28.882  1.00  0.00    -0.744 OA
ENDBRANCH  76  80
ENDBRANCH  59  73
BRANCH  60  84
ATOM     84  C   UNL A   1      44.449  27.962  34.131  1.00  0.00     0.023 A 
ATOM     85  C   UNL A   1      44.350  26.852  34.992  1.00  0.00     0.031 A 
ATOM     86  C   UNL A   1      45.662  28.671  34.107  1.00  0.00     0.131 A 
ATOM     87  C   UNL A   1      45.414  26.536  35.846  1.00  0.00     0.055 A 
ATOM     88  C   UNL A   1      46.750  28.300  34.899  1.00  0.00     0.041 A 
ATOM     89  F   UNL A   1      45.799  29.748  33.319  1.00  0.00    -0.206 F 
ATOM     90  C   UNL A   1      46.621  27.239  35.789  1.00  0.00     0.022 A 
BRANCH  87  91
ATOM     91  S   UNL A   1      45.212  25.303  37.162  1.00  0.00     0.124 S 
ATOM     92  O   UNL A   1      44.822  24.115  36.409  1.00  0.00    -0.237 OA
ATOM     93  O   UNL A   1      46.551  25.271  37.744  1.00  0.00    -0.237 OA
ATOM     94  O   UNL A   1      44.178  25.878  38.016  1.00  0.00    -0.744 OA
ENDBRANCH  87  91
ENDBRANCH  60  84
BRANCH  72  95
ATOM     95  C   UNL A   1      39.075  32.276  35.541  1.00  0.00     0.023 A 
ATOM     96  C   UNL A   1      39.584  33.583  35.675  1.00  0.00     0.031 A 
ATOM     97  C   UNL A   1      38.318  31.753  36.607  1.00  0.00     0.131 A 
ATOM     98  C   UNL A   1      39.361  34.305  36.855  1.00  0.00     0.055 A 
ATOM     99  C   UNL A   1      38.047  32.499  37.754  1.00  0.00     0.041 A 
ATOM    100  F   UNL A   1      37.822  30.507  36.542  1.00  0.00    -0.206 F 
ATOM    101  C   UNL A   1      38.581  33.776  37.889  1.00  0.00     0.022 A 
BRANCH  98 102
ATOM    102  S   UNL A   1      40.146  35.916  37.135  1.00  0.00     0.124 S 
ATOM    103  O   UNL A   1      39.630  36.279  38.453  1.00  0.00    -0.237 OA
ATOM    104  O   UNL A   1      41.566  35.577  37.095  1.00  0.00    -0.237 OA
ATOM    105  O   UNL A   1      39.666  36.740  36.030  1.00  0.00    -0.744 OA
ENDBRANCH  98 102
ENDBRANCH  72  95
ENDBRANCH  46  47
ENDBRANCH  39  41
ENDBRANCH  38  39
ENDBRANCH  37  38
ENDBRANCH   1  37
TORSDOF 18
ENDMDL
