MODEL 1
REMARK VINA RESULT:     -11.9      0.000      0.000
REMARK SMILES Cc1cc(Br)cc2c1O[C@H](C(F)(F)F)C(C(=O)OCCOCCOC(=O)c1ccc(-c3c4nc(c(-c5cc(S(=O)(=O)[O-])ccc5F)c5ccc([nH]5)c(-c5cc(S(=O)(=O)[O-])ccc5F)c5nc(c(-c6cc(S(=O)(=O)[O-])ccc6F)c6ccc3[nH]6)C=C5)C=C4)cc1)=C2
REMARK SMILES IDX 22 1 21 2 20 3 19 4 18 5 16 6 17 7 15 8 1 9 2 10 3 11 8 12
REMARK SMILES IDX 4 13 7 14 9 15 5 16 6 17 90 18 10 19 11 20 12 21 13 22 14 23
REMARK SMILES IDX 23 24 24 25 25 26 26 27 27 28 28 29 89 30 29 31 88 32 30 33
REMARK SMILES IDX 31 34 32 35 82 36 33 37 87 38 81 39 83 40 34 41 86 42 80 43
REMARK SMILES IDX 79 44 35 46 67 47 47 48 66 49 48 50 51 51 65 52 84 53 49 54
REMARK SMILES IDX 50 55 64 57 85 58 52 59 36 60 37 61 45 62 38 63 44 64 46 65
REMARK SMILES IDX 43 66 39 67 40 68 41 69 42 70 68 71 69 72 77 73 70 74 76 75
REMARK SMILES IDX 78 76 75 77 71 78 72 79 73 80 74 81 53 82 54 83 62 84 55 85
REMARK SMILES IDX 61 86 63 87 60 88 56 89 57 90 58 91 59 92
REMARK H PARENT 83 45 51 56
REMARK Flexibility Score: inf
ROOT
ATOM      1  C   UNL A   1      35.295  21.049  24.738  1.00  0.00     0.202 C 
ENDROOT
BRANCH   1   2
ATOM      2  O   UNL A   1      34.152  20.430  25.329  1.00  0.00    -0.374 OA
BRANCH   2   3
ATOM      3  C   UNL A   1      33.228  21.267  26.024  1.00  0.00     0.202 C 
BRANCH   3   4
ATOM      4  C   UNL A   1      31.867  21.489  25.357  1.00  0.00     0.261 C 
BRANCH   4   5
ATOM      5  O   UNL A   1      31.448  22.860  25.443  1.00  0.00    -0.460 OA
BRANCH   5   6
ATOM      6  C   UNL A   1      31.509  23.543  24.278  1.00  0.00     0.338 C 
ATOM      7  O   UNL A   1      31.580  23.071  23.152  1.00  0.00    -0.246 OA
BRANCH   6   8
ATOM      8  C   UNL A   1      31.348  24.987  24.532  1.00  0.00     0.087 C 
ATOM      9  C   UNL A   1      31.995  29.938  25.743  1.00  0.00     0.048 C 
ATOM     10  C   UNL A   1      31.123  29.148  24.808  1.00  0.00    -0.007 A 
ATOM     11  C   UNL A   1      30.260  29.838  23.940  1.00  0.00     0.023 A 
ATOM     12  C   UNL A   1      31.133  27.744  24.789  1.00  0.00     0.130 A 
ATOM     13  C   UNL A   1      29.439  29.136  23.059  1.00  0.00     0.019 A 
ATOM     14  C   UNL A   1      30.335  27.049  23.873  1.00  0.00     0.019 A 
ATOM     15  O   UNL A   1      31.933  27.111  25.699  1.00  0.00    -0.475 OA
ATOM     16  Br  UNL A   1      28.289  30.078  21.890  1.00  0.00    -0.051 Br
ATOM     17  C   UNL A   1      29.475  27.747  23.018  1.00  0.00     0.027 A 
ATOM     18  C   UNL A   1      30.447  25.608  23.762  1.00  0.00     0.027 C 
ATOM     19  C   UNL A   1      32.180  25.681  25.573  1.00  0.00     0.316 C 
BRANCH  19  20
ATOM     20  C   UNL A   1      33.688  25.474  25.363  1.00  0.00     0.430 C 
ATOM     21  F   UNL A   1      34.123  24.368  26.012  1.00  0.00    -0.167 F 
ATOM     22  F   UNL A   1      33.999  25.311  24.058  1.00  0.00    -0.167 F 
ATOM     23  F   UNL A   1      34.406  26.523  25.825  1.00  0.00    -0.167 F 
ENDBRANCH  19  20
ENDBRANCH   6   8
ENDBRANCH   5   6
ENDBRANCH   4   5
ENDBRANCH   3   4
ENDBRANCH   2   3
ENDBRANCH   1   2
BRANCH   1  24
ATOM     24  C   UNL A   1      36.667  20.431  25.032  1.00  0.00     0.261 C 
BRANCH  24  25
ATOM     25  O   UNL A   1      37.720  21.414  25.020  1.00  0.00    -0.460 OA
BRANCH  25  26
ATOM     26  C   UNL A   1      38.790  21.100  25.788  1.00  0.00     0.338 C 
ATOM     27  O   UNL A   1      39.368  20.020  25.838  1.00  0.00    -0.246 OA
BRANCH  26  28
ATOM     28  C   UNL A   1      39.316  22.307  26.447  1.00  0.00     0.060 A 
ATOM     29  C   UNL A   1      38.739  23.537  26.104  1.00  0.00     0.016 A 
ATOM     30  C   UNL A   1      40.419  22.251  27.301  1.00  0.00     0.016 A 
ATOM     31  C   UNL A   1      39.296  24.724  26.573  1.00  0.00     0.010 A 
ATOM     32  C   UNL A   1      40.987  23.446  27.758  1.00  0.00     0.010 A 
ATOM     33  C   UNL A   1      40.452  24.686  27.362  1.00  0.00    -0.014 A 
BRANCH  33  34
ATOM     34  C   UNL A   1      41.204  25.940  27.601  1.00  0.00     0.031 A 
ATOM     35  C   UNL A   1      40.557  27.018  28.431  1.00  0.00     0.074 A 
ATOM     36  C   UNL A   1      42.460  26.095  27.146  1.00  0.00     0.049 A 
ATOM     37  N   UNL A   1      41.001  28.209  28.736  1.00  0.00    -0.248 NA
ATOM     38  C   UNL A   1      39.234  26.705  28.996  1.00  0.00     0.031 C 
ATOM     39  C   UNL A   1      43.218  25.091  26.402  1.00  0.00     0.029 A 
ATOM     40  N   UNL A   1      43.321  27.158  27.254  1.00  0.00    -0.354 N 
ATOM     41  C   UNL A   1      40.017  28.786  29.531  1.00  0.00     0.074 A 
ATOM     42  C   UNL A   1      38.939  27.827  29.635  1.00  0.00     0.031 C 
ATOM     43  C   UNL A   1      44.437  25.586  26.123  1.00  0.00     0.029 A 
ATOM     44  C   UNL A   1      44.530  26.953  26.631  1.00  0.00     0.049 A 
ATOM     45  H   UNL A   1      43.096  27.988  27.731  1.00  0.00     0.167 HD
ATOM     46  C   UNL A   1      40.017  30.002  30.128  1.00  0.00     0.034 A 
ATOM     47  C   UNL A   1      45.579  27.784  26.472  1.00  0.00     0.034 A 
ATOM     48  C   UNL A   1      41.092  30.953  30.013  1.00  0.00     0.049 A 
ATOM     49  C   UNL A   1      45.507  29.178  27.043  1.00  0.00     0.074 A 
ATOM     50  C   UNL A   1      41.185  32.218  30.567  1.00  0.00     0.029 A 
ATOM     51  N   UNL A   1      42.258  30.747  29.291  1.00  0.00    -0.354 N 
ATOM     52  N   UNL A   1      44.548  29.731  27.750  1.00  0.00    -0.248 NA
ATOM     53  C   UNL A   1      46.651  30.063  26.785  1.00  0.00     0.031 C 
ATOM     54  C   UNL A   1      42.381  32.798  30.131  1.00  0.00     0.029 A 
ATOM     55  C   UNL A   1      43.063  31.872  29.359  1.00  0.00     0.049 A 
ATOM     56  H   UNL A   1      42.482  29.921  28.802  1.00  0.00     0.167 HD
ATOM     57  C   UNL A   1      44.981  31.023  28.033  1.00  0.00     0.074 A 
ATOM     58  C   UNL A   1      46.291  31.164  27.430  1.00  0.00     0.031 C 
ATOM     59  C   UNL A   1      44.355  32.004  28.730  1.00  0.00     0.034 A 
BRANCH  46  60
ATOM     60  C   UNL A   1      38.798  30.384  30.923  1.00  0.00     0.023 A 
ATOM     61  C   UNL A   1      37.727  31.082  30.339  1.00  0.00     0.031 A 
ATOM     62  C   UNL A   1      38.703  30.039  32.283  1.00  0.00     0.131 A 
ATOM     63  C   UNL A   1      36.624  31.450  31.124  1.00  0.00     0.055 A 
ATOM     64  C   UNL A   1      37.577  30.355  33.044  1.00  0.00     0.041 A 
ATOM     65  F   UNL A   1      39.708  29.391  32.893  1.00  0.00    -0.206 F 
ATOM     66  C   UNL A   1      36.531  31.070  32.466  1.00  0.00     0.022 A 
BRANCH  63  67
ATOM     67  S   UNL A   1      35.341  32.499  30.389  1.00  0.00     0.124 S 
ATOM     68  O   UNL A   1      34.370  32.580  31.476  1.00  0.00    -0.237 OA
ATOM     69  O   UNL A   1      36.067  33.727  30.087  1.00  0.00    -0.237 OA
ATOM     70  O   UNL A   1      34.901  31.734  29.224  1.00  0.00    -0.744 OA
ENDBRANCH  63  67
ENDBRANCH  46  60
BRANCH  47  71
ATOM     71  C   UNL A   1      46.774  27.344  25.698  1.00  0.00     0.023 A 
ATOM     72  C   UNL A   1      46.961  27.743  24.366  1.00  0.00     0.031 A 
ATOM     73  C   UNL A   1      47.732  26.492  26.277  1.00  0.00     0.131 A 
ATOM     74  C   UNL A   1      48.070  27.270  23.647  1.00  0.00     0.055 A 
ATOM     75  C   UNL A   1      48.853  26.057  25.569  1.00  0.00     0.041 A 
ATOM     76  F   UNL A   1      47.595  26.083  27.548  1.00  0.00    -0.206 F 
ATOM     77  C   UNL A   1      49.023  26.441  24.243  1.00  0.00     0.022 A 
BRANCH  74  78
ATOM     78  S   UNL A   1      48.236  27.730  21.899  1.00  0.00     0.124 S 
ATOM     79  O   UNL A   1      49.357  28.662  21.943  1.00  0.00    -0.237 OA
ATOM     80  O   UNL A   1      48.496  26.440  21.268  1.00  0.00    -0.237 OA
ATOM     81  O   UNL A   1      46.940  28.325  21.581  1.00  0.00    -0.744 OA
ENDBRANCH  74  78
ENDBRANCH  47  71
BRANCH  59  82
ATOM     82  C   UNL A   1      45.082  33.314  28.889  1.00  0.00     0.023 A 
ATOM     83  C   UNL A   1      45.971  33.531  29.954  1.00  0.00     0.031 A 
ATOM     84  C   UNL A   1      44.908  34.341  27.945  1.00  0.00     0.131 A 
ATOM     85  C   UNL A   1      46.633  34.763  30.068  1.00  0.00     0.055 A 
ATOM     86  C   UNL A   1      45.606  35.546  28.036  1.00  0.00     0.041 A 
ATOM     87  F   UNL A   1      44.072  34.180  26.907  1.00  0.00    -0.206 F 
ATOM     88  C   UNL A   1      46.469  35.765  29.107  1.00  0.00     0.022 A 
BRANCH  85  89
ATOM     89  S   UNL A   1      47.685  35.056  31.516  1.00  0.00     0.124 S 
ATOM     90  O   UNL A   1      47.065  36.239  32.104  1.00  0.00    -0.237 OA
ATOM     91  O   UNL A   1      47.535  33.816  32.271  1.00  0.00    -0.237 OA
ATOM     92  O   UNL A   1      49.010  35.272  30.939  1.00  0.00    -0.744 OA
ENDBRANCH  85  89
ENDBRANCH  59  82
ENDBRANCH  33  34
ENDBRANCH  26  28
ENDBRANCH  25  26
ENDBRANCH  24  25
ENDBRANCH   1  24
TORSDOF 18
ENDMDL
MODEL 2
REMARK VINA RESULT:     -11.8      4.745      9.981
REMARK SMILES Cc1cc(Br)cc2c1O[C@H](C(F)(F)F)C(C(=O)OCCOCCOC(=O)c1ccc(-c3c4nc(c(-c5cc(S(=O)(=O)[O-])ccc5F)c5ccc([nH]5)c(-c5cc(S(=O)(=O)[O-])ccc5F)c5nc(c(-c6cc(S(=O)(=O)[O-])ccc6F)c6ccc3[nH]6)C=C5)C=C4)cc1)=C2
REMARK SMILES IDX 22 1 21 2 20 3 19 4 18 5 16 6 17 7 15 8 1 9 2 10 3 11 8 12
REMARK SMILES IDX 4 13 7 14 9 15 5 16 6 17 90 18 10 19 11 20 12 21 13 22 14 23
REMARK SMILES IDX 23 24 24 25 25 26 26 27 27 28 28 29 89 30 29 31 88 32 30 33
REMARK SMILES IDX 31 34 32 35 82 36 33 37 87 38 81 39 83 40 34 41 86 42 80 43
REMARK SMILES IDX 79 44 35 46 67 47 47 48 66 49 48 50 51 51 65 52 84 53 49 54
REMARK SMILES IDX 50 55 64 57 85 58 52 59 36 60 37 61 45 62 38 63 44 64 46 65
REMARK SMILES IDX 43 66 39 67 40 68 41 69 42 70 68 71 69 72 77 73 70 74 76 75
REMARK SMILES IDX 78 76 75 77 71 78 72 79 73 80 74 81 53 82 54 83 62 84 55 85
REMARK SMILES IDX 61 86 63 87 60 88 56 89 57 90 58 91 59 92
REMARK H PARENT 83 45 51 56
REMARK Flexibility Score: inf
ROOT
ATOM      1  C   UNL A   1      32.469  29.459  24.816  1.00  0.00     0.202 C 
ENDROOT
BRANCH   1   2
ATOM      2  O   UNL A   1      31.748  28.332  24.314  1.00  0.00    -0.374 OA
BRANCH   2   3
ATOM      3  C   UNL A   1      31.467  28.293  22.916  1.00  0.00     0.202 C 
BRANCH   3   4
ATOM      4  C   UNL A   1      30.995  26.950  22.348  1.00  0.00     0.261 C 
BRANCH   4   5
ATOM      5  O   UNL A   1      31.899  25.884  22.679  1.00  0.00    -0.460 OA
BRANCH   5   6
ATOM      6  C   UNL A   1      31.387  24.948  23.509  1.00  0.00     0.338 C 
ATOM      7  O   UNL A   1      30.246  24.897  23.947  1.00  0.00    -0.246 OA
BRANCH   6   8
ATOM      8  C   UNL A   1      32.380  23.881  23.738  1.00  0.00     0.087 C 
ATOM      9  C   UNL A   1      36.438  21.069  25.157  1.00  0.00     0.048 C 
ATOM     10  C   UNL A   1      34.991  20.814  24.844  1.00  0.00    -0.007 A 
ATOM     11  C   UNL A   1      34.479  19.516  25.005  1.00  0.00     0.023 A 
ATOM     12  C   UNL A   1      34.142  21.832  24.378  1.00  0.00     0.130 A 
ATOM     13  C   UNL A   1      33.141  19.247  24.724  1.00  0.00     0.019 A 
ATOM     14  C   UNL A   1      32.790  21.561  24.137  1.00  0.00     0.019 A 
ATOM     15  O   UNL A   1      34.696  23.063  24.166  1.00  0.00    -0.475 OA
ATOM     16  Br  UNL A   1      32.464  17.496  24.955  1.00  0.00    -0.051 Br
ATOM     17  C   UNL A   1      32.293  20.262  24.296  1.00  0.00     0.027 A 
ATOM     18  C   UNL A   1      31.886  22.639  23.788  1.00  0.00     0.027 C 
ATOM     19  C   UNL A   1      33.834  24.212  23.925  1.00  0.00     0.316 C 
BRANCH  19  20
ATOM     20  C   UNL A   1      34.071  25.230  25.051  1.00  0.00     0.430 C 
ATOM     21  F   UNL A   1      34.189  26.486  24.556  1.00  0.00    -0.167 F 
ATOM     22  F   UNL A   1      33.050  25.252  25.936  1.00  0.00    -0.167 F 
ATOM     23  F   UNL A   1      35.202  24.959  25.741  1.00  0.00    -0.167 F 
ENDBRANCH  19  20
ENDBRANCH   6   8
ENDBRANCH   5   6
ENDBRANCH   4   5
ENDBRANCH   3   4
ENDBRANCH   2   3
ENDBRANCH   1   2
BRANCH   1  24
ATOM     24  C   UNL A   1      31.727  30.410  25.763  1.00  0.00     0.261 C 
BRANCH  24  25
ATOM     25  O   UNL A   1      32.362  30.499  27.052  1.00  0.00    -0.460 OA
BRANCH  25  26
ATOM     26  C   UNL A   1      33.088  31.626  27.246  1.00  0.00     0.338 C 
ATOM     27  O   UNL A   1      32.672  32.779  27.231  1.00  0.00    -0.246 OA
BRANCH  26  28
ATOM     28  C   UNL A   1      34.454  31.285  27.675  1.00  0.00     0.060 A 
ATOM     29  C   UNL A   1      34.746  29.933  27.897  1.00  0.00     0.016 A 
ATOM     30  C   UNL A   1      35.399  32.274  27.957  1.00  0.00     0.016 A 
ATOM     31  C   UNL A   1      35.968  29.565  28.453  1.00  0.00     0.010 A 
ATOM     32  C   UNL A   1      36.620  31.903  28.531  1.00  0.00     0.010 A 
ATOM     33  C   UNL A   1      36.892  30.553  28.819  1.00  0.00    -0.014 A 
BRANCH  33  34
ATOM     34  C   UNL A   1      38.043  30.183  29.675  1.00  0.00     0.031 A 
ATOM     35  C   UNL A   1      39.079  29.241  29.118  1.00  0.00     0.074 A 
ATOM     36  C   UNL A   1      38.201  30.720  30.898  1.00  0.00     0.049 A 
ATOM     37  N   UNL A   1      40.142  28.744  29.693  1.00  0.00    -0.248 NA
ATOM     38  C   UNL A   1      38.890  28.809  27.724  1.00  0.00     0.031 C 
ATOM     39  C   UNL A   1      37.308  31.702  31.509  1.00  0.00     0.029 A 
ATOM     40  N   UNL A   1      39.177  30.518  31.840  1.00  0.00    -0.354 N 
ATOM     41  C   UNL A   1      40.752  27.945  28.732  1.00  0.00     0.074 A 
ATOM     42  C   UNL A   1      39.923  27.999  27.547  1.00  0.00     0.031 C 
ATOM     43  C   UNL A   1      37.782  32.022  32.727  1.00  0.00     0.029 A 
ATOM     44  C   UNL A   1      38.985  31.238  32.996  1.00  0.00     0.049 A 
ATOM     45  H   UNL A   1      39.943  29.916  31.702  1.00  0.00     0.167 HD
ATOM     46  C   UNL A   1      41.904  27.240  28.826  1.00  0.00     0.034 A 
ATOM     47  C   UNL A   1      39.690  31.243  34.145  1.00  0.00     0.034 A 
ATOM     48  C   UNL A   1      42.720  27.187  30.011  1.00  0.00     0.049 A 
ATOM     49  C   UNL A   1      40.903  30.355  34.269  1.00  0.00     0.074 A 
ATOM     50  C   UNL A   1      43.898  26.491  30.215  1.00  0.00     0.029 A 
ATOM     51  N   UNL A   1      42.440  27.852  31.196  1.00  0.00    -0.354 N 
ATOM     52  N   UNL A   1      41.442  29.564  33.369  1.00  0.00    -0.248 NA
ATOM     53  C   UNL A   1      41.596  30.351  35.564  1.00  0.00     0.031 C 
ATOM     54  C   UNL A   1      44.298  26.689  31.540  1.00  0.00     0.029 A 
ATOM     55  C   UNL A   1      43.404  27.559  32.145  1.00  0.00     0.049 A 
ATOM     56  H   UNL A   1      41.667  28.446  31.341  1.00  0.00     0.167 HD
ATOM     57  C   UNL A   1      42.544  28.981  33.987  1.00  0.00     0.074 A 
ATOM     58  C   UNL A   1      42.600  29.518  35.331  1.00  0.00     0.031 C 
ATOM     59  C   UNL A   1      43.431  28.084  33.488  1.00  0.00     0.034 A 
BRANCH  46  60
ATOM     60  C   UNL A   1      42.325  26.436  27.625  1.00  0.00     0.023 A 
ATOM     61  C   UNL A   1      41.971  25.083  27.484  1.00  0.00     0.031 A 
ATOM     62  C   UNL A   1      43.084  27.033  26.604  1.00  0.00     0.131 A 
ATOM     63  C   UNL A   1      42.413  24.360  26.366  1.00  0.00     0.055 A 
ATOM     64  C   UNL A   1      43.469  26.326  25.465  1.00  0.00     0.041 A 
ATOM     65  F   UNL A   1      43.466  28.317  26.700  1.00  0.00    -0.206 F 
ATOM     66  C   UNL A   1      43.138  24.978  25.344  1.00  0.00     0.022 A 
BRANCH  63  67
ATOM     67  S   UNL A   1      42.089  22.578  26.297  1.00  0.00     0.124 S 
ATOM     68  O   UNL A   1      40.632  22.540  26.397  1.00  0.00    -0.237 OA
ATOM     69  O   UNL A   1      42.650  22.201  25.006  1.00  0.00    -0.237 OA
ATOM     70  O   UNL A   1      42.802  22.056  27.462  1.00  0.00    -0.744 OA
ENDBRANCH  63  67
ENDBRANCH  46  60
BRANCH  47  71
ATOM     71  C   UNL A   1      39.244  32.080  35.294  1.00  0.00     0.023 A 
ATOM     72  C   UNL A   1      39.724  33.387  35.467  1.00  0.00     0.031 A 
ATOM     73  C   UNL A   1      38.350  31.568  36.252  1.00  0.00     0.131 A 
ATOM     74  C   UNL A   1      39.324  34.132  36.589  1.00  0.00     0.055 A 
ATOM     75  C   UNL A   1      37.926  32.327  37.343  1.00  0.00     0.041 A 
ATOM     76  F   UNL A   1      37.865  30.322  36.129  1.00  0.00    -0.206 F 
ATOM     77  C   UNL A   1      38.420  33.616  37.520  1.00  0.00     0.022 A 
BRANCH  74  78
ATOM     78  S   UNL A   1      40.032  35.785  36.834  1.00  0.00     0.124 S 
ATOM     79  O   UNL A   1      39.664  36.452  35.590  1.00  0.00    -0.237 OA
ATOM     80  O   UNL A   1      39.341  36.237  38.036  1.00  0.00    -0.237 OA
ATOM     81  O   UNL A   1      41.460  35.520  37.003  1.00  0.00    -0.744 OA
ENDBRANCH  74  78
ENDBRANCH  47  71
BRANCH  59  82
ATOM     82  C   UNL A   1      44.546  27.635  34.395  1.00  0.00     0.023 A 
ATOM     83  C   UNL A   1      44.425  26.478  35.183  1.00  0.00     0.031 A 
ATOM     84  C   UNL A   1      45.754  28.352  34.445  1.00  0.00     0.131 A 
ATOM     85  C   UNL A   1      45.487  26.088  36.014  1.00  0.00     0.055 A 
ATOM     86  C   UNL A   1      46.824  27.933  35.236  1.00  0.00     0.041 A 
ATOM     87  F   UNL A   1      45.920  29.462  33.707  1.00  0.00    -0.206 F 
ATOM     88  C   UNL A   1      46.691  26.798  36.033  1.00  0.00     0.022 A 
BRANCH  85  89
ATOM     89  S   UNL A   1      45.259  24.658  37.105  1.00  0.00     0.124 S 
ATOM     90  O   UNL A   1      46.129  24.994  38.228  1.00  0.00    -0.237 OA
ATOM     91  O   UNL A   1      43.825  24.694  37.377  1.00  0.00    -0.237 OA
ATOM     92  O   UNL A   1      45.705  23.530  36.291  1.00  0.00    -0.744 OA
ENDBRANCH  85  89
ENDBRANCH  59  82
ENDBRANCH  33  34
ENDBRANCH  26  28
ENDBRANCH  25  26
ENDBRANCH  24  25
ENDBRANCH   1  24
TORSDOF 18
ENDMDL
MODEL 3
REMARK VINA RESULT:     -11.8      1.855      2.268
REMARK SMILES Cc1cc(Br)cc2c1O[C@H](C(F)(F)F)C(C(=O)OCCOCCOC(=O)c1ccc(-c3c4nc(c(-c5cc(S(=O)(=O)[O-])ccc5F)c5ccc([nH]5)c(-c5cc(S(=O)(=O)[O-])ccc5F)c5nc(c(-c6cc(S(=O)(=O)[O-])ccc6F)c6ccc3[nH]6)C=C5)C=C4)cc1)=C2
REMARK SMILES IDX 22 1 21 2 20 3 19 4 18 5 16 6 17 7 15 8 1 9 2 10 3 11 8 12
REMARK SMILES IDX 4 13 7 14 9 15 5 16 6 17 90 18 10 19 11 20 12 21 13 22 14 23
REMARK SMILES IDX 23 24 24 25 25 26 26 27 27 28 28 29 89 30 29 31 88 32 30 33
REMARK SMILES IDX 31 34 32 35 82 36 33 37 87 38 81 39 83 40 34 41 86 42 80 43
REMARK SMILES IDX 79 44 35 46 67 47 47 48 66 49 48 50 51 51 65 52 84 53 49 54
REMARK SMILES IDX 50 55 64 57 85 58 52 59 36 60 37 61 45 62 38 63 44 64 46 65
REMARK SMILES IDX 43 66 39 67 40 68 41 69 42 70 68 71 69 72 77 73 70 74 76 75
REMARK SMILES IDX 78 76 75 77 71 78 72 79 73 80 74 81 53 82 54 83 62 84 55 85
REMARK SMILES IDX 61 86 63 87 60 88 56 89 57 90 58 91 59 92
REMARK H PARENT 83 45 51 56
REMARK Flexibility Score: inf
ROOT
ATOM      1  C   UNL A   1      36.017  20.339  25.007  1.00  0.00     0.202 C 
ENDROOT
BRANCH   1   2
ATOM      2  O   UNL A   1      35.494  21.092  26.103  1.00  0.00    -0.374 OA
BRANCH   2   3
ATOM      3  C   UNL A   1      34.209  21.693  25.943  1.00  0.00     0.202 C 
BRANCH   3   4
ATOM      4  C   UNL A   1      34.153  23.222  26.012  1.00  0.00     0.261 C 
BRANCH   4   5
ATOM      5  O   UNL A   1      35.074  23.832  25.095  1.00  0.00    -0.460 OA
BRANCH   5   6
ATOM      6  C   UNL A   1      34.622  23.933  23.825  1.00  0.00     0.338 C 
ATOM      7  O   UNL A   1      34.886  23.192  22.888  1.00  0.00    -0.246 OA
BRANCH   6   8
ATOM      8  C   UNL A   1      33.630  25.021  23.728  1.00  0.00     0.087 C 
ATOM      9  C   UNL A   1      29.384  27.864  23.203  1.00  0.00     0.048 C 
ATOM     10  C   UNL A   1      30.695  27.986  23.926  1.00  0.00    -0.007 A 
ATOM     11  C   UNL A   1      30.910  29.096  24.761  1.00  0.00     0.023 A 
ATOM     12  C   UNL A   1      31.717  27.034  23.778  1.00  0.00     0.130 A 
ATOM     13  C   UNL A   1      32.115  29.238  25.446  1.00  0.00     0.019 A 
ATOM     14  C   UNL A   1      32.907  27.164  24.502  1.00  0.00     0.019 A 
ATOM     15  O   UNL A   1      31.495  26.008  22.902  1.00  0.00    -0.475 OA
ATOM     16  Br  UNL A   1      32.386  30.732  26.574  1.00  0.00    -0.051 Br
ATOM     17  C   UNL A   1      33.112  28.277  25.326  1.00  0.00     0.027 A 
ATOM     18  C   UNL A   1      33.904  26.113  24.454  1.00  0.00     0.027 C 
ATOM     19  C   UNL A   1      32.397  24.864  22.885  1.00  0.00     0.316 C 
BRANCH  19  20
ATOM     20  C   UNL A   1      31.585  23.612  23.248  1.00  0.00     0.430 C 
ATOM     21  F   UNL A   1      31.626  23.374  24.581  1.00  0.00    -0.167 F 
ATOM     22  F   UNL A   1      30.282  23.739  22.912  1.00  0.00    -0.167 F 
ATOM     23  F   UNL A   1      32.060  22.509  22.626  1.00  0.00    -0.167 F 
ENDBRANCH  19  20
ENDBRANCH   6   8
ENDBRANCH   5   6
ENDBRANCH   4   5
ENDBRANCH   3   4
ENDBRANCH   2   3
ENDBRANCH   1   2
BRANCH   1  24
ATOM     24  C   UNL A   1      37.538  20.330  24.815  1.00  0.00     0.261 C 
BRANCH  24  25
ATOM     25  O   UNL A   1      38.159  21.520  25.334  1.00  0.00    -0.460 OA
BRANCH  25  26
ATOM     26  C   UNL A   1      39.259  21.296  26.091  1.00  0.00     0.338 C 
ATOM     27  O   UNL A   1      39.916  20.263  26.146  1.00  0.00    -0.246 OA
BRANCH  26  28
ATOM     28  C   UNL A   1      39.701  22.547  26.730  1.00  0.00     0.060 A 
ATOM     29  C   UNL A   1      39.191  23.750  26.224  1.00  0.00     0.016 A 
ATOM     30  C   UNL A   1      40.675  22.551  27.731  1.00  0.00     0.016 A 
ATOM     31  C   UNL A   1      39.690  24.966  26.681  1.00  0.00     0.010 A 
ATOM     32  C   UNL A   1      41.187  23.775  28.176  1.00  0.00     0.010 A 
ATOM     33  C   UNL A   1      40.725  24.984  27.624  1.00  0.00    -0.014 A 
BRANCH  33  34
ATOM     34  C   UNL A   1      41.450  26.252  27.876  1.00  0.00     0.031 A 
ATOM     35  C   UNL A   1      40.760  27.327  28.673  1.00  0.00     0.074 A 
ATOM     36  C   UNL A   1      42.718  26.421  27.463  1.00  0.00     0.049 A 
ATOM     37  N   UNL A   1      41.175  28.528  28.981  1.00  0.00    -0.248 NA
ATOM     38  C   UNL A   1      39.423  27.000  29.196  1.00  0.00     0.031 C 
ATOM     39  C   UNL A   1      43.516  25.421  26.755  1.00  0.00     0.029 A 
ATOM     40  N   UNL A   1      43.560  27.497  27.589  1.00  0.00    -0.354 N 
ATOM     41  C   UNL A   1      40.156  29.098  29.736  1.00  0.00     0.074 A 
ATOM     42  C   UNL A   1      39.090  28.124  29.813  1.00  0.00     0.031 C 
ATOM     43  C   UNL A   1      44.737  25.931  26.512  1.00  0.00     0.029 A 
ATOM     44  C   UNL A   1      44.792  27.304  27.009  1.00  0.00     0.049 A 
ATOM     45  H   UNL A   1      43.306  28.329  28.050  1.00  0.00     0.167 HD
ATOM     46  C   UNL A   1      40.119  30.319  30.321  1.00  0.00     0.034 A 
ATOM     47  C   UNL A   1      45.834  28.149  26.878  1.00  0.00     0.034 A 
ATOM     48  C   UNL A   1      41.183  31.285  30.233  1.00  0.00     0.049 A 
ATOM     49  C   UNL A   1      45.722  29.548  27.433  1.00  0.00     0.074 A 
ATOM     50  C   UNL A   1      41.239  32.555  30.777  1.00  0.00     0.029 A 
ATOM     51  N   UNL A   1      42.376  31.089  29.554  1.00  0.00    -0.354 N 
ATOM     52  N   UNL A   1      44.732  30.093  28.102  1.00  0.00    -0.248 NA
ATOM     53  C   UNL A   1      46.861  30.447  27.205  1.00  0.00     0.031 C 
ATOM     54  C   UNL A   1      42.440  33.149  30.377  1.00  0.00     0.029 A 
ATOM     55  C   UNL A   1      43.162  32.226  29.637  1.00  0.00     0.049 A 
ATOM     56  H   UNL A   1      42.628  30.262  29.081  1.00  0.00     0.167 HD
ATOM     57  C   UNL A   1      45.136  31.394  28.386  1.00  0.00     0.074 A 
ATOM     58  C   UNL A   1      46.464  31.549  27.827  1.00  0.00     0.031 C 
ATOM     59  C   UNL A   1      44.472  32.372  29.052  1.00  0.00     0.034 A 
BRANCH  46  60
ATOM     60  C   UNL A   1      38.868  30.690  31.070  1.00  0.00     0.023 A 
ATOM     61  C   UNL A   1      37.768  31.279  30.421  1.00  0.00     0.031 A 
ATOM     62  C   UNL A   1      38.771  30.446  32.451  1.00  0.00     0.131 A 
ATOM     63  C   UNL A   1      36.634  31.641  31.164  1.00  0.00     0.055 A 
ATOM     64  C   UNL A   1      37.617  30.754  33.173  1.00  0.00     0.041 A 
ATOM     65  F   UNL A   1      39.802  29.905  33.122  1.00  0.00    -0.206 F 
ATOM     66  C   UNL A   1      36.542  31.361  32.529  1.00  0.00     0.022 A 
BRANCH  63  67
ATOM     67  S   UNL A   1      35.306  32.555  30.334  1.00  0.00     0.124 S 
ATOM     68  O   UNL A   1      34.295  32.623  31.387  1.00  0.00    -0.237 OA
ATOM     69  O   UNL A   1      35.952  33.814  29.987  1.00  0.00    -0.237 OA
ATOM     70  O   UNL A   1      34.959  31.699  29.200  1.00  0.00    -0.744 OA
ENDBRANCH  63  67
ENDBRANCH  46  60
BRANCH  47  71
ATOM     71  C   UNL A   1      47.061  27.720  26.150  1.00  0.00     0.023 A 
ATOM     72  C   UNL A   1      47.181  27.903  24.764  1.00  0.00     0.031 A 
ATOM     73  C   UNL A   1      48.119  27.093  26.831  1.00  0.00     0.131 A 
ATOM     74  C   UNL A   1      48.328  27.442  24.098  1.00  0.00     0.055 A 
ATOM     75  C   UNL A   1      49.273  26.671  26.170  1.00  0.00     0.041 A 
ATOM     76  F   UNL A   1      48.049  26.895  28.158  1.00  0.00    -0.206 F 
ATOM     77  C   UNL A   1      49.379  26.839  24.793  1.00  0.00     0.022 A 
BRANCH  74  78
ATOM     78  S   UNL A   1      48.414  27.610  22.293  1.00  0.00     0.124 S 
ATOM     79  O   UNL A   1      49.552  28.509  22.134  1.00  0.00    -0.237 OA
ATOM     80  O   UNL A   1      48.620  26.230  21.868  1.00  0.00    -0.237 OA
ATOM     81  O   UNL A   1      47.114  28.179  21.943  1.00  0.00    -0.744 OA
ENDBRANCH  74  78
ENDBRANCH  47  71
BRANCH  59  82
ATOM     82  C   UNL A   1      45.174  33.694  29.222  1.00  0.00     0.023 A 
ATOM     83  C   UNL A   1      44.950  34.759  28.336  1.00  0.00     0.031 A 
ATOM     84  C   UNL A   1      46.050  33.899  30.303  1.00  0.00     0.131 A 
ATOM     85  C   UNL A   1      45.619  35.977  28.528  1.00  0.00     0.055 A 
ATOM     86  C   UNL A   1      46.675  35.127  30.517  1.00  0.00     0.041 A 
ATOM     87  F   UNL A   1      46.294  32.912  31.180  1.00  0.00    -0.206 F 
ATOM     88  C   UNL A   1      46.466  36.173  29.622  1.00  0.00     0.022 A 
BRANCH  85  89
ATOM     89  S   UNL A   1      45.398  37.296  27.302  1.00  0.00     0.124 S 
ATOM     90  O   UNL A   1      43.994  37.137  26.939  1.00  0.00    -0.237 OA
ATOM     91  O   UNL A   1      45.727  38.495  28.066  1.00  0.00    -0.237 OA
ATOM     92  O   UNL A   1      46.353  36.950  26.251  1.00  0.00    -0.744 OA
ENDBRANCH  85  89
ENDBRANCH  59  82
ENDBRANCH  33  34
ENDBRANCH  26  28
ENDBRANCH  25  26
ENDBRANCH  24  25
ENDBRANCH   1  24
TORSDOF 18
ENDMDL
