MODEL 1
REMARK VINA RESULT:     -11.3      0.000      0.000
REMARK SMILES C=C(C)COc1ccc2nc(C)n(-c3cccc(C(=O)OCCOCCOC(=O)c4ccc(-c5c6nc(c(-c7cc(S(=O)(=O)[O-])ccc7F)c7ccc([nH]7)c(-c7cc(S(=O)(=O)[O-])ccc7F)c7nc(c(-c8cc(S(=O)(=O)[O-])ccc8F)c8ccc5[nH]8)C=C7)C=C6)cc4)c3)c(=O)c2c1
REMARK SMILES IDX 23 1 22 2 21 3 19 4 20 5 18 6 14 7 15 8 93 9 16 10 17 11
REMARK SMILES IDX 13 12 6 13 7 14 97 15 8 16 96 17 9 18 94 19 10 20 95 21
REMARK SMILES IDX 11 22 12 23 5 24 4 25 2 26 1 27 3 28 24 29 25 30 26 31 27 32
REMARK SMILES IDX 28 33 29 34 30 35 31 36 92 37 32 38 91 39 33 40 34 41 35 42
REMARK SMILES IDX 85 43 36 44 90 45 84 46 86 47 37 48 89 49 83 50 82 51 38 53
REMARK SMILES IDX 70 54 50 55 69 56 51 57 54 58 68 59 87 60 52 61 53 62 67 64
REMARK SMILES IDX 88 65 55 66 39 67 40 68 48 69 41 70 47 71 49 72 46 73 42 74
REMARK SMILES IDX 43 75 44 76 45 77 71 78 72 79 80 80 73 81 79 82 81 83 78 84
REMARK SMILES IDX 74 85 75 86 76 87 77 88 56 89 57 90 65 91 58 92 64 93 66 94
REMARK SMILES IDX 63 95 59 96 60 97 61 98 62 99
REMARK H PARENT 86 52 54 63
REMARK Flexibility Score: inf
ROOT
ATOM      1  C   UNL A   1      31.659  29.093  23.515  1.00  0.00     0.202 C 
ENDROOT
BRANCH   1   2
ATOM      2  C   UNL A   1      30.644  28.711  22.431  1.00  0.00     0.261 C 
BRANCH   2   3
ATOM      3  O   UNL A   1      30.102  27.398  22.643  1.00  0.00    -0.460 OA
BRANCH   3   4
ATOM      4  C   UNL A   1      30.954  26.375  22.379  1.00  0.00     0.338 C 
ATOM      5  O   UNL A   1      31.556  26.174  21.337  1.00  0.00    -0.246 OA
BRANCH   4   6
ATOM      6  C   UNL A   1      31.242  25.622  23.625  1.00  0.00     0.062 A 
ATOM      7  C   UNL A   1      32.426  23.932  24.903  1.00  0.00     0.051 A 
ATOM      8  C   UNL A   1      31.572  24.183  25.990  1.00  0.00     0.027 A 
ATOM      9  C   UNL A   1      32.268  24.674  23.721  1.00  0.00     0.042 A 
ATOM     10  C   UNL A   1      30.550  25.127  25.893  1.00  0.00     0.003 A 
ATOM     11  C   UNL A   1      30.383  25.841  24.710  1.00  0.00     0.016 A 
BRANCH   7  12
ATOM     12  N   UNL A   1      33.445  22.934  25.003  1.00  0.00    -0.264 N 
ATOM     13  C   UNL A   1      35.006  18.360  24.480  1.00  0.00     0.120 A 
ATOM     14  C   UNL A   1      36.289  18.814  24.776  1.00  0.00     0.049 A 
ATOM     15  C   UNL A   1      33.940  19.256  24.437  1.00  0.00     0.062 A 
ATOM     16  C   UNL A   1      36.505  20.156  25.081  1.00  0.00     0.033 A 
ATOM     17  C   UNL A   1      34.171  20.607  24.739  1.00  0.00     0.070 A 
ATOM     18  C   UNL A   1      35.447  21.060  25.058  1.00  0.00     0.078 A 
ATOM     19  C   UNL A   1      33.086  21.608  24.699  1.00  0.00     0.266 A 
ATOM     20  N   UNL A   1      35.720  22.392  25.359  1.00  0.00    -0.234 NA
ATOM     21  O   UNL A   1      31.963  21.241  24.356  1.00  0.00    -0.268 OA
ATOM     22  C   UNL A   1      34.752  23.251  25.343  1.00  0.00     0.113 A 
ATOM     23  C   UNL A   1      35.138  24.652  25.775  1.00  0.00     0.088 C 
BRANCH  13  24
ATOM     24  O   UNL A   1      34.792  17.055  24.118  1.00  0.00    -0.489 OA
BRANCH  24  25
ATOM     25  C   UNL A   1      34.572  16.193  25.251  1.00  0.00     0.260 C 
BRANCH  25  26
ATOM     26  C   UNL A   1      33.117  15.792  25.403  1.00  0.00    -0.043 C 
ATOM     27  C   UNL A   1      32.107  16.675  25.327  1.00  0.00     0.011 C 
ATOM     28  C   UNL A   1      32.869  14.320  25.585  1.00  0.00     0.042 C 
ENDBRANCH  25  26
ENDBRANCH  24  25
ENDBRANCH  13  24
ENDBRANCH   7  12
ENDBRANCH   4   6
ENDBRANCH   3   4
ENDBRANCH   2   3
ENDBRANCH   1   2
BRANCH   1  29
ATOM     29  O   UNL A   1      31.145  29.620  24.737  1.00  0.00    -0.374 OA
BRANCH  29  30
ATOM     30  C   UNL A   1      32.004  29.600  25.878  1.00  0.00     0.202 C 
BRANCH  30  31
ATOM     31  C   UNL A   1      32.353  30.941  26.536  1.00  0.00     0.261 C 
BRANCH  31  32
ATOM     32  O   UNL A   1      33.196  30.791  27.690  1.00  0.00    -0.460 OA
BRANCH  32  33
ATOM     33  C   UNL A   1      34.055  31.820  27.912  1.00  0.00     0.338 C 
ATOM     34  O   UNL A   1      33.779  33.009  27.949  1.00  0.00    -0.246 OA
BRANCH  33  35
ATOM     35  C   UNL A   1      35.365  31.275  28.319  1.00  0.00     0.060 A 
ATOM     36  C   UNL A   1      36.524  32.050  28.260  1.00  0.00     0.016 A 
ATOM     37  C   UNL A   1      35.418  29.955  28.785  1.00  0.00     0.016 A 
ATOM     38  C   UNL A   1      37.736  31.503  28.688  1.00  0.00     0.010 A 
ATOM     39  C   UNL A   1      36.629  29.411  29.215  1.00  0.00     0.010 A 
ATOM     40  C   UNL A   1      37.796  30.186  29.185  1.00  0.00    -0.014 A 
BRANCH  40  41
ATOM     41  C   UNL A   1      39.051  29.680  29.797  1.00  0.00     0.031 A 
ATOM     42  C   UNL A   1      39.570  30.217  31.098  1.00  0.00     0.074 A 
ATOM     43  C   UNL A   1      39.738  28.722  29.143  1.00  0.00     0.049 A 
ATOM     44  N   UNL A   1      40.595  29.808  31.800  1.00  0.00    -0.248 NA
ATOM     45  C   UNL A   1      38.858  31.362  31.683  1.00  0.00     0.031 C 
ATOM     46  C   UNL A   1      39.353  28.168  27.844  1.00  0.00     0.029 A 
ATOM     47  N   UNL A   1      40.882  28.041  29.472  1.00  0.00    -0.354 N 
ATOM     48  C   UNL A   1      40.644  30.628  32.920  1.00  0.00     0.074 A 
ATOM     49  C   UNL A   1      39.577  31.596  32.775  1.00  0.00     0.031 C 
ATOM     50  C   UNL A   1      40.223  27.207  27.504  1.00  0.00     0.029 A 
ATOM     51  C   UNL A   1      41.250  27.100  28.538  1.00  0.00     0.049 A 
ATOM     52  H   UNL A   1      41.392  28.209  30.297  1.00  0.00     0.167 HD
ATOM     53  C   UNL A   1      41.488  30.558  33.978  1.00  0.00     0.034 A 
ATOM     54  C   UNL A   1      42.291  26.242  28.513  1.00  0.00     0.034 A 
ATOM     55  C   UNL A   1      42.554  29.591  34.094  1.00  0.00     0.049 A 
ATOM     56  C   UNL A   1      43.228  26.197  29.692  1.00  0.00     0.074 A 
ATOM     57  C   UNL A   1      43.426  29.407  35.154  1.00  0.00     0.029 A 
ATOM     58  N   UNL A   1      42.906  28.660  33.127  1.00  0.00    -0.354 N 
ATOM     59  N   UNL A   1      43.186  26.893  30.804  1.00  0.00    -0.248 NA
ATOM     60  C   UNL A   1      44.342  25.241  29.631  1.00  0.00     0.031 C 
ATOM     61  C   UNL A   1      44.353  28.430  34.795  1.00  0.00     0.029 A 
ATOM     62  C   UNL A   1      44.006  27.928  33.552  1.00  0.00     0.049 A 
ATOM     63  H   UNL A   1      42.445  28.536  32.267  1.00  0.00     0.167 HD
ATOM     64  C   UNL A   1      44.248  26.442  31.583  1.00  0.00     0.074 A 
ATOM     65  C   UNL A   1      44.897  25.392  30.827  1.00  0.00     0.031 C 
ATOM     66  C   UNL A   1      44.647  26.867  32.809  1.00  0.00     0.034 A 
BRANCH  53  67
ATOM     67  C   UNL A   1      41.302  31.522  35.126  1.00  0.00     0.023 A 
ATOM     68  C   UNL A   1      40.143  31.459  35.924  1.00  0.00     0.031 A 
ATOM     69  C   UNL A   1      42.181  32.604  35.320  1.00  0.00     0.131 A 
ATOM     70  C   UNL A   1      39.870  32.482  36.840  1.00  0.00     0.055 A 
ATOM     71  C   UNL A   1      41.929  33.594  36.271  1.00  0.00     0.041 A 
ATOM     72  F   UNL A   1      43.295  32.718  34.578  1.00  0.00    -0.206 F 
ATOM     73  C   UNL A   1      40.760  33.544  37.025  1.00  0.00     0.022 A 
BRANCH  70  74
ATOM     74  S   UNL A   1      38.308  32.524  37.763  1.00  0.00     0.124 S 
ATOM     75  O   UNL A   1      37.930  33.931  37.650  1.00  0.00    -0.237 OA
ATOM     76  O   UNL A   1      37.480  31.593  37.001  1.00  0.00    -0.237 OA
ATOM     77  O   UNL A   1      38.681  32.087  39.104  1.00  0.00    -0.744 OA
ENDBRANCH  70  74
ENDBRANCH  53  67
BRANCH  54  78
ATOM     78  C   UNL A   1      42.435  25.313  27.353  1.00  0.00     0.023 A 
ATOM     79  C   UNL A   1      41.760  24.078  27.330  1.00  0.00     0.031 A 
ATOM     80  C   UNL A   1      43.337  25.590  26.311  1.00  0.00     0.131 A 
ATOM     81  C   UNL A   1      42.056  23.139  26.334  1.00  0.00     0.055 A 
ATOM     82  C   UNL A   1      43.567  24.684  25.275  1.00  0.00     0.041 A 
ATOM     83  F   UNL A   1      44.018  26.746  26.297  1.00  0.00    -0.206 F 
ATOM     84  C   UNL A   1      42.939  23.442  25.294  1.00  0.00     0.022 A 
BRANCH  81  85
ATOM     85  S   UNL A   1      41.417  21.444  26.439  1.00  0.00     0.124 S 
ATOM     86  O   UNL A   1      40.105  21.573  25.814  1.00  0.00    -0.237 OA
ATOM     87  O   UNL A   1      42.415  20.705  25.668  1.00  0.00    -0.237 OA
ATOM     88  O   UNL A   1      41.410  21.167  27.871  1.00  0.00    -0.744 OA
ENDBRANCH  81  85
ENDBRANCH  54  78
BRANCH  66  89
ATOM     89  C   UNL A   1      45.844  26.206  33.456  1.00  0.00     0.023 A 
ATOM     90  C   UNL A   1      45.658  25.110  34.323  1.00  0.00     0.031 A 
ATOM     91  C   UNL A   1      47.134  26.756  33.356  1.00  0.00     0.131 A 
ATOM     92  C   UNL A   1      46.727  24.636  35.094  1.00  0.00     0.055 A 
ATOM     93  C   UNL A   1      48.211  26.240  34.081  1.00  0.00     0.041 A 
ATOM     94  F   UNL A   1      47.366  27.808  32.556  1.00  0.00    -0.206 F 
ATOM     95  C   UNL A   1      48.006  25.187  34.967  1.00  0.00     0.022 A 
BRANCH  92  96
ATOM     96  S   UNL A   1      46.476  23.362  36.362  1.00  0.00     0.124 S 
ATOM     97  O   UNL A   1      45.496  23.999  37.239  1.00  0.00    -0.237 OA
ATOM     98  O   UNL A   1      45.971  22.242  35.573  1.00  0.00    -0.237 OA
ATOM     99  O   UNL A   1      47.801  23.176  36.943  1.00  0.00    -0.744 OA
ENDBRANCH  92  96
ENDBRANCH  66  89
ENDBRANCH  40  41
ENDBRANCH  33  35
ENDBRANCH  32  33
ENDBRANCH  31  32
ENDBRANCH  30  31
ENDBRANCH  29  30
ENDBRANCH   1  29
TORSDOF 21
ENDMDL
MODEL 2
REMARK VINA RESULT:     -11.3      1.265      2.019
REMARK SMILES C=C(C)COc1ccc2nc(C)n(-c3cccc(C(=O)OCCOCCOC(=O)c4ccc(-c5c6nc(c(-c7cc(S(=O)(=O)[O-])ccc7F)c7ccc([nH]7)c(-c7cc(S(=O)(=O)[O-])ccc7F)c7nc(c(-c8cc(S(=O)(=O)[O-])ccc8F)c8ccc5[nH]8)C=C7)C=C6)cc4)c3)c(=O)c2c1
REMARK SMILES IDX 23 1 22 2 21 3 19 4 20 5 18 6 14 7 15 8 93 9 16 10 17 11
REMARK SMILES IDX 13 12 6 13 7 14 97 15 8 16 96 17 9 18 94 19 10 20 95 21
REMARK SMILES IDX 11 22 12 23 5 24 4 25 2 26 1 27 3 28 24 29 25 30 26 31 27 32
REMARK SMILES IDX 28 33 29 34 30 35 31 36 92 37 32 38 91 39 33 40 34 41 35 42
REMARK SMILES IDX 85 43 36 44 90 45 84 46 86 47 37 48 89 49 83 50 82 51 38 53
REMARK SMILES IDX 70 54 50 55 69 56 51 57 54 58 68 59 87 60 52 61 53 62 67 64
REMARK SMILES IDX 88 65 55 66 39 67 40 68 48 69 41 70 47 71 49 72 46 73 42 74
REMARK SMILES IDX 43 75 44 76 45 77 71 78 72 79 80 80 73 81 79 82 81 83 78 84
REMARK SMILES IDX 74 85 75 86 76 87 77 88 56 89 57 90 65 91 58 92 64 93 66 94
REMARK SMILES IDX 63 95 59 96 60 97 61 98 62 99
REMARK H PARENT 86 52 54 63
REMARK Flexibility Score: inf
ROOT
ATOM      1  C   UNL A   1      30.099  31.619  24.715  1.00  0.00     0.202 C 
ENDROOT
BRANCH   1   2
ATOM      2  C   UNL A   1      29.096  30.995  23.737  1.00  0.00     0.261 C 
BRANCH   2   3
ATOM      3  O   UNL A   1      29.333  29.591  23.550  1.00  0.00    -0.460 OA
BRANCH   3   4
ATOM      4  C   UNL A   1      29.967  29.264  22.396  1.00  0.00     0.338 C 
ATOM      5  O   UNL A   1      29.692  29.655  21.273  1.00  0.00    -0.246 OA
BRANCH   4   6
ATOM      6  C   UNL A   1      31.213  28.516  22.697  1.00  0.00     0.062 A 
ATOM      7  C   UNL A   1      32.436  26.660  23.670  1.00  0.00     0.051 A 
ATOM      8  C   UNL A   1      33.640  27.295  23.322  1.00  0.00     0.027 A 
ATOM      9  C   UNL A   1      31.217  27.269  23.335  1.00  0.00     0.042 A 
ATOM     10  C   UNL A   1      33.635  28.537  22.687  1.00  0.00     0.003 A 
ATOM     11  C   UNL A   1      32.423  29.147  22.380  1.00  0.00     0.016 A 
BRANCH   7  12
ATOM     12  N   UNL A   1      32.457  25.404  24.355  1.00  0.00    -0.264 N 
ATOM     13  C   UNL A   1      32.745  20.552  24.364  1.00  0.00     0.120 A 
ATOM     14  C   UNL A   1      32.832  20.607  25.754  1.00  0.00     0.049 A 
ATOM     15  C   UNL A   1      32.643  21.728  23.624  1.00  0.00     0.062 A 
ATOM     16  C   UNL A   1      32.765  21.832  26.412  1.00  0.00     0.033 A 
ATOM     17  C   UNL A   1      32.585  22.957  24.297  1.00  0.00     0.070 A 
ATOM     18  C   UNL A   1      32.648  23.014  25.687  1.00  0.00     0.078 A 
ATOM     19  C   UNL A   1      32.490  24.238  23.570  1.00  0.00     0.266 A 
ATOM     20  N   UNL A   1      32.597  24.212  26.394  1.00  0.00    -0.234 NA
ATOM     21  O   UNL A   1      32.499  24.214  22.340  1.00  0.00    -0.268 OA
ATOM     22  C   UNL A   1      32.489  25.324  25.740  1.00  0.00     0.113 A 
ATOM     23  C   UNL A   1      32.351  26.561  26.607  1.00  0.00     0.088 C 
BRANCH  13  24
ATOM     24  O   UNL A   1      32.871  19.358  23.703  1.00  0.00    -0.489 OA
BRANCH  24  25
ATOM     25  C   UNL A   1      32.533  18.227  24.529  1.00  0.00     0.260 C 
BRANCH  25  26
ATOM     26  C   UNL A   1      33.424  17.028  24.266  1.00  0.00    -0.043 C 
ATOM     27  C   UNL A   1      33.633  16.063  25.179  1.00  0.00     0.011 C 
ATOM     28  C   UNL A   1      34.019  16.954  22.888  1.00  0.00     0.042 C 
ENDBRANCH  25  26
ENDBRANCH  24  25
ENDBRANCH  13  24
ENDBRANCH   7  12
ENDBRANCH   4   6
ENDBRANCH   3   4
ENDBRANCH   2   3
ENDBRANCH   1   2
BRANCH   1  29
ATOM     29  O   UNL A   1      31.023  30.741  25.355  1.00  0.00    -0.374 OA
BRANCH  29  30
ATOM     30  C   UNL A   1      31.689  31.219  26.524  1.00  0.00     0.202 C 
BRANCH  30  31
ATOM     31  C   UNL A   1      33.116  30.723  26.790  1.00  0.00     0.261 C 
BRANCH  31  32
ATOM     32  O   UNL A   1      33.654  31.216  28.028  1.00  0.00    -0.460 OA
BRANCH  32  33
ATOM     33  C   UNL A   1      34.667  32.112  27.898  1.00  0.00     0.338 C 
ATOM     34  O   UNL A   1      34.565  33.300  27.634  1.00  0.00    -0.246 OA
BRANCH  33  35
ATOM     35  C   UNL A   1      35.928  31.481  28.336  1.00  0.00     0.060 A 
ATOM     36  C   UNL A   1      37.122  32.201  28.386  1.00  0.00     0.016 A 
ATOM     37  C   UNL A   1      35.896  30.133  28.718  1.00  0.00     0.016 A 
ATOM     38  C   UNL A   1      38.283  31.571  28.840  1.00  0.00     0.010 A 
ATOM     39  C   UNL A   1      37.056  29.506  29.175  1.00  0.00     0.010 A 
ATOM     40  C   UNL A   1      38.257  30.225  29.255  1.00  0.00    -0.014 A 
BRANCH  40  41
ATOM     41  C   UNL A   1      39.453  29.623  29.896  1.00  0.00     0.031 A 
ATOM     42  C   UNL A   1      39.989  30.128  31.202  1.00  0.00     0.074 A 
ATOM     43  C   UNL A   1      40.069  28.603  29.265  1.00  0.00     0.049 A 
ATOM     44  N   UNL A   1      40.963  29.642  31.929  1.00  0.00    -0.248 NA
ATOM     45  C   UNL A   1      39.365  31.335  31.762  1.00  0.00     0.031 C 
ATOM     46  C   UNL A   1      39.665  28.070  27.964  1.00  0.00     0.029 A 
ATOM     47  N   UNL A   1      41.146  27.832  29.624  1.00  0.00    -0.354 N 
ATOM     48  C   UNL A   1      41.059  30.467  33.041  1.00  0.00     0.074 A 
ATOM     49  C   UNL A   1      40.079  31.520  32.866  1.00  0.00     0.031 C 
ATOM     50  C   UNL A   1      40.458  27.036  27.650  1.00  0.00     0.029 A 
ATOM     51  C   UNL A   1      41.452  26.854  28.705  1.00  0.00     0.049 A 
ATOM     52  H   UNL A   1      41.652  27.967  30.457  1.00  0.00     0.167 HD
ATOM     53  C   UNL A   1      41.873  30.339  34.117  1.00  0.00     0.034 A 
ATOM     54  C   UNL A   1      42.418  25.911  28.709  1.00  0.00     0.034 A 
ATOM     55  C   UNL A   1      42.852  29.287  34.264  1.00  0.00     0.049 A 
ATOM     56  C   UNL A   1      43.324  25.802  29.908  1.00  0.00     0.074 A 
ATOM     57  C   UNL A   1      43.684  29.043  35.343  1.00  0.00     0.029 A 
ATOM     58  N   UNL A   1      43.144  28.319  33.312  1.00  0.00    -0.354 N 
ATOM     59  N   UNL A   1      43.319  26.511  31.012  1.00  0.00    -0.248 NA
ATOM     60  C   UNL A   1      44.355  24.755  29.878  1.00  0.00     0.031 C 
ATOM     61  C   UNL A   1      44.534  27.988  35.012  1.00  0.00     0.029 A 
ATOM     62  C   UNL A   1      44.169  27.503  33.767  1.00  0.00     0.049 A 
ATOM     63  H   UNL A   1      42.690  28.225  32.445  1.00  0.00     0.167 HD
ATOM     64  C   UNL A   1      44.324  25.981  31.817  1.00  0.00     0.074 A 
ATOM     65  C   UNL A   1      44.898  24.872  31.083  1.00  0.00     0.031 C 
ATOM     66  C   UNL A   1      44.733  26.384  33.046  1.00  0.00     0.034 A 
BRANCH  53  67
ATOM     67  C   UNL A   1      41.747  31.328  35.253  1.00  0.00     0.023 A 
ATOM     68  C   UNL A   1      40.593  31.334  36.061  1.00  0.00     0.031 A 
ATOM     69  C   UNL A   1      42.680  32.367  35.422  1.00  0.00     0.131 A 
ATOM     70  C   UNL A   1      40.381  32.383  36.965  1.00  0.00     0.055 A 
ATOM     71  C   UNL A   1      42.487  33.382  36.361  1.00  0.00     0.041 A 
ATOM     72  F   UNL A   1      43.791  32.415  34.669  1.00  0.00    -0.206 F 
ATOM     73  C   UNL A   1      41.324  33.401  37.126  1.00  0.00     0.022 A 
BRANCH  70  74
ATOM     74  S   UNL A   1      38.831  32.515  37.900  1.00  0.00     0.124 S 
ATOM     75  O   UNL A   1      39.292  32.317  39.273  1.00  0.00    -0.237 OA
ATOM     76  O   UNL A   1      38.397  33.872  37.579  1.00  0.00    -0.237 OA
ATOM     77  O   UNL A   1      38.003  31.442  37.362  1.00  0.00    -0.744 OA
ENDBRANCH  70  74
ENDBRANCH  53  67
BRANCH  54  78
ATOM     78  C   UNL A   1      42.506  24.961  27.561  1.00  0.00     0.023 A 
ATOM     79  C   UNL A   1      41.824  23.731  27.590  1.00  0.00     0.031 A 
ATOM     80  C   UNL A   1      43.363  25.214  26.477  1.00  0.00     0.131 A 
ATOM     81  C   UNL A   1      42.070  22.772  26.599  1.00  0.00     0.055 A 
ATOM     82  C   UNL A   1      43.543  24.288  25.448  1.00  0.00     0.041 A 
ATOM     83  F   UNL A   1      44.049  26.365  26.412  1.00  0.00    -0.206 F 
ATOM     84  C   UNL A   1      42.909  23.051  25.517  1.00  0.00     0.022 A 
BRANCH  81  85
ATOM     85  S   UNL A   1      41.426  21.084  26.762  1.00  0.00     0.124 S 
ATOM     86  O   UNL A   1      40.658  21.167  27.999  1.00  0.00    -0.237 OA
ATOM     87  O   UNL A   1      40.640  20.948  25.538  1.00  0.00    -0.237 OA
ATOM     88  O   UNL A   1      42.629  20.261  26.820  1.00  0.00    -0.744 OA
ENDBRANCH  81  85
ENDBRANCH  54  78
BRANCH  66  89
ATOM     89  C   UNL A   1      45.859  25.633  33.724  1.00  0.00     0.023 A 
ATOM     90  C   UNL A   1      45.567  24.533  34.557  1.00  0.00     0.031 A 
ATOM     91  C   UNL A   1      47.184  26.098  33.686  1.00  0.00     0.131 A 
ATOM     92  C   UNL A   1      46.572  23.974  35.358  1.00  0.00     0.055 A 
ATOM     93  C   UNL A   1      48.196  25.498  34.440  1.00  0.00     0.041 A 
ATOM     94  F   UNL A   1      47.516  27.150  32.920  1.00  0.00    -0.206 F 
ATOM     95  C   UNL A   1      47.887  24.443  35.293  1.00  0.00     0.022 A 
BRANCH  92  96
ATOM     96  S   UNL A   1      46.188  22.694  36.585  1.00  0.00     0.124 S 
ATOM     97  O   UNL A   1      45.253  21.843  35.851  1.00  0.00    -0.237 OA
ATOM     98  O   UNL A   1      47.501  22.106  36.834  1.00  0.00    -0.237 OA
ATOM     99  O   UNL A   1      45.609  23.435  37.699  1.00  0.00    -0.744 OA
ENDBRANCH  92  96
ENDBRANCH  66  89
ENDBRANCH  40  41
ENDBRANCH  33  35
ENDBRANCH  32  33
ENDBRANCH  31  32
ENDBRANCH  30  31
ENDBRANCH  29  30
ENDBRANCH   1  29
TORSDOF 21
ENDMDL
MODEL 3
REMARK VINA RESULT:     -11.1      2.903      4.191
REMARK SMILES C=C(C)COc1ccc2nc(C)n(-c3cccc(C(=O)OCCOCCOC(=O)c4ccc(-c5c6nc(c(-c7cc(S(=O)(=O)[O-])ccc7F)c7ccc([nH]7)c(-c7cc(S(=O)(=O)[O-])ccc7F)c7nc(c(-c8cc(S(=O)(=O)[O-])ccc8F)c8ccc5[nH]8)C=C7)C=C6)cc4)c3)c(=O)c2c1
REMARK SMILES IDX 23 1 22 2 21 3 19 4 20 5 18 6 14 7 15 8 93 9 16 10 17 11
REMARK SMILES IDX 13 12 6 13 7 14 97 15 8 16 96 17 9 18 94 19 10 20 95 21
REMARK SMILES IDX 11 22 12 23 5 24 4 25 2 26 1 27 3 28 24 29 25 30 26 31 27 32
REMARK SMILES IDX 28 33 29 34 30 35 31 36 92 37 32 38 91 39 33 40 34 41 35 42
REMARK SMILES IDX 85 43 36 44 90 45 84 46 86 47 37 48 89 49 83 50 82 51 38 53
REMARK SMILES IDX 70 54 50 55 69 56 51 57 54 58 68 59 87 60 52 61 53 62 67 64
REMARK SMILES IDX 88 65 55 66 39 67 40 68 48 69 41 70 47 71 49 72 46 73 42 74
REMARK SMILES IDX 43 75 44 76 45 77 71 78 72 79 80 80 73 81 79 82 81 83 78 84
REMARK SMILES IDX 74 85 75 86 76 87 77 88 56 89 57 90 65 91 58 92 64 93 66 94
REMARK SMILES IDX 63 95 59 96 60 97 61 98 62 99
REMARK H PARENT 86 52 54 63
REMARK Flexibility Score: inf
ROOT
ATOM      1  C   UNL A   1      32.507  29.575  26.329  1.00  0.00     0.202 C 
ENDROOT
BRANCH   1   2
ATOM      2  C   UNL A   1      32.455  29.002  24.908  1.00  0.00     0.261 C 
BRANCH   2   3
ATOM      3  O   UNL A   1      31.124  28.605  24.539  1.00  0.00    -0.460 OA
BRANCH   3   4
ATOM      4  C   UNL A   1      31.049  27.485  23.778  1.00  0.00     0.338 C 
ATOM      5  O   UNL A   1      30.990  27.428  22.560  1.00  0.00    -0.246 OA
BRANCH   4   6
ATOM      6  C   UNL A   1      31.268  26.284  24.622  1.00  0.00     0.062 A 
ATOM      7  C   UNL A   1      32.480  24.277  25.249  1.00  0.00     0.051 A 
ATOM      8  C   UNL A   1      31.474  23.985  26.186  1.00  0.00     0.027 A 
ATOM      9  C   UNL A   1      32.382  25.447  24.479  1.00  0.00     0.042 A 
ATOM     10  C   UNL A   1      30.365  24.819  26.326  1.00  0.00     0.003 A 
ATOM     11  C   UNL A   1      30.261  25.964  25.542  1.00  0.00     0.016 A 
BRANCH   7  12
ATOM     12  N   UNL A   1      33.592  23.392  25.089  1.00  0.00    -0.264 N 
ATOM     13  C   UNL A   1      38.303  22.318  25.622  1.00  0.00     0.120 A 
ATOM     14  C   UNL A   1      38.008  21.025  25.193  1.00  0.00     0.049 A 
ATOM     15  C   UNL A   1      37.288  23.266  25.732  1.00  0.00     0.062 A 
ATOM     16  C   UNL A   1      36.708  20.689  24.824  1.00  0.00     0.033 A 
ATOM     17  C   UNL A   1      35.981  22.914  25.364  1.00  0.00     0.070 A 
ATOM     18  C   UNL A   1      35.687  21.630  24.914  1.00  0.00     0.078 A 
ATOM     19  C   UNL A   1      34.860  23.869  25.470  1.00  0.00     0.266 A 
ATOM     20  N   UNL A   1      34.403  21.238  24.543  1.00  0.00    -0.234 NA
ATOM     21  O   UNL A   1      35.086  24.988  25.928  1.00  0.00    -0.268 OA
ATOM     22  C   UNL A   1      33.437  22.096  24.619  1.00  0.00     0.113 A 
ATOM     23  C   UNL A   1      32.101  21.596  24.106  1.00  0.00     0.088 C 
BRANCH  13  24
ATOM     24  O   UNL A   1      39.565  22.643  26.047  1.00  0.00    -0.489 OA
BRANCH  24  25
ATOM     25  C   UNL A   1      40.033  21.785  27.105  1.00  0.00     0.260 C 
BRANCH  25  26
ATOM     26  C   UNL A   1      41.400  21.196  26.815  1.00  0.00    -0.043 C 
ATOM     27  C   UNL A   1      41.766  19.969  27.225  1.00  0.00     0.011 C 
ATOM     28  C   UNL A   1      42.310  22.054  25.981  1.00  0.00     0.042 C 
ENDBRANCH  25  26
ENDBRANCH  24  25
ENDBRANCH  13  24
ENDBRANCH   7  12
ENDBRANCH   4   6
ENDBRANCH   3   4
ENDBRANCH   2   3
ENDBRANCH   1   2
BRANCH   1  29
ATOM     29  O   UNL A   1      31.431  30.421  26.734  1.00  0.00    -0.374 OA
BRANCH  29  30
ATOM     30  C   UNL A   1      31.421  31.760  26.241  1.00  0.00     0.202 C 
BRANCH  30  31
ATOM     31  C   UNL A   1      31.695  32.894  27.238  1.00  0.00     0.261 C 
BRANCH  31  32
ATOM     32  O   UNL A   1      33.097  33.157  27.408  1.00  0.00    -0.460 OA
BRANCH  32  33
ATOM     33  C   UNL A   1      33.395  34.124  28.313  1.00  0.00     0.338 C 
ATOM     34  O   UNL A   1      32.735  35.121  28.565  1.00  0.00    -0.246 OA
BRANCH  33  35
ATOM     35  C   UNL A   1      34.551  33.690  29.121  1.00  0.00     0.060 A 
ATOM     36  C   UNL A   1      34.398  32.817  30.199  1.00  0.00     0.016 A 
ATOM     37  C   UNL A   1      35.821  34.167  28.769  1.00  0.00     0.016 A 
ATOM     38  C   UNL A   1      35.527  32.407  30.912  1.00  0.00     0.010 A 
ATOM     39  C   UNL A   1      36.948  33.754  29.481  1.00  0.00     0.010 A 
ATOM     40  C   UNL A   1      36.812  32.857  30.550  1.00  0.00    -0.014 A 
BRANCH  40  41
ATOM     41  C   UNL A   1      38.013  32.278  31.204  1.00  0.00     0.031 A 
ATOM     42  C   UNL A   1      38.551  32.821  32.494  1.00  0.00     0.074 A 
ATOM     43  C   UNL A   1      38.632  31.244  30.598  1.00  0.00     0.049 A 
ATOM     44  N   UNL A   1      39.529  32.359  33.230  1.00  0.00    -0.248 NA
ATOM     45  C   UNL A   1      37.922  34.039  33.023  1.00  0.00     0.031 C 
ATOM     46  C   UNL A   1      38.226  30.674  29.313  1.00  0.00     0.029 A 
ATOM     47  N   UNL A   1      39.714  30.488  30.974  1.00  0.00    -0.354 N 
ATOM     48  C   UNL A   1      39.624  33.215  34.320  1.00  0.00     0.074 A 
ATOM     49  C   UNL A   1      38.639  34.258  34.119  1.00  0.00     0.031 C 
ATOM     50  C   UNL A   1      39.023  29.635  29.025  1.00  0.00     0.029 A 
ATOM     51  C   UNL A   1      40.022  29.487  30.082  1.00  0.00     0.049 A 
ATOM     52  H   UNL A   1      40.221  30.648  31.802  1.00  0.00     0.167 HD
ATOM     53  C   UNL A   1      40.443  33.120  35.396  1.00  0.00     0.034 A 
ATOM     54  C   UNL A   1      40.992  28.549  30.109  1.00  0.00     0.034 A 
ATOM     55  C   UNL A   1      41.427  32.077  35.568  1.00  0.00     0.049 A 
ATOM     56  C   UNL A   1      41.903  28.476  31.307  1.00  0.00     0.074 A 
ATOM     57  C   UNL A   1      42.264  31.866  36.651  1.00  0.00     0.029 A 
ATOM     58  N   UNL A   1      41.720  31.085  34.642  1.00  0.00    -0.354 N 
ATOM     59  N   UNL A   1      41.897  29.215  32.392  1.00  0.00    -0.248 NA
ATOM     60  C   UNL A   1      42.938  27.434  31.302  1.00  0.00     0.031 C 
ATOM     61  C   UNL A   1      43.117  30.806  36.346  1.00  0.00     0.029 A 
ATOM     62  C   UNL A   1      42.751  30.286  35.115  1.00  0.00     0.049 A 
ATOM     63  H   UNL A   1      41.264  30.965  33.779  1.00  0.00     0.167 HD
ATOM     64  C   UNL A   1      42.907  28.712  33.207  1.00  0.00     0.074 A 
ATOM     65  C   UNL A   1      43.484  27.586  32.502  1.00  0.00     0.031 C 
ATOM     66  C   UNL A   1      43.318  29.150  34.424  1.00  0.00     0.034 A 
BRANCH  53  67
ATOM     67  C   UNL A   1      40.315  34.138  36.505  1.00  0.00     0.023 A 
ATOM     68  C   UNL A   1      41.342  35.076  36.726  1.00  0.00     0.031 A 
ATOM     69  C   UNL A   1      39.268  34.069  37.442  1.00  0.00     0.131 A 
ATOM     70  C   UNL A   1      41.324  35.870  37.880  1.00  0.00     0.055 A 
ATOM     71  C   UNL A   1      39.229  34.899  38.563  1.00  0.00     0.041 A 
ATOM     72  F   UNL A   1      38.270  33.184  37.284  1.00  0.00    -0.206 F 
ATOM     73  C   UNL A   1      40.270  35.793  38.794  1.00  0.00     0.022 A 
BRANCH  70  74
ATOM     74  S   UNL A   1      42.712  36.968  38.285  1.00  0.00     0.124 S 
ATOM     75  O   UNL A   1      43.005  37.572  36.988  1.00  0.00    -0.237 OA
ATOM     76  O   UNL A   1      42.112  37.865  39.270  1.00  0.00    -0.237 OA
ATOM     77  O   UNL A   1      43.736  36.064  38.796  1.00  0.00    -0.744 OA
ENDBRANCH  70  74
ENDBRANCH  53  67
BRANCH  54  78
ATOM     78  C   UNL A   1      41.081  27.569  28.986  1.00  0.00     0.023 A 
ATOM     79  C   UNL A   1      42.077  27.690  28.001  1.00  0.00     0.031 A 
ATOM     80  C   UNL A   1      40.104  26.573  28.817  1.00  0.00     0.131 A 
ATOM     81  C   UNL A   1      42.029  26.884  26.856  1.00  0.00     0.055 A 
ATOM     82  C   UNL A   1      40.107  25.717  27.714  1.00  0.00     0.041 A 
ATOM     83  F   UNL A   1      39.122  26.428  29.721  1.00  0.00    -0.206 F 
ATOM     84  C   UNL A   1      41.063  25.885  26.716  1.00  0.00     0.022 A 
BRANCH  81  85
ATOM     85  S   UNL A   1      43.126  27.207  25.448  1.00  0.00     0.124 S 
ATOM     86  O   UNL A   1      43.396  25.861  24.955  1.00  0.00    -0.237 OA
ATOM     87  O   UNL A   1      42.275  28.033  24.593  1.00  0.00    -0.237 OA
ATOM     88  O   UNL A   1      44.261  27.900  26.047  1.00  0.00    -0.744 OA
ENDBRANCH  81  85
ENDBRANCH  54  78
BRANCH  66  89
ATOM     89  C   UNL A   1      44.449  28.423  35.118  1.00  0.00     0.023 A 
ATOM     90  C   UNL A   1      44.161  27.446  36.094  1.00  0.00     0.031 A 
ATOM     91  C   UNL A   1      45.790  28.807  34.945  1.00  0.00     0.131 A 
ATOM     92  C   UNL A   1      45.189  26.931  36.894  1.00  0.00     0.055 A 
ATOM     93  C   UNL A   1      46.819  28.245  35.703  1.00  0.00     0.041 A 
ATOM     94  F   UNL A   1      46.120  29.742  34.039  1.00  0.00    -0.206 F 
ATOM     95  C   UNL A   1      46.518  27.315  36.694  1.00  0.00     0.022 A 
BRANCH  92  96
ATOM     96  S   UNL A   1      44.827  25.826  38.287  1.00  0.00     0.124 S 
ATOM     97  O   UNL A   1      43.598  26.408  38.822  1.00  0.00    -0.237 OA
ATOM     98  O   UNL A   1      44.668  24.536  37.621  1.00  0.00    -0.237 OA
ATOM     99  O   UNL A   1      45.998  25.948  39.148  1.00  0.00    -0.744 OA
ENDBRANCH  92  96
ENDBRANCH  66  89
ENDBRANCH  40  41
ENDBRANCH  33  35
ENDBRANCH  32  33
ENDBRANCH  31  32
ENDBRANCH  30  31
ENDBRANCH  29  30
ENDBRANCH   1  29
TORSDOF 21
ENDMDL
