MODEL 1
REMARK VINA RESULT:     -11.3      0.000      0.000
REMARK SMILES COc1ccc(Nc2c(C(=O)OCCOCCOC(=O)c3ccc(-c4c5nc(c(-c6cc(S(=O)(=O)[O-])ccc6F)c6ccc([nH]6)c(-c6cc(S(=O)(=O)[O-])ccc6F)c6nc(c(-c7cc(S(=O)(=O)[O-])ccc7F)c7ccc4[nH]7)C=C6)C=C5)cc3)[nH]c(=O)[nH]c2=O)cc1
REMARK SMILES IDX 15 1 14 2 13 3 12 4 10 5 11 6 9 7 8 8 88 9 84 10 87 11 89 12
REMARK SMILES IDX 85 13 86 16 7 17 6 19 3 20 4 21 91 22 5 23 90 24 2 25 1 26
REMARK SMILES IDX 16 27 17 28 18 29 19 30 20 31 21 32 22 33 83 34 23 35 82 36
REMARK SMILES IDX 24 37 25 38 26 39 76 40 27 41 81 42 75 43 77 44 28 45 80 46
REMARK SMILES IDX 74 47 73 48 29 50 61 51 41 52 60 53 42 54 45 55 59 56 78 57
REMARK SMILES IDX 43 58 44 59 58 61 79 62 46 63 30 64 31 65 39 66 32 67 38 68
REMARK SMILES IDX 40 69 37 70 33 71 34 72 35 73 36 74 62 75 63 76 71 77 64 78
REMARK SMILES IDX 70 79 72 80 69 81 65 82 66 83 67 84 68 85 47 86 48 87 56 88
REMARK SMILES IDX 49 89 55 90 57 91 54 92 50 93 51 94 52 95 53 96
REMARK H PARENT 84 14 87 15 7 18 77 49 45 60
REMARK Flexibility Score: inf
ROOT
ATOM      1  O   UNL A   1      36.094  21.503  26.148  1.00  0.00    -0.374 OA
ENDROOT
BRANCH   1   2
ATOM      2  C   UNL A   1      35.914  22.916  26.025  1.00  0.00     0.202 C 
BRANCH   2   3
ATOM      3  C   UNL A   1      35.669  23.407  24.595  1.00  0.00     0.261 C 
BRANCH   3   4
ATOM      4  O   UNL A   1      34.722  24.493  24.594  1.00  0.00    -0.459 OA
BRANCH   4   5
ATOM      5  C   UNL A   1      33.620  24.301  23.833  1.00  0.00     0.357 C 
ATOM      6  O   UNL A   1      33.606  23.949  22.659  1.00  0.00    -0.244 OA
BRANCH   5   7
ATOM      7  C   UNL A   1      32.343  24.408  24.610  1.00  0.00     0.158 A 
ATOM      8  C   UNL A   1      31.865  23.484  25.474  1.00  0.00     0.136 A 
ATOM      9  C   UNL A   1      30.604  23.922  26.204  1.00  0.00     0.278 A 
ATOM     10  N   UNL A   1      31.617  25.532  24.273  1.00  0.00    -0.299 N 
ATOM     11  N   UNL A   1      29.891  24.951  25.658  1.00  0.00    -0.272 N 
ATOM     12  O   UNL A   1      30.230  23.426  27.263  1.00  0.00    -0.267 OA
ATOM     13  C   UNL A   1      30.369  25.809  24.724  1.00  0.00     0.326 A 
ATOM     14  H   UNL A   1      32.035  26.181  23.663  1.00  0.00     0.172 HD
ATOM     15  H   UNL A   1      28.964  25.077  25.964  1.00  0.00     0.175 HD
ATOM     16  O   UNL A   1      29.728  26.776  24.329  1.00  0.00    -0.248 OA
BRANCH   8  17
ATOM     17  N   UNL A   1      32.450  22.266  25.801  1.00  0.00    -0.349 N 
ATOM     18  H   UNL A   1      32.842  22.219  26.703  1.00  0.00     0.167 HD
BRANCH  17  19
ATOM     19  C   UNL A   1      32.568  21.086  25.034  1.00  0.00     0.039 A 
ATOM     20  C   UNL A   1      32.780  18.631  23.630  1.00  0.00     0.119 A 
ATOM     21  C   UNL A   1      32.262  19.763  23.009  1.00  0.00     0.048 A 
ATOM     22  C   UNL A   1      33.210  18.722  24.951  1.00  0.00     0.048 A 
ATOM     23  C   UNL A   1      32.149  20.974  23.705  1.00  0.00     0.030 A 
ATOM     24  C   UNL A   1      33.099  19.937  25.643  1.00  0.00     0.030 A 
BRANCH  20  25
ATOM     25  O   UNL A   1      32.848  17.516  22.843  1.00  0.00    -0.497 OA
ATOM     26  C   UNL A   1      34.019  16.719  22.998  1.00  0.00     0.278 C 
ENDBRANCH  20  25
ENDBRANCH  17  19
ENDBRANCH   8  17
ENDBRANCH   5   7
ENDBRANCH   4   5
ENDBRANCH   3   4
ENDBRANCH   2   3
ENDBRANCH   1   2
BRANCH   1  27
ATOM     27  C   UNL A   1      36.613  20.820  25.005  1.00  0.00     0.202 C 
BRANCH  27  28
ATOM     28  C   UNL A   1      37.975  20.141  25.183  1.00  0.00     0.261 C 
BRANCH  28  29
ATOM     29  O   UNL A   1      39.033  21.109  25.287  1.00  0.00    -0.460 OA
BRANCH  29  30
ATOM     30  C   UNL A   1      39.824  20.971  26.378  1.00  0.00     0.338 C 
ATOM     31  O   UNL A   1      40.333  19.933  26.783  1.00  0.00    -0.246 OA
BRANCH  30  32
ATOM     32  C   UNL A   1      40.172  22.295  26.927  1.00  0.00     0.060 A 
ATOM     33  C   UNL A   1      39.558  23.411  26.343  1.00  0.00     0.016 A 
ATOM     34  C   UNL A   1      41.111  22.459  27.948  1.00  0.00     0.016 A 
ATOM     35  C   UNL A   1      39.914  24.696  26.746  1.00  0.00     0.010 A 
ATOM     36  C   UNL A   1      41.474  23.753  28.344  1.00  0.00     0.010 A 
ATOM     37  C   UNL A   1      40.899  24.878  27.724  1.00  0.00    -0.014 A 
BRANCH  37  38
ATOM     38  C   UNL A   1      41.405  26.246  28.003  1.00  0.00     0.031 A 
ATOM     39  C   UNL A   1      42.785  26.627  27.536  1.00  0.00     0.074 A 
ATOM     40  C   UNL A   1      40.626  27.150  28.626  1.00  0.00     0.049 A 
ATOM     41  N   UNL A   1      43.425  27.758  27.681  1.00  0.00    -0.248 NA
ATOM     42  C   UNL A   1      43.543  25.594  26.812  1.00  0.00     0.031 C 
ATOM     43  C   UNL A   1      39.257  26.908  29.085  1.00  0.00     0.029 A 
ATOM     44  N   UNL A   1      40.873  28.452  28.983  1.00  0.00    -0.354 N 
ATOM     45  C   UNL A   1      44.663  27.575  27.073  1.00  0.00     0.074 A 
ATOM     46  C   UNL A   1      44.692  26.213  26.581  1.00  0.00     0.031 C 
ATOM     47  C   UNL A   1      38.792  28.025  29.675  1.00  0.00     0.029 A 
ATOM     48  C   UNL A   1      39.837  29.046  29.667  1.00  0.00     0.049 A 
ATOM     49  H   UNL A   1      41.714  28.917  28.770  1.00  0.00     0.167 HD
ATOM     50  C   UNL A   1      45.679  28.462  26.936  1.00  0.00     0.034 A 
ATOM     51  C   UNL A   1      39.753  30.263  30.242  1.00  0.00     0.034 A 
ATOM     52  C   UNL A   1      45.637  29.817  27.428  1.00  0.00     0.049 A 
ATOM     53  C   UNL A   1      40.928  31.209  30.131  1.00  0.00     0.074 A 
ATOM     54  C   UNL A   1      46.598  30.806  27.304  1.00  0.00     0.029 A 
ATOM     55  N   UNL A   1      44.588  30.372  28.147  1.00  0.00    -0.354 N 
ATOM     56  N   UNL A   1      42.078  31.030  29.522  1.00  0.00    -0.248 NA
ATOM     57  C   UNL A   1      40.788  32.522  30.774  1.00  0.00     0.031 C 
ATOM     58  C   UNL A   1      46.163  31.931  28.012  1.00  0.00     0.029 A 
ATOM     59  C   UNL A   1      44.895  31.675  28.509  1.00  0.00     0.049 A 
ATOM     60  H   UNL A   1      43.747  29.908  28.368  1.00  0.00     0.167 HD
ATOM     61  C   UNL A   1      42.782  32.222  29.683  1.00  0.00     0.074 A 
ATOM     62  C   UNL A   1      41.919  33.116  30.427  1.00  0.00     0.031 C 
ATOM     63  C   UNL A   1      44.027  32.552  29.256  1.00  0.00     0.034 A 
BRANCH  50  64
ATOM     64  C   UNL A   1      46.945  27.982  26.273  1.00  0.00     0.023 A 
ATOM     65  C   UNL A   1      47.151  28.094  24.888  1.00  0.00     0.031 A 
ATOM     66  C   UNL A   1      47.975  27.422  27.052  1.00  0.00     0.131 A 
ATOM     67  C   UNL A   1      48.341  27.615  24.318  1.00  0.00     0.055 A 
ATOM     68  C   UNL A   1      49.181  27.007  26.487  1.00  0.00     0.041 A 
ATOM     69  F   UNL A   1      47.823  27.272  28.377  1.00  0.00    -0.206 F 
ATOM     70  C   UNL A   1      49.367  27.094  25.112  1.00  0.00     0.022 A 
BRANCH  67  71
ATOM     71  S   UNL A   1      48.498  27.597  22.511  1.00  0.00     0.124 S 
ATOM     72  O   UNL A   1      49.766  28.297  22.318  1.00  0.00    -0.237 OA
ATOM     73  O   UNL A   1      48.503  26.171  22.208  1.00  0.00    -0.237 OA
ATOM     74  O   UNL A   1      47.315  28.327  22.057  1.00  0.00    -0.744 OA
ENDBRANCH  67  71
ENDBRANCH  50  64
BRANCH  51  75
ATOM     75  C   UNL A   1      38.544  30.657  31.026  1.00  0.00     0.023 A 
ATOM     76  C   UNL A   1      37.438  31.258  30.406  1.00  0.00     0.031 A 
ATOM     77  C   UNL A   1      38.521  30.522  32.425  1.00  0.00     0.131 A 
ATOM     78  C   UNL A   1      36.387  31.765  31.188  1.00  0.00     0.055 A 
ATOM     79  C   UNL A   1      37.445  30.971  33.194  1.00  0.00     0.041 A 
ATOM     80  F   UNL A   1      39.552  29.955  33.072  1.00  0.00    -0.206 F 
ATOM     81  C   UNL A   1      36.377  31.614  32.576  1.00  0.00     0.022 A 
BRANCH  78  82
ATOM     82  S   UNL A   1      35.090  32.739  30.373  1.00  0.00     0.124 S 
ATOM     83  O   UNL A   1      34.171  32.992  31.478  1.00  0.00    -0.237 OA
ATOM     84  O   UNL A   1      35.843  33.891  29.887  1.00  0.00    -0.237 OA
ATOM     85  O   UNL A   1      34.591  31.838  29.337  1.00  0.00    -0.744 OA
ENDBRANCH  78  82
ENDBRANCH  51  75
BRANCH  63  86
ATOM     86  C   UNL A   1      44.505  33.955  29.544  1.00  0.00     0.023 A 
ATOM     87  C   UNL A   1      44.322  35.003  28.625  1.00  0.00     0.031 A 
ATOM     88  C   UNL A   1      45.167  34.244  30.751  1.00  0.00     0.131 A 
ATOM     89  C   UNL A   1      44.850  36.274  28.898  1.00  0.00     0.055 A 
ATOM     90  C   UNL A   1      45.635  35.525  31.045  1.00  0.00     0.041 A 
ATOM     91  F   UNL A   1      45.370  33.281  31.666  1.00  0.00    -0.206 F 
ATOM     92  C   UNL A   1      45.491  36.545  30.111  1.00  0.00     0.022 A 
BRANCH  89  93
ATOM     93  S   UNL A   1      44.775  37.545  27.607  1.00  0.00     0.124 S 
ATOM     94  O   UNL A   1      45.771  37.067  26.653  1.00  0.00    -0.237 OA
ATOM     95  O   UNL A   1      43.385  37.464  27.170  1.00  0.00    -0.237 OA
ATOM     96  O   UNL A   1      45.131  38.774  28.312  1.00  0.00    -0.744 OA
ENDBRANCH  89  93
ENDBRANCH  63  86
ENDBRANCH  37  38
ENDBRANCH  30  32
ENDBRANCH  29  30
ENDBRANCH  28  29
ENDBRANCH  27  28
ENDBRANCH   1  27
TORSDOF 20
ENDMDL
MODEL 2
REMARK VINA RESULT:     -11.1      4.855     10.255
REMARK SMILES COc1ccc(Nc2c(C(=O)OCCOCCOC(=O)c3ccc(-c4c5nc(c(-c6cc(S(=O)(=O)[O-])ccc6F)c6ccc([nH]6)c(-c6cc(S(=O)(=O)[O-])ccc6F)c6nc(c(-c7cc(S(=O)(=O)[O-])ccc7F)c7ccc4[nH]7)C=C6)C=C5)cc3)[nH]c(=O)[nH]c2=O)cc1
REMARK SMILES IDX 15 1 14 2 13 3 12 4 10 5 11 6 9 7 8 8 88 9 84 10 87 11 89 12
REMARK SMILES IDX 85 13 86 16 7 17 6 19 3 20 4 21 91 22 5 23 90 24 2 25 1 26
REMARK SMILES IDX 16 27 17 28 18 29 19 30 20 31 21 32 22 33 83 34 23 35 82 36
REMARK SMILES IDX 24 37 25 38 26 39 76 40 27 41 81 42 75 43 77 44 28 45 80 46
REMARK SMILES IDX 74 47 73 48 29 50 61 51 41 52 60 53 42 54 45 55 59 56 78 57
REMARK SMILES IDX 43 58 44 59 58 61 79 62 46 63 30 64 31 65 39 66 32 67 38 68
REMARK SMILES IDX 40 69 37 70 33 71 34 72 35 73 36 74 62 75 63 76 71 77 64 78
REMARK SMILES IDX 70 79 72 80 69 81 65 82 66 83 67 84 68 85 47 86 48 87 56 88
REMARK SMILES IDX 49 89 55 90 57 91 54 92 50 93 51 94 52 95 53 96
REMARK H PARENT 84 14 87 15 7 18 77 49 45 60
REMARK Flexibility Score: inf
ROOT
ATOM      1  O   UNL A   1      32.014  30.298  27.405  1.00  0.00    -0.374 OA
ENDROOT
BRANCH   1   2
ATOM      2  C   UNL A   1      32.411  28.995  26.969  1.00  0.00     0.202 C 
BRANCH   2   3
ATOM      3  C   UNL A   1      31.483  27.861  27.414  1.00  0.00     0.261 C 
BRANCH   3   4
ATOM      4  O   UNL A   1      31.882  26.619  26.800  1.00  0.00    -0.459 OA
BRANCH   4   5
ATOM      5  C   UNL A   1      31.038  26.142  25.857  1.00  0.00     0.357 C 
ATOM      6  O   UNL A   1      29.956  25.603  26.063  1.00  0.00    -0.244 OA
BRANCH   5   7
ATOM      7  C   UNL A   1      31.469  26.470  24.461  1.00  0.00     0.158 A 
ATOM      8  C   UNL A   1      32.672  26.174  23.916  1.00  0.00     0.136 A 
ATOM      9  C   UNL A   1      32.778  26.528  22.440  1.00  0.00     0.278 A 
ATOM     10  N   UNL A   1      30.531  27.224  23.785  1.00  0.00    -0.299 N 
ATOM     11  N   UNL A   1      31.874  27.423  21.943  1.00  0.00    -0.272 N 
ATOM     12  O   UNL A   1      33.603  26.023  21.682  1.00  0.00    -0.267 OA
ATOM     13  C   UNL A   1      30.716  27.768  22.558  1.00  0.00     0.326 A 
ATOM     14  H   UNL A   1      29.664  27.376  24.225  1.00  0.00     0.172 HD
ATOM     15  H   UNL A   1      32.078  27.847  21.079  1.00  0.00     0.175 HD
ATOM     16  O   UNL A   1      29.887  28.503  22.034  1.00  0.00    -0.248 OA
BRANCH   8  17
ATOM     17  N   UNL A   1      33.732  25.525  24.537  1.00  0.00    -0.349 N 
ATOM     18  H   UNL A   1      34.374  26.115  24.993  1.00  0.00     0.167 HD
BRANCH  17  19
ATOM     19  C   UNL A   1      34.027  24.146  24.611  1.00  0.00     0.039 A 
ATOM     20  C   UNL A   1      34.777  21.416  24.773  1.00  0.00     0.119 A 
ATOM     21  C   UNL A   1      33.557  21.849  25.282  1.00  0.00     0.048 A 
ATOM     22  C   UNL A   1      35.623  22.339  24.167  1.00  0.00     0.048 A 
ATOM     23  C   UNL A   1      33.190  23.199  25.209  1.00  0.00     0.030 A 
ATOM     24  C   UNL A   1      35.250  23.690  24.093  1.00  0.00     0.030 A 
BRANCH  20  25
ATOM     25  O   UNL A   1      35.014  20.075  24.895  1.00  0.00    -0.497 OA
ATOM     26  C   UNL A   1      33.931  19.221  24.539  1.00  0.00     0.278 C 
ENDBRANCH  20  25
ENDBRANCH  17  19
ENDBRANCH   8  17
ENDBRANCH   5   7
ENDBRANCH   4   5
ENDBRANCH   3   4
ENDBRANCH   2   3
ENDBRANCH   1   2
BRANCH   1  27
ATOM     27  C   UNL A   1      31.712  31.252  26.385  1.00  0.00     0.202 C 
BRANCH  27  28
ATOM     28  C   UNL A   1      31.590  32.710  26.837  1.00  0.00     0.261 C 
BRANCH  28  29
ATOM     29  O   UNL A   1      32.859  33.384  26.782  1.00  0.00    -0.460 OA
BRANCH  29  30
ATOM     30  C   UNL A   1      33.324  33.818  27.978  1.00  0.00     0.338 C 
ATOM     31  O   UNL A   1      32.749  34.570  28.755  1.00  0.00    -0.246 OA
BRANCH  30  32
ATOM     32  C   UNL A   1      34.560  33.097  28.336  1.00  0.00     0.060 A 
ATOM     33  C   UNL A   1      34.419  31.812  28.875  1.00  0.00     0.016 A 
ATOM     34  C   UNL A   1      35.827  33.672  28.204  1.00  0.00     0.016 A 
ATOM     35  C   UNL A   1      35.537  31.115  29.326  1.00  0.00     0.010 A 
ATOM     36  C   UNL A   1      36.949  32.972  28.668  1.00  0.00     0.010 A 
ATOM     37  C   UNL A   1      36.806  31.703  29.257  1.00  0.00    -0.014 A 
BRANCH  37  38
ATOM     38  C   UNL A   1      37.956  31.032  29.916  1.00  0.00     0.031 A 
ATOM     39  C   UNL A   1      38.259  31.343  31.358  1.00  0.00     0.074 A 
ATOM     40  C   UNL A   1      38.693  30.125  29.247  1.00  0.00     0.049 A 
ATOM     41  N   UNL A   1      39.215  30.882  32.120  1.00  0.00    -0.248 NA
ATOM     42  C   UNL A   1      37.364  32.302  32.026  1.00  0.00     0.031 C 
ATOM     43  C   UNL A   1      38.467  29.713  27.862  1.00  0.00     0.029 A 
ATOM     44  N   UNL A   1      39.783  29.390  29.642  1.00  0.00    -0.354 N 
ATOM     45  C   UNL A   1      39.045  31.497  33.357  1.00  0.00     0.074 A 
ATOM     46  C   UNL A   1      37.907  32.383  33.232  1.00  0.00     0.031 C 
ATOM     47  C   UNL A   1      39.400  28.805  27.520  1.00  0.00     0.029 A 
ATOM     48  C   UNL A   1      40.308  28.598  28.646  1.00  0.00     0.049 A 
ATOM     49  H   UNL A   1      40.154  29.426  30.553  1.00  0.00     0.167 HD
ATOM     50  C   UNL A   1      39.769  31.333  34.491  1.00  0.00     0.034 A 
ATOM     51  C   UNL A   1      41.409  27.820  28.638  1.00  0.00     0.034 A 
ATOM     52  C   UNL A   1      40.899  30.442  34.605  1.00  0.00     0.049 A 
ATOM     53  C   UNL A   1      42.236  27.707  29.899  1.00  0.00     0.074 A 
ATOM     54  C   UNL A   1      41.673  30.175  35.721  1.00  0.00     0.029 A 
ATOM     55  N   UNL A   1      41.424  29.686  33.566  1.00  0.00    -0.354 N 
ATOM     56  N   UNL A   1      42.040  28.270  31.069  1.00  0.00    -0.248 NA
ATOM     57  C   UNL A   1      43.426  26.847  29.839  1.00  0.00     0.031 C 
ATOM     58  C   UNL A   1      42.710  29.317  35.339  1.00  0.00     0.029 A 
ATOM     59  C   UNL A   1      42.537  28.985  34.005  1.00  0.00     0.049 A 
ATOM     60  H   UNL A   1      41.060  29.652  32.652  1.00  0.00     0.167 HD
ATOM     61  C   UNL A   1      43.064  27.803  31.891  1.00  0.00     0.074 A 
ATOM     62  C   UNL A   1      43.861  26.898  31.088  1.00  0.00     0.031 C 
ATOM     63  C   UNL A   1      43.325  28.091  33.192  1.00  0.00     0.034 A 
BRANCH  50  64
ATOM     64  C   UNL A   1      39.398  32.170  35.689  1.00  0.00     0.023 A 
ATOM     65  C   UNL A   1      38.589  31.674  36.724  1.00  0.00     0.031 A 
ATOM     66  C   UNL A   1      39.886  33.485  35.801  1.00  0.00     0.131 A 
ATOM     67  C   UNL A   1      38.257  32.502  37.809  1.00  0.00     0.055 A 
ATOM     68  C   UNL A   1      39.605  34.281  36.913  1.00  0.00     0.041 A 
ATOM     69  F   UNL A   1      40.645  34.017  34.831  1.00  0.00    -0.206 F 
ATOM     70  C   UNL A   1      38.780  33.793  37.921  1.00  0.00     0.022 A 
BRANCH  67  71
ATOM     71  S   UNL A   1      37.059  31.902  39.030  1.00  0.00     0.124 S 
ATOM     72  O   UNL A   1      36.899  30.507  38.626  1.00  0.00    -0.237 OA
ATOM     73  O   UNL A   1      37.755  32.124  40.292  1.00  0.00    -0.237 OA
ATOM     74  O   UNL A   1      35.888  32.747  38.807  1.00  0.00    -0.744 OA
ENDBRANCH  67  71
ENDBRANCH  50  64
BRANCH  51  75
ATOM     75  C   UNL A   1      41.841  27.120  27.391  1.00  0.00     0.023 A 
ATOM     76  C   UNL A   1      41.732  25.726  27.262  1.00  0.00     0.031 A 
ATOM     77  C   UNL A   1      42.461  27.830  26.347  1.00  0.00     0.131 A 
ATOM     78  C   UNL A   1      42.294  25.080  26.148  1.00  0.00     0.055 A 
ATOM     79  C   UNL A   1      42.963  27.190  25.213  1.00  0.00     0.041 A 
ATOM     80  F   UNL A   1      42.594  29.165  26.417  1.00  0.00    -0.206 F 
ATOM     81  C   UNL A   1      42.897  25.804  25.118  1.00  0.00     0.022 A 
BRANCH  78  82
ATOM     82  S   UNL A   1      42.338  23.266  26.129  1.00  0.00     0.124 S 
ATOM     83  O   UNL A   1      40.929  22.934  26.306  1.00  0.00    -0.237 OA
ATOM     84  O   UNL A   1      42.901  22.995  24.810  1.00  0.00    -0.237 OA
ATOM     85  O   UNL A   1      43.206  22.936  27.257  1.00  0.00    -0.744 OA
ENDBRANCH  78  82
ENDBRANCH  51  75
BRANCH  63  86
ATOM     86  C   UNL A   1      44.494  27.382  33.833  1.00  0.00     0.023 A 
ATOM     87  C   UNL A   1      44.324  26.203  34.581  1.00  0.00     0.031 A 
ATOM     88  C   UNL A   1      45.794  27.903  33.708  1.00  0.00     0.131 A 
ATOM     89  C   UNL A   1      45.424  25.619  35.225  1.00  0.00     0.055 A 
ATOM     90  C   UNL A   1      46.895  27.283  34.300  1.00  0.00     0.041 A 
ATOM     91  F   UNL A   1      46.014  29.026  33.006  1.00  0.00    -0.206 F 
ATOM     92  C   UNL A   1      46.712  26.142  35.075  1.00  0.00     0.022 A 
BRANCH  89  93
ATOM     93  S   UNL A   1      45.138  24.220  36.344  1.00  0.00     0.124 S 
ATOM     94  O   UNL A   1      43.786  24.490  36.826  1.00  0.00    -0.237 OA
ATOM     95  O   UNL A   1      45.279  23.074  35.452  1.00  0.00    -0.237 OA
ATOM     96  O   UNL A   1      46.193  24.359  37.346  1.00  0.00    -0.744 OA
ENDBRANCH  89  93
ENDBRANCH  63  86
ENDBRANCH  37  38
ENDBRANCH  30  32
ENDBRANCH  29  30
ENDBRANCH  28  29
ENDBRANCH  27  28
ENDBRANCH   1  27
TORSDOF 20
ENDMDL
MODEL 3
REMARK VINA RESULT:     -11.0      4.843      7.322
REMARK SMILES COc1ccc(Nc2c(C(=O)OCCOCCOC(=O)c3ccc(-c4c5nc(c(-c6cc(S(=O)(=O)[O-])ccc6F)c6ccc([nH]6)c(-c6cc(S(=O)(=O)[O-])ccc6F)c6nc(c(-c7cc(S(=O)(=O)[O-])ccc7F)c7ccc4[nH]7)C=C6)C=C5)cc3)[nH]c(=O)[nH]c2=O)cc1
REMARK SMILES IDX 15 1 14 2 13 3 12 4 10 5 11 6 9 7 8 8 88 9 84 10 87 11 89 12
REMARK SMILES IDX 85 13 86 16 7 17 6 19 3 20 4 21 91 22 5 23 90 24 2 25 1 26
REMARK SMILES IDX 16 27 17 28 18 29 19 30 20 31 21 32 22 33 83 34 23 35 82 36
REMARK SMILES IDX 24 37 25 38 26 39 76 40 27 41 81 42 75 43 77 44 28 45 80 46
REMARK SMILES IDX 74 47 73 48 29 50 61 51 41 52 60 53 42 54 45 55 59 56 78 57
REMARK SMILES IDX 43 58 44 59 58 61 79 62 46 63 30 64 31 65 39 66 32 67 38 68
REMARK SMILES IDX 40 69 37 70 33 71 34 72 35 73 36 74 62 75 63 76 71 77 64 78
REMARK SMILES IDX 70 79 72 80 69 81 65 82 66 83 67 84 68 85 47 86 48 87 56 88
REMARK SMILES IDX 49 89 55 90 57 91 54 92 50 93 51 94 52 95 53 96
REMARK H PARENT 84 14 87 15 7 18 77 49 45 60
REMARK Flexibility Score: inf
ROOT
ATOM      1  O   UNL A   1      31.665  28.954  23.650  1.00  0.00    -0.374 OA
ENDROOT
BRANCH   1   2
ATOM      2  C   UNL A   1      33.004  29.007  23.150  1.00  0.00     0.202 C 
BRANCH   2   3
ATOM      3  C   UNL A   1      33.691  27.644  23.017  1.00  0.00     0.261 C 
BRANCH   3   4
ATOM      4  O   UNL A   1      33.014  26.838  22.032  1.00  0.00    -0.459 OA
BRANCH   4   5
ATOM      5  C   UNL A   1      32.788  25.553  22.392  1.00  0.00     0.357 C 
ATOM      6  O   UNL A   1      33.375  24.568  21.958  1.00  0.00    -0.244 OA
BRANCH   5   7
ATOM      7  C   UNL A   1      31.822  25.423  23.530  1.00  0.00     0.158 A 
ATOM      8  C   UNL A   1      32.005  24.667  24.638  1.00  0.00     0.136 A 
ATOM      9  C   UNL A   1      30.905  24.827  25.676  1.00  0.00     0.278 A 
ATOM     10  N   UNL A   1      30.637  26.088  23.292  1.00  0.00    -0.299 N 
ATOM     11  N   UNL A   1      29.717  25.353  25.254  1.00  0.00    -0.272 N 
ATOM     12  O   UNL A   1      31.049  24.545  26.862  1.00  0.00    -0.267 OA
ATOM     13  C   UNL A   1      29.545  26.030  24.092  1.00  0.00     0.326 A 
ATOM     14  H   UNL A   1      30.581  26.646  22.483  1.00  0.00     0.172 HD
ATOM     15  H   UNL A   1      28.931  25.231  25.834  1.00  0.00     0.175 HD
ATOM     16  O   UNL A   1      28.484  26.568  23.795  1.00  0.00    -0.248 OA
BRANCH   8  17
ATOM     17  N   UNL A   1      33.103  23.867  24.930  1.00  0.00    -0.349 N 
ATOM     18  H   UNL A   1      33.894  24.348  25.265  1.00  0.00     0.167 HD
BRANCH  17  19
ATOM     19  C   UNL A   1      33.255  22.468  24.819  1.00  0.00     0.039 A 
ATOM     20  C   UNL A   1      33.678  19.665  24.706  1.00  0.00     0.119 A 
ATOM     21  C   UNL A   1      32.413  20.203  24.489  1.00  0.00     0.048 A 
ATOM     22  C   UNL A   1      34.742  20.524  24.965  1.00  0.00     0.048 A 
ATOM     23  C   UNL A   1      32.202  21.586  24.553  1.00  0.00     0.030 A 
ATOM     24  C   UNL A   1      34.527  21.910  25.024  1.00  0.00     0.030 A 
BRANCH  20  25
ATOM     25  O   UNL A   1      33.756  18.304  24.606  1.00  0.00    -0.497 OA
ATOM     26  C   UNL A   1      32.554  17.593  24.883  1.00  0.00     0.278 C 
ENDBRANCH  20  25
ENDBRANCH  17  19
ENDBRANCH   8  17
ENDBRANCH   5   7
ENDBRANCH   4   5
ENDBRANCH   3   4
ENDBRANCH   2   3
ENDBRANCH   1   2
BRANCH   1  27
ATOM     27  C   UNL A   1      31.505  29.059  25.066  1.00  0.00     0.202 C 
BRANCH  27  28
ATOM     28  C   UNL A   1      31.639  30.466  25.659  1.00  0.00     0.261 C 
BRANCH  28  29
ATOM     29  O   UNL A   1      32.372  30.446  26.895  1.00  0.00    -0.460 OA
BRANCH  29  30
ATOM     30  C   UNL A   1      33.028  31.595  27.185  1.00  0.00     0.338 C 
ATOM     31  O   UNL A   1      32.556  32.725  27.180  1.00  0.00    -0.246 OA
BRANCH  30  32
ATOM     32  C   UNL A   1      34.371  31.295  27.716  1.00  0.00     0.060 A 
ATOM     33  C   UNL A   1      34.663  29.955  28.001  1.00  0.00     0.016 A 
ATOM     34  C   UNL A   1      35.311  32.294  27.983  1.00  0.00     0.016 A 
ATOM     35  C   UNL A   1      35.875  29.613  28.595  1.00  0.00     0.010 A 
ATOM     36  C   UNL A   1      36.525  31.948  28.592  1.00  0.00     0.010 A 
ATOM     37  C   UNL A   1      36.800  30.610  28.927  1.00  0.00    -0.014 A 
BRANCH  37  38
ATOM     38  C   UNL A   1      37.996  30.255  29.732  1.00  0.00     0.031 A 
ATOM     39  C   UNL A   1      38.998  29.283  29.168  1.00  0.00     0.074 A 
ATOM     40  C   UNL A   1      38.207  30.826  30.934  1.00  0.00     0.049 A 
ATOM     41  N   UNL A   1      40.101  28.828  29.703  1.00  0.00    -0.248 NA
ATOM     42  C   UNL A   1      38.717  28.754  27.824  1.00  0.00     0.031 C 
ATOM     43  C   UNL A   1      37.328  31.813  31.562  1.00  0.00     0.029 A 
ATOM     44  N   UNL A   1      39.223  30.658  31.840  1.00  0.00    -0.354 N 
ATOM     45  C   UNL A   1      40.645  27.954  28.766  1.00  0.00     0.074 A 
ATOM     46  C   UNL A   1      39.734  27.924  27.641  1.00  0.00     0.031 C 
ATOM     47  C   UNL A   1      37.840  32.152  32.759  1.00  0.00     0.029 A 
ATOM     48  C   UNL A   1      39.060  31.384  32.998  1.00  0.00     0.049 A 
ATOM     49  H   UNL A   1      39.997  30.071  31.677  1.00  0.00     0.167 HD
ATOM     50  C   UNL A   1      41.798  27.245  28.839  1.00  0.00     0.034 A 
ATOM     51  C   UNL A   1      39.795  31.404  34.128  1.00  0.00     0.034 A 
ATOM     52  C   UNL A   1      42.700  27.285  29.964  1.00  0.00     0.049 A 
ATOM     53  C   UNL A   1      41.042  30.552  34.206  1.00  0.00     0.074 A 
ATOM     54  C   UNL A   1      43.913  26.636  30.117  1.00  0.00     0.029 A 
ATOM     55  N   UNL A   1      42.483  28.002  31.133  1.00  0.00    -0.354 N 
ATOM     56  N   UNL A   1      41.559  29.757  33.297  1.00  0.00    -0.248 NA
ATOM     57  C   UNL A   1      41.809  30.608  35.458  1.00  0.00     0.031 C 
ATOM     58  C   UNL A   1      44.392  26.899  31.404  1.00  0.00     0.029 A 
ATOM     59  C   UNL A   1      43.519  27.778  32.027  1.00  0.00     0.049 A 
ATOM     60  H   UNL A   1      41.708  28.585  31.302  1.00  0.00     0.167 HD
ATOM     61  C   UNL A   1      42.728  29.248  33.859  1.00  0.00     0.074 A 
ATOM     62  C   UNL A   1      42.850  29.841  35.175  1.00  0.00     0.031 C 
ATOM     63  C   UNL A   1      43.624  28.371  33.337  1.00  0.00     0.034 A 
BRANCH  50  64
ATOM     64  C   UNL A   1      42.129  26.323  27.693  1.00  0.00     0.023 A 
ATOM     65  C   UNL A   1      41.726  24.977  27.677  1.00  0.00     0.031 A 
ATOM     66  C   UNL A   1      42.844  26.812  26.584  1.00  0.00     0.131 A 
ATOM     67  C   UNL A   1      42.075  24.155  26.594  1.00  0.00     0.055 A 
ATOM     68  C   UNL A   1      43.132  26.007  25.481  1.00  0.00     0.041 A 
ATOM     69  F   UNL A   1      43.272  28.083  26.555  1.00  0.00    -0.206 F 
ATOM     70  C   UNL A   1      42.755  24.668  25.485  1.00  0.00     0.022 A 
BRANCH  67  71
ATOM     71  S   UNL A   1      41.708  22.382  26.690  1.00  0.00     0.124 S 
ATOM     72  O   UNL A   1      42.723  21.823  25.799  1.00  0.00    -0.237 OA
ATOM     73  O   UNL A   1      41.880  22.099  28.110  1.00  0.00    -0.237 OA
ATOM     74  O   UNL A   1      40.335  22.288  26.197  1.00  0.00    -0.744 OA
ENDBRANCH  67  71
ENDBRANCH  50  64
BRANCH  51  75
ATOM     75  C   UNL A   1      39.362  32.210  35.308  1.00  0.00     0.023 A 
ATOM     76  C   UNL A   1      39.825  33.521  35.506  1.00  0.00     0.031 A 
ATOM     77  C   UNL A   1      38.550  31.643  36.307  1.00  0.00     0.131 A 
ATOM     78  C   UNL A   1      39.532  34.194  36.704  1.00  0.00     0.055 A 
ATOM     79  C   UNL A   1      38.209  32.339  37.468  1.00  0.00     0.041 A 
ATOM     80  F   UNL A   1      38.078  30.392  36.171  1.00  0.00    -0.206 F 
ATOM     81  C   UNL A   1      38.717  33.617  37.679  1.00  0.00     0.022 A 
BRANCH  78  82
ATOM     82  S   UNL A   1      40.337  35.788  37.023  1.00  0.00     0.124 S 
ATOM     83  O   UNL A   1      41.736  35.473  36.751  1.00  0.00    -0.237 OA
ATOM     84  O   UNL A   1      39.675  36.656  36.054  1.00  0.00    -0.237 OA
ATOM     85  O   UNL A   1      40.016  36.057  38.422  1.00  0.00    -0.744 OA
ENDBRANCH  78  82
ENDBRANCH  51  75
BRANCH  63  86
ATOM     86  C   UNL A   1      44.835  28.042  34.178  1.00  0.00     0.023 A 
ATOM     87  C   UNL A   1      44.847  26.948  35.061  1.00  0.00     0.031 A 
ATOM     88  C   UNL A   1      45.986  28.846  34.106  1.00  0.00     0.131 A 
ATOM     89  C   UNL A   1      45.963  26.724  35.880  1.00  0.00     0.055 A 
ATOM     90  C   UNL A   1      47.118  28.582  34.878  1.00  0.00     0.041 A 
ATOM     91  F   UNL A   1      46.030  29.905  33.280  1.00  0.00    -0.206 F 
ATOM     92  C   UNL A   1      47.105  27.524  35.782  1.00  0.00     0.022 A 
BRANCH  89  93
ATOM     93  S   UNL A   1      45.867  25.431  37.149  1.00  0.00     0.124 S 
ATOM     94  O   UNL A   1      44.495  25.575  37.625  1.00  0.00    -0.237 OA
ATOM     95  O   UNL A   1      46.151  24.222  36.382  1.00  0.00    -0.237 OA
ATOM     96  O   UNL A   1      46.901  25.812  38.109  1.00  0.00    -0.744 OA
ENDBRANCH  89  93
ENDBRANCH  63  86
ENDBRANCH  37  38
ENDBRANCH  30  32
ENDBRANCH  29  30
ENDBRANCH  28  29
ENDBRANCH  27  28
ENDBRANCH   1  27
TORSDOF 20
ENDMDL
