MODEL 1
REMARK VINA RESULT:     -11.4      0.000      0.000
REMARK SMILES O=C(OCCOCCOC(=O)[C@H]1CC(c2ccc(C(F)(F)F)cc2)=NO1)c1ccc(-c2c3nc(c(-c4cc(S(=O)(=O)[O-])ccc4F)c4ccc([nH]4)c(-c4cc(S(=O)(=O)[O-])ccc4F)c4nc(c(-c5cc(S(=O)(=O)[O-])ccc5F)c5ccc2[nH]5)C=C4)C=C3)cc1
REMARK SMILES IDX 5 1 4 2 3 3 2 4 1 5 27 6 28 7 89 8 29 9 88 10 30 11 31 12
REMARK SMILES IDX 32 13 82 14 33 15 87 16 81 17 83 18 34 19 86 20 80 21 79 22
REMARK SMILES IDX 35 24 67 25 47 26 66 27 48 28 51 29 65 30 84 31 49 32 50 33
REMARK SMILES IDX 64 35 85 36 52 37 36 38 37 39 45 40 38 41 44 42 46 43 43 44
REMARK SMILES IDX 39 45 40 46 41 47 42 48 68 49 69 50 77 51 70 52 76 53 78 54
REMARK SMILES IDX 75 55 71 56 72 57 73 58 74 59 53 60 54 61 62 62 55 63 61 64
REMARK SMILES IDX 63 65 60 66 56 67 57 68 58 69 59 70 6 71 7 72 8 73 9 74
REMARK SMILES IDX 10 75 11 76 12 77 13 78 26 79 14 80 25 81 15 82 16 83 24 84
REMARK SMILES IDX 17 85 23 86 18 87 19 88 20 89 21 90 22 91
REMARK H PARENT 83 23 51 34
REMARK Flexibility Score: inf
ROOT
ATOM      1  C   UNL A   1      31.739  28.969  26.976  1.00  0.00     0.202 C 
ENDROOT
BRANCH   1   2
ATOM      2  C   UNL A   1      31.838  30.426  26.520  1.00  0.00     0.261 C 
BRANCH   2   3
ATOM      3  O   UNL A   1      33.217  30.826  26.454  1.00  0.00    -0.460 OA
BRANCH   3   4
ATOM      4  C   UNL A   1      33.899  31.568  27.359  1.00  0.00     0.338 C 
ATOM      5  O   UNL A   1      33.421  32.633  27.741  1.00  0.00    -0.246 OA
BRANCH   4   6
ATOM      6  C   UNL A   1      35.209  31.134  27.922  1.00  0.00     0.060 A 
ATOM      7  C   UNL A   1      36.278  32.003  28.141  1.00  0.00     0.016 A 
ATOM      8  C   UNL A   1      35.334  29.805  28.353  1.00  0.00     0.016 A 
ATOM      9  C   UNL A   1      37.464  31.572  28.704  1.00  0.00     0.010 A 
ATOM     10  C   UNL A   1      36.504  29.375  28.989  1.00  0.00     0.010 A 
ATOM     11  C   UNL A   1      37.567  30.268  29.169  1.00  0.00    -0.014 A 
BRANCH  11  12
ATOM     12  C   UNL A   1      38.813  29.891  29.853  1.00  0.00     0.031 A 
ATOM     13  C   UNL A   1      39.748  28.945  29.178  1.00  0.00     0.074 A 
ATOM     14  C   UNL A   1      39.119  30.504  31.013  1.00  0.00     0.049 A 
ATOM     15  N   UNL A   1      40.842  28.405  29.635  1.00  0.00    -0.248 NA
ATOM     16  C   UNL A   1      39.412  28.563  27.796  1.00  0.00     0.031 C 
ATOM     17  C   UNL A   1      38.306  31.546  31.653  1.00  0.00     0.029 A 
ATOM     18  N   UNL A   1      40.191  30.366  31.851  1.00  0.00    -0.354 N 
ATOM     19  C   UNL A   1      41.307  27.584  28.616  1.00  0.00     0.074 A 
ATOM     20  C   UNL A   1      40.387  27.713  27.508  1.00  0.00     0.031 C 
ATOM     21  C   UNL A   1      38.918  31.959  32.772  1.00  0.00     0.029 A 
ATOM     22  C   UNL A   1      40.105  31.143  32.984  1.00  0.00     0.049 A 
ATOM     23  H   UNL A   1      40.951  29.770  31.661  1.00  0.00     0.167 HD
ATOM     24  C   UNL A   1      42.393  26.778  28.638  1.00  0.00     0.034 A 
ATOM     25  C   UNL A   1      40.864  31.133  34.097  1.00  0.00     0.034 A 
ATOM     26  C   UNL A   1      43.269  26.687  29.779  1.00  0.00     0.049 A 
ATOM     27  C   UNL A   1      42.002  30.145  34.135  1.00  0.00     0.074 A 
ATOM     28  C   UNL A   1      44.380  25.885  29.958  1.00  0.00     0.029 A 
ATOM     29  N   UNL A   1      43.114  27.426  30.949  1.00  0.00    -0.354 N 
ATOM     30  N   UNL A   1      42.410  29.323  33.192  1.00  0.00    -0.248 NA
ATOM     31  C   UNL A   1      42.765  30.056  35.385  1.00  0.00     0.031 C 
ATOM     32  C   UNL A   1      44.855  26.090  31.258  1.00  0.00     0.029 A 
ATOM     33  C   UNL A   1      44.081  27.067  31.870  1.00  0.00     0.049 A 
ATOM     34  H   UNL A   1      42.418  28.105  31.098  1.00  0.00     0.167 HD
ATOM     35  C   UNL A   1      43.475  28.617  33.737  1.00  0.00     0.074 A 
ATOM     36  C   UNL A   1      43.670  29.139  35.077  1.00  0.00     0.031 C 
ATOM     37  C   UNL A   1      44.219  27.617  33.198  1.00  0.00     0.034 A 
BRANCH  24  38
ATOM     38  C   UNL A   1      42.598  25.867  27.457  1.00  0.00     0.023 A 
ATOM     39  C   UNL A   1      42.062  24.569  27.404  1.00  0.00     0.031 A 
ATOM     40  C   UNL A   1      43.408  26.293  26.390  1.00  0.00     0.131 A 
ATOM     41  C   UNL A   1      42.390  23.723  26.331  1.00  0.00     0.055 A 
ATOM     42  C   UNL A   1      43.679  25.470  25.295  1.00  0.00     0.041 A 
ATOM     43  F   UNL A   1      43.974  27.509  26.407  1.00  0.00    -0.206 F 
ATOM     44  C   UNL A   1      43.177  24.173  25.267  1.00  0.00     0.022 A 
BRANCH  41  45
ATOM     45  S   UNL A   1      41.872  21.985  26.397  1.00  0.00     0.124 S 
ATOM     46  O   UNL A   1      42.265  21.612  27.754  1.00  0.00    -0.237 OA
ATOM     47  O   UNL A   1      40.439  22.071  26.149  1.00  0.00    -0.237 OA
ATOM     48  O   UNL A   1      42.652  21.353  25.334  1.00  0.00    -0.744 OA
ENDBRANCH  41  45
ENDBRANCH  24  38
BRANCH  25  49
ATOM     49  C   UNL A   1      40.508  31.967  35.285  1.00  0.00     0.023 A 
ATOM     50  C   UNL A   1      39.492  31.583  36.174  1.00  0.00     0.031 A 
ATOM     51  C   UNL A   1      41.137  33.208  35.511  1.00  0.00     0.131 A 
ATOM     52  C   UNL A   1      39.104  32.448  37.213  1.00  0.00     0.055 A 
ATOM     53  C   UNL A   1      40.793  34.033  36.584  1.00  0.00     0.041 A 
ATOM     54  F   UNL A   1      42.104  33.643  34.688  1.00  0.00    -0.206 F 
ATOM     55  C   UNL A   1      39.758  33.661  37.433  1.00  0.00     0.022 A 
BRANCH  52  56
ATOM     56  S   UNL A   1      37.642  32.023  38.201  1.00  0.00     0.124 S 
ATOM     57  O   UNL A   1      37.397  30.644  37.791  1.00  0.00    -0.237 OA
ATOM     58  O   UNL A   1      38.133  32.209  39.562  1.00  0.00    -0.237 OA
ATOM     59  O   UNL A   1      36.641  32.991  37.761  1.00  0.00    -0.744 OA
ENDBRANCH  52  56
ENDBRANCH  25  49
BRANCH  37  60
ATOM     60  C   UNL A   1      45.303  27.052  34.073  1.00  0.00     0.023 A 
ATOM     61  C   UNL A   1      45.031  26.025  34.991  1.00  0.00     0.031 A 
ATOM     62  C   UNL A   1      46.614  27.547  33.986  1.00  0.00     0.131 A 
ATOM     63  C   UNL A   1      46.053  25.551  35.821  1.00  0.00     0.055 A 
ATOM     64  C   UNL A   1      47.640  27.032  34.776  1.00  0.00     0.041 A 
ATOM     65  F   UNL A   1      46.918  28.530  33.123  1.00  0.00    -0.206 F 
ATOM     66  C   UNL A   1      47.359  26.035  35.708  1.00  0.00     0.022 A 
BRANCH  63  67
ATOM     67  S   UNL A   1      45.638  24.335  37.099  1.00  0.00     0.124 S 
ATOM     68  O   UNL A   1      44.249  24.672  37.398  1.00  0.00    -0.237 OA
ATOM     69  O   UNL A   1      45.852  23.067  36.408  1.00  0.00    -0.237 OA
ATOM     70  O   UNL A   1      46.590  24.624  38.169  1.00  0.00    -0.744 OA
ENDBRANCH  63  67
ENDBRANCH  37  60
ENDBRANCH  11  12
ENDBRANCH   4   6
ENDBRANCH   3   4
ENDBRANCH   2   3
ENDBRANCH   1   2
BRANCH   1  71
ATOM     71  O   UNL A   1      31.846  28.009  25.932  1.00  0.00    -0.374 OA
BRANCH  71  72
ATOM     72  C   UNL A   1      31.357  28.418  24.652  1.00  0.00     0.202 C 
BRANCH  72  73
ATOM     73  C   UNL A   1      30.561  27.268  24.040  1.00  0.00     0.261 C 
BRANCH  73  74
ATOM     74  O   UNL A   1      30.735  26.096  24.858  1.00  0.00    -0.460 OA
BRANCH  74  75
ATOM     75  C   UNL A   1      31.550  25.124  24.361  1.00  0.00     0.350 C 
ATOM     76  O   UNL A   1      31.972  25.061  23.219  1.00  0.00    -0.248 OA
BRANCH  75  77
ATOM     77  C   UNL A   1      31.938  24.115  25.435  1.00  0.00     0.319 C 
ATOM     78  C   UNL A   1      31.696  22.687  24.993  1.00  0.00     0.121 C 
ATOM     79  O   UNL A   1      33.310  24.209  25.820  1.00  0.00    -0.380 OA
ATOM     80  C   UNL A   1      33.091  22.188  25.032  1.00  0.00     0.091 C 
ATOM     81  N   UNL A   1      33.973  23.005  25.500  1.00  0.00    -0.090 NA
BRANCH  80  82
ATOM     82  C   UNL A   1      33.427  20.798  24.694  1.00  0.00    -0.001 A 
ATOM     83  C   UNL A   1      32.392  20.002  24.201  1.00  0.00     0.011 A 
ATOM     84  C   UNL A   1      34.690  20.254  24.926  1.00  0.00     0.011 A 
ATOM     85  C   UNL A   1      32.618  18.653  23.938  1.00  0.00     0.014 A 
ATOM     86  C   UNL A   1      34.911  18.895  24.672  1.00  0.00     0.014 A 
ATOM     87  C   UNL A   1      33.876  18.080  24.182  1.00  0.00     0.056 A 
BRANCH  87  88
ATOM     88  C   UNL A   1      34.073  16.602  23.939  1.00  0.00     0.416 C 
ATOM     89  F   UNL A   1      32.964  15.874  24.253  1.00  0.00    -0.166 F 
ATOM     90  F   UNL A   1      34.339  16.322  22.632  1.00  0.00    -0.166 F 
ATOM     91  F   UNL A   1      35.092  16.056  24.655  1.00  0.00    -0.166 F 
ENDBRANCH  87  88
ENDBRANCH  80  82
ENDBRANCH  75  77
ENDBRANCH  74  75
ENDBRANCH  73  74
ENDBRANCH  72  73
ENDBRANCH  71  72
ENDBRANCH   1  71
TORSDOF 19
ENDMDL
MODEL 2
REMARK VINA RESULT:     -11.3      2.020      2.446
REMARK SMILES O=C(OCCOCCOC(=O)[C@H]1CC(c2ccc(C(F)(F)F)cc2)=NO1)c1ccc(-c2c3nc(c(-c4cc(S(=O)(=O)[O-])ccc4F)c4ccc([nH]4)c(-c4cc(S(=O)(=O)[O-])ccc4F)c4nc(c(-c5cc(S(=O)(=O)[O-])ccc5F)c5ccc2[nH]5)C=C4)C=C3)cc1
REMARK SMILES IDX 5 1 4 2 3 3 2 4 1 5 27 6 28 7 89 8 29 9 88 10 30 11 31 12
REMARK SMILES IDX 32 13 82 14 33 15 87 16 81 17 83 18 34 19 86 20 80 21 79 22
REMARK SMILES IDX 35 24 67 25 47 26 66 27 48 28 51 29 65 30 84 31 49 32 50 33
REMARK SMILES IDX 64 35 85 36 52 37 36 38 37 39 45 40 38 41 44 42 46 43 43 44
REMARK SMILES IDX 39 45 40 46 41 47 42 48 68 49 69 50 77 51 70 52 76 53 78 54
REMARK SMILES IDX 75 55 71 56 72 57 73 58 74 59 53 60 54 61 62 62 55 63 61 64
REMARK SMILES IDX 63 65 60 66 56 67 57 68 58 69 59 70 6 71 7 72 8 73 9 74
REMARK SMILES IDX 10 75 11 76 12 77 13 78 26 79 14 80 25 81 15 82 16 83 24 84
REMARK SMILES IDX 17 85 23 86 18 87 19 88 20 89 21 90 22 91
REMARK H PARENT 83 23 51 34
REMARK Flexibility Score: inf
ROOT
ATOM      1  C   UNL A   1      31.432  28.349  25.787  1.00  0.00     0.202 C 
ENDROOT
BRANCH   1   2
ATOM      2  C   UNL A   1      31.644  29.770  25.263  1.00  0.00     0.261 C 
BRANCH   2   3
ATOM      3  O   UNL A   1      32.931  30.258  25.677  1.00  0.00    -0.460 OA
BRANCH   3   4
ATOM      4  C   UNL A   1      33.206  31.026  26.759  1.00  0.00     0.338 C 
ATOM      5  O   UNL A   1      32.449  31.949  27.046  1.00  0.00    -0.246 OA
BRANCH   4   6
ATOM      6  C   UNL A   1      34.395  30.786  27.625  1.00  0.00     0.060 A 
ATOM      7  C   UNL A   1      34.699  29.547  28.188  1.00  0.00     0.016 A 
ATOM      8  C   UNL A   1      35.311  31.835  27.793  1.00  0.00     0.016 A 
ATOM      9  C   UNL A   1      35.834  29.353  28.953  1.00  0.00     0.010 A 
ATOM     10  C   UNL A   1      36.497  31.630  28.505  1.00  0.00     0.010 A 
ATOM     11  C   UNL A   1      36.759  30.381  29.080  1.00  0.00    -0.014 A 
BRANCH  11  12
ATOM     12  C   UNL A   1      37.998  30.089  29.817  1.00  0.00     0.031 A 
ATOM     13  C   UNL A   1      39.018  29.202  29.187  1.00  0.00     0.074 A 
ATOM     14  C   UNL A   1      38.215  30.726  30.984  1.00  0.00     0.049 A 
ATOM     15  N   UNL A   1      40.125  28.736  29.692  1.00  0.00    -0.248 NA
ATOM     16  C   UNL A   1      38.765  28.792  27.795  1.00  0.00     0.031 C 
ATOM     17  C   UNL A   1      37.311  31.716  31.582  1.00  0.00     0.029 A 
ATOM     18  N   UNL A   1      39.258  30.661  31.865  1.00  0.00    -0.354 N 
ATOM     19  C   UNL A   1      40.683  27.942  28.699  1.00  0.00     0.074 A 
ATOM     20  C   UNL A   1      39.803  28.006  27.553  1.00  0.00     0.031 C 
ATOM     21  C   UNL A   1      37.848  32.173  32.723  1.00  0.00     0.029 A 
ATOM     22  C   UNL A   1      39.076  31.436  32.989  1.00  0.00     0.049 A 
ATOM     23  H   UNL A   1      40.063  30.115  31.710  1.00  0.00     0.167 HD
ATOM     24  C   UNL A   1      41.817  27.208  28.771  1.00  0.00     0.034 A 
ATOM     25  C   UNL A   1      39.788  31.480  34.131  1.00  0.00     0.034 A 
ATOM     26  C   UNL A   1      42.650  27.180  29.947  1.00  0.00     0.049 A 
ATOM     27  C   UNL A   1      40.985  30.568  34.223  1.00  0.00     0.074 A 
ATOM     28  C   UNL A   1      43.801  26.452  30.177  1.00  0.00     0.029 A 
ATOM     29  N   UNL A   1      42.399  27.913  31.104  1.00  0.00    -0.354 N 
ATOM     30  N   UNL A   1      41.483  29.770  33.303  1.00  0.00    -0.248 NA
ATOM     31  C   UNL A   1      41.699  30.535  35.503  1.00  0.00     0.031 C 
ATOM     32  C   UNL A   1      44.208  26.694  31.494  1.00  0.00     0.029 A 
ATOM     33  C   UNL A   1      43.349  27.622  32.066  1.00  0.00     0.049 A 
ATOM     34  H   UNL A   1      41.655  28.546  31.220  1.00  0.00     0.167 HD
ATOM     35  C   UNL A   1      42.568  29.137  33.896  1.00  0.00     0.074 A 
ATOM     36  C   UNL A   1      42.674  29.677  35.239  1.00  0.00     0.031 C 
ATOM     37  C   UNL A   1      43.396  28.185  33.395  1.00  0.00     0.034 A 
BRANCH  24  38
ATOM     38  C   UNL A   1      42.129  26.307  27.606  1.00  0.00     0.023 A 
ATOM     39  C   UNL A   1      41.690  24.973  27.546  1.00  0.00     0.031 A 
ATOM     40  C   UNL A   1      42.943  26.783  26.564  1.00  0.00     0.131 A 
ATOM     41  C   UNL A   1      42.116  24.147  26.493  1.00  0.00     0.055 A 
ATOM     42  C   UNL A   1      43.311  25.975  25.486  1.00  0.00     0.041 A 
ATOM     43  F   UNL A   1      43.419  28.038  26.589  1.00  0.00    -0.206 F 
ATOM     44  C   UNL A   1      42.906  24.645  25.452  1.00  0.00     0.022 A 
BRANCH  41  45
ATOM     45  S   UNL A   1      41.723  22.376  26.556  1.00  0.00     0.124 S 
ATOM     46  O   UNL A   1      42.318  21.988  27.834  1.00  0.00    -0.237 OA
ATOM     47  O   UNL A   1      40.267  22.371  26.503  1.00  0.00    -0.237 OA
ATOM     48  O   UNL A   1      42.392  21.833  25.376  1.00  0.00    -0.744 OA
ENDBRANCH  41  45
ENDBRANCH  24  38
BRANCH  25  49
ATOM     49  C   UNL A   1      39.330  32.295  35.297  1.00  0.00     0.023 A 
ATOM     50  C   UNL A   1      39.725  33.633  35.460  1.00  0.00     0.031 A 
ATOM     51  C   UNL A   1      38.541  31.722  36.315  1.00  0.00     0.131 A 
ATOM     52  C   UNL A   1      39.372  34.333  36.627  1.00  0.00     0.055 A 
ATOM     53  C   UNL A   1      38.138  32.441  37.441  1.00  0.00     0.041 A 
ATOM     54  F   UNL A   1      38.144  30.442  36.231  1.00  0.00    -0.206 F 
ATOM     55  C   UNL A   1      38.568  33.752  37.610  1.00  0.00     0.022 A 
BRANCH  52  56
ATOM     56  S   UNL A   1      40.086  35.977  36.906  1.00  0.00     0.124 S 
ATOM     57  O   UNL A   1      39.865  36.621  35.615  1.00  0.00    -0.237 OA
ATOM     58  O   UNL A   1      39.277  36.473  38.015  1.00  0.00    -0.237 OA
ATOM     59  O   UNL A   1      41.481  35.692  37.231  1.00  0.00    -0.744 OA
ENDBRANCH  52  56
ENDBRANCH  25  49
BRANCH  37  60
ATOM     60  C   UNL A   1      44.478  27.696  34.318  1.00  0.00     0.023 A 
ATOM     61  C   UNL A   1      45.695  28.387  34.436  1.00  0.00     0.031 A 
ATOM     62  C   UNL A   1      44.288  26.533  35.080  1.00  0.00     0.131 A 
ATOM     63  C   UNL A   1      46.699  27.881  35.270  1.00  0.00     0.055 A 
ATOM     64  C   UNL A   1      45.270  26.066  35.951  1.00  0.00     0.041 A 
ATOM     65  F   UNL A   1      43.140  25.840  34.996  1.00  0.00    -0.206 F 
ATOM     66  C   UNL A   1      46.487  26.736  36.042  1.00  0.00     0.022 A 
BRANCH  63  67
ATOM     67  S   UNL A   1      48.311  28.708  35.286  1.00  0.00     0.124 S 
ATOM     68  O   UNL A   1      48.884  28.278  34.013  1.00  0.00    -0.237 OA
ATOM     69  O   UNL A   1      47.942  30.117  35.374  1.00  0.00    -0.237 OA
ATOM     70  O   UNL A   1      48.964  28.164  36.475  1.00  0.00    -0.744 OA
ENDBRANCH  63  67
ENDBRANCH  37  60
ENDBRANCH  11  12
ENDBRANCH   4   6
ENDBRANCH   3   4
ENDBRANCH   2   3
ENDBRANCH   1   2
BRANCH   1  71
ATOM     71  O   UNL A   1      31.032  27.404  24.802  1.00  0.00    -0.374 OA
BRANCH  71  72
ATOM     72  C   UNL A   1      30.618  27.946  23.545  1.00  0.00     0.202 C 
BRANCH  72  73
ATOM     73  C   UNL A   1      31.290  27.156  22.425  1.00  0.00     0.261 C 
BRANCH  73  74
ATOM     74  O   UNL A   1      32.501  26.567  22.935  1.00  0.00    -0.460 OA
BRANCH  74  75
ATOM     75  C   UNL A   1      32.768  25.290  22.541  1.00  0.00     0.350 C 
ATOM     76  O   UNL A   1      33.653  24.948  21.774  1.00  0.00    -0.248 OA
BRANCH  75  77
ATOM     77  C   UNL A   1      31.846  24.289  23.226  1.00  0.00     0.319 C 
ATOM     78  C   UNL A   1      32.000  22.891  22.665  1.00  0.00     0.121 C 
ATOM     79  O   UNL A   1      32.064  24.202  24.635  1.00  0.00    -0.380 OA
ATOM     80  C   UNL A   1      32.481  22.198  23.884  1.00  0.00     0.091 C 
ATOM     81  N   UNL A   1      32.499  22.901  24.966  1.00  0.00    -0.090 NA
BRANCH  80  82
ATOM     82  C   UNL A   1      32.779  20.760  23.891  1.00  0.00    -0.001 A 
ATOM     83  C   UNL A   1      33.805  20.334  24.736  1.00  0.00     0.011 A 
ATOM     84  C   UNL A   1      32.139  19.857  23.042  1.00  0.00     0.011 A 
ATOM     85  C   UNL A   1      34.197  18.996  24.733  1.00  0.00     0.014 A 
ATOM     86  C   UNL A   1      32.543  18.515  23.033  1.00  0.00     0.014 A 
ATOM     87  C   UNL A   1      33.581  18.074  23.873  1.00  0.00     0.056 A 
BRANCH  87  88
ATOM     88  C   UNL A   1      34.066  16.644  23.854  1.00  0.00     0.416 C 
ATOM     89  F   UNL A   1      35.153  16.457  24.656  1.00  0.00    -0.166 F 
ATOM     90  F   UNL A   1      33.122  15.770  24.304  1.00  0.00    -0.166 F 
ATOM     91  F   UNL A   1      34.432  16.201  22.621  1.00  0.00    -0.166 F 
ENDBRANCH  87  88
ENDBRANCH  80  82
ENDBRANCH  75  77
ENDBRANCH  74  75
ENDBRANCH  73  74
ENDBRANCH  72  73
ENDBRANCH  71  72
ENDBRANCH   1  71
TORSDOF 19
ENDMDL
MODEL 3
REMARK VINA RESULT:     -11.3      5.842     10.629
REMARK SMILES O=C(OCCOCCOC(=O)[C@H]1CC(c2ccc(C(F)(F)F)cc2)=NO1)c1ccc(-c2c3nc(c(-c4cc(S(=O)(=O)[O-])ccc4F)c4ccc([nH]4)c(-c4cc(S(=O)(=O)[O-])ccc4F)c4nc(c(-c5cc(S(=O)(=O)[O-])ccc5F)c5ccc2[nH]5)C=C4)C=C3)cc1
REMARK SMILES IDX 5 1 4 2 3 3 2 4 1 5 27 6 28 7 89 8 29 9 88 10 30 11 31 12
REMARK SMILES IDX 32 13 82 14 33 15 87 16 81 17 83 18 34 19 86 20 80 21 79 22
REMARK SMILES IDX 35 24 67 25 47 26 66 27 48 28 51 29 65 30 84 31 49 32 50 33
REMARK SMILES IDX 64 35 85 36 52 37 36 38 37 39 45 40 38 41 44 42 46 43 43 44
REMARK SMILES IDX 39 45 40 46 41 47 42 48 68 49 69 50 77 51 70 52 76 53 78 54
REMARK SMILES IDX 75 55 71 56 72 57 73 58 74 59 53 60 54 61 62 62 55 63 61 64
REMARK SMILES IDX 63 65 60 66 56 67 57 68 58 69 59 70 6 71 7 72 8 73 9 74
REMARK SMILES IDX 10 75 11 76 12 77 13 78 26 79 14 80 25 81 15 82 16 83 24 84
REMARK SMILES IDX 17 85 23 86 18 87 19 88 20 89 21 90 22 91
REMARK H PARENT 83 23 51 34
REMARK Flexibility Score: inf
ROOT
ATOM      1  C   UNL A   1      36.112  22.029  24.319  1.00  0.00     0.202 C 
ENDROOT
BRANCH   1   2
ATOM      2  C   UNL A   1      36.797  21.657  25.634  1.00  0.00     0.261 C 
BRANCH   2   3
ATOM      3  O   UNL A   1      38.126  21.176  25.376  1.00  0.00    -0.460 OA
BRANCH   3   4
ATOM      4  C   UNL A   1      39.191  21.220  26.212  1.00  0.00     0.338 C 
ATOM      5  O   UNL A   1      39.725  20.169  26.556  1.00  0.00    -0.246 OA
BRANCH   4   6
ATOM      6  C   UNL A   1      39.750  22.503  26.726  1.00  0.00     0.060 A 
ATOM      7  C   UNL A   1      40.776  22.573  27.667  1.00  0.00     0.016 A 
ATOM      8  C   UNL A   1      39.292  23.698  26.152  1.00  0.00     0.016 A 
ATOM      9  C   UNL A   1      41.297  23.781  28.089  1.00  0.00     0.010 A 
ATOM     10  C   UNL A   1      39.862  24.922  26.519  1.00  0.00     0.010 A 
ATOM     11  C   UNL A   1      40.873  24.958  27.487  1.00  0.00    -0.014 A 
BRANCH  11  12
ATOM     12  C   UNL A   1      41.534  26.205  27.899  1.00  0.00     0.031 A 
ATOM     13  C   UNL A   1      40.772  27.186  28.724  1.00  0.00     0.074 A 
ATOM     14  C   UNL A   1      42.841  26.363  27.613  1.00  0.00     0.049 A 
ATOM     15  N   UNL A   1      41.121  28.380  29.111  1.00  0.00    -0.248 NA
ATOM     16  C   UNL A   1      39.440  26.760  29.188  1.00  0.00     0.031 C 
ATOM     17  C   UNL A   1      43.678  25.370  26.927  1.00  0.00     0.029 A 
ATOM     18  N   UNL A   1      43.703  27.393  27.873  1.00  0.00    -0.354 N 
ATOM     19  C   UNL A   1      40.037  28.871  29.828  1.00  0.00     0.074 A 
ATOM     20  C   UNL A   1      39.027  27.837  29.841  1.00  0.00     0.031 C 
ATOM     21  C   UNL A   1      44.932  25.836  26.835  1.00  0.00     0.029 A 
ATOM     22  C   UNL A   1      44.965  27.195  27.358  1.00  0.00     0.049 A 
ATOM     23  H   UNL A   1      43.446  28.196  28.381  1.00  0.00     0.167 HD
ATOM     24  C   UNL A   1      39.908  30.094  30.392  1.00  0.00     0.034 A 
ATOM     25  C   UNL A   1      45.999  28.052  27.257  1.00  0.00     0.034 A 
ATOM     26  C   UNL A   1      40.951  31.087  30.338  1.00  0.00     0.049 A 
ATOM     27  C   UNL A   1      45.786  29.443  27.797  1.00  0.00     0.074 A 
ATOM     28  C   UNL A   1      40.943  32.379  30.827  1.00  0.00     0.029 A 
ATOM     29  N   UNL A   1      42.192  30.891  29.738  1.00  0.00    -0.354 N 
ATOM     30  N   UNL A   1      44.737  29.929  28.425  1.00  0.00    -0.248 NA
ATOM     31  C   UNL A   1      46.870  30.409  27.594  1.00  0.00     0.031 C 
ATOM     32  C   UNL A   1      42.153  32.984  30.465  1.00  0.00     0.029 A 
ATOM     33  C   UNL A   1      42.942  32.050  29.806  1.00  0.00     0.049 A 
ATOM     34  H   UNL A   1      42.492  30.048  29.328  1.00  0.00     0.167 HD
ATOM     35  C   UNL A   1      45.035  31.260  28.689  1.00  0.00     0.074 A 
ATOM     36  C   UNL A   1      46.378  31.487  28.187  1.00  0.00     0.031 C 
ATOM     37  C   UNL A   1      44.275  32.220  29.276  1.00  0.00     0.034 A 
BRANCH  24  38
ATOM     38  C   UNL A   1      38.568  30.441  30.985  1.00  0.00     0.023 A 
ATOM     39  C   UNL A   1      37.572  31.112  30.256  1.00  0.00     0.031 A 
ATOM     40  C   UNL A   1      38.315  30.146  32.336  1.00  0.00     0.131 A 
ATOM     41  C   UNL A   1      36.391  31.516  30.900  1.00  0.00     0.055 A 
ATOM     42  C   UNL A   1      37.113  30.493  32.954  1.00  0.00     0.041 A 
ATOM     43  F   UNL A   1      39.246  29.537  33.087  1.00  0.00    -0.206 F 
ATOM     44  C   UNL A   1      36.146  31.192  32.239  1.00  0.00     0.022 A 
BRANCH  41  45
ATOM     45  S   UNL A   1      35.222  32.575  30.003  1.00  0.00     0.124 S 
ATOM     46  O   UNL A   1      36.092  33.662  29.557  1.00  0.00    -0.237 OA
ATOM     47  O   UNL A   1      34.725  31.688  28.959  1.00  0.00    -0.237 OA
ATOM     48  O   UNL A   1      34.243  32.949  31.021  1.00  0.00    -0.744 OA
ENDBRANCH  41  45
ENDBRANCH  24  38
BRANCH  25  49
ATOM     49  C   UNL A   1      47.246  27.676  26.525  1.00  0.00     0.023 A 
ATOM     50  C   UNL A   1      47.381  27.892  25.144  1.00  0.00     0.031 A 
ATOM     51  C   UNL A   1      48.307  27.025  27.188  1.00  0.00     0.131 A 
ATOM     52  C   UNL A   1      48.520  27.420  24.467  1.00  0.00     0.055 A 
ATOM     53  C   UNL A   1      49.464  26.618  26.523  1.00  0.00     0.041 A 
ATOM     54  F   UNL A   1      48.234  26.771  28.504  1.00  0.00    -0.206 F 
ATOM     55  C   UNL A   1      49.569  26.800  25.149  1.00  0.00     0.022 A 
BRANCH  52  56
ATOM     56  S   UNL A   1      48.557  27.514  22.655  1.00  0.00     0.124 S 
ATOM     57  O   UNL A   1      47.321  28.235  22.368  1.00  0.00    -0.237 OA
ATOM     58  O   UNL A   1      49.797  28.247  22.417  1.00  0.00    -0.237 OA
ATOM     59  O   UNL A   1      48.572  26.113  22.242  1.00  0.00    -0.744 OA
ENDBRANCH  52  56
ENDBRANCH  25  49
BRANCH  37  60
ATOM     60  C   UNL A   1      44.902  33.580  29.399  1.00  0.00     0.023 A 
ATOM     61  C   UNL A   1      44.815  34.515  28.354  1.00  0.00     0.031 A 
ATOM     62  C   UNL A   1      45.591  33.941  30.567  1.00  0.00     0.131 A 
ATOM     63  C   UNL A   1      45.447  35.756  28.482  1.00  0.00     0.055 A 
ATOM     64  C   UNL A   1      46.170  35.199  30.711  1.00  0.00     0.041 A 
ATOM     65  F   UNL A   1      45.700  33.077  31.590  1.00  0.00    -0.206 F 
ATOM     66  C   UNL A   1      46.108  36.112  29.661  1.00  0.00     0.022 A 
BRANCH  63  67
ATOM     67  S   UNL A   1      45.447  36.881  27.061  1.00  0.00     0.124 S 
ATOM     68  O   UNL A   1      44.023  37.163  26.900  1.00  0.00    -0.237 OA
ATOM     69  O   UNL A   1      46.266  37.991  27.537  1.00  0.00    -0.237 OA
ATOM     70  O   UNL A   1      46.046  36.083  25.993  1.00  0.00    -0.744 OA
ENDBRANCH  63  67
ENDBRANCH  37  60
ENDBRANCH  11  12
ENDBRANCH   4   6
ENDBRANCH   3   4
ENDBRANCH   2   3
ENDBRANCH   1   2
BRANCH   1  71
ATOM     71  O   UNL A   1      35.035  22.949  24.447  1.00  0.00    -0.374 OA
BRANCH  71  72
ATOM     72  C   UNL A   1      35.295  24.111  25.239  1.00  0.00     0.202 C 
BRANCH  72  73
ATOM     73  C   UNL A   1      34.065  24.410  26.091  1.00  0.00     0.261 C 
BRANCH  73  74
ATOM     74  O   UNL A   1      32.921  23.770  25.496  1.00  0.00    -0.460 OA
BRANCH  74  75
ATOM     75  C   UNL A   1      31.763  23.805  26.214  1.00  0.00     0.350 C 
ATOM     76  O   UNL A   1      31.674  23.750  27.429  1.00  0.00    -0.248 OA
BRANCH  75  77
ATOM     77  C   UNL A   1      30.549  23.981  25.311  1.00  0.00     0.319 C 
ATOM     78  C   UNL A   1      29.984  25.385  25.378  1.00  0.00     0.121 C 
ATOM     79  O   UNL A   1      30.830  23.706  23.937  1.00  0.00    -0.380 OA
ATOM     80  C   UNL A   1      30.197  25.793  23.969  1.00  0.00     0.091 C 
ATOM     81  N   UNL A   1      30.639  24.878  23.173  1.00  0.00    -0.090 NA
BRANCH  80  82
ATOM     82  C   UNL A   1      29.792  27.116  23.476  1.00  0.00    -0.001 A 
ATOM     83  C   UNL A   1      28.439  27.440  23.579  1.00  0.00     0.011 A 
ATOM     84  C   UNL A   1      30.684  27.989  22.854  1.00  0.00     0.011 A 
ATOM     85  C   UNL A   1      27.970  28.644  23.058  1.00  0.00     0.014 A 
ATOM     86  C   UNL A   1      30.208  29.194  22.320  1.00  0.00     0.014 A 
ATOM     87  C   UNL A   1      28.846  29.529  22.410  1.00  0.00     0.056 A 
BRANCH  87  88
ATOM     88  C   UNL A   1      28.297  30.801  21.806  1.00  0.00     0.416 C 
ATOM     89  F   UNL A   1      27.787  30.601  20.558  1.00  0.00    -0.166 F 
ATOM     90  F   UNL A   1      27.277  31.326  22.541  1.00  0.00    -0.166 F 
ATOM     91  F   UNL A   1      29.218  31.793  21.678  1.00  0.00    -0.166 F 
ENDBRANCH  87  88
ENDBRANCH  80  82
ENDBRANCH  75  77
ENDBRANCH  74  75
ENDBRANCH  73  74
ENDBRANCH  72  73
ENDBRANCH  71  72
ENDBRANCH   1  71
TORSDOF 19
ENDMDL
