MODEL 1
REMARK VINA RESULT:     -11.8      0.000      0.000
REMARK SMILES CS(=O)(=O)c1ccc(/C=C(/C(=O)OCCOCCOC(=O)c2ccc(-c3c4nc(c(-c5cc(S(=O)(=O)[O-])ccc5F)c5ccc([nH]5)c(-c5cc(S(=O)(=O)[O-])ccc5F)c5nc(c(-c6cc(S(=O)(=O)[O-])ccc6F)c6ccc3[nH]6)C=C5)C=C4)cc2)c2ccccc2)cc1
REMARK SMILES IDX 17 1 16 2 15 3 14 4 13 5 11 6 12 7 10 8 9 9 8 10 5 11 6 12
REMARK SMILES IDX 92 13 7 14 91 15 2 16 1 17 3 18 4 19 85 20 86 21 90 22 87 23
REMARK SMILES IDX 89 24 88 25 18 26 19 27 20 28 21 29 22 30 23 31 84 32 24 33
REMARK SMILES IDX 83 34 25 35 26 36 27 37 77 38 28 39 82 40 76 41 78 42 29 43
REMARK SMILES IDX 81 44 75 45 74 46 30 48 62 49 42 50 61 51 43 52 46 53 60 54
REMARK SMILES IDX 79 55 44 56 45 57 59 59 80 60 47 61 31 62 32 63 40 64 33 65
REMARK SMILES IDX 39 66 41 67 38 68 34 69 35 70 36 71 37 72 63 73 64 74 72 75
REMARK SMILES IDX 65 76 71 77 73 78 70 79 66 80 67 81 68 82 69 83 48 84 49 85
REMARK SMILES IDX 57 86 50 87 56 88 58 89 55 90 51 91 52 92 53 93 54 94
REMARK H PARENT 78 47 46 58
REMARK Flexibility Score: inf
ROOT
ATOM      1  C   UNL A   1      36.542  21.364  24.621  1.00  0.00     0.202 C 
ENDROOT
BRANCH   1   2
ATOM      2  O   UNL A   1      35.188  21.721  24.360  1.00  0.00    -0.374 OA
BRANCH   2   3
ATOM      3  C   UNL A   1      34.710  22.945  24.921  1.00  0.00     0.202 C 
BRANCH   3   4
ATOM      4  C   UNL A   1      33.620  22.834  25.992  1.00  0.00     0.261 C 
BRANCH   4   5
ATOM      5  O   UNL A   1      32.323  23.160  25.456  1.00  0.00    -0.460 OA
BRANCH   5   6
ATOM      6  C   UNL A   1      31.580  23.999  26.222  1.00  0.00     0.338 C 
ATOM      7  O   UNL A   1      31.236  23.793  27.378  1.00  0.00    -0.246 OA
BRANCH   6   8
ATOM      8  C   UNL A   1      31.315  25.302  25.530  1.00  0.00     0.067 C 
ATOM      9  C   UNL A   1      30.471  25.356  24.471  1.00  0.00     0.024 C 
BRANCH   9  10
ATOM     10  C   UNL A   1      29.901  26.565  23.823  1.00  0.00    -0.025 A 
ATOM     11  C   UNL A   1      28.703  28.978  23.023  1.00  0.00     0.067 A 
ATOM     12  C   UNL A   1      30.082  28.818  22.906  1.00  0.00     0.021 A 
ATOM     13  C   UNL A   1      27.901  27.908  23.416  1.00  0.00     0.021 A 
ATOM     14  C   UNL A   1      30.668  27.606  23.279  1.00  0.00     0.009 A 
ATOM     15  C   UNL A   1      28.504  26.708  23.814  1.00  0.00     0.009 A 
BRANCH  11  16
ATOM     16  S   UNL A   1      27.999  30.575  22.704  1.00  0.00     0.175 S 
ATOM     17  C   UNL A   1      29.322  31.693  23.102  1.00  0.00     0.163 C 
ATOM     18  O   UNL A   1      26.939  30.799  23.678  1.00  0.00    -0.224 OA
ATOM     19  O   UNL A   1      27.740  30.663  21.287  1.00  0.00    -0.224 OA
ENDBRANCH  11  16
ENDBRANCH   9  10
BRANCH   8  20
ATOM     20  C   UNL A   1      31.949  26.493  26.127  1.00  0.00    -0.011 A 
ATOM     21  C   UNL A   1      33.286  26.797  25.815  1.00  0.00     0.009 A 
ATOM     22  C   UNL A   1      31.231  27.352  26.963  1.00  0.00     0.009 A 
ATOM     23  C   UNL A   1      33.883  27.955  26.310  1.00  0.00     0.001 A 
ATOM     24  C   UNL A   1      31.830  28.512  27.455  1.00  0.00     0.001 A 
ATOM     25  C   UNL A   1      33.152  28.815  27.124  1.00  0.00     0.000 A 
ENDBRANCH   8  20
ENDBRANCH   6   8
ENDBRANCH   5   6
ENDBRANCH   4   5
ENDBRANCH   3   4
ENDBRANCH   2   3
ENDBRANCH   1   2
BRANCH   1  26
ATOM     26  C   UNL A   1      37.269  22.079  25.767  1.00  0.00     0.261 C 
BRANCH  26  27
ATOM     27  O   UNL A   1      38.664  22.282  25.508  1.00  0.00    -0.460 OA
BRANCH  27  28
ATOM     28  C   UNL A   1      39.407  22.427  26.633  1.00  0.00     0.338 C 
ATOM     29  O   UNL A   1      40.108  21.574  27.159  1.00  0.00    -0.246 OA
BRANCH  28  30
ATOM     30  C   UNL A   1      39.413  23.835  27.068  1.00  0.00     0.060 A 
ATOM     31  C   UNL A   1      39.763  24.792  26.107  1.00  0.00     0.016 A 
ATOM     32  C   UNL A   1      39.157  24.213  28.389  1.00  0.00     0.016 A 
ATOM     33  C   UNL A   1      39.936  26.119  26.480  1.00  0.00     0.010 A 
ATOM     34  C   UNL A   1      39.336  25.550  28.762  1.00  0.00     0.010 A 
ATOM     35  C   UNL A   1      39.774  26.497  27.819  1.00  0.00    -0.014 A 
BRANCH  35  36
ATOM     36  C   UNL A   1      40.259  27.836  28.238  1.00  0.00     0.031 A 
ATOM     37  C   UNL A   1      41.717  28.167  28.049  1.00  0.00     0.074 A 
ATOM     38  C   UNL A   1      39.402  28.766  28.694  1.00  0.00     0.049 A 
ATOM     39  N   UNL A   1      42.353  29.285  28.283  1.00  0.00    -0.248 NA
ATOM     40  C   UNL A   1      42.568  27.089  27.524  1.00  0.00     0.031 C 
ATOM     41  C   UNL A   1      37.965  28.569  28.877  1.00  0.00     0.029 A 
ATOM     42  N   UNL A   1      39.614  30.067  29.071  1.00  0.00    -0.354 N 
ATOM     43  C   UNL A   1      43.678  29.047  27.931  1.00  0.00     0.074 A 
ATOM     44  C   UNL A   1      43.760  27.663  27.516  1.00  0.00     0.031 C 
ATOM     45  C   UNL A   1      37.422  29.713  29.330  1.00  0.00     0.029 A 
ATOM     46  C   UNL A   1      38.476  30.713  29.493  1.00  0.00     0.049 A 
ATOM     47  H   UNL A   1      40.499  30.498  29.044  1.00  0.00     0.167 HD
ATOM     48  C   UNL A   1      44.726  29.908  27.938  1.00  0.00     0.034 A 
ATOM     49  C   UNL A   1      38.308  31.965  29.964  1.00  0.00     0.034 A 
ATOM     50  C   UNL A   1      44.629  31.283  28.367  1.00  0.00     0.049 A 
ATOM     51  C   UNL A   1      39.504  32.885  30.028  1.00  0.00     0.074 A 
ATOM     52  C   UNL A   1      45.621  32.246  28.413  1.00  0.00     0.029 A 
ATOM     53  N   UNL A   1      43.469  31.888  28.834  1.00  0.00    -0.354 N 
ATOM     54  N   UNL A   1      40.749  32.653  29.680  1.00  0.00    -0.248 NA
ATOM     55  C   UNL A   1      39.264  34.244  30.532  1.00  0.00     0.031 C 
ATOM     56  C   UNL A   1      45.081  33.408  28.973  1.00  0.00     0.029 A 
ATOM     57  C   UNL A   1      43.729  33.201  29.200  1.00  0.00     0.049 A 
ATOM     58  H   UNL A   1      42.589  31.451  28.897  1.00  0.00     0.167 HD
ATOM     59  C   UNL A   1      41.433  33.848  29.892  1.00  0.00     0.074 A 
ATOM     60  C   UNL A   1      40.455  34.800  30.380  1.00  0.00     0.031 C 
ATOM     61  C   UNL A   1      42.747  34.136  29.698  1.00  0.00     0.034 A 
BRANCH  48  62
ATOM     62  C   UNL A   1      46.071  29.364  27.518  1.00  0.00     0.023 A 
ATOM     63  C   UNL A   1      46.350  29.020  26.182  1.00  0.00     0.031 A 
ATOM     64  C   UNL A   1      47.077  29.144  28.476  1.00  0.00     0.131 A 
ATOM     65  C   UNL A   1      47.571  28.411  25.856  1.00  0.00     0.055 A 
ATOM     66  C   UNL A   1      48.321  28.612  28.130  1.00  0.00     0.041 A 
ATOM     67  F   UNL A   1      46.862  29.427  29.770  1.00  0.00    -0.206 F 
ATOM     68  C   UNL A   1      48.569  28.228  26.816  1.00  0.00     0.022 A 
BRANCH  65  69
ATOM     69  S   UNL A   1      47.781  27.725  24.189  1.00  0.00     0.124 S 
ATOM     70  O   UNL A   1      46.941  28.618  23.395  1.00  0.00    -0.237 OA
ATOM     71  O   UNL A   1      49.219  27.843  23.977  1.00  0.00    -0.237 OA
ATOM     72  O   UNL A   1      47.278  26.358  24.315  1.00  0.00    -0.744 OA
ENDBRANCH  65  69
ENDBRANCH  48  62
BRANCH  49  73
ATOM     73  C   UNL A   1      36.969  32.421  30.436  1.00  0.00     0.023 A 
ATOM     74  C   UNL A   1      36.046  33.011  29.559  1.00  0.00     0.031 A 
ATOM     75  C   UNL A   1      36.618  32.326  31.795  1.00  0.00     0.131 A 
ATOM     76  C   UNL A   1      34.838  33.526  30.057  1.00  0.00     0.055 A 
ATOM     77  C   UNL A   1      35.394  32.791  32.276  1.00  0.00     0.041 A 
ATOM     78  F   UNL A   1      37.464  31.770  32.678  1.00  0.00    -0.206 F 
ATOM     79  C   UNL A   1      34.501  33.408  31.407  1.00  0.00     0.022 A 
BRANCH  76  80
ATOM     80  S   UNL A   1      33.747  34.433  28.926  1.00  0.00     0.124 S 
ATOM     81  O   UNL A   1      33.351  33.386  27.991  1.00  0.00    -0.237 OA
ATOM     82  O   UNL A   1      32.708  34.914  29.830  1.00  0.00    -0.237 OA
ATOM     83  O   UNL A   1      34.617  35.469  28.372  1.00  0.00    -0.744 OA
ENDBRANCH  76  80
ENDBRANCH  49  73
BRANCH  61  84
ATOM     84  C   UNL A   1      43.183  35.556  29.975  1.00  0.00     0.023 A 
ATOM     85  C   UNL A   1      43.117  36.558  28.989  1.00  0.00     0.031 A 
ATOM     86  C   UNL A   1      43.700  35.904  31.235  1.00  0.00     0.131 A 
ATOM     87  C   UNL A   1      43.627  37.837  29.258  1.00  0.00     0.055 A 
ATOM     88  C   UNL A   1      44.142  37.198  31.519  1.00  0.00     0.041 A 
ATOM     89  F   UNL A   1      43.788  34.989  32.215  1.00  0.00    -0.206 F 
ATOM     90  C   UNL A   1      44.125  38.168  30.521  1.00  0.00     0.022 A 
BRANCH  87  91
ATOM     91  S   UNL A   1      43.745  39.029  27.896  1.00  0.00     0.124 S 
ATOM     92  O   UNL A   1      42.916  38.403  26.871  1.00  0.00    -0.237 OA
ATOM     93  O   UNL A   1      43.205  40.244  28.497  1.00  0.00    -0.237 OA
ATOM     94  O   UNL A   1      45.176  39.069  27.597  1.00  0.00    -0.744 OA
ENDBRANCH  87  91
ENDBRANCH  61  84
ENDBRANCH  35  36
ENDBRANCH  28  30
ENDBRANCH  27  28
ENDBRANCH  26  27
ENDBRANCH   1  26
TORSDOF 20
ENDMDL
MODEL 2
REMARK VINA RESULT:     -11.6      1.934      2.255
REMARK SMILES CS(=O)(=O)c1ccc(/C=C(/C(=O)OCCOCCOC(=O)c2ccc(-c3c4nc(c(-c5cc(S(=O)(=O)[O-])ccc5F)c5ccc([nH]5)c(-c5cc(S(=O)(=O)[O-])ccc5F)c5nc(c(-c6cc(S(=O)(=O)[O-])ccc6F)c6ccc3[nH]6)C=C5)C=C4)cc2)c2ccccc2)cc1
REMARK SMILES IDX 17 1 16 2 15 3 14 4 13 5 11 6 12 7 10 8 9 9 8 10 5 11 6 12
REMARK SMILES IDX 92 13 7 14 91 15 2 16 1 17 3 18 4 19 85 20 86 21 90 22 87 23
REMARK SMILES IDX 89 24 88 25 18 26 19 27 20 28 21 29 22 30 23 31 84 32 24 33
REMARK SMILES IDX 83 34 25 35 26 36 27 37 77 38 28 39 82 40 76 41 78 42 29 43
REMARK SMILES IDX 81 44 75 45 74 46 30 48 62 49 42 50 61 51 43 52 46 53 60 54
REMARK SMILES IDX 79 55 44 56 45 57 59 59 80 60 47 61 31 62 32 63 40 64 33 65
REMARK SMILES IDX 39 66 41 67 38 68 34 69 35 70 36 71 37 72 63 73 64 74 72 75
REMARK SMILES IDX 65 76 71 77 73 78 70 79 66 80 67 81 68 82 69 83 48 84 49 85
REMARK SMILES IDX 57 86 50 87 56 88 58 89 55 90 51 91 52 92 53 93 54 94
REMARK H PARENT 78 47 46 58
REMARK Flexibility Score: inf
ROOT
ATOM      1  C   UNL A   1      36.834  21.896  24.349  1.00  0.00     0.202 C 
ENDROOT
BRANCH   1   2
ATOM      2  O   UNL A   1      35.565  22.544  24.352  1.00  0.00    -0.374 OA
BRANCH   2   3
ATOM      3  C   UNL A   1      35.374  23.613  25.280  1.00  0.00     0.202 C 
BRANCH   3   4
ATOM      4  C   UNL A   1      34.372  23.371  26.414  1.00  0.00     0.261 C 
BRANCH   4   5
ATOM      5  O   UNL A   1      33.038  23.182  25.903  1.00  0.00    -0.460 OA
BRANCH   5   6
ATOM      6  C   UNL A   1      32.077  23.908  26.526  1.00  0.00     0.338 C 
ATOM      7  O   UNL A   1      31.611  23.675  27.634  1.00  0.00    -0.246 OA
BRANCH   6   8
ATOM      8  C   UNL A   1      31.712  25.138  25.750  1.00  0.00     0.067 C 
ATOM      9  C   UNL A   1      30.923  25.046  24.652  1.00  0.00     0.024 C 
BRANCH   9  10
ATOM     10  C   UNL A   1      30.264  26.152  23.911  1.00  0.00    -0.025 A 
ATOM     11  C   UNL A   1      28.955  28.434  22.924  1.00  0.00     0.067 A 
ATOM     12  C   UNL A   1      30.306  28.238  22.647  1.00  0.00     0.021 A 
ATOM     13  C   UNL A   1      28.220  27.449  23.580  1.00  0.00     0.021 A 
ATOM     14  C   UNL A   1      30.944  27.087  23.117  1.00  0.00     0.009 A 
ATOM     15  C   UNL A   1      28.878  26.314  24.070  1.00  0.00     0.009 A 
BRANCH  11  16
ATOM     16  S   UNL A   1      28.205  29.976  22.464  1.00  0.00     0.175 S 
ATOM     17  C   UNL A   1      29.087  31.168  23.443  1.00  0.00     0.163 C 
ATOM     18  O   UNL A   1      26.828  29.962  22.939  1.00  0.00    -0.224 OA
ATOM     19  O   UNL A   1      28.512  30.212  21.074  1.00  0.00    -0.224 OA
ENDBRANCH  11  16
ENDBRANCH   9  10
BRANCH   8  20
ATOM     20  C   UNL A   1      32.186  26.419  26.308  1.00  0.00    -0.011 A 
ATOM     21  C   UNL A   1      33.485  26.867  26.011  1.00  0.00     0.009 A 
ATOM     22  C   UNL A   1      31.349  27.221  27.090  1.00  0.00     0.009 A 
ATOM     23  C   UNL A   1      33.928  28.107  26.467  1.00  0.00     0.001 A 
ATOM     24  C   UNL A   1      31.795  28.463  27.543  1.00  0.00     0.001 A 
ATOM     25  C   UNL A   1      33.080  28.907  27.227  1.00  0.00     0.000 A 
ENDBRANCH   8  20
ENDBRANCH   6   8
ENDBRANCH   5   6
ENDBRANCH   4   5
ENDBRANCH   3   4
ENDBRANCH   2   3
ENDBRANCH   1   2
BRANCH   1  26
ATOM     26  C   UNL A   1      37.636  21.874  25.656  1.00  0.00     0.261 C 
BRANCH  26  27
ATOM     27  O   UNL A   1      38.915  22.511  25.542  1.00  0.00    -0.460 OA
BRANCH  27  28
ATOM     28  C   UNL A   1      39.566  22.629  26.726  1.00  0.00     0.338 C 
ATOM     29  O   UNL A   1      40.197  21.755  27.302  1.00  0.00    -0.246 OA
BRANCH  28  30
ATOM     30  C   UNL A   1      39.576  24.035  27.168  1.00  0.00     0.060 A 
ATOM     31  C   UNL A   1      40.122  24.973  26.282  1.00  0.00     0.016 A 
ATOM     32  C   UNL A   1      39.136  24.425  28.436  1.00  0.00     0.016 A 
ATOM     33  C   UNL A   1      40.302  26.289  26.689  1.00  0.00     0.010 A 
ATOM     34  C   UNL A   1      39.322  25.751  28.844  1.00  0.00     0.010 A 
ATOM     35  C   UNL A   1      39.952  26.674  27.990  1.00  0.00    -0.014 A 
BRANCH  35  36
ATOM     36  C   UNL A   1      40.433  27.986  28.491  1.00  0.00     0.031 A 
ATOM     37  C   UNL A   1      41.918  28.230  28.564  1.00  0.00     0.074 A 
ATOM     38  C   UNL A   1      39.565  28.969  28.791  1.00  0.00     0.049 A 
ATOM     39  N   UNL A   1      42.567  29.310  28.910  1.00  0.00    -0.248 NA
ATOM     40  C   UNL A   1      42.783  27.099  28.196  1.00  0.00     0.031 C 
ATOM     41  C   UNL A   1      38.109  28.857  28.716  1.00  0.00     0.029 A 
ATOM     42  N   UNL A   1      39.783  30.257  29.203  1.00  0.00    -0.354 N 
ATOM     43  C   UNL A   1      43.917  28.993  28.798  1.00  0.00     0.074 A 
ATOM     44  C   UNL A   1      43.990  27.603  28.401  1.00  0.00     0.031 C 
ATOM     45  C   UNL A   1      37.563  30.034  29.068  1.00  0.00     0.029 A 
ATOM     46  C   UNL A   1      38.628  30.972  29.418  1.00  0.00     0.049 A 
ATOM     47  H   UNL A   1      40.683  30.636  29.334  1.00  0.00     0.167 HD
ATOM     48  C   UNL A   1      44.996  29.791  28.993  1.00  0.00     0.034 A 
ATOM     49  C   UNL A   1      38.454  32.235  29.854  1.00  0.00     0.034 A 
ATOM     50  C   UNL A   1      44.906  31.173  29.401  1.00  0.00     0.049 A 
ATOM     51  C   UNL A   1      39.671  33.085  30.132  1.00  0.00     0.074 A 
ATOM     52  C   UNL A   1      45.929  32.076  29.625  1.00  0.00     0.029 A 
ATOM     53  N   UNL A   1      43.719  31.848  29.656  1.00  0.00    -0.354 N 
ATOM     54  N   UNL A   1      40.943  32.778  30.009  1.00  0.00    -0.248 NA
ATOM     55  C   UNL A   1      39.427  34.459  30.589  1.00  0.00     0.031 C 
ATOM     56  C   UNL A   1      45.368  33.272  30.083  1.00  0.00     0.029 A 
ATOM     57  C   UNL A   1      43.987  33.146  30.066  1.00  0.00     0.049 A 
ATOM     58  H   UNL A   1      42.818  31.464  29.562  1.00  0.00     0.167 HD
ATOM     59  C   UNL A   1      41.647  33.932  30.342  1.00  0.00     0.074 A 
ATOM     60  C   UNL A   1      40.657  34.944  30.651  1.00  0.00     0.031 C 
ATOM     61  C   UNL A   1      42.989  34.141  30.385  1.00  0.00     0.034 A 
BRANCH  48  62
ATOM     62  C   UNL A   1      46.360  29.165  28.816  1.00  0.00     0.023 A 
ATOM     63  C   UNL A   1      46.948  29.010  27.548  1.00  0.00     0.031 A 
ATOM     64  C   UNL A   1      47.065  28.677  29.931  1.00  0.00     0.131 A 
ATOM     65  C   UNL A   1      48.163  28.321  27.418  1.00  0.00     0.055 A 
ATOM     66  C   UNL A   1      48.313  28.064  29.803  1.00  0.00     0.041 A 
ATOM     67  F   UNL A   1      46.545  28.773  31.164  1.00  0.00    -0.206 F 
ATOM     68  C   UNL A   1      48.863  27.869  28.540  1.00  0.00     0.022 A 
BRANCH  65  69
ATOM     69  S   UNL A   1      48.745  27.891  25.754  1.00  0.00     0.124 S 
ATOM     70  O   UNL A   1      49.060  26.473  25.909  1.00  0.00    -0.237 OA
ATOM     71  O   UNL A   1      47.587  28.202  24.924  1.00  0.00    -0.237 OA
ATOM     72  O   UNL A   1      49.904  28.761  25.561  1.00  0.00    -0.744 OA
ENDBRANCH  65  69
ENDBRANCH  48  62
BRANCH  49  73
ATOM     73  C   UNL A   1      37.082  32.773  30.083  1.00  0.00     0.023 A 
ATOM     74  C   UNL A   1      36.593  33.005  31.379  1.00  0.00     0.031 A 
ATOM     75  C   UNL A   1      36.215  33.009  29.001  1.00  0.00     0.131 A 
ATOM     76  C   UNL A   1      35.261  33.411  31.562  1.00  0.00     0.055 A 
ATOM     77  C   UNL A   1      34.909  33.463  29.186  1.00  0.00     0.041 A 
ATOM     78  F   UNL A   1      36.631  32.804  27.740  1.00  0.00    -0.206 F 
ATOM     79  C   UNL A   1      34.421  33.653  30.473  1.00  0.00     0.022 A 
BRANCH  76  80
ATOM     80  S   UNL A   1      34.615  33.535  33.252  1.00  0.00     0.124 S 
ATOM     81  O   UNL A   1      34.753  34.961  33.520  1.00  0.00    -0.237 OA
ATOM     82  O   UNL A   1      33.252  33.040  33.091  1.00  0.00    -0.237 OA
ATOM     83  O   UNL A   1      35.503  32.665  34.021  1.00  0.00    -0.744 OA
ENDBRANCH  76  80
ENDBRANCH  49  73
BRANCH  61  84
ATOM     84  C   UNL A   1      43.453  35.536  30.738  1.00  0.00     0.023 A 
ATOM     85  C   UNL A   1      43.475  35.996  32.067  1.00  0.00     0.031 A 
ATOM     86  C   UNL A   1      43.850  36.426  29.725  1.00  0.00     0.131 A 
ATOM     87  C   UNL A   1      43.816  37.330  32.338  1.00  0.00     0.055 A 
ATOM     88  C   UNL A   1      44.255  37.732  30.008  1.00  0.00     0.041 A 
ATOM     89  F   UNL A   1      43.849  36.042  28.437  1.00  0.00    -0.206 F 
ATOM     90  C   UNL A   1      44.221  38.196  31.320  1.00  0.00     0.022 A 
BRANCH  87  91
ATOM     91  S   UNL A   1      43.604  37.954  34.028  1.00  0.00     0.124 S 
ATOM     92  O   UNL A   1      43.020  39.271  33.796  1.00  0.00    -0.237 OA
ATOM     93  O   UNL A   1      42.716  36.958  34.619  1.00  0.00    -0.237 OA
ATOM     94  O   UNL A   1      44.965  37.965  34.563  1.00  0.00    -0.744 OA
ENDBRANCH  87  91
ENDBRANCH  61  84
ENDBRANCH  35  36
ENDBRANCH  28  30
ENDBRANCH  27  28
ENDBRANCH  26  27
ENDBRANCH   1  26
TORSDOF 20
ENDMDL
MODEL 3
REMARK VINA RESULT:     -11.1      2.492      7.822
REMARK SMILES CS(=O)(=O)c1ccc(/C=C(/C(=O)OCCOCCOC(=O)c2ccc(-c3c4nc(c(-c5cc(S(=O)(=O)[O-])ccc5F)c5ccc([nH]5)c(-c5cc(S(=O)(=O)[O-])ccc5F)c5nc(c(-c6cc(S(=O)(=O)[O-])ccc6F)c6ccc3[nH]6)C=C5)C=C4)cc2)c2ccccc2)cc1
REMARK SMILES IDX 17 1 16 2 15 3 14 4 13 5 11 6 12 7 10 8 9 9 8 10 5 11 6 12
REMARK SMILES IDX 92 13 7 14 91 15 2 16 1 17 3 18 4 19 85 20 86 21 90 22 87 23
REMARK SMILES IDX 89 24 88 25 18 26 19 27 20 28 21 29 22 30 23 31 84 32 24 33
REMARK SMILES IDX 83 34 25 35 26 36 27 37 77 38 28 39 82 40 76 41 78 42 29 43
REMARK SMILES IDX 81 44 75 45 74 46 30 48 62 49 42 50 61 51 43 52 46 53 60 54
REMARK SMILES IDX 79 55 44 56 45 57 59 59 80 60 47 61 31 62 32 63 40 64 33 65
REMARK SMILES IDX 39 66 41 67 38 68 34 69 35 70 36 71 37 72 63 73 64 74 72 75
REMARK SMILES IDX 65 76 71 77 73 78 70 79 66 80 67 81 68 82 69 83 48 84 49 85
REMARK SMILES IDX 57 86 50 87 56 88 58 89 55 90 51 91 52 92 53 93 54 94
REMARK H PARENT 78 47 46 58
REMARK Flexibility Score: inf
ROOT
ATOM      1  C   UNL A   1      36.775  21.107  24.736  1.00  0.00     0.202 C 
ENDROOT
BRANCH   1   2
ATOM      2  O   UNL A   1      35.667  21.903  25.143  1.00  0.00    -0.374 OA
BRANCH   2   3
ATOM      3  C   UNL A   1      34.788  21.352  26.127  1.00  0.00     0.202 C 
BRANCH   3   4
ATOM      4  C   UNL A   1      33.332  21.830  26.096  1.00  0.00     0.261 C 
BRANCH   4   5
ATOM      5  O   UNL A   1      33.246  23.228  25.759  1.00  0.00    -0.460 OA
BRANCH   5   6
ATOM      6  C   UNL A   1      32.263  23.912  26.397  1.00  0.00     0.338 C 
ATOM      7  O   UNL A   1      31.820  23.655  27.508  1.00  0.00    -0.246 OA
BRANCH   6   8
ATOM      8  C   UNL A   1      31.839  25.130  25.631  1.00  0.00     0.067 C 
ATOM      9  C   UNL A   1      30.997  25.017  24.576  1.00  0.00     0.024 C 
BRANCH   9  10
ATOM     10  C   UNL A   1      30.283  26.106  23.861  1.00  0.00    -0.025 A 
ATOM     11  C   UNL A   1      28.901  28.366  22.924  1.00  0.00     0.067 A 
ATOM     12  C   UNL A   1      30.229  28.165  22.555  1.00  0.00     0.021 A 
ATOM     13  C   UNL A   1      28.217  27.394  23.652  1.00  0.00     0.021 A 
ATOM     14  C   UNL A   1      30.901  27.025  23.002  1.00  0.00     0.009 A 
ATOM     15  C   UNL A   1      28.911  26.269  24.117  1.00  0.00     0.009 A 
BRANCH  11  16
ATOM     16  S   UNL A   1      28.116  29.896  22.488  1.00  0.00     0.175 S 
ATOM     17  C   UNL A   1      29.195  31.124  23.186  1.00  0.00     0.163 C 
ATOM     18  O   UNL A   1      26.852  29.973  23.209  1.00  0.00    -0.224 OA
ATOM     19  O   UNL A   1      28.161  30.016  21.051  1.00  0.00    -0.224 OA
ENDBRANCH  11  16
ENDBRANCH   9  10
BRANCH   8  20
ATOM     20  C   UNL A   1      32.323  26.423  26.153  1.00  0.00    -0.011 A 
ATOM     21  C   UNL A   1      31.471  27.213  26.944  1.00  0.00     0.009 A 
ATOM     22  C   UNL A   1      33.630  26.856  25.913  1.00  0.00     0.009 A 
ATOM     23  C   UNL A   1      31.930  28.402  27.507  1.00  0.00     0.001 A 
ATOM     24  C   UNL A   1      34.087  28.046  26.480  1.00  0.00     0.001 A 
ATOM     25  C   UNL A   1      33.240  28.814  27.281  1.00  0.00     0.000 A 
ENDBRANCH   8  20
ENDBRANCH   6   8
ENDBRANCH   5   6
ENDBRANCH   4   5
ENDBRANCH   3   4
ENDBRANCH   2   3
ENDBRANCH   1   2
BRANCH   1  26
ATOM     26  C   UNL A   1      38.119  21.324  25.442  1.00  0.00     0.261 C 
BRANCH  26  27
ATOM     27  O   UNL A   1      38.248  22.630  26.018  1.00  0.00    -0.460 OA
BRANCH  27  28
ATOM     28  C   UNL A   1      39.475  22.871  26.542  1.00  0.00     0.338 C 
ATOM     29  O   UNL A   1      40.444  22.127  26.502  1.00  0.00    -0.246 OA
BRANCH  28  30
ATOM     30  C   UNL A   1      39.562  24.259  27.029  1.00  0.00     0.060 A 
ATOM     31  C   UNL A   1      40.066  25.213  26.136  1.00  0.00     0.016 A 
ATOM     32  C   UNL A   1      39.233  24.616  28.340  1.00  0.00     0.016 A 
ATOM     33  C   UNL A   1      40.318  26.508  26.571  1.00  0.00     0.010 A 
ATOM     34  C   UNL A   1      39.490  25.921  28.777  1.00  0.00     0.010 A 
ATOM     35  C   UNL A   1      40.080  26.856  27.908  1.00  0.00    -0.014 A 
BRANCH  35  36
ATOM     36  C   UNL A   1      40.638  28.135  28.414  1.00  0.00     0.031 A 
ATOM     37  C   UNL A   1      39.694  29.152  28.999  1.00  0.00     0.074 A 
ATOM     38  C   UNL A   1      41.966  28.346  28.433  1.00  0.00     0.049 A 
ATOM     39  N   UNL A   1      39.955  30.306  29.554  1.00  0.00    -0.248 NA
ATOM     40  C   UNL A   1      38.262  28.818  28.950  1.00  0.00     0.031 C 
ATOM     41  C   UNL A   1      42.974  27.413  27.932  1.00  0.00     0.029 A 
ATOM     42  N   UNL A   1      42.694  29.407  28.906  1.00  0.00    -0.354 N 
ATOM     43  C   UNL A   1      38.723  30.836  29.924  1.00  0.00     0.074 A 
ATOM     44  C   UNL A   1      37.713  29.897  29.484  1.00  0.00     0.031 C 
ATOM     45  C   UNL A   1      44.194  27.944  28.128  1.00  0.00     0.029 A 
ATOM     46  C   UNL A   1      44.052  29.262  28.744  1.00  0.00     0.049 A 
ATOM     47  H   UNL A   1      42.283  30.200  29.322  1.00  0.00     0.167 HD
ATOM     48  C   UNL A   1      38.458  31.991  30.584  1.00  0.00     0.034 A 
ATOM     49  C   UNL A   1      45.060  30.102  29.049  1.00  0.00     0.034 A 
ATOM     50  C   UNL A   1      39.477  32.922  31.006  1.00  0.00     0.049 A 
ATOM     51  C   UNL A   1      44.737  31.415  29.722  1.00  0.00     0.074 A 
ATOM     52  C   UNL A   1      39.326  34.119  31.683  1.00  0.00     0.029 A 
ATOM     53  N   UNL A   1      40.839  32.765  30.780  1.00  0.00    -0.354 N 
ATOM     54  N   UNL A   1      43.568  31.898  30.079  1.00  0.00    -0.248 NA
ATOM     55  C   UNL A   1      45.873  32.286  30.050  1.00  0.00     0.031 C 
ATOM     56  C   UNL A   1      40.584  34.718  31.804  1.00  0.00     0.029 A 
ATOM     57  C   UNL A   1      41.535  33.857  31.277  1.00  0.00     0.049 A 
ATOM     58  H   UNL A   1      41.251  31.991  30.333  1.00  0.00     0.167 HD
ATOM     59  C   UNL A   1      43.834  33.115  30.704  1.00  0.00     0.074 A 
ATOM     60  C   UNL A   1      45.274  33.279  30.689  1.00  0.00     0.031 C 
ATOM     61  C   UNL A   1      42.970  34.014  31.243  1.00  0.00     0.034 A 
BRANCH  48  62
ATOM     62  C   UNL A   1      37.006  32.326  30.838  1.00  0.00     0.023 A 
ATOM     63  C   UNL A   1      36.169  32.821  29.821  1.00  0.00     0.031 A 
ATOM     64  C   UNL A   1      36.463  32.190  32.127  1.00  0.00     0.131 A 
ATOM     65  C   UNL A   1      34.861  33.227  30.127  1.00  0.00     0.055 A 
ATOM     66  C   UNL A   1      35.136  32.520  32.407  1.00  0.00     0.041 A 
ATOM     67  F   UNL A   1      37.219  31.748  33.145  1.00  0.00    -0.206 F 
ATOM     68  C   UNL A   1      34.330  33.057  31.407  1.00  0.00     0.022 A 
BRANCH  65  69
ATOM     69  S   UNL A   1      33.912  34.120  28.864  1.00  0.00     0.124 S 
ATOM     70  O   UNL A   1      34.891  35.098  28.396  1.00  0.00    -0.237 OA
ATOM     71  O   UNL A   1      33.564  33.062  27.923  1.00  0.00    -0.237 OA
ATOM     72  O   UNL A   1      32.790  34.683  29.613  1.00  0.00    -0.744 OA
ENDBRANCH  65  69
ENDBRANCH  48  62
BRANCH  49  73
ATOM     73  C   UNL A   1      46.468  29.750  28.705  1.00  0.00     0.023 A 
ATOM     74  C   UNL A   1      47.291  29.057  29.607  1.00  0.00     0.031 A 
ATOM     75  C   UNL A   1      47.030  30.157  27.481  1.00  0.00     0.131 A 
ATOM     76  C   UNL A   1      48.642  28.835  29.293  1.00  0.00     0.055 A 
ATOM     77  C   UNL A   1      48.359  29.887  27.152  1.00  0.00     0.041 A 
ATOM     78  F   UNL A   1      46.287  30.823  26.581  1.00  0.00    -0.206 F 
ATOM     79  C   UNL A   1      49.177  29.235  28.067  1.00  0.00     0.022 A 
BRANCH  76  80
ATOM     80  S   UNL A   1      49.716  28.091  30.552  1.00  0.00     0.124 S 
ATOM     81  O   UNL A   1      50.866  28.986  30.528  1.00  0.00    -0.237 OA
ATOM     82  O   UNL A   1      48.876  28.156  31.743  1.00  0.00    -0.237 OA
ATOM     83  O   UNL A   1      49.960  26.745  30.038  1.00  0.00    -0.744 OA
ENDBRANCH  76  80
ENDBRANCH  49  73
BRANCH  61  84
ATOM     84  C   UNL A   1      43.575  35.232  31.903  1.00  0.00     0.023 A 
ATOM     85  C   UNL A   1      43.940  35.235  33.261  1.00  0.00     0.031 A 
ATOM     86  C   UNL A   1      43.761  36.415  31.167  1.00  0.00     0.131 A 
ATOM     87  C   UNL A   1      44.403  36.419  33.857  1.00  0.00     0.055 A 
ATOM     88  C   UNL A   1      44.288  37.570  31.749  1.00  0.00     0.041 A 
ATOM     89  F   UNL A   1      43.430  36.471  29.866  1.00  0.00    -0.206 F 
ATOM     90  C   UNL A   1      44.594  37.581  33.106  1.00  0.00     0.022 A 
BRANCH  87  91
ATOM     91  S   UNL A   1      44.637  36.452  35.656  1.00  0.00     0.124 S 
ATOM     92  O   UNL A   1      46.076  36.245  35.780  1.00  0.00    -0.237 OA
ATOM     93  O   UNL A   1      44.151  37.781  36.009  1.00  0.00    -0.237 OA
ATOM     94  O   UNL A   1      43.809  35.344  36.130  1.00  0.00    -0.744 OA
ENDBRANCH  87  91
ENDBRANCH  61  84
ENDBRANCH  35  36
ENDBRANCH  28  30
ENDBRANCH  27  28
ENDBRANCH  26  27
ENDBRANCH   1  26
TORSDOF 20
ENDMDL
