MODEL 1
REMARK VINA RESULT:     -10.8      0.000      0.000
REMARK SMILES COc1cccc(CC2(CO)CCN(c3nc(C)ccc3C(=O)OCCOCCOC(=O)c3ccc(-c4c5nc(c(-c6cc(S(=O)(=O)[O-])ccc6F)c6ccc([nH]6)c(-c6cc(S(=O)(=O)[O-])ccc6F)c6nc(c(-c7cc(S(=O)(=O)[O-])ccc7F)c7ccc4[nH]7)C=C6)C=C5)cc3)CC2)c1
REMARK SMILES IDX 26 1 25 2 24 3 22 4 23 5 21 6 15 7 16 8 17 9 20 10 18 11
REMARK SMILES IDX 19 12 14 13 9 14 12 15 97 16 13 17 96 18 8 19 7 20 3 21 4 22
REMARK SMILES IDX 98 23 5 24 6 25 2 26 1 27 10 28 11 29 27 31 28 32 29 33
REMARK SMILES IDX 30 34 31 35 32 36 33 37 34 38 95 39 35 40 94 41 36 42 37 43
REMARK SMILES IDX 38 44 88 45 39 46 93 47 87 48 89 49 40 50 92 51 86 52 85 53
REMARK SMILES IDX 41 55 73 56 53 57 72 58 54 59 57 60 71 61 90 62 55 63 56 64
REMARK SMILES IDX 70 66 91 67 58 68 42 69 43 70 51 71 44 72 50 73 52 74 49 75
REMARK SMILES IDX 45 76 46 77 47 78 48 79 74 80 75 81 83 82 76 83 82 84 84 85
REMARK SMILES IDX 81 86 77 87 78 88 79 89 80 90 59 91 60 92 68 93 61 94 67 95
REMARK SMILES IDX 69 96 66 97 62 98 63 99 64 100 65 101
REMARK H PARENT 11 30 89 54 57 65
REMARK Flexibility Score: inf
ROOT
ATOM      1  C   UNL A   1      39.415  22.453  26.642  1.00  0.00     0.202 C 
ENDROOT
BRANCH   1   2
ATOM      2  C   UNL A   1      38.390  23.530  26.269  1.00  0.00     0.261 C 
BRANCH   2   3
ATOM      3  O   UNL A   1      37.100  22.923  26.052  1.00  0.00    -0.460 OA
BRANCH   3   4
ATOM      4  C   UNL A   1      36.726  22.791  24.756  1.00  0.00     0.341 C 
ATOM      5  O   UNL A   1      37.092  23.480  23.816  1.00  0.00    -0.246 OA
BRANCH   4   6
ATOM      6  C   UNL A   1      35.763  21.686  24.632  1.00  0.00     0.102 A 
ATOM      7  C   UNL A   1      34.390  21.903  24.464  1.00  0.00     0.143 A 
ATOM      8  N   UNL A   1      33.513  20.880  24.632  1.00  0.00    -0.235 NA
ATOM      9  C   UNL A   1      33.975  19.637  24.910  1.00  0.00     0.040 A 
ATOM     10  C   UNL A   1      36.235  20.387  24.865  1.00  0.00     0.021 A 
ATOM     11  C   UNL A   1      32.938  18.593  25.189  1.00  0.00     0.067 C 
ATOM     12  C   UNL A   1      35.327  19.345  25.001  1.00  0.00     0.024 A 
BRANCH   7  13
ATOM     13  N   UNL A   1      33.793  23.096  24.097  1.00  0.00    -0.356 N 
ATOM     14  C   UNL A   1      32.631  25.621  23.176  1.00  0.00     0.001 C 
ATOM     15  C   UNL A   1      32.789  24.368  22.267  1.00  0.00     0.031 C 
ATOM     16  C   UNL A   1      33.519  25.493  24.439  1.00  0.00     0.031 C 
ATOM     17  C   UNL A   1      32.878  23.013  22.974  1.00  0.00     0.119 C 
ATOM     18  C   UNL A   1      33.524  24.112  25.092  1.00  0.00     0.119 C 
BRANCH  14  19
ATOM     19  C   UNL A   1      31.138  25.957  23.510  1.00  0.00     0.045 C 
BRANCH  19  20
ATOM     20  C   UNL A   1      30.678  27.392  23.549  1.00  0.00    -0.044 A 
ATOM     21  C   UNL A   1      29.216  29.168  22.777  1.00  0.00     0.119 A 
ATOM     22  C   UNL A   1      29.864  30.079  23.603  1.00  0.00     0.046 A 
ATOM     23  C   UNL A   1      29.625  27.834  22.731  1.00  0.00     0.050 A 
ATOM     24  C   UNL A   1      30.887  29.644  24.440  1.00  0.00     0.004 A 
ATOM     25  C   UNL A   1      31.274  28.304  24.430  1.00  0.00     0.004 A 
BRANCH  21  26
ATOM     26  O   UNL A   1      28.236  29.652  21.955  1.00  0.00    -0.497 OA
ATOM     27  C   UNL A   1      28.669  30.820  21.261  1.00  0.00     0.278 C 
ENDBRANCH  21  26
ENDBRANCH  19  20
ENDBRANCH  14  19
BRANCH  14  28
ATOM     28  C   UNL A   1      33.172  26.854  22.383  1.00  0.00     0.163 C 
BRANCH  28  29
ATOM     29  O   UNL A   1      33.129  26.650  20.975  1.00  0.00    -0.396 OA
ATOM     30  H   UNL A   1      32.989  25.709  20.789  1.00  0.00     0.210 HD
ENDBRANCH  28  29
ENDBRANCH  14  28
ENDBRANCH   7  13
ENDBRANCH   4   6
ENDBRANCH   3   4
ENDBRANCH   2   3
ENDBRANCH   1   2
BRANCH   1  31
ATOM     31  O   UNL A   1      39.568  21.387  25.695  1.00  0.00    -0.374 OA
BRANCH  31  32
ATOM     32  C   UNL A   1      39.811  20.091  26.225  1.00  0.00     0.202 C 
BRANCH  32  33
ATOM     33  C   UNL A   1      41.270  19.712  26.494  1.00  0.00     0.261 C 
BRANCH  33  34
ATOM     34  O   UNL A   1      42.121  19.966  25.376  1.00  0.00    -0.460 OA
BRANCH  34  35
ATOM     35  C   UNL A   1      43.320  20.496  25.729  1.00  0.00     0.338 C 
ATOM     36  O   UNL A   1      44.423  20.008  25.545  1.00  0.00    -0.246 OA
BRANCH  35  37
ATOM     37  C   UNL A   1      43.114  21.857  26.251  1.00  0.00     0.060 A 
ATOM     38  C   UNL A   1      42.961  22.889  25.318  1.00  0.00     0.016 A 
ATOM     39  C   UNL A   1      43.107  22.124  27.623  1.00  0.00     0.016 A 
ATOM     40  C   UNL A   1      42.853  24.206  25.754  1.00  0.00     0.010 A 
ATOM     41  C   UNL A   1      43.006  23.446  28.058  1.00  0.00     0.010 A 
ATOM     42  C   UNL A   1      42.915  24.493  27.123  1.00  0.00    -0.014 A 
BRANCH  42  43
ATOM     43  C   UNL A   1      43.068  25.898  27.564  1.00  0.00     0.031 A 
ATOM     44  C   UNL A   1      44.439  26.512  27.525  1.00  0.00     0.074 A 
ATOM     45  C   UNL A   1      42.001  26.614  27.958  1.00  0.00     0.049 A 
ATOM     46  N   UNL A   1      44.824  27.711  27.875  1.00  0.00    -0.248 NA
ATOM     47  C   UNL A   1      45.524  25.650  27.028  1.00  0.00     0.031 C 
ATOM     48  C   UNL A   1      40.624  26.125  27.994  1.00  0.00     0.029 A 
ATOM     49  N   UNL A   1      41.914  27.906  28.406  1.00  0.00    -0.354 N 
ATOM     50  C   UNL A   1      46.192  27.754  27.633  1.00  0.00     0.074 A 
ATOM     51  C   UNL A   1      46.577  26.444  27.152  1.00  0.00     0.031 C 
ATOM     52  C   UNL A   1      39.827  27.106  28.450  1.00  0.00     0.029 A 
ATOM     53  C   UNL A   1      40.641  28.279  28.766  1.00  0.00     0.049 A 
ATOM     54  H   UNL A   1      42.688  28.510  28.465  1.00  0.00     0.167 HD
ATOM     55  C   UNL A   1      47.047  28.795  27.788  1.00  0.00     0.034 A 
ATOM     56  C   UNL A   1      40.193  29.430  29.306  1.00  0.00     0.034 A 
ATOM     57  C   UNL A   1      46.647  30.084  28.294  1.00  0.00     0.049 A 
ATOM     58  C   UNL A   1      41.179  30.546  29.556  1.00  0.00     0.074 A 
ATOM     59  C   UNL A   1      47.423  31.211  28.498  1.00  0.00     0.029 A 
ATOM     60  N   UNL A   1      45.357  30.413  28.691  1.00  0.00    -0.354 N 
ATOM     61  N   UNL A   1      42.470  30.579  29.316  1.00  0.00    -0.248 NA
ATOM     62  C   UNL A   1      40.644  31.782  30.140  1.00  0.00     0.031 C 
ATOM     63  C   UNL A   1      46.617  32.198  29.077  1.00  0.00     0.029 A 
ATOM     64  C   UNL A   1      45.321  31.714  29.168  1.00  0.00     0.049 A 
ATOM     65  H   UNL A   1      44.581  29.809  28.641  1.00  0.00     0.167 HD
ATOM     66  C   UNL A   1      42.894  31.850  29.692  1.00  0.00     0.074 A 
ATOM     67  C   UNL A   1      41.720  32.555  30.165  1.00  0.00     0.031 C 
ATOM     68  C   UNL A   1      44.140  32.391  29.647  1.00  0.00     0.034 A 
BRANCH  55  69
ATOM     69  C   UNL A   1      48.498  28.546  27.455  1.00  0.00     0.023 A 
ATOM     70  C   UNL A   1      48.962  28.549  26.127  1.00  0.00     0.031 A 
ATOM     71  C   UNL A   1      49.420  28.249  28.473  1.00  0.00     0.131 A 
ATOM     72  C   UNL A   1      50.289  28.187  25.848  1.00  0.00     0.055 A 
ATOM     73  C   UNL A   1      50.758  27.965  28.196  1.00  0.00     0.041 A 
ATOM     74  F   UNL A   1      49.029  28.207  29.758  1.00  0.00    -0.206 F 
ATOM     75  C   UNL A   1      51.197  27.918  26.875  1.00  0.00     0.022 A 
BRANCH  72  76
ATOM     76  S   UNL A   1      50.774  27.930  24.119  1.00  0.00     0.124 S 
ATOM     77  O   UNL A   1      49.474  27.812  23.463  1.00  0.00    -0.237 OA
ATOM     78  O   UNL A   1      51.534  29.138  23.821  1.00  0.00    -0.237 OA
ATOM     79  O   UNL A   1      51.556  26.696  24.162  1.00  0.00    -0.744 OA
ENDBRANCH  72  76
ENDBRANCH  55  69
BRANCH  56  80
ATOM     80  C   UNL A   1      38.760  29.580  29.683  1.00  0.00     0.023 A 
ATOM     81  C   UNL A   1      37.850  30.238  28.840  1.00  0.00     0.031 A 
ATOM     82  C   UNL A   1      38.288  29.108  30.922  1.00  0.00     0.131 A 
ATOM     83  C   UNL A   1      36.528  30.444  29.263  1.00  0.00     0.055 A 
ATOM     84  C   UNL A   1      36.960  29.274  31.318  1.00  0.00     0.041 A 
ATOM     85  F   UNL A   1      39.116  28.471  31.765  1.00  0.00    -0.206 F 
ATOM     86  C   UNL A   1      36.074  29.956  30.491  1.00  0.00     0.022 A 
BRANCH  83  87
ATOM     87  S   UNL A   1      35.423  31.428  28.214  1.00  0.00     0.124 S 
ATOM     88  O   UNL A   1      36.330  32.448  27.702  1.00  0.00    -0.237 OA
ATOM     89  O   UNL A   1      34.959  30.437  27.249  1.00  0.00    -0.237 OA
ATOM     90  O   UNL A   1      34.406  31.909  29.149  1.00  0.00    -0.744 OA
ENDBRANCH  83  87
ENDBRANCH  56  80
BRANCH  68  91
ATOM     91  C   UNL A   1      44.274  33.830  30.082  1.00  0.00     0.023 A 
ATOM     92  C   UNL A   1      44.075  34.895  29.188  1.00  0.00     0.031 A 
ATOM     93  C   UNL A   1      44.617  34.134  31.412  1.00  0.00     0.131 A 
ATOM     94  C   UNL A   1      44.271  36.215  29.619  1.00  0.00     0.055 A 
ATOM     95  C   UNL A   1      44.756  35.452  31.850  1.00  0.00     0.041 A 
ATOM     96  F   UNL A   1      44.820  33.155  32.307  1.00  0.00    -0.206 F 
ATOM     97  C   UNL A   1      44.595  36.500  30.949  1.00  0.00     0.022 A 
BRANCH  94  98
ATOM     98  S   UNL A   1      44.178  37.554  28.400  1.00  0.00     0.124 S 
ATOM     99  O   UNL A   1      45.230  38.455  28.859  1.00  0.00    -0.237 OA
ATOM    100  O   UNL A   1      44.441  36.854  27.146  1.00  0.00    -0.237 OA
ATOM    101  O   UNL A   1      42.816  38.063  28.551  1.00  0.00    -0.744 OA
ENDBRANCH  94  98
ENDBRANCH  68  91
ENDBRANCH  42  43
ENDBRANCH  35  37
ENDBRANCH  34  35
ENDBRANCH  33  34
ENDBRANCH  32  33
ENDBRANCH  31  32
ENDBRANCH   1  31
TORSDOF 23
ENDMDL
MODEL 2
REMARK VINA RESULT:     -10.6      1.714      2.005
REMARK SMILES COc1cccc(CC2(CO)CCN(c3nc(C)ccc3C(=O)OCCOCCOC(=O)c3ccc(-c4c5nc(c(-c6cc(S(=O)(=O)[O-])ccc6F)c6ccc([nH]6)c(-c6cc(S(=O)(=O)[O-])ccc6F)c6nc(c(-c7cc(S(=O)(=O)[O-])ccc7F)c7ccc4[nH]7)C=C6)C=C5)cc3)CC2)c1
REMARK SMILES IDX 26 1 25 2 24 3 22 4 23 5 21 6 15 7 16 8 17 9 20 10 18 11
REMARK SMILES IDX 19 12 14 13 9 14 12 15 97 16 13 17 96 18 8 19 7 20 3 21 4 22
REMARK SMILES IDX 98 23 5 24 6 25 2 26 1 27 10 28 11 29 27 31 28 32 29 33
REMARK SMILES IDX 30 34 31 35 32 36 33 37 34 38 95 39 35 40 94 41 36 42 37 43
REMARK SMILES IDX 38 44 88 45 39 46 93 47 87 48 89 49 40 50 92 51 86 52 85 53
REMARK SMILES IDX 41 55 73 56 53 57 72 58 54 59 57 60 71 61 90 62 55 63 56 64
REMARK SMILES IDX 70 66 91 67 58 68 42 69 43 70 51 71 44 72 50 73 52 74 49 75
REMARK SMILES IDX 45 76 46 77 47 78 48 79 74 80 75 81 83 82 76 83 82 84 84 85
REMARK SMILES IDX 81 86 77 87 78 88 79 89 80 90 59 91 60 92 68 93 61 94 67 95
REMARK SMILES IDX 69 96 66 97 62 98 63 99 64 100 65 101
REMARK H PARENT 11 30 89 54 57 65
REMARK Flexibility Score: inf
ROOT
ATOM      1  C   UNL A   1      39.881  22.131  26.858  1.00  0.00     0.202 C 
ENDROOT
BRANCH   1   2
ATOM      2  C   UNL A   1      38.874  23.088  26.209  1.00  0.00     0.261 C 
BRANCH   2   3
ATOM      3  O   UNL A   1      37.598  22.429  26.063  1.00  0.00    -0.460 OA
BRANCH   3   4
ATOM      4  C   UNL A   1      36.971  22.626  24.879  1.00  0.00     0.341 C 
ATOM      5  O   UNL A   1      37.144  23.556  24.106  1.00  0.00    -0.246 OA
BRANCH   4   6
ATOM      6  C   UNL A   1      35.996  21.548  24.654  1.00  0.00     0.102 A 
ATOM      7  C   UNL A   1      34.638  21.801  24.418  1.00  0.00     0.143 A 
ATOM      8  N   UNL A   1      33.734  20.791  24.493  1.00  0.00    -0.235 NA
ATOM      9  C   UNL A   1      34.155  19.528  24.745  1.00  0.00     0.040 A 
ATOM     10  C   UNL A   1      36.428  20.231  24.859  1.00  0.00     0.021 A 
ATOM     11  C   UNL A   1      33.085  18.496  24.920  1.00  0.00     0.067 C 
ATOM     12  C   UNL A   1      35.494  19.204  24.900  1.00  0.00     0.024 A 
BRANCH   7  13
ATOM     13  N   UNL A   1      34.087  23.020  24.067  1.00  0.00    -0.356 N 
ATOM     14  C   UNL A   1      33.011  25.594  23.176  1.00  0.00     0.001 C 
ATOM     15  C   UNL A   1      33.044  24.322  22.281  1.00  0.00     0.031 C 
ATOM     16  C   UNL A   1      33.966  25.433  24.385  1.00  0.00     0.031 C 
ATOM     17  C   UNL A   1      33.102  22.974  23.003  1.00  0.00     0.119 C 
ATOM     18  C   UNL A   1      33.936  24.064  25.060  1.00  0.00     0.119 C 
BRANCH  14  19
ATOM     19  C   UNL A   1      31.562  26.018  23.594  1.00  0.00     0.045 C 
BRANCH  19  20
ATOM     20  C   UNL A   1      31.280  27.442  23.998  1.00  0.00    -0.044 A 
ATOM     21  C   UNL A   1      30.088  29.533  23.688  1.00  0.00     0.119 A 
ATOM     22  C   UNL A   1      30.797  30.108  24.736  1.00  0.00     0.046 A 
ATOM     23  C   UNL A   1      30.334  28.213  23.303  1.00  0.00     0.050 A 
ATOM     24  C   UNL A   1      31.713  29.342  25.451  1.00  0.00     0.004 A 
ATOM     25  C   UNL A   1      31.933  28.010  25.099  1.00  0.00     0.004 A 
BRANCH  21  26
ATOM     26  O   UNL A   1      29.220  30.336  23.001  1.00  0.00    -0.497 OA
ATOM     27  C   UNL A   1      29.477  30.300  21.599  1.00  0.00     0.278 C 
ENDBRANCH  21  26
ENDBRANCH  19  20
ENDBRANCH  14  19
BRANCH  14  28
ATOM     28  C   UNL A   1      33.570  26.784  22.332  1.00  0.00     0.163 C 
BRANCH  28  29
ATOM     29  O   UNL A   1      33.248  26.663  20.951  1.00  0.00    -0.396 OA
ATOM     30  H   UNL A   1      32.562  27.308  20.721  1.00  0.00     0.210 HD
ENDBRANCH  28  29
ENDBRANCH  14  28
ENDBRANCH   7  13
ENDBRANCH   4   6
ENDBRANCH   3   4
ENDBRANCH   2   3
ENDBRANCH   1   2
BRANCH   1  31
ATOM     31  O   UNL A   1      40.327  21.046  26.033  1.00  0.00    -0.374 OA
BRANCH  31  32
ATOM     32  C   UNL A   1      40.630  19.825  26.693  1.00  0.00     0.202 C 
BRANCH  32  33
ATOM     33  C   UNL A   1      41.806  19.011  26.144  1.00  0.00     0.261 C 
BRANCH  33  34
ATOM     34  O   UNL A   1      42.449  19.647  25.039  1.00  0.00    -0.460 OA
BRANCH  34  35
ATOM     35  C   UNL A   1      43.695  20.095  25.333  1.00  0.00     0.338 C 
ATOM     36  O   UNL A   1      44.752  19.520  25.125  1.00  0.00    -0.246 OA
BRANCH  35  37
ATOM     37  C   UNL A   1      43.610  21.481  25.820  1.00  0.00     0.060 A 
ATOM     38  C   UNL A   1      43.470  22.494  24.865  1.00  0.00     0.016 A 
ATOM     39  C   UNL A   1      43.701  21.788  27.181  1.00  0.00     0.016 A 
ATOM     40  C   UNL A   1      43.473  23.827  25.262  1.00  0.00     0.010 A 
ATOM     41  C   UNL A   1      43.712  23.126  27.578  1.00  0.00     0.010 A 
ATOM     42  C   UNL A   1      43.635  24.149  26.615  1.00  0.00    -0.014 A 
BRANCH  42  43
ATOM     43  C   UNL A   1      43.905  25.552  27.000  1.00  0.00     0.031 A 
ATOM     44  C   UNL A   1      45.296  26.089  26.811  1.00  0.00     0.074 A 
ATOM     45  C   UNL A   1      42.922  26.335  27.476  1.00  0.00     0.049 A 
ATOM     46  N   UNL A   1      45.777  27.272  27.088  1.00  0.00    -0.248 NA
ATOM     47  C   UNL A   1      46.279  25.157  26.235  1.00  0.00     0.031 C 
ATOM     48  C   UNL A   1      41.531  25.924  27.659  1.00  0.00     0.029 A 
ATOM     49  N   UNL A   1      42.948  27.640  27.895  1.00  0.00    -0.354 N 
ATOM     50  C   UNL A   1      47.115  27.233  26.713  1.00  0.00     0.074 A 
ATOM     51  C   UNL A   1      47.380  25.893  26.234  1.00  0.00     0.031 C 
ATOM     52  C   UNL A   1      40.836  26.958  28.163  1.00  0.00     0.029 A 
ATOM     53  C   UNL A   1      41.738  28.091  28.366  1.00  0.00     0.049 A 
ATOM     54  H   UNL A   1      43.755  28.201  27.861  1.00  0.00     0.167 HD
ATOM     55  C   UNL A   1      48.035  28.228  26.756  1.00  0.00     0.034 A 
ATOM     56  C   UNL A   1      41.407  29.277  28.915  1.00  0.00     0.034 A 
ATOM     57  C   UNL A   1      47.756  29.548  27.262  1.00  0.00     0.049 A 
ATOM     58  C   UNL A   1      42.471  30.342  29.036  1.00  0.00     0.074 A 
ATOM     59  C   UNL A   1      48.607  30.635  27.359  1.00  0.00     0.029 A 
ATOM     60  N   UNL A   1      46.530  29.958  27.774  1.00  0.00    -0.354 N 
ATOM     61  N   UNL A   1      43.732  30.297  28.672  1.00  0.00    -0.248 NA
ATOM     62  C   UNL A   1      42.063  31.618  29.635  1.00  0.00     0.031 C 
ATOM     63  C   UNL A   1      47.915  31.678  27.986  1.00  0.00     0.029 A 
ATOM     64  C   UNL A   1      46.611  31.269  28.216  1.00  0.00     0.049 A 
ATOM     65  H   UNL A   1      45.722  29.397  27.816  1.00  0.00     0.167 HD
ATOM     66  C   UNL A   1      44.258  31.551  28.970  1.00  0.00     0.074 A 
ATOM     67  C   UNL A   1      43.175  32.331  29.535  1.00  0.00     0.031 C 
ATOM     68  C   UNL A   1      45.520  32.021  28.789  1.00  0.00     0.034 A 
BRANCH  55  69
ATOM     69  C   UNL A   1      49.430  27.892  26.291  1.00  0.00     0.023 A 
ATOM     70  C   UNL A   1      49.892  28.260  25.014  1.00  0.00     0.031 A 
ATOM     71  C   UNL A   1      50.294  27.146  27.112  1.00  0.00     0.131 A 
ATOM     72  C   UNL A   1      51.149  27.819  24.569  1.00  0.00     0.055 A 
ATOM     73  C   UNL A   1      51.573  26.776  26.694  1.00  0.00     0.041 A 
ATOM     74  F   UNL A   1      49.899  26.745  28.331  1.00  0.00    -0.206 F 
ATOM     75  C   UNL A   1      52.001  27.099  25.409  1.00  0.00     0.022 A 
BRANCH  72  76
ATOM     76  S   UNL A   1      51.591  28.072  22.828  1.00  0.00     0.124 S 
ATOM     77  O   UNL A   1      51.944  26.717  22.413  1.00  0.00    -0.237 OA
ATOM     78  O   UNL A   1      50.360  28.614  22.265  1.00  0.00    -0.237 OA
ATOM     79  O   UNL A   1      52.713  29.008  22.893  1.00  0.00    -0.744 OA
ENDBRANCH  72  76
ENDBRANCH  55  69
BRANCH  56  80
ATOM     80  C   UNL A   1      40.029  29.515  29.426  1.00  0.00     0.023 A 
ATOM     81  C   UNL A   1      39.752  29.517  30.802  1.00  0.00     0.031 A 
ATOM     82  C   UNL A   1      38.954  29.698  28.537  1.00  0.00     0.131 A 
ATOM     83  C   UNL A   1      38.429  29.654  31.249  1.00  0.00     0.055 A 
ATOM     84  C   UNL A   1      37.646  29.881  28.988  1.00  0.00     0.041 A 
ATOM     85  F   UNL A   1      39.164  29.706  27.211  1.00  0.00    -0.206 F 
ATOM     86  C   UNL A   1      37.376  29.849  30.351  1.00  0.00     0.022 A 
BRANCH  83  87
ATOM     87  S   UNL A   1      38.090  29.500  33.024  1.00  0.00     0.124 S 
ATOM     88  O   UNL A   1      39.436  29.404  33.576  1.00  0.00    -0.237 OA
ATOM     89  O   UNL A   1      37.368  30.737  33.303  1.00  0.00    -0.237 OA
ATOM     90  O   UNL A   1      37.290  28.280  33.113  1.00  0.00    -0.744 OA
ENDBRANCH  83  87
ENDBRANCH  56  80
BRANCH  68  91
ATOM     91  C   UNL A   1      45.773  33.459  29.168  1.00  0.00     0.023 A 
ATOM     92  C   UNL A   1      45.536  34.514  28.271  1.00  0.00     0.031 A 
ATOM     93  C   UNL A   1      46.269  33.773  30.447  1.00  0.00     0.131 A 
ATOM     94  C   UNL A   1      45.843  35.830  28.644  1.00  0.00     0.055 A 
ATOM     95  C   UNL A   1      46.521  35.091  30.833  1.00  0.00     0.041 A 
ATOM     96  F   UNL A   1      46.515  32.804  31.342  1.00  0.00    -0.206 F 
ATOM     97  C   UNL A   1      46.320  36.127  29.925  1.00  0.00     0.022 A 
BRANCH  94  98
ATOM     98  S   UNL A   1      45.692  37.147  27.406  1.00  0.00     0.124 S 
ATOM     99  O   UNL A   1      46.398  36.573  26.265  1.00  0.00    -0.237 OA
ATOM    100  O   UNL A   1      44.245  37.274  27.262  1.00  0.00    -0.237 OA
ATOM    101  O   UNL A   1      46.354  38.289  28.034  1.00  0.00    -0.744 OA
ENDBRANCH  94  98
ENDBRANCH  68  91
ENDBRANCH  42  43
ENDBRANCH  35  37
ENDBRANCH  34  35
ENDBRANCH  33  34
ENDBRANCH  32  33
ENDBRANCH  31  32
ENDBRANCH   1  31
TORSDOF 23
ENDMDL
MODEL 3
REMARK VINA RESULT:     -10.3      2.286      7.736
REMARK SMILES COc1cccc(CC2(CO)CCN(c3nc(C)ccc3C(=O)OCCOCCOC(=O)c3ccc(-c4c5nc(c(-c6cc(S(=O)(=O)[O-])ccc6F)c6ccc([nH]6)c(-c6cc(S(=O)(=O)[O-])ccc6F)c6nc(c(-c7cc(S(=O)(=O)[O-])ccc7F)c7ccc4[nH]7)C=C6)C=C5)cc3)CC2)c1
REMARK SMILES IDX 26 1 25 2 24 3 22 4 23 5 21 6 15 7 16 8 17 9 20 10 18 11
REMARK SMILES IDX 19 12 14 13 9 14 12 15 97 16 13 17 96 18 8 19 7 20 3 21 4 22
REMARK SMILES IDX 98 23 5 24 6 25 2 26 1 27 10 28 11 29 27 31 28 32 29 33
REMARK SMILES IDX 30 34 31 35 32 36 33 37 34 38 95 39 35 40 94 41 36 42 37 43
REMARK SMILES IDX 38 44 88 45 39 46 93 47 87 48 89 49 40 50 92 51 86 52 85 53
REMARK SMILES IDX 41 55 73 56 53 57 72 58 54 59 57 60 71 61 90 62 55 63 56 64
REMARK SMILES IDX 70 66 91 67 58 68 42 69 43 70 51 71 44 72 50 73 52 74 49 75
REMARK SMILES IDX 45 76 46 77 47 78 48 79 74 80 75 81 83 82 76 83 82 84 84 85
REMARK SMILES IDX 81 86 77 87 78 88 79 89 80 90 59 91 60 92 68 93 61 94 67 95
REMARK SMILES IDX 69 96 66 97 62 98 63 99 64 100 65 101
REMARK H PARENT 11 30 89 54 57 65
REMARK Flexibility Score: inf
ROOT
ATOM      1  C   UNL A   1      36.189  21.234  24.634  1.00  0.00     0.202 C 
ENDROOT
BRANCH   1   2
ATOM      2  C   UNL A   1      36.143  22.560  23.866  1.00  0.00     0.261 C 
BRANCH   2   3
ATOM      3  O   UNL A   1      34.803  23.095  23.896  1.00  0.00    -0.460 OA
BRANCH   3   4
ATOM      4  C   UNL A   1      34.448  23.720  25.044  1.00  0.00     0.341 C 
ATOM      5  O   UNL A   1      35.159  24.431  25.739  1.00  0.00    -0.246 OA
BRANCH   4   6
ATOM      6  C   UNL A   1      33.052  23.395  25.371  1.00  0.00     0.102 A 
ATOM      7  C   UNL A   1      32.048  24.370  25.432  1.00  0.00     0.143 A 
ATOM      8  N   UNL A   1      30.850  24.080  26.002  1.00  0.00    -0.235 NA
ATOM      9  C   UNL A   1      30.610  22.829  26.464  1.00  0.00     0.040 A 
ATOM     10  C   UNL A   1      32.776  22.090  25.802  1.00  0.00     0.021 A 
ATOM     11  C   UNL A   1      29.309  22.625  27.176  1.00  0.00     0.067 C 
ATOM     12  C   UNL A   1      31.534  21.801  26.352  1.00  0.00     0.024 A 
BRANCH   7  13
ATOM     13  N   UNL A   1      32.128  25.654  24.922  1.00  0.00    -0.356 N 
ATOM     14  C   UNL A   1      32.364  28.303  23.697  1.00  0.00     0.001 C 
ATOM     15  C   UNL A   1      31.711  27.084  22.985  1.00  0.00     0.031 C 
ATOM     16  C   UNL A   1      33.213  27.835  24.906  1.00  0.00     0.031 C 
ATOM     17  C   UNL A   1      31.166  25.972  23.886  1.00  0.00     0.119 C 
ATOM     18  C   UNL A   1      32.577  26.744  25.764  1.00  0.00     0.119 C 
BRANCH  14  19
ATOM     19  C   UNL A   1      31.337  29.426  24.069  1.00  0.00     0.045 C 
BRANCH  19  20
ATOM     20  C   UNL A   1      30.082  29.600  23.254  1.00  0.00    -0.044 A 
ATOM     21  C   UNL A   1      28.862  30.667  21.447  1.00  0.00     0.119 A 
ATOM     22  C   UNL A   1      27.721  29.942  21.772  1.00  0.00     0.046 A 
ATOM     23  C   UNL A   1      30.035  30.515  22.190  1.00  0.00     0.050 A 
ATOM     24  C   UNL A   1      27.767  29.009  22.803  1.00  0.00     0.004 A 
ATOM     25  C   UNL A   1      28.948  28.822  23.523  1.00  0.00     0.004 A 
BRANCH  21  26
ATOM     26  O   UNL A   1      28.756  31.590  20.444  1.00  0.00    -0.497 OA
ATOM     27  C   UNL A   1      27.655  32.469  20.660  1.00  0.00     0.278 C 
ENDBRANCH  21  26
ENDBRANCH  19  20
ENDBRANCH  14  19
BRANCH  14  28
ATOM     28  C   UNL A   1      33.361  28.962  22.691  1.00  0.00     0.163 C 
BRANCH  28  29
ATOM     29  O   UNL A   1      33.716  28.082  21.629  1.00  0.00    -0.396 OA
ATOM     30  H   UNL A   1      34.677  28.099  21.502  1.00  0.00     0.210 HD
ENDBRANCH  28  29
ENDBRANCH  14  28
ENDBRANCH   7  13
ENDBRANCH   4   6
ENDBRANCH   3   4
ENDBRANCH   2   3
ENDBRANCH   1   2
BRANCH   1  31
ATOM     31  O   UNL A   1      37.445  20.916  25.249  1.00  0.00    -0.374 OA
BRANCH  31  32
ATOM     32  C   UNL A   1      38.034  19.673  24.891  1.00  0.00     0.202 C 
BRANCH  32  33
ATOM     33  C   UNL A   1      39.213  19.192  25.743  1.00  0.00     0.261 C 
BRANCH  33  34
ATOM     34  O   UNL A   1      40.080  20.256  26.137  1.00  0.00    -0.460 OA
BRANCH  34  35
ATOM     35  C   UNL A   1      41.387  19.894  26.169  1.00  0.00     0.338 C 
ATOM     36  O   UNL A   1      41.849  18.786  25.947  1.00  0.00    -0.246 OA
BRANCH  35  37
ATOM     37  C   UNL A   1      42.219  21.093  26.369  1.00  0.00     0.060 A 
ATOM     38  C   UNL A   1      42.523  21.454  27.686  1.00  0.00     0.016 A 
ATOM     39  C   UNL A   1      42.660  21.867  25.293  1.00  0.00     0.016 A 
ATOM     40  C   UNL A   1      43.230  22.625  27.937  1.00  0.00     0.010 A 
ATOM     41  C   UNL A   1      43.363  23.046  25.546  1.00  0.00     0.010 A 
ATOM     42  C   UNL A   1      43.617  23.446  26.870  1.00  0.00    -0.014 A 
BRANCH  42  43
ATOM     43  C   UNL A   1      44.126  24.808  27.150  1.00  0.00     0.031 A 
ATOM     44  C   UNL A   1      43.163  25.836  27.673  1.00  0.00     0.074 A 
ATOM     45  C   UNL A   1      45.424  25.106  26.970  1.00  0.00     0.049 A 
ATOM     46  N   UNL A   1      43.367  27.091  27.974  1.00  0.00    -0.248 NA
ATOM     47  C   UNL A   1      41.777  25.383  27.879  1.00  0.00     0.031 C 
ATOM     48  C   UNL A   1      46.447  24.172  26.506  1.00  0.00     0.029 A 
ATOM     49  N   UNL A   1      46.100  26.285  27.156  1.00  0.00    -0.354 N 
ATOM     50  C   UNL A   1      42.141  27.578  28.414  1.00  0.00     0.074 A 
ATOM     51  C   UNL A   1      41.189  26.495  28.294  1.00  0.00     0.031 C 
ATOM     52  C   UNL A   1      47.624  24.817  26.434  1.00  0.00     0.029 A 
ATOM     53  C   UNL A   1      47.430  26.215  26.818  1.00  0.00     0.049 A 
ATOM     54  H   UNL A   1      45.673  27.102  27.498  1.00  0.00     0.167 HD
ATOM     55  C   UNL A   1      41.840  28.814  28.884  1.00  0.00     0.034 A 
ATOM     56  C   UNL A   1      48.374  27.177  26.803  1.00  0.00     0.034 A 
ATOM     57  C   UNL A   1      42.799  29.887  28.969  1.00  0.00     0.049 A 
ATOM     58  C   UNL A   1      47.996  28.570  27.245  1.00  0.00     0.074 A 
ATOM     59  C   UNL A   1      42.611  31.180  29.425  1.00  0.00     0.029 A 
ATOM     60  N   UNL A   1      44.129  29.794  28.576  1.00  0.00    -0.354 N 
ATOM     61  N   UNL A   1      46.835  29.019  27.666  1.00  0.00    -0.248 NA
ATOM     62  C   UNL A   1      49.058  29.584  27.218  1.00  0.00     0.031 C 
ATOM     63  C   UNL A   1      43.807  31.885  29.246  1.00  0.00     0.029 A 
ATOM     64  C   UNL A   1      44.764  31.014  28.748  1.00  0.00     0.049 A 
ATOM     65  H   UNL A   1      44.557  28.980  28.226  1.00  0.00     0.167 HD
ATOM     66  C   UNL A   1      47.037  30.359  27.982  1.00  0.00     0.074 A 
ATOM     67  C   UNL A   1      48.433  30.642  27.712  1.00  0.00     0.031 C 
ATOM     68  C   UNL A   1      46.154  31.275  28.459  1.00  0.00     0.034 A 
BRANCH  55  69
ATOM     69  C   UNL A   1      40.407  29.066  29.282  1.00  0.00     0.023 A 
ATOM     70  C   UNL A   1      40.001  29.049  30.628  1.00  0.00     0.031 A 
ATOM     71  C   UNL A   1      39.423  29.274  28.300  1.00  0.00     0.131 A 
ATOM     72  C   UNL A   1      38.639  29.160  30.951  1.00  0.00     0.055 A 
ATOM     73  C   UNL A   1      38.080  29.461  28.631  1.00  0.00     0.041 A 
ATOM     74  F   UNL A   1      39.747  29.276  26.997  1.00  0.00    -0.206 F 
ATOM     75  C   UNL A   1      37.678  29.390  29.963  1.00  0.00     0.022 A 
BRANCH  72  76
ATOM     76  S   UNL A   1      38.124  28.853  32.663  1.00  0.00     0.124 S 
ATOM     77  O   UNL A   1      39.312  29.265  33.406  1.00  0.00    -0.237 OA
ATOM     78  O   UNL A   1      36.954  29.713  32.800  1.00  0.00    -0.237 OA
ATOM     79  O   UNL A   1      37.850  27.418  32.686  1.00  0.00    -0.744 OA
ENDBRANCH  72  76
ENDBRANCH  55  69
BRANCH  56  80
ATOM     80  C   UNL A   1      49.752  26.877  26.324  1.00  0.00     0.023 A 
ATOM     81  C   UNL A   1      50.153  27.196  25.017  1.00  0.00     0.031 A 
ATOM     82  C   UNL A   1      50.676  26.221  27.156  1.00  0.00     0.131 A 
ATOM     83  C   UNL A   1      51.428  26.820  24.566  1.00  0.00     0.055 A 
ATOM     84  C   UNL A   1      51.959  25.891  26.718  1.00  0.00     0.041 A 
ATOM     85  F   UNL A   1      50.343  25.895  28.415  1.00  0.00    -0.206 F 
ATOM     86  C   UNL A   1      52.338  26.180  25.412  1.00  0.00     0.022 A 
BRANCH  83  87
ATOM     87  S   UNL A   1      51.858  27.112  22.828  1.00  0.00     0.124 S 
ATOM     88  O   UNL A   1      52.802  26.031  22.570  1.00  0.00    -0.237 OA
ATOM     89  O   UNL A   1      50.559  27.001  22.173  1.00  0.00    -0.237 OA
ATOM     90  O   UNL A   1      52.435  28.455  22.841  1.00  0.00    -0.744 OA
ENDBRANCH  83  87
ENDBRANCH  56  80
BRANCH  68  91
ATOM     91  C   UNL A   1      46.693  32.653  28.756  1.00  0.00     0.023 A 
ATOM     92  C   UNL A   1      46.661  33.682  27.801  1.00  0.00     0.031 A 
ATOM     93  C   UNL A   1      47.257  32.931  30.015  1.00  0.00     0.131 A 
ATOM     94  C   UNL A   1      47.230  34.929  28.100  1.00  0.00     0.055 A 
ATOM     95  C   UNL A   1      47.771  34.191  30.326  1.00  0.00     0.041 A 
ATOM     96  F   UNL A   1      47.314  31.984  30.964  1.00  0.00    -0.206 F 
ATOM     97  C   UNL A   1      47.771  35.194  29.361  1.00  0.00     0.022 A 
BRANCH  94  98
ATOM     98  S   UNL A   1      47.330  36.179  26.789  1.00  0.00     0.124 S 
ATOM     99  O   UNL A   1      46.181  35.838  25.956  1.00  0.00    -0.237 OA
ATOM    100  O   UNL A   1      47.226  37.427  27.539  1.00  0.00    -0.237 OA
ATOM    101  O   UNL A   1      48.634  35.931  26.176  1.00  0.00    -0.744 OA
ENDBRANCH  94  98
ENDBRANCH  68  91
ENDBRANCH  42  43
ENDBRANCH  35  37
ENDBRANCH  34  35
ENDBRANCH  33  34
ENDBRANCH  32  33
ENDBRANCH  31  32
ENDBRANCH   1  31
TORSDOF 23
ENDMDL
