MODEL 1
REMARK VINA RESULT:     -12.4      0.000      0.000
REMARK SMILES C[C@@](COc1ccccc1)(NC(=O)CN1CSCC1=O)C(=O)OCCOCCOC(=O)c1ccc(-c2c3nc(c(-c4cc(S(=O)(=O)[O-])ccc4F)c4ccc([nH]4)c(-c4cc(S(=O)(=O)[O-])ccc4F)c4nc(c(-c5cc(S(=O)(=O)[O-])ccc5F)c5ccc2[nH]5)C=C4)C=C3)cc1
REMARK SMILES IDX 26 1 25 2 24 3 23 4 21 5 22 6 2 7 1 8 3 9 4 10 5 11 6 12
REMARK SMILES IDX 10 13 7 14 9 15 8 16 11 17 12 18 13 20 14 21 15 22 16 23
REMARK SMILES IDX 19 24 17 25 18 26 20 27 27 28 28 29 29 30 30 31 31 32 32 33
REMARK SMILES IDX 33 34 94 35 34 36 93 37 35 38 36 39 37 40 87 41 38 42 92 43
REMARK SMILES IDX 86 44 88 45 39 46 91 47 85 48 84 49 40 51 72 52 52 53 71 54
REMARK SMILES IDX 53 55 56 56 70 57 89 58 54 59 55 60 69 62 90 63 57 64 41 65
REMARK SMILES IDX 42 66 50 67 43 68 49 69 51 70 48 71 44 72 45 73 46 74 47 75
REMARK SMILES IDX 73 76 74 77 82 78 75 79 81 80 83 81 80 82 76 83 77 84 78 85
REMARK SMILES IDX 79 86 58 87 59 88 67 89 60 90 66 91 68 92 65 93 61 94 62 95
REMARK SMILES IDX 63 96 64 97
REMARK H PARENT 11 19 88 50 56 61
REMARK Flexibility Score: inf
ROOT
ATOM      1  O   UNL A   1      37.306  22.354  24.443  1.00  0.00    -0.374 OA
ENDROOT
BRANCH   1   2
ATOM      2  C   UNL A   1      36.877  23.631  25.001  1.00  0.00     0.202 C 
BRANCH   2   3
ATOM      3  C   UNL A   1      35.587  23.732  25.784  1.00  0.00     0.261 C 
BRANCH   3   4
ATOM      4  O   UNL A   1      34.597  22.993  25.075  1.00  0.00    -0.461 OA
BRANCH   4   5
ATOM      5  C   UNL A   1      33.332  23.410  25.256  1.00  0.00     0.335 C 
ATOM      6  O   UNL A   1      32.894  23.893  26.295  1.00  0.00    -0.249 OA
BRANCH   5   7
ATOM      7  C   UNL A   1      32.564  23.395  23.939  1.00  0.00     0.169 C 
ATOM      8  C   UNL A   1      31.082  23.519  24.340  1.00  0.00     0.051 C 
BRANCH   7   9
ATOM      9  C   UNL A   1      32.839  21.968  23.362  1.00  0.00     0.269 C 
BRANCH   9  10
ATOM     10  O   UNL A   1      32.362  20.931  24.250  1.00  0.00    -0.491 OA
BRANCH  10  11
ATOM     11  C   UNL A   1      32.921  19.716  23.973  1.00  0.00     0.119 A 
ATOM     12  C   UNL A   1      34.051  19.273  24.654  1.00  0.00     0.046 A 
ATOM     13  C   UNL A   1      32.341  18.933  22.977  1.00  0.00     0.046 A 
ATOM     14  C   UNL A   1      34.550  17.997  24.398  1.00  0.00     0.004 A 
ATOM     15  C   UNL A   1      32.818  17.645  22.747  1.00  0.00     0.004 A 
ATOM     16  C   UNL A   1      33.918  17.174  23.463  1.00  0.00     0.000 A 
ENDBRANCH  10  11
ENDBRANCH   9  10
ENDBRANCH   7   9
BRANCH   7  17
ATOM     17  N   UNL A   1      32.996  24.345  22.858  1.00  0.00    -0.336 N 
ATOM     18  C   UNL A   1      32.739  25.535  22.277  1.00  0.00     0.240 C 
ATOM     19  H   UNL A   1      33.765  23.943  22.393  1.00  0.00     0.164 HD
ATOM     20  O   UNL A   1      33.386  25.718  21.228  1.00  0.00    -0.273 OA
BRANCH  18  21
ATOM     21  C   UNL A   1      31.901  26.723  22.814  1.00  0.00     0.220 C 
BRANCH  21  22
ATOM     22  N   UNL A   1      32.285  27.378  24.074  1.00  0.00    -0.323 N 
ATOM     23  C   UNL A   1      33.845  27.074  25.217  1.00  0.00     0.190 C 
ATOM     24  C   UNL A   1      31.308  28.854  24.392  1.00  0.00     0.233 C 
ATOM     25  S   UNL A   1      33.696  28.640  27.010  1.00  0.00    -0.130 SA
ATOM     26  C   UNL A   1      31.839  29.746  26.070  1.00  0.00     0.171 C 
ATOM     27  O   UNL A   1      30.419  29.279  23.664  1.00  0.00    -0.274 OA
ENDBRANCH  21  22
ENDBRANCH  18  21
ENDBRANCH   7  17
ENDBRANCH   5   7
ENDBRANCH   4   5
ENDBRANCH   3   4
ENDBRANCH   2   3
ENDBRANCH   1   2
BRANCH   1  28
ATOM     28  C   UNL A   1      37.496  21.002  25.248  1.00  0.00     0.202 C 
BRANCH  28  29
ATOM     29  C   UNL A   1      39.140  19.569  25.304  1.00  0.00     0.261 C 
BRANCH  29  30
ATOM     30  O   UNL A   1      40.414  19.650  26.419  1.00  0.00    -0.460 OA
BRANCH  30  31
ATOM     31  C   UNL A   1      41.537  20.414  26.271  1.00  0.00     0.338 C 
ATOM     32  O   UNL A   1      42.372  20.242  25.398  1.00  0.00    -0.246 OA
BRANCH  31  33
ATOM     33  C   UNL A   1      41.371  21.746  26.973  1.00  0.00     0.060 A 
ATOM     34  C   UNL A   1      40.689  22.785  26.305  1.00  0.00     0.016 A 
ATOM     35  C   UNL A   1      41.927  22.027  28.222  1.00  0.00     0.016 A 
ATOM     36  C   UNL A   1      40.617  24.089  26.832  1.00  0.00     0.010 A 
ATOM     37  C   UNL A   1      41.874  23.347  28.742  1.00  0.00     0.010 A 
ATOM     38  C   UNL A   1      41.276  24.407  28.023  1.00  0.00    -0.014 A 
BRANCH  38  39
ATOM     39  C   UNL A   1      41.630  25.848  28.302  1.00  0.00     0.031 A 
ATOM     40  C   UNL A   1      42.991  26.334  27.832  1.00  0.00     0.074 A 
ATOM     41  C   UNL A   1      40.797  26.754  28.860  1.00  0.00     0.049 A 
ATOM     42  N   UNL A   1      43.557  27.509  27.958  1.00  0.00    -0.248 NA
ATOM     43  C   UNL A   1      43.820  25.347  27.123  1.00  0.00     0.031 C 
ATOM     44  C   UNL A   1      39.431  26.498  29.310  1.00  0.00     0.029 A 
ATOM     45  N   UNL A   1      40.989  28.094  29.143  1.00  0.00    -0.354 N 
ATOM     46  C   UNL A   1      44.812  27.394  27.366  1.00  0.00     0.074 A 
ATOM     47  C   UNL A   1      44.936  26.025  26.917  1.00  0.00     0.031 C 
ATOM     48  C   UNL A   1      38.916  27.634  29.822  1.00  0.00     0.029 A 
ATOM     49  C   UNL A   1      39.919  28.702  29.768  1.00  0.00     0.049 A 
ATOM     50  H   UNL A   1      41.819  28.574  28.919  1.00  0.00     0.167 HD
ATOM     51  C   UNL A   1      45.778  28.332  27.193  1.00  0.00     0.034 A 
ATOM     52  C   UNL A   1      39.764  29.956  30.256  1.00  0.00     0.034 A 
ATOM     53  C   UNL A   1      45.674  29.706  27.619  1.00  0.00     0.049 A 
ATOM     54  C   UNL A   1      40.886  30.971  30.121  1.00  0.00     0.074 A 
ATOM     55  C   UNL A   1      46.601  30.724  27.466  1.00  0.00     0.029 A 
ATOM     56  N   UNL A   1      44.590  30.260  28.284  1.00  0.00    -0.354 N 
ATOM     57  N   UNL A   1      42.064  30.840  29.557  1.00  0.00    -0.248 NA
ATOM     58  C   UNL A   1      40.645  32.312  30.680  1.00  0.00     0.031 C 
ATOM     59  C   UNL A   1      46.112  31.868  28.103  1.00  0.00     0.029 A 
ATOM     60  C   UNL A   1      44.840  31.594  28.573  1.00  0.00     0.049 A 
ATOM     61  H   UNL A   1      43.765  29.777  28.516  1.00  0.00     0.167 HD
ATOM     62  C   UNL A   1      42.678  32.092  29.656  1.00  0.00     0.074 A 
ATOM     63  C   UNL A   1      41.738  32.967  30.319  1.00  0.00     0.031 C 
ATOM     64  C   UNL A   1      43.908  32.480  29.229  1.00  0.00     0.034 A 
BRANCH  51  65
ATOM     65  C   UNL A   1      47.069  27.883  26.552  1.00  0.00     0.023 A 
ATOM     66  C   UNL A   1      47.275  27.948  25.163  1.00  0.00     0.031 A 
ATOM     67  C   UNL A   1      48.106  27.365  27.349  1.00  0.00     0.131 A 
ATOM     68  C   UNL A   1      48.459  27.441  24.608  1.00  0.00     0.055 A 
ATOM     69  C   UNL A   1      49.315  26.938  26.798  1.00  0.00     0.041 A 
ATOM     70  F   UNL A   1      47.958  27.258  28.679  1.00  0.00    -0.206 F 
ATOM     71  C   UNL A   1      49.492  26.962  25.418  1.00  0.00     0.022 A 
BRANCH  68  72
ATOM     72  S   UNL A   1      48.577  27.288  22.805  1.00  0.00     0.124 S 
ATOM     73  O   UNL A   1      49.943  27.744  22.559  1.00  0.00    -0.237 OA
ATOM     74  O   UNL A   1      48.330  25.867  22.592  1.00  0.00    -0.237 OA
ATOM     75  O   UNL A   1      47.531  28.185  22.316  1.00  0.00    -0.744 OA
ENDBRANCH  68  72
ENDBRANCH  51  65
BRANCH  52  76
ATOM     76  C   UNL A   1      38.515  30.352  30.987  1.00  0.00     0.023 A 
ATOM     77  C   UNL A   1      37.461  31.025  30.340  1.00  0.00     0.031 A 
ATOM     78  C   UNL A   1      38.415  30.170  32.378  1.00  0.00     0.131 A 
ATOM     79  C   UNL A   1      36.389  31.539  31.091  1.00  0.00     0.055 A 
ATOM     80  C   UNL A   1      37.319  30.631  33.111  1.00  0.00     0.041 A 
ATOM     81  F   UNL A   1      39.396  29.549  33.053  1.00  0.00    -0.206 F 
ATOM     82  C   UNL A   1      36.304  31.335  32.469  1.00  0.00     0.022 A 
BRANCH  79  83
ATOM     83  S   UNL A   1      35.157  32.583  30.259  1.00  0.00     0.124 S 
ATOM     84  O   UNL A   1      34.753  31.736  29.144  1.00  0.00    -0.237 OA
ATOM     85  O   UNL A   1      34.165  32.777  31.312  1.00  0.00    -0.237 OA
ATOM     86  O   UNL A   1      35.915  33.780  29.894  1.00  0.00    -0.744 OA
ENDBRANCH  79  83
ENDBRANCH  52  76
BRANCH  64  87
ATOM     87  C   UNL A   1      44.288  33.938  29.396  1.00  0.00     0.023 A 
ATOM     88  C   UNL A   1      43.905  34.927  28.470  1.00  0.00     0.031 A 
ATOM     89  C   UNL A   1      45.070  34.341  30.495  1.00  0.00     0.131 A 
ATOM     90  C   UNL A   1      44.360  36.247  28.622  1.00  0.00     0.055 A 
ATOM     91  C   UNL A   1      45.462  35.669  30.678  1.00  0.00     0.041 A 
ATOM     92  F   UNL A   1      45.469  33.449  31.414  1.00  0.00    -0.206 F 
ATOM     93  C   UNL A   1      45.124  36.628  29.729  1.00  0.00     0.022 A 
BRANCH  90  94
ATOM     94  S   UNL A   1      44.050  37.440  27.289  1.00  0.00     0.124 S 
ATOM     95  O   UNL A   1      45.359  37.536  26.654  1.00  0.00    -0.237 OA
ATOM     96  O   UNL A   1      43.011  36.772  26.510  1.00  0.00    -0.237 OA
ATOM     97  O   UNL A   1      43.615  38.642  27.998  1.00  0.00    -0.744 OA
ENDBRANCH  90  94
ENDBRANCH  64  87
ENDBRANCH  38  39
ENDBRANCH  31  33
ENDBRANCH  30  31
ENDBRANCH  29  30
ENDBRANCH  28  29
ENDBRANCH   1  28
TORSDOF 23
ENDMDL
MODEL 2
REMARK VINA RESULT:     -11.7      2.046      2.377
REMARK SMILES C[C@@](COc1ccccc1)(NC(=O)CN1CSCC1=O)C(=O)OCCOCCOC(=O)c1ccc(-c2c3nc(c(-c4cc(S(=O)(=O)[O-])ccc4F)c4ccc([nH]4)c(-c4cc(S(=O)(=O)[O-])ccc4F)c4nc(c(-c5cc(S(=O)(=O)[O-])ccc5F)c5ccc2[nH]5)C=C4)C=C3)cc1
REMARK SMILES IDX 26 1 25 2 24 3 23 4 21 5 22 6 2 7 1 8 3 9 4 10 5 11 6 12
REMARK SMILES IDX 10 13 7 14 9 15 8 16 11 17 12 18 13 20 14 21 15 22 16 23
REMARK SMILES IDX 19 24 17 25 18 26 20 27 27 28 28 29 29 30 30 31 31 32 32 33
REMARK SMILES IDX 33 34 94 35 34 36 93 37 35 38 36 39 37 40 87 41 38 42 92 43
REMARK SMILES IDX 86 44 88 45 39 46 91 47 85 48 84 49 40 51 72 52 52 53 71 54
REMARK SMILES IDX 53 55 56 56 70 57 89 58 54 59 55 60 69 62 90 63 57 64 41 65
REMARK SMILES IDX 42 66 50 67 43 68 49 69 51 70 48 71 44 72 45 73 46 74 47 75
REMARK SMILES IDX 73 76 74 77 82 78 75 79 81 80 83 81 80 82 76 83 77 84 78 85
REMARK SMILES IDX 79 86 58 87 59 88 67 89 60 90 66 91 68 92 65 93 61 94 62 95
REMARK SMILES IDX 63 96 64 97
REMARK H PARENT 11 19 88 50 56 61
REMARK Flexibility Score: inf
ROOT
ATOM      1  O   UNL A   1      37.079  22.639  24.734  1.00  0.00    -0.374 OA
ENDROOT
BRANCH   1   2
ATOM      2  C   UNL A   1      36.425  23.666  25.538  1.00  0.00     0.202 C 
BRANCH   2   3
ATOM      3  C   UNL A   1      35.216  24.403  25.006  1.00  0.00     0.261 C 
BRANCH   3   4
ATOM      4  O   UNL A   1      34.108  23.511  25.071  1.00  0.00    -0.461 OA
BRANCH   4   5
ATOM      5  C   UNL A   1      32.902  24.083  24.910  1.00  0.00     0.335 C 
ATOM      6  O   UNL A   1      32.423  24.931  25.654  1.00  0.00    -0.249 OA
BRANCH   5   7
ATOM      7  C   UNL A   1      32.293  23.691  23.568  1.00  0.00     0.169 C 
ATOM      8  C   UNL A   1      30.771  23.698  23.803  1.00  0.00     0.051 C 
BRANCH   7   9
ATOM      9  C   UNL A   1      32.788  22.225  23.346  1.00  0.00     0.269 C 
BRANCH   9  10
ATOM     10  O   UNL A   1      32.191  21.310  24.294  1.00  0.00    -0.491 OA
BRANCH  10  11
ATOM     11  C   UNL A   1      32.447  20.005  23.984  1.00  0.00     0.119 A 
ATOM     12  C   UNL A   1      32.159  19.496  22.721  1.00  0.00     0.046 A 
ATOM     13  C   UNL A   1      32.989  19.184  24.972  1.00  0.00     0.046 A 
ATOM     14  C   UNL A   1      32.502  18.180  22.417  1.00  0.00     0.004 A 
ATOM     15  C   UNL A   1      33.364  17.880  24.657  1.00  0.00     0.004 A 
ATOM     16  C   UNL A   1      33.127  17.380  23.376  1.00  0.00     0.000 A 
ENDBRANCH  10  11
ENDBRANCH   9  10
ENDBRANCH   7   9
BRANCH   7  17
ATOM     17  N   UNL A   1      32.736  24.443  22.345  1.00  0.00    -0.336 N 
ATOM     18  C   UNL A   1      33.068  25.659  21.865  1.00  0.00     0.240 C 
ATOM     19  H   UNL A   1      32.811  23.797  21.605  1.00  0.00     0.164 HD
ATOM     20  O   UNL A   1      33.190  25.682  20.626  1.00  0.00    -0.273 OA
BRANCH  18  21
ATOM     21  C   UNL A   1      33.464  26.940  22.643  1.00  0.00     0.220 C 
BRANCH  21  22
ATOM     22  N   UNL A   1      32.428  27.913  23.026  1.00  0.00    -0.323 N 
ATOM     23  C   UNL A   1      30.651  28.213  22.261  1.00  0.00     0.190 C 
ATOM     24  C   UNL A   1      32.786  28.693  24.607  1.00  0.00     0.233 C 
ATOM     25  S   UNL A   1      29.630  29.935  23.559  1.00  0.00    -0.130 SA
ATOM     26  C   UNL A   1      31.385  29.979  25.131  1.00  0.00     0.171 C 
ATOM     27  O   UNL A   1      33.771  28.462  25.297  1.00  0.00    -0.274 OA
ENDBRANCH  21  22
ENDBRANCH  18  21
ENDBRANCH   7  17
ENDBRANCH   5   7
ENDBRANCH   4   5
ENDBRANCH   3   4
ENDBRANCH   2   3
ENDBRANCH   1   2
BRANCH   1  28
ATOM     28  C   UNL A   1      37.031  21.077  25.001  1.00  0.00     0.202 C 
BRANCH  28  29
ATOM     29  C   UNL A   1      38.590  19.552  24.951  1.00  0.00     0.261 C 
BRANCH  29  30
ATOM     30  O   UNL A   1      39.763  19.374  26.161  1.00  0.00    -0.460 OA
BRANCH  30  31
ATOM     31  C   UNL A   1      41.002  19.952  26.142  1.00  0.00     0.338 C 
ATOM     32  O   UNL A   1      41.881  19.659  25.349  1.00  0.00    -0.246 OA
BRANCH  31  33
ATOM     33  C   UNL A   1      40.979  21.284  26.862  1.00  0.00     0.060 A 
ATOM     34  C   UNL A   1      40.255  22.352  26.289  1.00  0.00     0.016 A 
ATOM     35  C   UNL A   1      41.702  21.537  28.028  1.00  0.00     0.016 A 
ATOM     36  C   UNL A   1      40.301  23.655  26.822  1.00  0.00     0.010 A 
ATOM     37  C   UNL A   1      41.767  22.855  28.552  1.00  0.00     0.010 A 
ATOM     38  C   UNL A   1      41.121  23.940  27.918  1.00  0.00    -0.014 A 
BRANCH  38  39
ATOM     39  C   UNL A   1      41.562  25.366  28.150  1.00  0.00     0.031 A 
ATOM     40  C   UNL A   1      42.940  25.759  27.645  1.00  0.00     0.074 A 
ATOM     41  C   UNL A   1      40.792  26.333  28.696  1.00  0.00     0.049 A 
ATOM     42  N   UNL A   1      43.574  26.902  27.729  1.00  0.00    -0.248 NA
ATOM     43  C   UNL A   1      43.698  24.707  26.952  1.00  0.00     0.031 C 
ATOM     44  C   UNL A   1      39.422  26.169  29.175  1.00  0.00     0.029 A 
ATOM     45  N   UNL A   1      41.066  27.667  28.938  1.00  0.00    -0.354 N 
ATOM     46  C   UNL A   1      44.811  26.699  27.120  1.00  0.00     0.074 A 
ATOM     47  C   UNL A   1      44.848  25.313  26.708  1.00  0.00     0.031 C 
ATOM     48  C   UNL A   1      38.982  27.346  29.663  1.00  0.00     0.029 A 
ATOM     49  C   UNL A   1      40.044  28.353  29.562  1.00  0.00     0.049 A 
ATOM     50  H   UNL A   1      41.918  28.092  28.687  1.00  0.00     0.167 HD
ATOM     51  C   UNL A   1      45.825  27.574  26.905  1.00  0.00     0.034 A 
ATOM     52  C   UNL A   1      39.970  29.627  30.017  1.00  0.00     0.034 A 
ATOM     53  C   UNL A   1      45.808  28.963  27.294  1.00  0.00     0.049 A 
ATOM     54  C   UNL A   1      41.146  30.571  29.836  1.00  0.00     0.074 A 
ATOM     55  C   UNL A   1      46.790  29.920  27.097  1.00  0.00     0.029 A 
ATOM     56  N   UNL A   1      44.769  29.596  27.960  1.00  0.00    -0.354 N 
ATOM     57  N   UNL A   1      42.305  30.357  29.257  1.00  0.00    -0.248 NA
ATOM     58  C   UNL A   1      40.992  31.939  30.360  1.00  0.00     0.031 C 
ATOM     59  C   UNL A   1      46.379  31.108  27.709  1.00  0.00     0.029 A 
ATOM     60  C   UNL A   1      45.101  30.921  28.208  1.00  0.00     0.049 A 
ATOM     61  H   UNL A   1      43.922  29.169  28.219  1.00  0.00     0.167 HD
ATOM     62  C   UNL A   1      42.991  31.573  29.310  1.00  0.00     0.074 A 
ATOM     63  C   UNL A   1      42.114  32.519  29.963  1.00  0.00     0.031 C 
ATOM     64  C   UNL A   1      44.234  31.877  28.853  1.00  0.00     0.034 A 
BRANCH  51  65
ATOM     65  C   UNL A   1      47.077  27.033  26.256  1.00  0.00     0.023 A 
ATOM     66  C   UNL A   1      48.149  26.527  27.011  1.00  0.00     0.031 A 
ATOM     67  C   UNL A   1      47.202  27.041  24.855  1.00  0.00     0.131 A 
ATOM     68  C   UNL A   1      49.324  26.113  26.365  1.00  0.00     0.055 A 
ATOM     69  C   UNL A   1      48.341  26.551  24.215  1.00  0.00     0.041 A 
ATOM     70  F   UNL A   1      46.219  27.533  24.084  1.00  0.00    -0.206 F 
ATOM     71  C   UNL A   1      49.417  26.096  24.971  1.00  0.00     0.022 A 
BRANCH  68  72
ATOM     72  S   UNL A   1      50.780  25.727  27.375  1.00  0.00     0.124 S 
ATOM     73  O   UNL A   1      51.449  27.023  27.435  1.00  0.00    -0.237 OA
ATOM     74  O   UNL A   1      50.184  25.257  28.621  1.00  0.00    -0.237 OA
ATOM     75  O   UNL A   1      51.478  24.708  26.594  1.00  0.00    -0.744 OA
ENDBRANCH  68  72
ENDBRANCH  51  65
BRANCH  52  76
ATOM     76  C   UNL A   1      38.759  30.114  30.756  1.00  0.00     0.023 A 
ATOM     77  C   UNL A   1      37.810  30.958  30.148  1.00  0.00     0.031 A 
ATOM     78  C   UNL A   1      38.602  29.839  32.127  1.00  0.00     0.131 A 
ATOM     79  C   UNL A   1      36.788  31.540  30.920  1.00  0.00     0.055 A 
ATOM     80  C   UNL A   1      37.549  30.372  32.876  1.00  0.00     0.041 A 
ATOM     81  F   UNL A   1      39.483  29.053  32.767  1.00  0.00    -0.206 F 
ATOM     82  C   UNL A   1      36.644  31.242  32.276  1.00  0.00     0.022 A 
BRANCH  79  83
ATOM     83  S   UNL A   1      35.712  32.787  30.153  1.00  0.00     0.124 S 
ATOM     84  O   UNL A   1      35.259  33.543  31.313  1.00  0.00    -0.237 OA
ATOM     85  O   UNL A   1      36.638  33.474  29.258  1.00  0.00    -0.237 OA
ATOM     86  O   UNL A   1      34.686  31.987  29.486  1.00  0.00    -0.744 OA
ENDBRANCH  79  83
ENDBRANCH  52  76
BRANCH  64  87
ATOM     87  C   UNL A   1      44.699  33.314  28.972  1.00  0.00     0.023 A 
ATOM     88  C   UNL A   1      45.419  33.784  30.087  1.00  0.00     0.031 A 
ATOM     89  C   UNL A   1      44.394  34.240  27.955  1.00  0.00     0.131 A 
ATOM     90  C   UNL A   1      45.746  35.147  30.191  1.00  0.00     0.055 A 
ATOM     91  C   UNL A   1      44.783  35.580  28.032  1.00  0.00     0.041 A 
ATOM     92  F   UNL A   1      43.710  33.858  26.866  1.00  0.00    -0.206 F 
ATOM     93  C   UNL A   1      45.446  36.044  29.163  1.00  0.00     0.022 A 
BRANCH  90  94
ATOM     94  S   UNL A   1      46.458  35.761  31.743  1.00  0.00     0.124 S 
ATOM     95  O   UNL A   1      47.540  34.811  31.980  1.00  0.00    -0.237 OA
ATOM     96  O   UNL A   1      46.867  37.115  31.383  1.00  0.00    -0.237 OA
ATOM     97  O   UNL A   1      45.345  35.681  32.688  1.00  0.00    -0.744 OA
ENDBRANCH  90  94
ENDBRANCH  64  87
ENDBRANCH  38  39
ENDBRANCH  31  33
ENDBRANCH  30  31
ENDBRANCH  29  30
ENDBRANCH  28  29
ENDBRANCH   1  28
TORSDOF 23
ENDMDL
MODEL 3
REMARK VINA RESULT:     -11.7      2.246      4.323
REMARK SMILES C[C@@](COc1ccccc1)(NC(=O)CN1CSCC1=O)C(=O)OCCOCCOC(=O)c1ccc(-c2c3nc(c(-c4cc(S(=O)(=O)[O-])ccc4F)c4ccc([nH]4)c(-c4cc(S(=O)(=O)[O-])ccc4F)c4nc(c(-c5cc(S(=O)(=O)[O-])ccc5F)c5ccc2[nH]5)C=C4)C=C3)cc1
REMARK SMILES IDX 26 1 25 2 24 3 23 4 21 5 22 6 2 7 1 8 3 9 4 10 5 11 6 12
REMARK SMILES IDX 10 13 7 14 9 15 8 16 11 17 12 18 13 20 14 21 15 22 16 23
REMARK SMILES IDX 19 24 17 25 18 26 20 27 27 28 28 29 29 30 30 31 31 32 32 33
REMARK SMILES IDX 33 34 94 35 34 36 93 37 35 38 36 39 37 40 87 41 38 42 92 43
REMARK SMILES IDX 86 44 88 45 39 46 91 47 85 48 84 49 40 51 72 52 52 53 71 54
REMARK SMILES IDX 53 55 56 56 70 57 89 58 54 59 55 60 69 62 90 63 57 64 41 65
REMARK SMILES IDX 42 66 50 67 43 68 49 69 51 70 48 71 44 72 45 73 46 74 47 75
REMARK SMILES IDX 73 76 74 77 82 78 75 79 81 80 83 81 80 82 76 83 77 84 78 85
REMARK SMILES IDX 79 86 58 87 59 88 67 89 60 90 66 91 68 92 65 93 61 94 62 95
REMARK SMILES IDX 63 96 64 97
REMARK H PARENT 11 19 88 50 56 61
REMARK Flexibility Score: inf
ROOT
ATOM      1  O   UNL A   1      36.091  22.639  25.025  1.00  0.00    -0.374 OA
ENDROOT
BRANCH   1   2
ATOM      2  C   UNL A   1      35.138  23.446  25.779  1.00  0.00     0.202 C 
BRANCH   2   3
ATOM      3  C   UNL A   1      35.198  24.956  25.724  1.00  0.00     0.261 C 
BRANCH   3   4
ATOM      4  O   UNL A   1      34.047  25.405  25.018  1.00  0.00    -0.461 OA
BRANCH   4   5
ATOM      5  C   UNL A   1      33.290  26.306  25.670  1.00  0.00     0.335 C 
ATOM      6  O   UNL A   1      32.895  26.186  26.824  1.00  0.00    -0.249 OA
BRANCH   5   7
ATOM      7  C   UNL A   1      33.159  27.590  24.858  1.00  0.00     0.169 C 
ATOM      8  C   UNL A   1      34.072  28.606  25.569  1.00  0.00     0.051 C 
BRANCH   7   9
ATOM      9  C   UNL A   1      31.662  28.000  25.047  1.00  0.00     0.269 C 
BRANCH   9  10
ATOM     10  O   UNL A   1      31.375  29.274  24.424  1.00  0.00    -0.491 OA
BRANCH  10  11
ATOM     11  C   UNL A   1      30.127  29.309  23.870  1.00  0.00     0.119 A 
ATOM     12  C   UNL A   1      29.452  28.136  23.543  1.00  0.00     0.046 A 
ATOM     13  C   UNL A   1      29.547  30.552  23.622  1.00  0.00     0.046 A 
ATOM     14  C   UNL A   1      28.151  28.208  23.049  1.00  0.00     0.004 A 
ATOM     15  C   UNL A   1      28.235  30.622  23.161  1.00  0.00     0.004 A 
ATOM     16  C   UNL A   1      27.534  29.449  22.881  1.00  0.00     0.000 A 
ENDBRANCH  10  11
ENDBRANCH   9  10
ENDBRANCH   7   9
BRANCH   7  17
ATOM     17  N   UNL A   1      33.358  27.509  23.371  1.00  0.00    -0.336 N 
ATOM     18  C   UNL A   1      33.076  26.793  22.263  1.00  0.00     0.240 C 
ATOM     19  H   UNL A   1      33.911  28.278  23.100  1.00  0.00     0.164 HD
ATOM     20  O   UNL A   1      33.719  27.163  21.263  1.00  0.00    -0.273 OA
BRANCH  18  21
ATOM     21  C   UNL A   1      31.978  25.720  22.049  1.00  0.00     0.220 C 
BRANCH  21  22
ATOM     22  N   UNL A   1      31.915  24.550  22.938  1.00  0.00    -0.323 N 
ATOM     23  C   UNL A   1      30.682  24.162  24.409  1.00  0.00     0.190 C 
ATOM     24  C   UNL A   1      32.941  23.197  22.347  1.00  0.00     0.233 C 
ATOM     25  S   UNL A   1      31.266  22.005  25.241  1.00  0.00    -0.130 SA
ATOM     26  C   UNL A   1      32.837  21.619  23.528  1.00  0.00     0.171 C 
ATOM     27  O   UNL A   1      33.625  23.225  21.332  1.00  0.00    -0.274 OA
ENDBRANCH  21  22
ENDBRANCH  18  21
ENDBRANCH   7  17
ENDBRANCH   5   7
ENDBRANCH   4   5
ENDBRANCH   3   4
ENDBRANCH   2   3
ENDBRANCH   1   2
BRANCH   1  28
ATOM     28  C   UNL A   1      36.445  21.118  25.297  1.00  0.00     0.202 C 
BRANCH  28  29
ATOM     29  C   UNL A   1      38.232  19.948  24.858  1.00  0.00     0.261 C 
BRANCH  29  30
ATOM     30  O   UNL A   1      39.365  19.492  26.034  1.00  0.00    -0.460 OA
BRANCH  30  31
ATOM     31  C   UNL A   1      40.650  19.952  26.103  1.00  0.00     0.338 C 
ATOM     32  O   UNL A   1      41.545  19.595  25.355  1.00  0.00    -0.246 OA
BRANCH  31  33
ATOM     33  C   UNL A   1      40.706  21.264  26.856  1.00  0.00     0.060 A 
ATOM     34  C   UNL A   1      39.920  22.343  26.398  1.00  0.00     0.016 A 
ATOM     35  C   UNL A   1      41.556  21.490  27.940  1.00  0.00     0.016 A 
ATOM     36  C   UNL A   1      40.023  23.632  26.957  1.00  0.00     0.010 A 
ATOM     37  C   UNL A   1      41.678  22.794  28.488  1.00  0.00     0.010 A 
ATOM     38  C   UNL A   1      40.961  23.893  27.961  1.00  0.00    -0.014 A 
BRANCH  38  39
ATOM     39  C   UNL A   1      41.423  25.313  28.180  1.00  0.00     0.031 A 
ATOM     40  C   UNL A   1      42.794  25.690  27.645  1.00  0.00     0.074 A 
ATOM     41  C   UNL A   1      40.675  26.291  28.738  1.00  0.00     0.049 A 
ATOM     42  N   UNL A   1      43.443  26.826  27.713  1.00  0.00    -0.248 NA
ATOM     43  C   UNL A   1      43.527  24.627  26.940  1.00  0.00     0.031 C 
ATOM     44  C   UNL A   1      39.313  26.143  29.245  1.00  0.00     0.029 A 
ATOM     45  N   UNL A   1      40.968  27.622  28.970  1.00  0.00    -0.354 N 
ATOM     46  C   UNL A   1      44.664  26.607  27.080  1.00  0.00     0.074 A 
ATOM     47  C   UNL A   1      44.678  25.220  26.671  1.00  0.00     0.031 C 
ATOM     48  C   UNL A   1      38.897  27.327  29.739  1.00  0.00     0.029 A 
ATOM     49  C   UNL A   1      39.967  28.321  29.613  1.00  0.00     0.049 A 
ATOM     50  H   UNL A   1      41.820  28.037  28.701  1.00  0.00     0.167 HD
ATOM     51  C   UNL A   1      45.684  27.471  26.841  1.00  0.00     0.034 A 
ATOM     52  C   UNL A   1      39.917  29.597  30.066  1.00  0.00     0.034 A 
ATOM     53  C   UNL A   1      45.690  28.861  27.226  1.00  0.00     0.049 A 
ATOM     54  C   UNL A   1      41.099  30.528  29.858  1.00  0.00     0.074 A 
ATOM     55  C   UNL A   1      46.678  29.807  27.007  1.00  0.00     0.029 A 
ATOM     56  N   UNL A   1      44.672  29.507  27.911  1.00  0.00    -0.354 N 
ATOM     57  N   UNL A   1      42.243  30.299  29.256  1.00  0.00    -0.248 NA
ATOM     58  C   UNL A   1      40.971  31.899  30.381  1.00  0.00     0.031 C 
ATOM     59  C   UNL A   1      46.293  31.001  27.624  1.00  0.00     0.029 A 
ATOM     60  C   UNL A   1      45.024  30.830  28.148  1.00  0.00     0.049 A 
ATOM     61  H   UNL A   1      43.826  29.090  28.189  1.00  0.00     0.167 HD
ATOM     62  C   UNL A   1      42.944  31.508  29.292  1.00  0.00     0.074 A 
ATOM     63  C   UNL A   1      42.091  32.465  29.959  1.00  0.00     0.031 C 
ATOM     64  C   UNL A   1      44.180  31.797  28.809  1.00  0.00     0.034 A 
BRANCH  51  65
ATOM     65  C   UNL A   1      46.917  26.914  26.169  1.00  0.00     0.023 A 
ATOM     66  C   UNL A   1      47.952  26.304  26.897  1.00  0.00     0.031 A 
ATOM     67  C   UNL A   1      47.061  27.013  24.773  1.00  0.00     0.131 A 
ATOM     68  C   UNL A   1      49.113  25.877  26.235  1.00  0.00     0.055 A 
ATOM     69  C   UNL A   1      48.182  26.513  24.111  1.00  0.00     0.041 A 
ATOM     70  F   UNL A   1      46.114  27.606  24.028  1.00  0.00    -0.206 F 
ATOM     71  C   UNL A   1      49.224  25.953  24.845  1.00  0.00     0.022 A 
BRANCH  68  72
ATOM     72  S   UNL A   1      50.534  25.349  27.230  1.00  0.00     0.124 S 
ATOM     73  O   UNL A   1      50.869  26.579  27.943  1.00  0.00    -0.237 OA
ATOM     74  O   UNL A   1      49.970  24.274  28.040  1.00  0.00    -0.237 OA
ATOM     75  O   UNL A   1      51.515  24.929  26.232  1.00  0.00    -0.744 OA
ENDBRANCH  68  72
ENDBRANCH  51  65
BRANCH  52  76
ATOM     76  C   UNL A   1      38.726  30.100  30.828  1.00  0.00     0.023 A 
ATOM     77  C   UNL A   1      37.658  30.754  30.185  1.00  0.00     0.031 A 
ATOM     78  C   UNL A   1      38.703  30.041  32.234  1.00  0.00     0.131 A 
ATOM     79  C   UNL A   1      36.649  31.370  30.947  1.00  0.00     0.055 A 
ATOM     80  C   UNL A   1      37.667  30.604  32.983  1.00  0.00     0.041 A 
ATOM     81  F   UNL A   1      39.701  29.444  32.904  1.00  0.00    -0.206 F 
ATOM     82  C   UNL A   1      36.639  31.287  32.340  1.00  0.00     0.022 A 
BRANCH  79  83
ATOM     83  S   UNL A   1      35.404  32.384  30.097  1.00  0.00     0.124 S 
ATOM     84  O   UNL A   1      34.381  32.523  31.125  1.00  0.00    -0.237 OA
ATOM     85  O   UNL A   1      36.164  33.589  29.778  1.00  0.00    -0.237 OA
ATOM     86  O   UNL A   1      35.028  31.566  28.945  1.00  0.00    -0.744 OA
ENDBRANCH  79  83
ENDBRANCH  52  76
BRANCH  64  87
ATOM     87  C   UNL A   1      44.664  33.229  28.914  1.00  0.00     0.023 A 
ATOM     88  C   UNL A   1      45.378  33.704  30.030  1.00  0.00     0.031 A 
ATOM     89  C   UNL A   1      44.382  34.146  27.882  1.00  0.00     0.131 A 
ATOM     90  C   UNL A   1      45.722  35.063  30.119  1.00  0.00     0.055 A 
ATOM     91  C   UNL A   1      44.788  35.481  27.945  1.00  0.00     0.041 A 
ATOM     92  F   UNL A   1      43.704  33.759  26.790  1.00  0.00    -0.206 F 
ATOM     93  C   UNL A   1      45.446  35.951  29.077  1.00  0.00     0.022 A 
BRANCH  90  94
ATOM     94  S   UNL A   1      46.427  35.688  31.671  1.00  0.00     0.124 S 
ATOM     95  O   UNL A   1      46.172  37.121  31.568  1.00  0.00    -0.237 OA
ATOM     96  O   UNL A   1      45.647  34.973  32.677  1.00  0.00    -0.237 OA
ATOM     97  O   UNL A   1      47.835  35.302  31.590  1.00  0.00    -0.744 OA
ENDBRANCH  90  94
ENDBRANCH  64  87
ENDBRANCH  38  39
ENDBRANCH  31  33
ENDBRANCH  30  31
ENDBRANCH  29  30
ENDBRANCH  28  29
ENDBRANCH   1  28
TORSDOF 23
ENDMDL
