MODEL 1
REMARK VINA RESULT:      -9.4      0.000      0.000
REMARK SMILES O=C(Cc1ccn(C(F)F)c(=O)c1)OCCOCCOC(=O)c1ccc(-c2c3nc(c(-c4cc(S(=O)(=O)[O-])ccc4F)c4ccc([nH]4)c(-c4cc(S(=O)(=O)[O-])ccc4F)c4nc(c(-c5cc(S(=O)(=O)[O-])ccc5F)c5ccc2[nH]5)C=C4)C=C3)cc1
REMARK SMILES IDX 18 1 17 2 16 3 15 4 14 5 2 6 1 7 3 8 4 9 5 10 13 11 6 12
REMARK SMILES IDX 11 13 7 14 12 15 8 16 9 17 10 18 19 19 20 20 21 21 22 22
REMARK SMILES IDX 23 23 24 24 85 25 25 26 84 27 26 28 27 29 28 30 78 31 29 32
REMARK SMILES IDX 83 33 77 34 79 35 30 36 82 37 76 38 75 39 31 41 63 42 43 43
REMARK SMILES IDX 62 44 44 45 47 46 61 47 80 48 45 49 46 50 60 52 81 53 48 54
REMARK SMILES IDX 32 55 33 56 41 57 34 58 40 59 42 60 39 61 35 62 36 63 37 64
REMARK SMILES IDX 38 65 64 66 65 67 73 68 66 69 72 70 74 71 71 72 67 73 68 74
REMARK SMILES IDX 69 75 70 76 49 77 50 78 58 79 51 80 57 81 59 82 56 83 52 84
REMARK SMILES IDX 53 85 54 86 55 87
REMARK H PARENT 79 40 47 51
REMARK Flexibility Score: inf
ROOT
ATOM      1  C   UNL A   1      43.023  18.556  25.895  1.00  0.00     0.202 C 
ENDROOT
BRANCH   1   2
ATOM      2  O   UNL A   1      44.408  18.910  25.807  1.00  0.00    -0.374 OA
BRANCH   2   3
ATOM      3  C   UNL A   1      44.925  19.240  24.528  1.00  0.00     0.202 C 
BRANCH   3   4
ATOM      4  C   UNL A   1      45.157  20.715  24.195  1.00  0.00     0.261 C 
BRANCH   4   5
ATOM      5  O   UNL A   1      46.266  21.359  24.843  1.00  0.00    -0.463 OA
BRANCH   5   6
ATOM      6  C   UNL A   1      46.244  22.561  25.465  1.00  0.00     0.310 C 
ATOM      7  O   UNL A   1      46.058  22.615  26.681  1.00  0.00    -0.252 OA
BRANCH   6   8
ATOM      8  C   UNL A   1      46.335  23.842  24.650  1.00  0.00     0.158 C 
BRANCH   8   9
ATOM      9  C   UNL A   1      45.403  24.967  24.996  1.00  0.00    -0.030 A 
ATOM     10  C   UNL A   1      43.993  24.629  25.060  1.00  0.00     0.023 A 
ATOM     11  C   UNL A   1      45.779  26.247  25.164  1.00  0.00     0.076 A 
ATOM     12  C   UNL A   1      43.074  25.592  25.185  1.00  0.00     0.095 A 
ATOM     13  C   UNL A   1      44.763  27.334  25.239  1.00  0.00     0.255 A 
ATOM     14  N   UNL A   1      43.441  26.922  25.267  1.00  0.00    -0.258 N 
ATOM     15  O   UNL A   1      45.154  28.495  25.230  1.00  0.00    -0.269 OA
BRANCH  14  16
ATOM     16  C   UNL A   1      42.436  27.953  25.264  1.00  0.00     0.451 C 
ATOM     17  F   UNL A   1      41.213  27.469  25.583  1.00  0.00    -0.185 F 
ATOM     18  F   UNL A   1      42.754  28.930  26.147  1.00  0.00    -0.185 F 
ENDBRANCH  14  16
ENDBRANCH   8   9
ENDBRANCH   6   8
ENDBRANCH   5   6
ENDBRANCH   4   5
ENDBRANCH   3   4
ENDBRANCH   2   3
ENDBRANCH   1   2
BRANCH   1  19
ATOM     19  C   UNL A   1      42.199  19.163  27.034  1.00  0.00     0.261 C 
BRANCH  19  20
ATOM     20  O   UNL A   1      42.252  20.598  27.015  1.00  0.00    -0.460 OA
BRANCH  20  21
ATOM     21  C   UNL A   1      41.055  21.233  27.059  1.00  0.00     0.338 C 
ATOM     22  O   UNL A   1      39.954  20.739  26.877  1.00  0.00    -0.246 OA
BRANCH  21  23
ATOM     23  C   UNL A   1      41.270  22.584  27.610  1.00  0.00     0.060 A 
ATOM     24  C   UNL A   1      42.268  22.818  28.557  1.00  0.00     0.016 A 
ATOM     25  C   UNL A   1      40.453  23.631  27.158  1.00  0.00     0.016 A 
ATOM     26  C   UNL A   1      42.466  24.114  29.031  1.00  0.00     0.010 A 
ATOM     27  C   UNL A   1      40.654  24.926  27.635  1.00  0.00     0.010 A 
ATOM     28  C   UNL A   1      41.679  25.179  28.556  1.00  0.00    -0.014 A 
BRANCH  28  29
ATOM     29  C   UNL A   1      42.057  26.573  28.888  1.00  0.00     0.031 A 
ATOM     30  C   UNL A   1      43.477  27.042  28.832  1.00  0.00     0.074 A 
ATOM     31  C   UNL A   1      41.072  27.414  29.255  1.00  0.00     0.049 A 
ATOM     32  N   UNL A   1      43.941  28.254  28.994  1.00  0.00    -0.248 NA
ATOM     33  C   UNL A   1      44.509  26.030  28.570  1.00  0.00     0.031 C 
ATOM     34  C   UNL A   1      39.665  27.032  29.387  1.00  0.00     0.029 A 
ATOM     35  N   UNL A   1      41.088  28.748  29.572  1.00  0.00    -0.354 N 
ATOM     36  C   UNL A   1      45.317  28.160  28.833  1.00  0.00     0.074 A 
ATOM     37  C   UNL A   1      45.617  26.761  28.614  1.00  0.00     0.031 C 
ATOM     38  C   UNL A   1      38.947  28.113  29.720  1.00  0.00     0.029 A 
ATOM     39  C   UNL A   1      39.844  29.257  29.866  1.00  0.00     0.049 A 
ATOM     40  H   UNL A   1      41.910  29.289  29.589  1.00  0.00     0.167 HD
ATOM     41  C   UNL A   1      46.232  29.160  28.849  1.00  0.00     0.034 A 
ATOM     42  C   UNL A   1      39.462  30.505  30.207  1.00  0.00     0.034 A 
ATOM     43  C   UNL A   1      45.899  30.545  29.087  1.00  0.00     0.049 A 
ATOM     44  C   UNL A   1      40.501  31.595  30.232  1.00  0.00     0.074 A 
ATOM     45  C   UNL A   1      46.746  31.639  29.075  1.00  0.00     0.029 A 
ATOM     46  N   UNL A   1      44.632  31.028  29.389  1.00  0.00    -0.354 N 
ATOM     47  N   UNL A   1      41.784  31.514  29.963  1.00  0.00    -0.248 NA
ATOM     48  C   UNL A   1      40.049  32.945  30.585  1.00  0.00     0.031 C 
ATOM     49  C   UNL A   1      46.013  32.764  29.453  1.00  0.00     0.029 A 
ATOM     50  C   UNL A   1      44.685  32.397  29.603  1.00  0.00     0.049 A 
ATOM     51  H   UNL A   1      43.817  30.479  29.445  1.00  0.00     0.167 HD
ATOM     52  C   UNL A   1      42.285  32.806  30.085  1.00  0.00     0.074 A 
ATOM     53  C   UNL A   1      41.161  33.653  30.429  1.00  0.00     0.031 C 
ATOM     54  C   UNL A   1      43.560  33.245  29.928  1.00  0.00     0.034 A 
BRANCH  41  55
ATOM     55  C   UNL A   1      47.681  28.830  28.579  1.00  0.00     0.023 A 
ATOM     56  C   UNL A   1      48.117  28.583  27.264  1.00  0.00     0.031 A 
ATOM     57  C   UNL A   1      48.586  28.599  29.631  1.00  0.00     0.131 A 
ATOM     58  C   UNL A   1      49.403  28.073  27.037  1.00  0.00     0.055 A 
ATOM     59  C   UNL A   1      49.883  28.139  29.397  1.00  0.00     0.041 A 
ATOM     60  F   UNL A   1      48.218  28.807  30.906  1.00  0.00    -0.206 F 
ATOM     61  C   UNL A   1      50.290  27.858  28.097  1.00  0.00     0.022 A 
BRANCH  58  62
ATOM     62  S   UNL A   1      49.939  27.583  25.375  1.00  0.00     0.124 S 
ATOM     63  O   UNL A   1      51.242  28.238  25.274  1.00  0.00    -0.237 OA
ATOM     64  O   UNL A   1      49.981  26.127  25.485  1.00  0.00    -0.237 OA
ATOM     65  O   UNL A   1      48.904  28.121  24.498  1.00  0.00    -0.744 OA
ENDBRANCH  58  62
ENDBRANCH  41  55
BRANCH  42  66
ATOM     66  C   UNL A   1      38.016  30.771  30.464  1.00  0.00     0.023 A 
ATOM     67  C   UNL A   1      37.176  31.237  29.435  1.00  0.00     0.031 A 
ATOM     68  C   UNL A   1      37.486  30.691  31.762  1.00  0.00     0.131 A 
ATOM     69  C   UNL A   1      35.883  31.680  29.736  1.00  0.00     0.055 A 
ATOM     70  C   UNL A   1      36.169  31.059  32.044  1.00  0.00     0.041 A 
ATOM     71  F   UNL A   1      38.252  30.272  32.781  1.00  0.00    -0.206 F 
ATOM     72  C   UNL A   1      35.367  31.575  31.031  1.00  0.00     0.022 A 
BRANCH  69  73
ATOM     73  S   UNL A   1      34.885  32.545  28.492  1.00  0.00     0.124 S 
ATOM     74  O   UNL A   1      34.179  33.533  29.300  1.00  0.00    -0.237 OA
ATOM     75  O   UNL A   1      35.915  33.076  27.602  1.00  0.00    -0.237 OA
ATOM     76  O   UNL A   1      34.057  31.488  27.920  1.00  0.00    -0.744 OA
ENDBRANCH  69  73
ENDBRANCH  42  66
BRANCH  54  77
ATOM     77  C   UNL A   1      43.850  34.718  30.108  1.00  0.00     0.023 A 
ATOM     78  C   UNL A   1      44.116  35.225  31.397  1.00  0.00     0.031 A 
ATOM     79  C   UNL A   1      43.697  35.635  29.054  1.00  0.00     0.131 A 
ATOM     80  C   UNL A   1      44.165  36.609  31.607  1.00  0.00     0.055 A 
ATOM     81  C   UNL A   1      43.808  37.011  29.259  1.00  0.00     0.041 A 
ATOM     82  F   UNL A   1      43.430  35.207  27.810  1.00  0.00    -0.206 F 
ATOM     83  C   UNL A   1      44.023  37.505  30.543  1.00  0.00     0.022 A 
BRANCH  80  84
ATOM     84  S   UNL A   1      44.305  37.297  33.280  1.00  0.00     0.124 S 
ATOM     85  O   UNL A   1      45.085  36.270  33.965  1.00  0.00    -0.237 OA
ATOM     86  O   UNL A   1      45.007  38.554  33.035  1.00  0.00    -0.237 OA
ATOM     87  O   UNL A   1      42.921  37.427  33.725  1.00  0.00    -0.744 OA
ENDBRANCH  80  84
ENDBRANCH  54  77
ENDBRANCH  28  29
ENDBRANCH  21  23
ENDBRANCH  20  21
ENDBRANCH  19  20
ENDBRANCH   1  19
TORSDOF 19
ENDMDL
MODEL 2
REMARK VINA RESULT:      -9.3      6.304     11.735
REMARK SMILES O=C(Cc1ccn(C(F)F)c(=O)c1)OCCOCCOC(=O)c1ccc(-c2c3nc(c(-c4cc(S(=O)(=O)[O-])ccc4F)c4ccc([nH]4)c(-c4cc(S(=O)(=O)[O-])ccc4F)c4nc(c(-c5cc(S(=O)(=O)[O-])ccc5F)c5ccc2[nH]5)C=C4)C=C3)cc1
REMARK SMILES IDX 18 1 17 2 16 3 15 4 14 5 2 6 1 7 3 8 4 9 5 10 13 11 6 12
REMARK SMILES IDX 11 13 7 14 12 15 8 16 9 17 10 18 19 19 20 20 21 21 22 22
REMARK SMILES IDX 23 23 24 24 85 25 25 26 84 27 26 28 27 29 28 30 78 31 29 32
REMARK SMILES IDX 83 33 77 34 79 35 30 36 82 37 76 38 75 39 31 41 63 42 43 43
REMARK SMILES IDX 62 44 44 45 47 46 61 47 80 48 45 49 46 50 60 52 81 53 48 54
REMARK SMILES IDX 32 55 33 56 41 57 34 58 40 59 42 60 39 61 35 62 36 63 37 64
REMARK SMILES IDX 38 65 64 66 65 67 73 68 66 69 72 70 74 71 71 72 67 73 68 74
REMARK SMILES IDX 69 75 70 76 49 77 50 78 58 79 51 80 57 81 59 82 56 83 52 84
REMARK SMILES IDX 53 85 54 86 55 87
REMARK H PARENT 79 40 47 51
REMARK Flexibility Score: inf
ROOT
ATOM      1  C   UNL A   1      31.695  29.331  25.814  1.00  0.00     0.202 C 
ENDROOT
BRANCH   1   2
ATOM      2  O   UNL A   1      32.721  28.444  25.358  1.00  0.00    -0.374 OA
BRANCH   2   3
ATOM      3  C   UNL A   1      33.341  27.603  26.319  1.00  0.00     0.202 C 
BRANCH   3   4
ATOM      4  C   UNL A   1      33.404  26.101  26.040  1.00  0.00     0.261 C 
BRANCH   4   5
ATOM      5  O   UNL A   1      32.223  25.494  25.491  1.00  0.00    -0.463 OA
BRANCH   5   6
ATOM      6  C   UNL A   1      32.131  24.845  24.306  1.00  0.00     0.310 C 
ATOM      7  O   UNL A   1      32.396  23.645  24.245  1.00  0.00    -0.252 OA
BRANCH   6   8
ATOM      8  C   UNL A   1      31.812  25.621  23.037  1.00  0.00     0.158 C 
BRANCH   8   9
ATOM      9  C   UNL A   1      30.754  26.685  23.108  1.00  0.00    -0.030 A 
ATOM     10  C   UNL A   1      29.534  26.325  23.806  1.00  0.00     0.023 A 
ATOM     11  C   UNL A   1      30.837  27.886  22.508  1.00  0.00     0.076 A 
ATOM     12  C   UNL A   1      28.472  27.136  23.769  1.00  0.00     0.095 A 
ATOM     13  C   UNL A   1      29.641  28.768  22.406  1.00  0.00     0.255 A 
ATOM     14  N   UNL A   1      28.512  28.333  23.081  1.00  0.00    -0.258 N 
ATOM     15  O   UNL A   1      29.721  29.777  21.715  1.00  0.00    -0.269 OA
BRANCH  14  16
ATOM     16  C   UNL A   1      27.320  29.127  22.937  1.00  0.00     0.451 C 
ATOM     17  F   UNL A   1      26.213  28.456  23.334  1.00  0.00    -0.185 F 
ATOM     18  F   UNL A   1      27.415  30.265  23.667  1.00  0.00    -0.185 F 
ENDBRANCH  14  16
ENDBRANCH   8   9
ENDBRANCH   6   8
ENDBRANCH   5   6
ENDBRANCH   4   5
ENDBRANCH   3   4
ENDBRANCH   2   3
ENDBRANCH   1   2
BRANCH   1  19
ATOM     19  C   UNL A   1      32.123  30.600  26.557  1.00  0.00     0.261 C 
BRANCH  19  20
ATOM     20  O   UNL A   1      33.553  30.710  26.630  1.00  0.00    -0.460 OA
BRANCH  20  21
ATOM     21  C   UNL A   1      34.031  31.577  27.558  1.00  0.00     0.338 C 
ATOM     22  O   UNL A   1      33.419  32.480  28.103  1.00  0.00    -0.246 OA
BRANCH  21  23
ATOM     23  C   UNL A   1      35.357  31.099  27.994  1.00  0.00     0.060 A 
ATOM     24  C   UNL A   1      36.392  31.999  28.249  1.00  0.00     0.016 A 
ATOM     25  C   UNL A   1      35.553  29.720  28.153  1.00  0.00     0.016 A 
ATOM     26  C   UNL A   1      37.621  31.515  28.694  1.00  0.00     0.010 A 
ATOM     27  C   UNL A   1      36.784  29.239  28.598  1.00  0.00     0.010 A 
ATOM     28  C   UNL A   1      37.818  30.136  28.894  1.00  0.00    -0.014 A 
BRANCH  28  29
ATOM     29  C   UNL A   1      39.040  29.665  29.587  1.00  0.00     0.031 A 
ATOM     30  C   UNL A   1      39.438  30.186  30.932  1.00  0.00     0.074 A 
ATOM     31  C   UNL A   1      39.798  28.748  28.957  1.00  0.00     0.049 A 
ATOM     32  N   UNL A   1      40.419  29.791  31.701  1.00  0.00    -0.248 NA
ATOM     33  C   UNL A   1      38.643  31.292  31.486  1.00  0.00     0.031 C 
ATOM     34  C   UNL A   1      39.516  28.220  27.621  1.00  0.00     0.029 A 
ATOM     35  N   UNL A   1      40.938  28.092  29.343  1.00  0.00    -0.354 N 
ATOM     36  C   UNL A   1      40.352  30.582  32.841  1.00  0.00     0.074 A 
ATOM     37  C   UNL A   1      39.266  31.517  32.638  1.00  0.00     0.031 C 
ATOM     38  C   UNL A   1      40.435  27.295  27.314  1.00  0.00     0.029 A 
ATOM     39  C   UNL A   1      41.395  27.189  28.411  1.00  0.00     0.049 A 
ATOM     40  H   UNL A   1      41.387  28.251  30.204  1.00  0.00     0.167 HD
ATOM     41  C   UNL A   1      41.121  30.511  33.955  1.00  0.00     0.034 A 
ATOM     42  C   UNL A   1      42.460  26.363  28.433  1.00  0.00     0.034 A 
ATOM     43  C   UNL A   1      42.210  29.576  34.117  1.00  0.00     0.049 A 
ATOM     44  C   UNL A   1      43.308  26.315  29.678  1.00  0.00     0.074 A 
ATOM     45  C   UNL A   1      43.016  29.393  35.226  1.00  0.00     0.029 A 
ATOM     46  N   UNL A   1      42.653  28.681  33.152  1.00  0.00    -0.354 N 
ATOM     47  N   UNL A   1      43.164  26.987  30.797  1.00  0.00    -0.248 NA
ATOM     48  C   UNL A   1      44.447  25.389  29.679  1.00  0.00     0.031 C 
ATOM     49  C   UNL A   1      43.996  28.454  34.904  1.00  0.00     0.029 A 
ATOM     50  C   UNL A   1      43.745  27.972  33.628  1.00  0.00     0.049 A 
ATOM     51  H   UNL A   1      42.251  28.568  32.260  1.00  0.00     0.167 HD
ATOM     52  C   UNL A   1      44.174  26.544  31.644  1.00  0.00     0.074 A 
ATOM     53  C   UNL A   1      44.907  25.529  30.916  1.00  0.00     0.031 C 
ATOM     54  C   UNL A   1      44.465  26.946  32.908  1.00  0.00     0.034 A 
BRANCH  41  55
ATOM     55  C   UNL A   1      40.821  31.436  35.111  1.00  0.00     0.023 A 
ATOM     56  C   UNL A   1      39.722  31.182  35.953  1.00  0.00     0.031 A 
ATOM     57  C   UNL A   1      41.516  32.648  35.276  1.00  0.00     0.131 A 
ATOM     58  C   UNL A   1      39.319  32.145  36.888  1.00  0.00     0.055 A 
ATOM     59  C   UNL A   1      41.141  33.583  36.244  1.00  0.00     0.041 A 
ATOM     60  F   UNL A   1      42.565  32.946  34.493  1.00  0.00    -0.206 F 
ATOM     61  C   UNL A   1      40.029  33.340  37.042  1.00  0.00     0.022 A 
BRANCH  58  62
ATOM     62  S   UNL A   1      37.810  31.927  37.869  1.00  0.00     0.124 S 
ATOM     63  O   UNL A   1      38.291  32.194  39.224  1.00  0.00    -0.237 OA
ATOM     64  O   UNL A   1      36.931  32.950  37.309  1.00  0.00    -0.237 OA
ATOM     65  O   UNL A   1      37.418  30.546  37.611  1.00  0.00    -0.744 OA
ENDBRANCH  58  62
ENDBRANCH  41  55
BRANCH  42  66
ATOM     66  C   UNL A   1      42.709  25.474  27.261  1.00  0.00     0.023 A 
ATOM     67  C   UNL A   1      42.154  24.181  27.209  1.00  0.00     0.031 A 
ATOM     68  C   UNL A   1      43.603  25.849  26.246  1.00  0.00     0.131 A 
ATOM     69  C   UNL A   1      42.561  23.286  26.213  1.00  0.00     0.055 A 
ATOM     70  C   UNL A   1      43.946  24.980  25.208  1.00  0.00     0.041 A 
ATOM     71  F   UNL A   1      44.175  27.063  26.261  1.00  0.00    -0.206 F 
ATOM     72  C   UNL A   1      43.439  23.684  25.199  1.00  0.00     0.022 A 
BRANCH  69  73
ATOM     73  S   UNL A   1      42.086  21.537  26.285  1.00  0.00     0.124 S 
ATOM     74  O   UNL A   1      42.423  21.186  27.660  1.00  0.00    -0.237 OA
ATOM     75  O   UNL A   1      40.657  21.605  25.982  1.00  0.00    -0.237 OA
ATOM     76  O   UNL A   1      42.908  20.914  25.254  1.00  0.00    -0.744 OA
ENDBRANCH  69  73
ENDBRANCH  42  66
BRANCH  54  77
ATOM     77  C   UNL A   1      45.624  26.295  33.630  1.00  0.00     0.023 A 
ATOM     78  C   UNL A   1      45.386  25.208  34.496  1.00  0.00     0.031 A 
ATOM     79  C   UNL A   1      46.916  26.846  33.598  1.00  0.00     0.131 A 
ATOM     80  C   UNL A   1      46.407  24.745  35.334  1.00  0.00     0.055 A 
ATOM     81  C   UNL A   1      47.947  26.340  34.392  1.00  0.00     0.041 A 
ATOM     82  F   UNL A   1      47.194  27.889  32.801  1.00  0.00    -0.206 F 
ATOM     83  C   UNL A   1      47.691  25.298  35.278  1.00  0.00     0.022 A 
BRANCH  80  84
ATOM     84  S   UNL A   1      46.082  23.486  36.599  1.00  0.00     0.124 S 
ATOM     85  O   UNL A   1      45.490  22.410  35.810  1.00  0.00    -0.237 OA
ATOM     86  O   UNL A   1      47.422  23.217  37.114  1.00  0.00    -0.237 OA
ATOM     87  O   UNL A   1      45.173  24.147  37.530  1.00  0.00    -0.744 OA
ENDBRANCH  80  84
ENDBRANCH  54  77
ENDBRANCH  28  29
ENDBRANCH  21  23
ENDBRANCH  20  21
ENDBRANCH  19  20
ENDBRANCH   1  19
TORSDOF 19
ENDMDL
MODEL 3
REMARK VINA RESULT:      -9.3      4.478      6.289
REMARK SMILES O=C(Cc1ccn(C(F)F)c(=O)c1)OCCOCCOC(=O)c1ccc(-c2c3nc(c(-c4cc(S(=O)(=O)[O-])ccc4F)c4ccc([nH]4)c(-c4cc(S(=O)(=O)[O-])ccc4F)c4nc(c(-c5cc(S(=O)(=O)[O-])ccc5F)c5ccc2[nH]5)C=C4)C=C3)cc1
REMARK SMILES IDX 18 1 17 2 16 3 15 4 14 5 2 6 1 7 3 8 4 9 5 10 13 11 6 12
REMARK SMILES IDX 11 13 7 14 12 15 8 16 9 17 10 18 19 19 20 20 21 21 22 22
REMARK SMILES IDX 23 23 24 24 85 25 25 26 84 27 26 28 27 29 28 30 78 31 29 32
REMARK SMILES IDX 83 33 77 34 79 35 30 36 82 37 76 38 75 39 31 41 63 42 43 43
REMARK SMILES IDX 62 44 44 45 47 46 61 47 80 48 45 49 46 50 60 52 81 53 48 54
REMARK SMILES IDX 32 55 33 56 41 57 34 58 40 59 42 60 39 61 35 62 36 63 37 64
REMARK SMILES IDX 38 65 64 66 65 67 73 68 66 69 72 70 74 71 71 72 67 73 68 74
REMARK SMILES IDX 69 75 70 76 49 77 50 78 58 79 51 80 57 81 59 82 56 83 52 84
REMARK SMILES IDX 53 85 54 86 55 87
REMARK H PARENT 79 40 47 51
REMARK Flexibility Score: inf
ROOT
ATOM      1  C   UNL A   1      35.191  20.766  24.791  1.00  0.00     0.202 C 
ENDROOT
BRANCH   1   2
ATOM      2  O   UNL A   1      34.171  19.782  24.587  1.00  0.00    -0.374 OA
BRANCH   2   3
ATOM      3  C   UNL A   1      32.895  20.026  25.159  1.00  0.00     0.202 C 
BRANCH   3   4
ATOM      4  C   UNL A   1      32.225  21.376  24.895  1.00  0.00     0.261 C 
BRANCH   4   5
ATOM      5  O   UNL A   1      31.578  22.008  26.012  1.00  0.00    -0.463 OA
BRANCH   5   6
ATOM      6  C   UNL A   1      31.338  23.333  26.155  1.00  0.00     0.310 C 
ATOM      7  O   UNL A   1      31.481  23.864  27.256  1.00  0.00    -0.252 OA
BRANCH   6   8
ATOM      8  C   UNL A   1      30.786  24.136  24.987  1.00  0.00     0.158 C 
BRANCH   8   9
ATOM      9  C   UNL A   1      31.689  25.143  24.333  1.00  0.00    -0.030 A 
ATOM     10  C   UNL A   1      31.640  26.487  24.875  1.00  0.00     0.023 A 
ATOM     11  C   UNL A   1      32.454  24.896  23.255  1.00  0.00     0.076 A 
ATOM     12  C   UNL A   1      32.270  27.489  24.252  1.00  0.00     0.095 A 
ATOM     13  C   UNL A   1      33.106  26.013  22.516  1.00  0.00     0.255 A 
ATOM     14  N   UNL A   1      32.987  27.268  23.091  1.00  0.00    -0.258 N 
ATOM     15  O   UNL A   1      33.659  25.760  21.453  1.00  0.00    -0.269 OA
BRANCH  14  16
ATOM     16  C   UNL A   1      33.542  28.376  22.360  1.00  0.00     0.451 C 
ATOM     17  F   UNL A   1      32.736  29.462  22.397  1.00  0.00    -0.185 F 
ATOM     18  F   UNL A   1      34.750  28.722  22.866  1.00  0.00    -0.185 F 
ENDBRANCH  14  16
ENDBRANCH   8   9
ENDBRANCH   6   8
ENDBRANCH   5   6
ENDBRANCH   4   5
ENDBRANCH   3   4
ENDBRANCH   2   3
ENDBRANCH   1   2
BRANCH   1  19
ATOM     19  C   UNL A   1      36.632  20.278  24.965  1.00  0.00     0.261 C 
BRANCH  19  20
ATOM     20  O   UNL A   1      37.522  21.363  25.273  1.00  0.00    -0.460 OA
BRANCH  20  21
ATOM     21  C   UNL A   1      38.697  21.015  25.852  1.00  0.00     0.338 C 
ATOM     22  O   UNL A   1      39.279  19.947  25.750  1.00  0.00    -0.246 OA
BRANCH  21  23
ATOM     23  C   UNL A   1      39.299  22.228  26.437  1.00  0.00     0.060 A 
ATOM     24  C   UNL A   1      40.493  22.159  27.156  1.00  0.00     0.016 A 
ATOM     25  C   UNL A   1      38.648  23.456  26.249  1.00  0.00     0.016 A 
ATOM     26  C   UNL A   1      41.051  23.331  27.664  1.00  0.00     0.010 A 
ATOM     27  C   UNL A   1      39.209  24.627  26.759  1.00  0.00     0.010 A 
ATOM     28  C   UNL A   1      40.427  24.573  27.448  1.00  0.00    -0.014 A 
BRANCH  28  29
ATOM     29  C   UNL A   1      41.150  25.822  27.787  1.00  0.00     0.031 A 
ATOM     30  C   UNL A   1      42.556  26.069  27.339  1.00  0.00     0.074 A 
ATOM     31  C   UNL A   1      40.496  26.738  28.527  1.00  0.00     0.049 A 
ATOM     32  N   UNL A   1      43.274  27.153  27.470  1.00  0.00    -0.248 NA
ATOM     33  C   UNL A   1      43.250  24.962  26.666  1.00  0.00     0.031 C 
ATOM     34  C   UNL A   1      39.141  26.563  29.051  1.00  0.00     0.029 A 
ATOM     35  N   UNL A   1      40.863  27.987  28.957  1.00  0.00    -0.354 N 
ATOM     36  C   UNL A   1      44.499  26.874  26.879  1.00  0.00     0.074 A 
ATOM     37  C   UNL A   1      44.444  25.497  26.437  1.00  0.00     0.031 C 
ATOM     38  C   UNL A   1      38.775  27.676  29.700  1.00  0.00     0.029 A 
ATOM     39  C   UNL A   1      39.881  28.631  29.674  1.00  0.00     0.049 A 
ATOM     40  H   UNL A   1      41.744  28.385  28.772  1.00  0.00     0.167 HD
ATOM     41  C   UNL A   1      45.556  27.705  26.711  1.00  0.00     0.034 A 
ATOM     42  C   UNL A   1      39.865  29.853  30.243  1.00  0.00     0.034 A 
ATOM     43  C   UNL A   1      45.584  29.070  27.181  1.00  0.00     0.049 A 
ATOM     44  C   UNL A   1      41.059  30.752  30.053  1.00  0.00     0.074 A 
ATOM     45  C   UNL A   1      46.588  30.007  27.017  1.00  0.00     0.029 A 
ATOM     46  N   UNL A   1      44.578  29.691  27.911  1.00  0.00    -0.354 N 
ATOM     47  N   UNL A   1      42.168  30.516  29.391  1.00  0.00    -0.248 NA
ATOM     48  C   UNL A   1      41.001  32.084  30.666  1.00  0.00     0.031 C 
ATOM     49  C   UNL A   1      46.230  31.159  27.717  1.00  0.00     0.029 A 
ATOM     50  C   UNL A   1      44.956  30.984  28.236  1.00  0.00     0.049 A 
ATOM     51  H   UNL A   1      43.722  29.272  28.162  1.00  0.00     0.167 HD
ATOM     52  C   UNL A   1      42.925  31.679  29.482  1.00  0.00     0.074 A 
ATOM     53  C   UNL A   1      42.136  32.626  30.244  1.00  0.00     0.031 C 
ATOM     54  C   UNL A   1      44.161  31.934  28.981  1.00  0.00     0.034 A 
BRANCH  41  55
ATOM     55  C   UNL A   1      46.773  27.201  25.971  1.00  0.00     0.023 A 
ATOM     56  C   UNL A   1      47.803  26.542  26.670  1.00  0.00     0.031 A 
ATOM     57  C   UNL A   1      46.988  27.516  24.617  1.00  0.00     0.131 A 
ATOM     58  C   UNL A   1      49.017  26.266  26.028  1.00  0.00     0.055 A 
ATOM     59  C   UNL A   1      48.181  27.193  23.968  1.00  0.00     0.041 A 
ATOM     60  F   UNL A   1      46.043  28.154  23.907  1.00  0.00    -0.206 F 
ATOM     61  C   UNL A   1      49.208  26.580  24.678  1.00  0.00     0.022 A 
BRANCH  58  62
ATOM     62  S   UNL A   1      50.425  25.575  26.940  1.00  0.00     0.124 S 
ATOM     63  O   UNL A   1      50.804  26.695  27.800  1.00  0.00    -0.237 OA
ATOM     64  O   UNL A   1      49.817  24.440  27.628  1.00  0.00    -0.237 OA
ATOM     65  O   UNL A   1      51.390  25.240  25.897  1.00  0.00    -0.744 OA
ENDBRANCH  58  62
ENDBRANCH  41  55
BRANCH  42  66
ATOM     66  C   UNL A   1      38.636  30.297  30.964  1.00  0.00     0.023 A 
ATOM     67  C   UNL A   1      37.583  30.924  30.272  1.00  0.00     0.031 A 
ATOM     68  C   UNL A   1      38.552  30.221  32.363  1.00  0.00     0.131 A 
ATOM     69  C   UNL A   1      36.536  31.520  30.985  1.00  0.00     0.055 A 
ATOM     70  C   UNL A   1      37.466  30.747  33.066  1.00  0.00     0.041 A 
ATOM     71  F   UNL A   1      39.540  29.651  33.071  1.00  0.00    -0.206 F 
ATOM     72  C   UNL A   1      36.461  31.418  32.378  1.00  0.00     0.022 A 
BRANCH  69  73
ATOM     73  S   UNL A   1      35.322  32.574  30.144  1.00  0.00     0.124 S 
ATOM     74  O   UNL A   1      36.119  33.748  29.806  1.00  0.00    -0.237 OA
ATOM     75  O   UNL A   1      34.928  31.732  29.016  1.00  0.00    -0.237 OA
ATOM     76  O   UNL A   1      34.289  32.781  31.153  1.00  0.00    -0.744 OA
ENDBRANCH  69  73
ENDBRANCH  42  66
BRANCH  54  77
ATOM     77  C   UNL A   1      44.772  33.298  29.211  1.00  0.00     0.023 A 
ATOM     78  C   UNL A   1      44.406  34.378  28.380  1.00  0.00     0.031 A 
ATOM     79  C   UNL A   1      45.825  33.492  30.122  1.00  0.00     0.131 A 
ATOM     80  C   UNL A   1      45.123  35.579  28.438  1.00  0.00     0.055 A 
ATOM     81  C   UNL A   1      46.496  34.711  30.218  1.00  0.00     0.041 A 
ATOM     82  F   UNL A   1      46.222  32.494  30.928  1.00  0.00    -0.206 F 
ATOM     83  C   UNL A   1      46.159  35.756  29.361  1.00  0.00     0.022 A 
BRANCH  80  84
ATOM     84  S   UNL A   1      44.812  36.913  27.249  1.00  0.00     0.124 S 
ATOM     85  O   UNL A   1      46.069  36.957  26.507  1.00  0.00    -0.237 OA
ATOM     86  O   UNL A   1      43.666  36.399  26.505  1.00  0.00    -0.237 OA
ATOM     87  O   UNL A   1      44.545  38.078  28.088  1.00  0.00    -0.744 OA
ENDBRANCH  80  84
ENDBRANCH  54  77
ENDBRANCH  28  29
ENDBRANCH  21  23
ENDBRANCH  20  21
ENDBRANCH  19  20
ENDBRANCH   1  19
TORSDOF 19
ENDMDL
