MODEL 1
REMARK VINA RESULT:     -11.4      0.000      0.000
REMARK SMILES Nc1cccc(CC(=O)N2CC(C(=O)OCCOCCOC(=O)c3ccc(-c4c5nc(c(-c6cc(S(=O)(=O)[O-])ccc6F)c6ccc([nH]6)c(-c6cc(S(=O)(=O)[O-])ccc6F)c6nc(c(-c7cc(S(=O)(=O)[O-])ccc7F)c7ccc4[nH]7)C=C6)C=C5)cc3)C2)c1
REMARK SMILES IDX 18 1 17 2 16 3 15 4 13 5 14 6 12 7 8 8 9 9 10 10 11 11 87 12
REMARK SMILES IDX 7 13 6 14 2 15 3 16 88 17 4 18 5 19 1 20 19 23 20 24 21 25
REMARK SMILES IDX 22 26 23 27 24 28 25 29 86 30 26 31 85 32 27 33 28 34 29 35
REMARK SMILES IDX 79 36 30 37 84 38 78 39 80 40 31 41 83 42 77 43 76 44 32 46
REMARK SMILES IDX 64 47 44 48 63 49 45 50 48 51 62 52 81 53 46 54 47 55 61 57
REMARK SMILES IDX 82 58 49 59 33 60 34 61 42 62 35 63 41 64 43 65 40 66 36 67
REMARK SMILES IDX 37 68 38 69 39 70 65 71 66 72 74 73 67 74 73 75 75 76 72 77
REMARK SMILES IDX 68 78 69 79 70 80 71 81 50 82 51 83 59 84 52 85 58 86 60 87
REMARK SMILES IDX 57 88 53 89 54 90 55 91 56 92
REMARK H PARENT 1 21 1 22 80 45 48 56
REMARK Flexibility Score: inf
ROOT
ATOM      1  O   UNL A   1      34.258  20.427  24.548  1.00  0.00    -0.374 OA
ENDROOT
BRANCH   1   2
ATOM      2  C   UNL A   1      33.132  20.202  25.394  1.00  0.00     0.202 C 
BRANCH   2   3
ATOM      3  C   UNL A   1      32.095  21.326  25.464  1.00  0.00     0.261 C 
BRANCH   3   4
ATOM      4  O   UNL A   1      32.510  22.372  26.358  1.00  0.00    -0.463 OA
BRANCH   4   5
ATOM      5  C   UNL A   1      31.669  23.444  26.453  1.00  0.00     0.312 C 
ATOM      6  O   UNL A   1      30.828  23.574  27.344  1.00  0.00    -0.252 OA
BRANCH   5   7
ATOM      7  C   UNL A   1      31.910  24.506  25.382  1.00  0.00     0.138 C 
ATOM      8  C   UNL A   1      31.677  27.168  23.607  1.00  0.00     0.227 C 
ATOM      9  O   UNL A   1      32.673  27.856  23.838  1.00  0.00    -0.275 OA
ATOM     10  N   UNL A   1      31.227  26.216  24.488  1.00  0.00    -0.341 N 
ATOM     11  C   UNL A   1      31.719  25.956  25.832  1.00  0.00     0.136 C 
ATOM     12  C   UNL A   1      30.897  24.809  24.258  1.00  0.00     0.136 C 
BRANCH   8  13
ATOM     13  C   UNL A   1      30.789  27.446  22.414  1.00  0.00     0.135 C 
BRANCH  13  14
ATOM     14  C   UNL A   1      29.712  28.482  22.601  1.00  0.00    -0.037 A 
ATOM     15  C   UNL A   1      28.972  30.792  22.308  1.00  0.00     0.032 A 
ATOM     16  C   UNL A   1      27.714  30.430  22.789  1.00  0.00     0.025 A 
ATOM     17  C   UNL A   1      29.969  29.818  22.245  1.00  0.00     0.029 A 
ATOM     18  C   UNL A   1      27.440  29.108  23.147  1.00  0.00     0.002 A 
ATOM     19  C   UNL A   1      28.434  28.133  23.046  1.00  0.00     0.004 A 
BRANCH  15  20
ATOM     20  N   UNL A   1      29.263  32.112  22.006  1.00  0.00    -0.399 N 
ATOM     21  H   UNL A   1      28.560  32.704  21.654  1.00  0.00     0.156 HD
ATOM     22  H   UNL A   1      30.175  32.459  22.143  1.00  0.00     0.156 HD
ENDBRANCH  15  20
ENDBRANCH  13  14
ENDBRANCH   8  13
ENDBRANCH   5   7
ENDBRANCH   4   5
ENDBRANCH   3   4
ENDBRANCH   2   3
ENDBRANCH   1   2
BRANCH   1  23
ATOM     23  C   UNL A   1      35.547  20.051  25.035  1.00  0.00     0.202 C 
BRANCH  23  24
ATOM     24  C   UNL A   1      36.738  20.933  24.640  1.00  0.00     0.261 C 
BRANCH  24  25
ATOM     25  O   UNL A   1      37.282  21.667  25.753  1.00  0.00    -0.460 OA
BRANCH  25  26
ATOM     26  C   UNL A   1      38.598  21.447  25.985  1.00  0.00     0.338 C 
ATOM     27  O   UNL A   1      39.254  20.476  25.623  1.00  0.00    -0.246 OA
BRANCH  26  28
ATOM     28  C   UNL A   1      39.222  22.637  26.590  1.00  0.00     0.060 A 
ATOM     29  C   UNL A   1      38.682  23.889  26.267  1.00  0.00     0.016 A 
ATOM     30  C   UNL A   1      40.364  22.543  27.388  1.00  0.00     0.016 A 
ATOM     31  C   UNL A   1      39.309  25.055  26.702  1.00  0.00     0.010 A 
ATOM     32  C   UNL A   1      40.998  23.715  27.815  1.00  0.00     0.010 A 
ATOM     33  C   UNL A   1      40.494  24.977  27.447  1.00  0.00    -0.014 A 
BRANCH  33  34
ATOM     34  C   UNL A   1      41.274  26.211  27.711  1.00  0.00     0.031 A 
ATOM     35  C   UNL A   1      40.640  27.319  28.510  1.00  0.00     0.074 A 
ATOM     36  C   UNL A   1      42.540  26.332  27.274  1.00  0.00     0.049 A 
ATOM     37  N   UNL A   1      41.118  28.494  28.828  1.00  0.00    -0.248 NA
ATOM     38  C   UNL A   1      39.283  27.063  29.014  1.00  0.00     0.031 C 
ATOM     39  C   UNL A   1      43.277  25.310  26.532  1.00  0.00     0.029 A 
ATOM     40  N   UNL A   1      43.430  27.372  27.386  1.00  0.00    -0.354 N 
ATOM     41  C   UNL A   1      40.120  29.122  29.567  1.00  0.00     0.074 A 
ATOM     42  C   UNL A   1      38.997  28.208  29.614  1.00  0.00     0.031 C 
ATOM     43  C   UNL A   1      44.503  25.778  26.246  1.00  0.00     0.029 A 
ATOM     44  C   UNL A   1      44.628  27.144  26.750  1.00  0.00     0.049 A 
ATOM     45  H   UNL A   1      43.229  28.201  27.877  1.00  0.00     0.167 HD
ATOM     46  C   UNL A   1      40.143  30.343  30.157  1.00  0.00     0.034 A 
ATOM     47  C   UNL A   1      45.691  27.954  26.574  1.00  0.00     0.034 A 
ATOM     48  C   UNL A   1      41.266  31.247  30.092  1.00  0.00     0.049 A 
ATOM     49  C   UNL A   1      45.660  29.344  27.165  1.00  0.00     0.074 A 
ATOM     50  C   UNL A   1      41.401  32.499  30.665  1.00  0.00     0.029 A 
ATOM     51  N   UNL A   1      42.445  31.001  29.399  1.00  0.00    -0.354 N 
ATOM     52  N   UNL A   1      44.714  29.923  27.868  1.00  0.00    -0.248 NA
ATOM     53  C   UNL A   1      46.845  30.184  26.947  1.00  0.00     0.031 C 
ATOM     54  C   UNL A   1      42.626  33.039  30.260  1.00  0.00     0.029 A 
ATOM     55  C   UNL A   1      43.295  32.092  29.500  1.00  0.00     0.049 A 
ATOM     56  H   UNL A   1      42.648  30.173  28.907  1.00  0.00     0.167 HD
ATOM     57  C   UNL A   1      45.203  31.184  28.200  1.00  0.00     0.074 A 
ATOM     58  C   UNL A   1      46.533  31.275  27.631  1.00  0.00     0.031 C 
ATOM     59  C   UNL A   1      44.613  32.176  28.916  1.00  0.00     0.034 A 
BRANCH  46  60
ATOM     60  C   UNL A   1      38.891  30.787  30.876  1.00  0.00     0.023 A 
ATOM     61  C   UNL A   1      37.778  31.293  30.184  1.00  0.00     0.031 A 
ATOM     62  C   UNL A   1      38.825  30.733  32.280  1.00  0.00     0.131 A 
ATOM     63  C   UNL A   1      36.675  31.789  30.898  1.00  0.00     0.055 A 
ATOM     64  C   UNL A   1      37.693  31.155  32.981  1.00  0.00     0.041 A 
ATOM     65  F   UNL A   1      39.866  30.283  32.997  1.00  0.00    -0.206 F 
ATOM     66  C   UNL A   1      36.616  31.701  32.291  1.00  0.00     0.022 A 
BRANCH  63  67
ATOM     67  S   UNL A   1      35.383  32.682  29.990  1.00  0.00     0.124 S 
ATOM     68  O   UNL A   1      34.360  32.848  31.020  1.00  0.00    -0.237 OA
ATOM     69  O   UNL A   1      36.072  33.897  29.572  1.00  0.00    -0.237 OA
ATOM     70  O   UNL A   1      35.026  31.763  28.911  1.00  0.00    -0.744 OA
ENDBRANCH  63  67
ENDBRANCH  46  60
BRANCH  47  71
ATOM     71  C   UNL A   1      46.860  27.501  25.766  1.00  0.00     0.023 A 
ATOM     72  C   UNL A   1      47.018  27.894  24.429  1.00  0.00     0.031 A 
ATOM     73  C   UNL A   1      47.809  26.617  26.311  1.00  0.00     0.131 A 
ATOM     74  C   UNL A   1      48.074  27.370  23.666  1.00  0.00     0.055 A 
ATOM     75  C   UNL A   1      48.887  26.140  25.565  1.00  0.00     0.041 A 
ATOM     76  F   UNL A   1      47.703  26.209  27.585  1.00  0.00    -0.206 F 
ATOM     77  C   UNL A   1      49.017  26.507  24.229  1.00  0.00     0.022 A 
BRANCH  74  78
ATOM     78  S   UNL A   1      48.153  27.770  21.899  1.00  0.00     0.124 S 
ATOM     79  O   UNL A   1      49.306  28.661  21.847  1.00  0.00    -0.237 OA
ATOM     80  O   UNL A   1      48.332  26.452  21.299  1.00  0.00    -0.237 OA
ATOM     81  O   UNL A   1      46.863  28.402  21.636  1.00  0.00    -0.744 OA
ENDBRANCH  74  78
ENDBRANCH  47  71
BRANCH  59  82
ATOM     82  C   UNL A   1      45.425  33.425  29.160  1.00  0.00     0.023 A 
ATOM     83  C   UNL A   1      45.386  34.519  28.278  1.00  0.00     0.031 A 
ATOM     84  C   UNL A   1      46.257  33.516  30.291  1.00  0.00     0.131 A 
ATOM     85  C   UNL A   1      46.206  35.635  28.512  1.00  0.00     0.055 A 
ATOM     86  C   UNL A   1      47.024  34.652  30.550  1.00  0.00     0.041 A 
ATOM     87  F   UNL A   1      46.334  32.501  31.166  1.00  0.00    -0.206 F 
ATOM     88  C   UNL A   1      47.011  35.715  29.651  1.00  0.00     0.022 A 
BRANCH  85  89
ATOM     89  S   UNL A   1      46.272  36.946  27.261  1.00  0.00     0.124 S 
ATOM     90  O   UNL A   1      47.051  36.315  26.200  1.00  0.00    -0.237 OA
ATOM     91  O   UNL A   1      44.860  37.170  26.967  1.00  0.00    -0.237 OA
ATOM     92  O   UNL A   1      46.942  38.047  27.951  1.00  0.00    -0.744 OA
ENDBRANCH  85  89
ENDBRANCH  59  82
ENDBRANCH  33  34
ENDBRANCH  26  28
ENDBRANCH  25  26
ENDBRANCH  24  25
ENDBRANCH  23  24
ENDBRANCH   1  23
TORSDOF 20
ENDMDL
MODEL 2
REMARK VINA RESULT:     -11.3      5.061      8.740
REMARK SMILES Nc1cccc(CC(=O)N2CC(C(=O)OCCOCCOC(=O)c3ccc(-c4c5nc(c(-c6cc(S(=O)(=O)[O-])ccc6F)c6ccc([nH]6)c(-c6cc(S(=O)(=O)[O-])ccc6F)c6nc(c(-c7cc(S(=O)(=O)[O-])ccc7F)c7ccc4[nH]7)C=C6)C=C5)cc3)C2)c1
REMARK SMILES IDX 18 1 17 2 16 3 15 4 13 5 14 6 12 7 8 8 9 9 10 10 11 11 87 12
REMARK SMILES IDX 7 13 6 14 2 15 3 16 88 17 4 18 5 19 1 20 19 23 20 24 21 25
REMARK SMILES IDX 22 26 23 27 24 28 25 29 86 30 26 31 85 32 27 33 28 34 29 35
REMARK SMILES IDX 79 36 30 37 84 38 78 39 80 40 31 41 83 42 77 43 76 44 32 46
REMARK SMILES IDX 64 47 44 48 63 49 45 50 48 51 62 52 81 53 46 54 47 55 61 57
REMARK SMILES IDX 82 58 49 59 33 60 34 61 42 62 35 63 41 64 43 65 40 66 36 67
REMARK SMILES IDX 37 68 38 69 39 70 65 71 66 72 74 73 67 74 73 75 75 76 72 77
REMARK SMILES IDX 68 78 69 79 70 80 71 81 50 82 51 83 59 84 52 85 58 86 60 87
REMARK SMILES IDX 57 88 53 89 54 90 55 91 56 92
REMARK H PARENT 1 21 1 22 80 45 48 56
REMARK Flexibility Score: inf
ROOT
ATOM      1  O   UNL A   1      32.108  30.390  26.689  1.00  0.00    -0.374 OA
ENDROOT
BRANCH   1   2
ATOM      2  C   UNL A   1      31.758  29.058  26.318  1.00  0.00     0.202 C 
BRANCH   2   3
ATOM      3  C   UNL A   1      32.821  28.259  25.558  1.00  0.00     0.261 C 
BRANCH   3   4
ATOM      4  O   UNL A   1      32.227  27.258  24.715  1.00  0.00    -0.463 OA
BRANCH   4   5
ATOM      5  C   UNL A   1      33.066  26.654  23.824  1.00  0.00     0.312 C 
ATOM      6  O   UNL A   1      33.397  27.157  22.749  1.00  0.00    -0.252 OA
BRANCH   5   7
ATOM      7  C   UNL A   1      33.615  25.315  24.312  1.00  0.00     0.138 C 
ATOM      8  C   UNL A   1      34.290  22.187  24.543  1.00  0.00     0.227 C 
ATOM      9  O   UNL A   1      35.489  22.048  24.295  1.00  0.00    -0.275 OA
ATOM     10  N   UNL A   1      33.577  23.278  24.112  1.00  0.00    -0.341 N 
ATOM     11  C   UNL A   1      34.033  24.331  23.217  1.00  0.00     0.136 C 
ATOM     12  C   UNL A   1      32.714  24.189  24.863  1.00  0.00     0.136 C 
BRANCH   8  13
ATOM     13  C   UNL A   1      33.489  21.082  25.197  1.00  0.00     0.135 C 
BRANCH  13  14
ATOM     14  C   UNL A   1      33.563  19.723  24.553  1.00  0.00    -0.037 A 
ATOM     15  C   UNL A   1      32.665  18.139  22.924  1.00  0.00     0.032 A 
ATOM     16  C   UNL A   1      33.717  17.272  23.216  1.00  0.00     0.025 A 
ATOM     17  C   UNL A   1      32.583  19.347  23.618  1.00  0.00     0.029 A 
ATOM     18  C   UNL A   1      34.701  17.629  24.142  1.00  0.00     0.002 A 
ATOM     19  C   UNL A   1      34.629  18.855  24.804  1.00  0.00     0.004 A 
BRANCH  15  20
ATOM     20  N   UNL A   1      31.659  17.764  22.050  1.00  0.00    -0.399 N 
ATOM     21  H   UNL A   1      30.715  17.875  22.308  1.00  0.00     0.156 HD
ATOM     22  H   UNL A   1      31.887  17.387  21.170  1.00  0.00     0.156 HD
ENDBRANCH  15  20
ENDBRANCH  13  14
ENDBRANCH   8  13
ENDBRANCH   5   7
ENDBRANCH   4   5
ENDBRANCH   3   4
ENDBRANCH   2   3
ENDBRANCH   1   2
BRANCH   1  23
ATOM     23  C   UNL A   1      31.281  31.455  26.220  1.00  0.00     0.202 C 
BRANCH  23  24
ATOM     24  C   UNL A   1      31.759  32.890  26.478  1.00  0.00     0.261 C 
BRANCH  24  25
ATOM     25  O   UNL A   1      32.217  33.092  27.827  1.00  0.00    -0.460 OA
BRANCH  25  26
ATOM     26  C   UNL A   1      33.275  33.930  27.945  1.00  0.00     0.338 C 
ATOM     27  O   UNL A   1      33.243  35.157  27.936  1.00  0.00    -0.246 OA
BRANCH  26  28
ATOM     28  C   UNL A   1      34.497  33.177  28.276  1.00  0.00     0.060 A 
ATOM     29  C   UNL A   1      34.346  31.854  28.716  1.00  0.00     0.016 A 
ATOM     30  C   UNL A   1      35.760  33.772  28.243  1.00  0.00     0.016 A 
ATOM     31  C   UNL A   1      35.451  31.137  29.168  1.00  0.00     0.010 A 
ATOM     32  C   UNL A   1      36.867  33.052  28.708  1.00  0.00     0.010 A 
ATOM     33  C   UNL A   1      36.714  31.744  29.204  1.00  0.00    -0.014 A 
BRANCH  33  34
ATOM     34  C   UNL A   1      37.835  31.059  29.893  1.00  0.00     0.031 A 
ATOM     35  C   UNL A   1      38.138  31.417  31.324  1.00  0.00     0.074 A 
ATOM     36  C   UNL A   1      38.554  30.111  29.266  1.00  0.00     0.049 A 
ATOM     37  N   UNL A   1      39.088  30.977  32.108  1.00  0.00    -0.248 NA
ATOM     38  C   UNL A   1      37.249  32.405  31.951  1.00  0.00     0.031 C 
ATOM     39  C   UNL A   1      38.325  29.647  27.898  1.00  0.00     0.029 A 
ATOM     40  N   UNL A   1      39.627  29.371  29.697  1.00  0.00    -0.354 N 
ATOM     41  C   UNL A   1      38.916  31.636  33.321  1.00  0.00     0.074 A 
ATOM     42  C   UNL A   1      37.792  32.534  33.152  1.00  0.00     0.031 C 
ATOM     43  C   UNL A   1      39.238  28.708  27.599  1.00  0.00     0.029 A 
ATOM     44  C   UNL A   1      40.138  28.530  28.736  1.00  0.00     0.049 A 
ATOM     45  H   UNL A   1      39.995  29.435  30.607  1.00  0.00     0.167 HD
ATOM     46  C   UNL A   1      39.624  31.499  34.470  1.00  0.00     0.034 A 
ATOM     47  C   UNL A   1      41.222  27.729  28.764  1.00  0.00     0.034 A 
ATOM     48  C   UNL A   1      40.748  30.607  34.619  1.00  0.00     0.049 A 
ATOM     49  C   UNL A   1      42.049  27.657  30.026  1.00  0.00     0.074 A 
ATOM     50  C   UNL A   1      41.526  30.379  35.741  1.00  0.00     0.029 A 
ATOM     51  N   UNL A   1      41.267  29.806  33.610  1.00  0.00    -0.354 N 
ATOM     52  N   UNL A   1      41.871  28.280  31.168  1.00  0.00    -0.248 NA
ATOM     53  C   UNL A   1      43.217  26.767  30.004  1.00  0.00     0.031 C 
ATOM     54  C   UNL A   1      42.555  29.498  35.392  1.00  0.00     0.029 A 
ATOM     55  C   UNL A   1      42.374  29.111  34.073  1.00  0.00     0.049 A 
ATOM     56  H   UNL A   1      40.902  29.739  32.698  1.00  0.00     0.167 HD
ATOM     57  C   UNL A   1      42.887  27.833  32.009  1.00  0.00     0.074 A 
ATOM     58  C   UNL A   1      43.666  26.879  31.246  1.00  0.00     0.031 C 
ATOM     59  C   UNL A   1      43.151  28.173  33.298  1.00  0.00     0.034 A 
BRANCH  46  60
ATOM     60  C   UNL A   1      39.230  32.376  35.635  1.00  0.00     0.023 A 
ATOM     61  C   UNL A   1      39.640  33.718  35.724  1.00  0.00     0.031 A 
ATOM     62  C   UNL A   1      38.459  31.852  36.687  1.00  0.00     0.131 A 
ATOM     63  C   UNL A   1      39.337  34.467  36.873  1.00  0.00     0.055 A 
ATOM     64  C   UNL A   1      38.094  32.626  37.790  1.00  0.00     0.041 A 
ATOM     65  F   UNL A   1      38.058  30.571  36.669  1.00  0.00    -0.206 F 
ATOM     66  C   UNL A   1      38.546  33.937  37.895  1.00  0.00     0.022 A 
BRANCH  63  67
ATOM     67  S   UNL A   1      40.112  36.095  37.076  1.00  0.00     0.124 S 
ATOM     68  O   UNL A   1      39.336  36.655  38.180  1.00  0.00    -0.237 OA
ATOM     69  O   UNL A   1      41.496  35.750  37.379  1.00  0.00    -0.237 OA
ATOM     70  O   UNL A   1      39.897  36.740  35.784  1.00  0.00    -0.744 OA
ENDBRANCH  63  67
ENDBRANCH  46  60
BRANCH  47  71
ATOM     71  C   UNL A   1      41.626  26.962  27.550  1.00  0.00     0.023 A 
ATOM     72  C   UNL A   1      41.444  25.574  27.472  1.00  0.00     0.031 A 
ATOM     73  C   UNL A   1      42.254  27.607  26.469  1.00  0.00     0.131 A 
ATOM     74  C   UNL A   1      41.926  24.867  26.358  1.00  0.00     0.055 A 
ATOM     75  C   UNL A   1      42.684  26.908  25.341  1.00  0.00     0.041 A 
ATOM     76  F   UNL A   1      42.453  28.935  26.493  1.00  0.00    -0.206 F 
ATOM     77  C   UNL A   1      42.532  25.526  25.287  1.00  0.00     0.022 A 
BRANCH  74  78
ATOM     78  S   UNL A   1      41.822  23.056  26.366  1.00  0.00     0.124 S 
ATOM     79  O   UNL A   1      42.443  22.729  27.644  1.00  0.00    -0.237 OA
ATOM     80  O   UNL A   1      40.382  22.836  26.277  1.00  0.00    -0.237 OA
ATOM     81  O   UNL A   1      42.584  22.666  25.183  1.00  0.00    -0.744 OA
ENDBRANCH  74  78
ENDBRANCH  47  71
BRANCH  59  82
ATOM     82  C   UNL A   1      44.305  27.470  33.971  1.00  0.00     0.023 A 
ATOM     83  C   UNL A   1      44.133  26.263  34.671  1.00  0.00     0.031 A 
ATOM     84  C   UNL A   1      45.597  28.025  33.917  1.00  0.00     0.131 A 
ATOM     85  C   UNL A   1      45.223  25.678  35.334  1.00  0.00     0.055 A 
ATOM     86  C   UNL A   1      46.689  27.407  34.528  1.00  0.00     0.041 A 
ATOM     87  F   UNL A   1      45.820  29.176  33.264  1.00  0.00    -0.206 F 
ATOM     88  C   UNL A   1      46.503  26.233  35.253  1.00  0.00     0.022 A 
BRANCH  85  89
ATOM     89  S   UNL A   1      44.931  24.225  36.380  1.00  0.00     0.124 S 
ATOM     90  O   UNL A   1      44.073  23.406  35.529  1.00  0.00    -0.237 OA
ATOM     91  O   UNL A   1      46.283  23.719  36.596  1.00  0.00    -0.237 OA
ATOM     92  O   UNL A   1      44.281  24.779  37.566  1.00  0.00    -0.744 OA
ENDBRANCH  85  89
ENDBRANCH  59  82
ENDBRANCH  33  34
ENDBRANCH  26  28
ENDBRANCH  25  26
ENDBRANCH  24  25
ENDBRANCH  23  24
ENDBRANCH   1  23
TORSDOF 20
ENDMDL
MODEL 3
REMARK VINA RESULT:     -11.0      5.188      8.652
REMARK SMILES Nc1cccc(CC(=O)N2CC(C(=O)OCCOCCOC(=O)c3ccc(-c4c5nc(c(-c6cc(S(=O)(=O)[O-])ccc6F)c6ccc([nH]6)c(-c6cc(S(=O)(=O)[O-])ccc6F)c6nc(c(-c7cc(S(=O)(=O)[O-])ccc7F)c7ccc4[nH]7)C=C6)C=C5)cc3)C2)c1
REMARK SMILES IDX 18 1 17 2 16 3 15 4 13 5 14 6 12 7 8 8 9 9 10 10 11 11 87 12
REMARK SMILES IDX 7 13 6 14 2 15 3 16 88 17 4 18 5 19 1 20 19 23 20 24 21 25
REMARK SMILES IDX 22 26 23 27 24 28 25 29 86 30 26 31 85 32 27 33 28 34 29 35
REMARK SMILES IDX 79 36 30 37 84 38 78 39 80 40 31 41 83 42 77 43 76 44 32 46
REMARK SMILES IDX 64 47 44 48 63 49 45 50 48 51 62 52 81 53 46 54 47 55 61 57
REMARK SMILES IDX 82 58 49 59 33 60 34 61 42 62 35 63 41 64 43 65 40 66 36 67
REMARK SMILES IDX 37 68 38 69 39 70 65 71 66 72 74 73 67 74 73 75 75 76 72 77
REMARK SMILES IDX 68 78 69 79 70 80 71 81 50 82 51 83 59 84 52 85 58 86 60 87
REMARK SMILES IDX 57 88 53 89 54 90 55 91 56 92
REMARK H PARENT 1 21 1 22 80 45 48 56
REMARK Flexibility Score: inf
ROOT
ATOM      1  O   UNL A   1      32.204  30.589  26.988  1.00  0.00    -0.374 OA
ENDROOT
BRANCH   1   2
ATOM      2  C   UNL A   1      32.161  29.438  26.147  1.00  0.00     0.202 C 
BRANCH   2   3
ATOM      3  C   UNL A   1      31.746  29.670  24.691  1.00  0.00     0.261 C 
BRANCH   3   4
ATOM      4  O   UNL A   1      30.650  28.821  24.313  1.00  0.00    -0.463 OA
BRANCH   4   5
ATOM      5  C   UNL A   1      30.670  28.359  23.028  1.00  0.00     0.312 C 
ATOM      6  O   UNL A   1      30.609  29.091  22.039  1.00  0.00    -0.252 OA
BRANCH   5   7
ATOM      7  C   UNL A   1      30.841  26.845  22.927  1.00  0.00     0.138 C 
ATOM      8  C   UNL A   1      31.875  23.845  23.398  1.00  0.00     0.227 C 
ATOM      9  O   UNL A   1      30.974  23.227  23.968  1.00  0.00    -0.275 OA
ATOM     10  N   UNL A   1      31.965  25.213  23.444  1.00  0.00    -0.341 N 
ATOM     11  C   UNL A   1      31.155  26.124  24.240  1.00  0.00     0.136 C 
ATOM     12  C   UNL A   1      32.111  26.180  22.355  1.00  0.00     0.136 C 
BRANCH   8  13
ATOM     13  C   UNL A   1      33.036  23.121  22.751  1.00  0.00     0.135 C 
BRANCH  13  14
ATOM     14  C   UNL A   1      34.268  22.931  23.595  1.00  0.00    -0.037 A 
ATOM     15  C   UNL A   1      35.283  22.020  25.622  1.00  0.00     0.032 A 
ATOM     16  C   UNL A   1      36.534  22.419  25.153  1.00  0.00     0.025 A 
ATOM     17  C   UNL A   1      34.156  22.306  24.849  1.00  0.00     0.029 A 
ATOM     18  C   UNL A   1      36.664  23.041  23.909  1.00  0.00     0.002 A 
ATOM     19  C   UNL A   1      35.536  23.290  23.127  1.00  0.00     0.004 A 
BRANCH  15  20
ATOM     20  N   UNL A   1      35.144  21.454  26.879  1.00  0.00    -0.399 N 
ATOM     21  H   UNL A   1      35.577  20.595  27.083  1.00  0.00     0.156 HD
ATOM     22  H   UNL A   1      34.610  21.912  27.568  1.00  0.00     0.156 HD
ENDBRANCH  15  20
ENDBRANCH  13  14
ENDBRANCH   8  13
ENDBRANCH   5   7
ENDBRANCH   4   5
ENDBRANCH   3   4
ENDBRANCH   2   3
ENDBRANCH   1   2
BRANCH   1  23
ATOM     23  C   UNL A   1      31.463  31.741  26.584  1.00  0.00     0.202 C 
BRANCH  23  24
ATOM     24  C   UNL A   1      32.152  33.106  26.706  1.00  0.00     0.261 C 
BRANCH  24  25
ATOM     25  O   UNL A   1      32.342  33.515  28.073  1.00  0.00    -0.460 OA
BRANCH  25  26
ATOM     26  C   UNL A   1      33.444  34.273  28.287  1.00  0.00     0.338 C 
ATOM     27  O   UNL A   1      33.489  35.496  28.376  1.00  0.00    -0.246 OA
BRANCH  26  28
ATOM     28  C   UNL A   1      34.606  33.419  28.593  1.00  0.00     0.060 A 
ATOM     29  C   UNL A   1      34.367  32.213  29.266  1.00  0.00     0.016 A 
ATOM     30  C   UNL A   1      35.912  33.824  28.306  1.00  0.00     0.016 A 
ATOM     31  C   UNL A   1      35.435  31.430  29.698  1.00  0.00     0.010 A 
ATOM     32  C   UNL A   1      36.983  33.040  28.750  1.00  0.00     0.010 A 
ATOM     33  C   UNL A   1      36.752  31.857  29.477  1.00  0.00    -0.014 A 
BRANCH  33  34
ATOM     34  C   UNL A   1      37.873  31.139  30.133  1.00  0.00     0.031 A 
ATOM     35  C   UNL A   1      38.231  31.490  31.553  1.00  0.00     0.074 A 
ATOM     36  C   UNL A   1      38.543  30.169  29.486  1.00  0.00     0.049 A 
ATOM     37  N   UNL A   1      39.192  31.022  32.307  1.00  0.00    -0.248 NA
ATOM     38  C   UNL A   1      37.393  32.506  32.205  1.00  0.00     0.031 C 
ATOM     39  C   UNL A   1      38.257  29.710  28.127  1.00  0.00     0.029 A 
ATOM     40  N   UNL A   1      39.606  29.397  29.884  1.00  0.00    -0.354 N 
ATOM     41  C   UNL A   1      39.077  31.688  33.523  1.00  0.00     0.074 A 
ATOM     42  C   UNL A   1      37.976  32.619  33.388  1.00  0.00     0.031 C 
ATOM     43  C   UNL A   1      39.131  28.743  27.801  1.00  0.00     0.029 A 
ATOM     44  C   UNL A   1      40.061  28.539  28.910  1.00  0.00     0.049 A 
ATOM     45  H   UNL A   1      40.004  29.452  30.783  1.00  0.00     0.167 HD
ATOM     46  C   UNL A   1      39.816  31.531  34.650  1.00  0.00     0.034 A 
ATOM     47  C   UNL A   1      41.121  27.706  28.906  1.00  0.00     0.034 A 
ATOM     48  C   UNL A   1      40.918  30.606  34.766  1.00  0.00     0.049 A 
ATOM     49  C   UNL A   1      41.984  27.611  30.142  1.00  0.00     0.074 A 
ATOM     50  C   UNL A   1      41.722  30.356  35.864  1.00  0.00     0.029 A 
ATOM     51  N   UNL A   1      41.380  29.788  33.743  1.00  0.00    -0.354 N 
ATOM     52  N   UNL A   1      41.861  28.241  31.287  1.00  0.00    -0.248 NA
ATOM     53  C   UNL A   1      43.124  26.686  30.086  1.00  0.00     0.031 C 
ATOM     54  C   UNL A   1      42.713  29.444  35.485  1.00  0.00     0.029 A 
ATOM     55  C   UNL A   1      42.480  29.061  34.174  1.00  0.00     0.049 A 
ATOM     56  H   UNL A   1      40.984  29.731  32.844  1.00  0.00     0.167 HD
ATOM     57  C   UNL A   1      42.889  27.765  32.097  1.00  0.00     0.074 A 
ATOM     58  C   UNL A   1      43.614  26.786  31.313  1.00  0.00     0.031 C 
ATOM     59  C   UNL A   1      43.203  28.098  33.376  1.00  0.00     0.034 A 
BRANCH  46  60
ATOM     60  C   UNL A   1      39.486  32.422  35.824  1.00  0.00     0.023 A 
ATOM     61  C   UNL A   1      38.699  31.971  36.898  1.00  0.00     0.031 A 
ATOM     62  C   UNL A   1      39.940  33.752  35.854  1.00  0.00     0.131 A 
ATOM     63  C   UNL A   1      38.332  32.863  37.920  1.00  0.00     0.055 A 
ATOM     64  C   UNL A   1      39.637  34.612  36.911  1.00  0.00     0.041 A 
ATOM     65  F   UNL A   1      40.674  34.246  34.844  1.00  0.00    -0.206 F 
ATOM     66  C   UNL A   1      38.816  34.172  37.945  1.00  0.00     0.022 A 
BRANCH  63  67
ATOM     67  S   UNL A   1      37.098  32.327  39.137  1.00  0.00     0.124 S 
ATOM     68  O   UNL A   1      37.350  30.889  39.199  1.00  0.00    -0.237 OA
ATOM     69  O   UNL A   1      37.470  33.093  40.321  1.00  0.00    -0.237 OA
ATOM     70  O   UNL A   1      35.826  32.703  38.523  1.00  0.00    -0.744 OA
ENDBRANCH  63  67
ENDBRANCH  46  60
BRANCH  47  71
ATOM     71  C   UNL A   1      41.463  26.926  27.682  1.00  0.00     0.023 A 
ATOM     72  C   UNL A   1      41.232  25.544  27.611  1.00  0.00     0.031 A 
ATOM     73  C   UNL A   1      42.081  27.549  26.582  1.00  0.00     0.131 A 
ATOM     74  C   UNL A   1      41.657  24.821  26.485  1.00  0.00     0.055 A 
ATOM     75  C   UNL A   1      42.454  26.835  25.443  1.00  0.00     0.041 A 
ATOM     76  F   UNL A   1      42.326  28.869  26.599  1.00  0.00    -0.206 F 
ATOM     77  C   UNL A   1      42.253  25.459  25.396  1.00  0.00     0.022 A 
BRANCH  74  78
ATOM     78  S   UNL A   1      41.492  23.014  26.498  1.00  0.00     0.124 S 
ATOM     79  O   UNL A   1      42.048  22.676  27.803  1.00  0.00    -0.237 OA
ATOM     80  O   UNL A   1      40.051  22.842  26.350  1.00  0.00    -0.237 OA
ATOM     81  O   UNL A   1      42.290  22.592  25.350  1.00  0.00    -0.744 OA
ENDBRANCH  74  78
ENDBRANCH  47  71
BRANCH  59  82
ATOM     82  C   UNL A   1      44.356  27.362  34.015  1.00  0.00     0.023 A 
ATOM     83  C   UNL A   1      44.201  26.079  34.571  1.00  0.00     0.031 A 
ATOM     84  C   UNL A   1      45.628  27.959  34.075  1.00  0.00     0.131 A 
ATOM     85  C   UNL A   1      45.286  25.459  35.209  1.00  0.00     0.055 A 
ATOM     86  C   UNL A   1      46.718  27.313  34.658  1.00  0.00     0.041 A 
ATOM     87  F   UNL A   1      45.833  29.183  33.561  1.00  0.00    -0.206 F 
ATOM     88  C   UNL A   1      46.548  26.060  35.242  1.00  0.00     0.022 A 
BRANCH  85  89
ATOM     89  S   UNL A   1      45.008  23.890  36.077  1.00  0.00     0.124 S 
ATOM     90  O   UNL A   1      43.759  23.430  35.479  1.00  0.00    -0.237 OA
ATOM     91  O   UNL A   1      46.201  23.125  35.728  1.00  0.00    -0.237 OA
ATOM     92  O   UNL A   1      44.915  24.285  37.481  1.00  0.00    -0.744 OA
ENDBRANCH  85  89
ENDBRANCH  59  82
ENDBRANCH  33  34
ENDBRANCH  26  28
ENDBRANCH  25  26
ENDBRANCH  24  25
ENDBRANCH  23  24
ENDBRANCH   1  23
TORSDOF 20
ENDMDL
