MODEL 1
REMARK VINA RESULT:     -11.1      0.000      0.000
REMARK SMILES COc1ccc2c(C[NH2+]Cc3cccs3)c(C(=O)OCCOCCOC(=O)c3ccc(-c4c5nc(c(-c6cc(S(=O)(=O)[O-])ccc6F)c6ccc([nH]6)c(-c6cc(S(=O)(=O)[O-])ccc6F)c6nc(c(-c7cc(S(=O)(=O)[O-])ccc7F)c7ccc4[nH]7)C=C6)C=C5)cc3)[nH]c2c1
REMARK SMILES IDX 21 1 20 2 19 3 17 4 18 5 16 6 3 7 4 8 93 9 5 10 92 11 6 12
REMARK SMILES IDX 91 13 7 14 2 16 1 17 8 18 9 19 10 22 11 23 12 24 15 25 13 26
REMARK SMILES IDX 14 27 22 28 23 29 24 30 25 31 26 32 27 33 28 34 29 35 90 36
REMARK SMILES IDX 30 37 89 38 31 39 32 40 33 41 83 42 34 43 88 44 82 45 84 46
REMARK SMILES IDX 35 47 87 48 81 49 80 50 36 52 68 53 48 54 67 55 49 56 52 57
REMARK SMILES IDX 66 58 85 59 50 60 51 61 65 63 86 64 53 65 37 66 38 67 46 68
REMARK SMILES IDX 39 69 45 70 47 71 44 72 40 73 41 74 42 75 43 76 69 77 70 78
REMARK SMILES IDX 78 79 71 80 77 81 79 82 76 83 72 84 73 85 74 86 75 87 54 88
REMARK SMILES IDX 55 89 63 90 56 91 62 92 64 93 61 94 57 95 58 96 59 97 60 98
REMARK H PARENT 91 15 9 20 9 21 84 51 52 62
REMARK Flexibility Score: inf
ROOT
ATOM      1  C   UNL A   1      36.034  23.106  25.493  1.00  0.00     0.202 C 
ENDROOT
BRANCH   1   2
ATOM      2  C   UNL A   1      34.758  23.782  26.000  1.00  0.00     0.261 C 
BRANCH   2   3
ATOM      3  O   UNL A   1      34.101  22.942  26.962  1.00  0.00    -0.459 OA
BRANCH   3   4
ATOM      4  C   UNL A   1      32.841  22.564  26.619  1.00  0.00     0.355 C 
ATOM      5  O   UNL A   1      31.812  23.118  26.982  1.00  0.00    -0.244 OA
BRANCH   4   6
ATOM      6  C   UNL A   1      32.914  21.421  25.743  1.00  0.00     0.134 A 
ATOM      7  C   UNL A   1      33.035  17.156  23.974  1.00  0.00     0.120 A 
ATOM      8  C   UNL A   1      32.527  17.820  22.859  1.00  0.00     0.047 A 
ATOM      9  C   UNL A   1      33.348  17.867  25.139  1.00  0.00     0.073 A 
ATOM     10  C   UNL A   1      32.350  19.209  22.874  1.00  0.00     0.015 A 
ATOM     11  C   UNL A   1      33.146  19.253  25.146  1.00  0.00     0.050 A 
ATOM     12  C   UNL A   1      32.658  19.943  24.039  1.00  0.00     0.009 A 
ATOM     13  N   UNL A   1      33.357  20.180  26.139  1.00  0.00    -0.349 N 
ATOM     14  C   UNL A   1      32.586  21.330  24.391  1.00  0.00     0.046 A 
ATOM     15  H   UNL A   1      33.767  19.983  27.012  1.00  0.00     0.167 HD
BRANCH   7  16
ATOM     16  O   UNL A   1      33.238  15.803  24.057  1.00  0.00    -0.497 OA
ATOM     17  C   UNL A   1      33.791  15.328  25.279  1.00  0.00     0.278 C 
ENDBRANCH   7  16
BRANCH  14  18
ATOM     18  C   UNL A   1      32.242  22.446  23.452  1.00  0.00     0.300 C 
BRANCH  18  19
ATOM     19  N   UNL A   1      31.211  23.277  24.040  1.00  0.00    -0.338 N 
ATOM     20  H   UNL A   1      31.538  23.605  24.948  1.00  0.00     0.346 HD
ATOM     21  H   UNL A   1      30.371  22.704  24.118  1.00  0.00     0.346 HD
BRANCH  19  22
ATOM     22  C   UNL A   1      30.869  24.435  23.225  1.00  0.00     0.308 C 
BRANCH  22  23
ATOM     23  C   UNL A   1      31.282  25.753  23.829  1.00  0.00     0.059 A 
ATOM     24  C   UNL A   1      32.366  26.566  23.545  1.00  0.00     0.021 A 
ATOM     25  S   UNL A   1      30.302  26.444  25.060  1.00  0.00    -0.143 S 
ATOM     26  C   UNL A   1      32.407  27.731  24.362  1.00  0.00     0.012 A 
ATOM     27  C   UNL A   1      31.338  27.792  25.225  1.00  0.00     0.065 A 
ENDBRANCH  22  23
ENDBRANCH  19  22
ENDBRANCH  18  19
ENDBRANCH  14  18
ENDBRANCH   4   6
ENDBRANCH   3   4
ENDBRANCH   2   3
ENDBRANCH   1   2
BRANCH   1  28
ATOM     28  O   UNL A   1      36.234  21.759  25.929  1.00  0.00    -0.374 OA
BRANCH  28  29
ATOM     29  C   UNL A   1      36.637  20.811  24.939  1.00  0.00     0.202 C 
BRANCH  29  30
ATOM     30  C   UNL A   1      38.088  20.324  25.006  1.00  0.00     0.261 C 
BRANCH  30  31
ATOM     31  O   UNL A   1      38.640  20.449  26.328  1.00  0.00    -0.460 OA
BRANCH  31  32
ATOM     32  C   UNL A   1      39.985  20.624  26.359  1.00  0.00     0.338 C 
ATOM     33  O   UNL A   1      40.832  19.888  25.883  1.00  0.00    -0.246 OA
BRANCH  32  34
ATOM     34  C   UNL A   1      40.299  21.960  26.903  1.00  0.00     0.060 A 
ATOM     35  C   UNL A   1      39.663  23.059  26.311  1.00  0.00     0.016 A 
ATOM     36  C   UNL A   1      41.227  22.146  27.931  1.00  0.00     0.016 A 
ATOM     37  C   UNL A   1      39.988  24.352  26.712  1.00  0.00     0.010 A 
ATOM     38  C   UNL A   1      41.560  23.447  28.324  1.00  0.00     0.010 A 
ATOM     39  C   UNL A   1      40.966  24.555  27.693  1.00  0.00    -0.014 A 
BRANCH  39  40
ATOM     40  C   UNL A   1      41.477  25.926  27.937  1.00  0.00     0.031 A 
ATOM     41  C   UNL A   1      42.842  26.289  27.419  1.00  0.00     0.074 A 
ATOM     42  C   UNL A   1      40.724  26.838  28.576  1.00  0.00     0.049 A 
ATOM     43  N   UNL A   1      43.501  27.412  27.535  1.00  0.00    -0.248 NA
ATOM     44  C   UNL A   1      43.557  25.243  26.672  1.00  0.00     0.031 C 
ATOM     45  C   UNL A   1      39.370  26.611  29.081  1.00  0.00     0.029 A 
ATOM     46  N   UNL A   1      40.993  28.141  28.915  1.00  0.00    -0.354 N 
ATOM     47  C   UNL A   1      44.709  27.210  26.875  1.00  0.00     0.074 A 
ATOM     48  C   UNL A   1      44.703  25.845  26.393  1.00  0.00     0.031 C 
ATOM     49  C   UNL A   1      38.933  27.733  29.678  1.00  0.00     0.029 A 
ATOM     50  C   UNL A   1      39.985  28.747  29.626  1.00  0.00     0.049 A 
ATOM     51  H   UNL A   1      41.831  28.597  28.671  1.00  0.00     0.167 HD
ATOM     52  C   UNL A   1      45.727  28.085  26.686  1.00  0.00     0.034 A 
ATOM     53  C   UNL A   1      39.931  29.970  30.191  1.00  0.00     0.034 A 
ATOM     54  C   UNL A   1      45.725  29.439  27.183  1.00  0.00     0.049 A 
ATOM     55  C   UNL A   1      41.111  30.900  30.034  1.00  0.00     0.074 A 
ATOM     56  C   UNL A   1      46.697  30.413  27.038  1.00  0.00     0.029 A 
ATOM     57  N   UNL A   1      44.703  30.006  27.933  1.00  0.00    -0.354 N 
ATOM     58  N   UNL A   1      42.244  30.700  29.399  1.00  0.00    -0.248 NA
ATOM     59  C   UNL A   1      41.002  32.224  30.662  1.00  0.00     0.031 C 
ATOM     60  C   UNL A   1      46.293  31.545  27.754  1.00  0.00     0.029 A 
ATOM     61  C   UNL A   1      45.036  31.304  28.285  1.00  0.00     0.049 A 
ATOM     62  H   UNL A   1      43.865  29.552  28.178  1.00  0.00     0.167 HD
ATOM     63  C   UNL A   1      42.964  31.885  29.526  1.00  0.00     0.074 A 
ATOM     64  C   UNL A   1      42.136  32.796  30.287  1.00  0.00     0.031 C 
ATOM     65  C   UNL A   1      44.199  32.196  29.052  1.00  0.00     0.034 A 
BRANCH  52  66
ATOM     66  C   UNL A   1      46.945  27.582  25.953  1.00  0.00     0.023 A 
ATOM     67  C   UNL A   1      47.193  27.913  24.610  1.00  0.00     0.031 A 
ATOM     68  C   UNL A   1      47.863  26.737  26.605  1.00  0.00     0.131 A 
ATOM     69  C   UNL A   1      48.296  27.356  23.945  1.00  0.00     0.055 A 
ATOM     70  C   UNL A   1      48.997  26.243  25.957  1.00  0.00     0.041 A 
ATOM     71  F   UNL A   1      47.664  26.369  27.881  1.00  0.00    -0.206 F 
ATOM     72  C   UNL A   1      49.212  26.542  24.616  1.00  0.00     0.022 A 
BRANCH  69  73
ATOM     73  S   UNL A   1      48.454  27.613  22.156  1.00  0.00     0.124 S 
ATOM     74  O   UNL A   1      47.165  28.214  21.829  1.00  0.00    -0.237 OA
ATOM     75  O   UNL A   1      49.613  28.495  22.065  1.00  0.00    -0.237 OA
ATOM     76  O   UNL A   1      48.657  26.263  21.633  1.00  0.00    -0.744 OA
ENDBRANCH  69  73
ENDBRANCH  52  66
BRANCH  53  77
ATOM     77  C   UNL A   1      38.747  30.382  30.998  1.00  0.00     0.023 A 
ATOM     78  C   UNL A   1      37.657  31.042  30.407  1.00  0.00     0.031 A 
ATOM     79  C   UNL A   1      38.721  30.183  32.390  1.00  0.00     0.131 A 
ATOM     80  C   UNL A   1      36.612  31.524  31.212  1.00  0.00     0.055 A 
ATOM     81  C   UNL A   1      37.654  30.617  33.179  1.00  0.00     0.041 A 
ATOM     82  F   UNL A   1      39.737  29.558  33.005  1.00  0.00    -0.206 F 
ATOM     83  C   UNL A   1      36.598  31.306  32.593  1.00  0.00     0.022 A 
BRANCH  80  84
ATOM     84  S   UNL A   1      35.313  32.528  30.441  1.00  0.00     0.124 S 
ATOM     85  O   UNL A   1      34.345  32.645  31.525  1.00  0.00    -0.237 OA
ATOM     86  O   UNL A   1      36.039  33.745  30.094  1.00  0.00    -0.237 OA
ATOM     87  O   UNL A   1      34.885  31.715  29.305  1.00  0.00    -0.744 OA
ENDBRANCH  80  84
ENDBRANCH  53  77
BRANCH  65  88
ATOM     88  C   UNL A   1      44.697  33.598  29.306  1.00  0.00     0.023 A 
ATOM     89  C   UNL A   1      44.500  34.633  28.376  1.00  0.00     0.031 A 
ATOM     90  C   UNL A   1      45.385  33.897  30.496  1.00  0.00     0.131 A 
ATOM     91  C   UNL A   1      45.033  35.907  28.628  1.00  0.00     0.055 A 
ATOM     92  C   UNL A   1      45.865  35.179  30.765  1.00  0.00     0.041 A 
ATOM     93  F   UNL A   1      45.601  32.944  31.417  1.00  0.00    -0.206 F 
ATOM     94  C   UNL A   1      45.701  36.190  29.822  1.00  0.00     0.022 A 
BRANCH  91  95
ATOM     95  S   UNL A   1      44.915  37.172  27.333  1.00  0.00     0.124 S 
ATOM     96  O   UNL A   1      45.322  38.378  28.048  1.00  0.00    -0.237 OA
ATOM     97  O   UNL A   1      45.854  36.680  26.330  1.00  0.00    -0.237 OA
ATOM     98  O   UNL A   1      43.509  37.129  26.938  1.00  0.00    -0.744 OA
ENDBRANCH  91  95
ENDBRANCH  65  88
ENDBRANCH  39  40
ENDBRANCH  32  34
ENDBRANCH  31  32
ENDBRANCH  30  31
ENDBRANCH  29  30
ENDBRANCH  28  29
ENDBRANCH   1  28
TORSDOF 22
ENDMDL
MODEL 2
REMARK VINA RESULT:     -10.9      1.583      7.530
REMARK SMILES COc1ccc2c(C[NH2+]Cc3cccs3)c(C(=O)OCCOCCOC(=O)c3ccc(-c4c5nc(c(-c6cc(S(=O)(=O)[O-])ccc6F)c6ccc([nH]6)c(-c6cc(S(=O)(=O)[O-])ccc6F)c6nc(c(-c7cc(S(=O)(=O)[O-])ccc7F)c7ccc4[nH]7)C=C6)C=C5)cc3)[nH]c2c1
REMARK SMILES IDX 21 1 20 2 19 3 17 4 18 5 16 6 3 7 4 8 93 9 5 10 92 11 6 12
REMARK SMILES IDX 91 13 7 14 2 16 1 17 8 18 9 19 10 22 11 23 12 24 15 25 13 26
REMARK SMILES IDX 14 27 22 28 23 29 24 30 25 31 26 32 27 33 28 34 29 35 90 36
REMARK SMILES IDX 30 37 89 38 31 39 32 40 33 41 83 42 34 43 88 44 82 45 84 46
REMARK SMILES IDX 35 47 87 48 81 49 80 50 36 52 68 53 48 54 67 55 49 56 52 57
REMARK SMILES IDX 66 58 85 59 50 60 51 61 65 63 86 64 53 65 37 66 38 67 46 68
REMARK SMILES IDX 39 69 45 70 47 71 44 72 40 73 41 74 42 75 43 76 69 77 70 78
REMARK SMILES IDX 78 79 71 80 77 81 79 82 76 83 72 84 73 85 74 86 75 87 54 88
REMARK SMILES IDX 55 89 63 90 56 91 62 92 64 93 61 94 57 95 58 96 59 97 60 98
REMARK H PARENT 91 15 9 20 9 21 84 51 52 62
REMARK Flexibility Score: inf
ROOT
ATOM      1  C   UNL A   1      35.725  22.914  25.722  1.00  0.00     0.202 C 
ENDROOT
BRANCH   1   2
ATOM      2  C   UNL A   1      34.474  23.611  26.261  1.00  0.00     0.261 C 
BRANCH   2   3
ATOM      3  O   UNL A   1      33.698  22.697  27.053  1.00  0.00    -0.459 OA
BRANCH   3   4
ATOM      4  C   UNL A   1      32.503  22.348  26.508  1.00  0.00     0.355 C 
ATOM      5  O   UNL A   1      31.450  22.952  26.665  1.00  0.00    -0.244 OA
BRANCH   4   6
ATOM      6  C   UNL A   1      32.680  21.165  25.702  1.00  0.00     0.134 A 
ATOM      7  C   UNL A   1      33.079  16.825  24.174  1.00  0.00     0.120 A 
ATOM      8  C   UNL A   1      32.631  17.411  22.993  1.00  0.00     0.047 A 
ATOM      9  C   UNL A   1      33.282  17.605  25.320  1.00  0.00     0.073 A 
ATOM     10  C   UNL A   1      32.404  18.792  22.921  1.00  0.00     0.015 A 
ATOM     11  C   UNL A   1      33.031  18.981  25.238  1.00  0.00     0.050 A 
ATOM     12  C   UNL A   1      32.601  19.595  24.065  1.00  0.00     0.009 A 
ATOM     13  N   UNL A   1      33.136  19.965  26.194  1.00  0.00    -0.349 N 
ATOM     14  C   UNL A   1      32.454  20.994  24.337  1.00  0.00     0.046 A 
ATOM     15  H   UNL A   1      33.488  19.828  27.102  1.00  0.00     0.167 HD
BRANCH   7  16
ATOM     16  O   UNL A   1      33.324  15.487  24.344  1.00  0.00    -0.497 OA
ATOM     17  C   UNL A   1      32.879  14.920  25.570  1.00  0.00     0.278 C 
ENDBRANCH   7  16
BRANCH  14  18
ATOM     18  C   UNL A   1      32.140  22.047  23.317  1.00  0.00     0.300 C 
BRANCH  18  19
ATOM     19  N   UNL A   1      33.330  22.825  23.039  1.00  0.00    -0.338 N 
ATOM     20  H   UNL A   1      34.088  22.185  22.804  1.00  0.00     0.346 HD
ATOM     21  H   UNL A   1      33.534  23.373  23.875  1.00  0.00     0.346 HD
BRANCH  19  22
ATOM     22  C   UNL A   1      33.159  23.765  21.939  1.00  0.00     0.308 C 
BRANCH  22  23
ATOM     23  C   UNL A   1      33.022  25.202  22.375  1.00  0.00     0.059 A 
ATOM     24  C   UNL A   1      33.778  25.940  23.270  1.00  0.00     0.021 A 
ATOM     25  S   UNL A   1      31.766  26.158  21.696  1.00  0.00    -0.143 S 
ATOM     26  C   UNL A   1      33.304  27.274  23.419  1.00  0.00     0.012 A 
ATOM     27  C   UNL A   1      32.218  27.526  22.614  1.00  0.00     0.065 A 
ENDBRANCH  22  23
ENDBRANCH  19  22
ENDBRANCH  18  19
ENDBRANCH  14  18
ENDBRANCH   4   6
ENDBRANCH   3   4
ENDBRANCH   2   3
ENDBRANCH   1   2
BRANCH   1  28
ATOM     28  O   UNL A   1      35.798  21.506  25.961  1.00  0.00    -0.374 OA
BRANCH  28  29
ATOM     29  C   UNL A   1      36.282  20.692  24.892  1.00  0.00     0.202 C 
BRANCH  29  30
ATOM     30  C   UNL A   1      37.787  20.407  24.874  1.00  0.00     0.261 C 
BRANCH  30  31
ATOM     31  O   UNL A   1      38.335  20.310  26.200  1.00  0.00    -0.460 OA
BRANCH  31  32
ATOM     32  C   UNL A   1      39.690  20.342  26.250  1.00  0.00     0.338 C 
ATOM     33  O   UNL A   1      40.461  19.514  25.795  1.00  0.00    -0.246 OA
BRANCH  32  34
ATOM     34  C   UNL A   1      40.137  21.644  26.783  1.00  0.00     0.060 A 
ATOM     35  C   UNL A   1      39.691  22.794  26.120  1.00  0.00     0.016 A 
ATOM     36  C   UNL A   1      41.009  21.744  27.869  1.00  0.00     0.016 A 
ATOM     37  C   UNL A   1      40.152  24.049  26.512  1.00  0.00     0.010 A 
ATOM     38  C   UNL A   1      41.481  23.004  28.254  1.00  0.00     0.010 A 
ATOM     39  C   UNL A   1      41.079  24.157  27.556  1.00  0.00    -0.014 A 
BRANCH  39  40
ATOM     40  C   UNL A   1      41.746  25.459  27.803  1.00  0.00     0.031 A 
ATOM     41  C   UNL A   1      40.985  26.531  28.535  1.00  0.00     0.074 A 
ATOM     42  C   UNL A   1      43.016  25.668  27.414  1.00  0.00     0.049 A 
ATOM     43  N   UNL A   1      41.352  27.748  28.841  1.00  0.00    -0.248 NA
ATOM     44  C   UNL A   1      39.628  26.180  28.981  1.00  0.00     0.031 C 
ATOM     45  C   UNL A   1      43.864  24.686  26.738  1.00  0.00     0.029 A 
ATOM     46  N   UNL A   1      43.814  26.778  27.528  1.00  0.00    -0.354 N 
ATOM     47  C   UNL A   1      40.273  28.310  29.515  1.00  0.00     0.074 A 
ATOM     48  C   UNL A   1      39.225  27.311  29.541  1.00  0.00     0.031 C 
ATOM     49  C   UNL A   1      45.060  25.244  26.485  1.00  0.00     0.029 A 
ATOM     50  C   UNL A   1      45.053  26.629  26.952  1.00  0.00     0.049 A 
ATOM     51  H   UNL A   1      43.526  27.604  27.982  1.00  0.00     0.167 HD
ATOM     52  C   UNL A   1      40.168  29.545  30.065  1.00  0.00     0.034 A 
ATOM     53  C   UNL A   1      46.055  27.519  26.797  1.00  0.00     0.034 A 
ATOM     54  C   UNL A   1      41.215  30.535  30.020  1.00  0.00     0.049 A 
ATOM     55  C   UNL A   1      45.883  28.915  27.348  1.00  0.00     0.074 A 
ATOM     56  C   UNL A   1      41.220  31.811  30.553  1.00  0.00     0.029 A 
ATOM     57  N   UNL A   1      42.442  30.363  29.393  1.00  0.00    -0.354 N 
ATOM     58  N   UNL A   1      44.861  29.431  27.993  1.00  0.00    -0.248 NA
ATOM     59  C   UNL A   1      47.005  29.846  27.160  1.00  0.00     0.031 C 
ATOM     60  C   UNL A   1      42.421  32.433  30.194  1.00  0.00     0.029 A 
ATOM     61  C   UNL A   1      43.197  31.520  29.498  1.00  0.00     0.049 A 
ATOM     62  H   UNL A   1      42.733  29.539  28.939  1.00  0.00     0.167 HD
ATOM     63  C   UNL A   1      45.233  30.734  28.313  1.00  0.00     0.074 A 
ATOM     64  C   UNL A   1      46.574  30.922  27.801  1.00  0.00     0.031 C 
ATOM     65  C   UNL A   1      44.532  31.691  28.975  1.00  0.00     0.034 A 
BRANCH  52  66
ATOM     66  C   UNL A   1      38.855  29.904  30.714  1.00  0.00     0.023 A 
ATOM     67  C   UNL A   1      37.911  30.725  30.073  1.00  0.00     0.031 A 
ATOM     68  C   UNL A   1      38.553  29.434  32.005  1.00  0.00     0.131 A 
ATOM     69  C   UNL A   1      36.738  31.099  30.747  1.00  0.00     0.055 A 
ATOM     70  C   UNL A   1      37.352  29.752  32.641  1.00  0.00     0.041 A 
ATOM     71  F   UNL A   1      39.427  28.665  32.673  1.00  0.00    -0.206 F 
ATOM     72  C   UNL A   1      36.442  30.600  32.018  1.00  0.00     0.022 A 
BRANCH  69  73
ATOM     73  S   UNL A   1      35.658  32.345  29.989  1.00  0.00     0.124 S 
ATOM     74  O   UNL A   1      36.480  33.547  30.090  1.00  0.00    -0.237 OA
ATOM     75  O   UNL A   1      35.462  31.815  28.644  1.00  0.00    -0.237 OA
ATOM     76  O   UNL A   1      34.472  32.334  30.842  1.00  0.00    -0.744 OA
ENDBRANCH  69  73
ENDBRANCH  52  66
BRANCH  53  77
ATOM     77  C   UNL A   1      47.292  27.148  26.052  1.00  0.00     0.023 A 
ATOM     78  C   UNL A   1      48.334  26.442  26.676  1.00  0.00     0.031 A 
ATOM     79  C   UNL A   1      47.479  27.558  24.720  1.00  0.00     0.131 A 
ATOM     80  C   UNL A   1      49.535  26.213  25.985  1.00  0.00     0.055 A 
ATOM     81  C   UNL A   1      48.654  27.280  24.019  1.00  0.00     0.041 A 
ATOM     82  F   UNL A   1      46.515  28.236  24.076  1.00  0.00    -0.206 F 
ATOM     83  C   UNL A   1      49.698  26.618  24.657  1.00  0.00     0.022 A 
BRANCH  80  84
ATOM     84  S   UNL A   1      50.921  25.461  26.879  1.00  0.00     0.124 S 
ATOM     85  O   UNL A   1      50.264  24.360  27.575  1.00  0.00    -0.237 OA
ATOM     86  O   UNL A   1      51.817  25.088  25.790  1.00  0.00    -0.237 OA
ATOM     87  O   UNL A   1      51.401  26.543  27.736  1.00  0.00    -0.744 OA
ENDBRANCH  80  84
ENDBRANCH  53  77
BRANCH  65  88
ATOM     88  C   UNL A   1      45.230  33.005  29.222  1.00  0.00     0.023 A 
ATOM     89  C   UNL A   1      45.050  34.110  28.373  1.00  0.00     0.031 A 
ATOM     90  C   UNL A   1      46.096  33.147  30.322  1.00  0.00     0.131 A 
ATOM     91  C   UNL A   1      45.767  35.294  28.608  1.00  0.00     0.055 A 
ATOM     92  C   UNL A   1      46.763  34.345  30.582  1.00  0.00     0.041 A 
ATOM     93  F   UNL A   1      46.305  32.122  31.163  1.00  0.00    -0.206 F 
ATOM     94  C   UNL A   1      46.611  35.423  29.714  1.00  0.00     0.022 A 
BRANCH  91  95
ATOM     95  S   UNL A   1      45.647  36.641  27.398  1.00  0.00     0.124 S 
ATOM     96  O   UNL A   1      44.456  36.265  26.641  1.00  0.00    -0.237 OA
ATOM     97  O   UNL A   1      45.513  37.816  28.252  1.00  0.00    -0.237 OA
ATOM     98  O   UNL A   1      46.905  36.552  26.659  1.00  0.00    -0.744 OA
ENDBRANCH  91  95
ENDBRANCH  65  88
ENDBRANCH  39  40
ENDBRANCH  32  34
ENDBRANCH  31  32
ENDBRANCH  30  31
ENDBRANCH  29  30
ENDBRANCH  28  29
ENDBRANCH   1  28
TORSDOF 22
ENDMDL
MODEL 3
REMARK VINA RESULT:     -10.9      4.901      7.449
REMARK SMILES COc1ccc2c(C[NH2+]Cc3cccs3)c(C(=O)OCCOCCOC(=O)c3ccc(-c4c5nc(c(-c6cc(S(=O)(=O)[O-])ccc6F)c6ccc([nH]6)c(-c6cc(S(=O)(=O)[O-])ccc6F)c6nc(c(-c7cc(S(=O)(=O)[O-])ccc7F)c7ccc4[nH]7)C=C6)C=C5)cc3)[nH]c2c1
REMARK SMILES IDX 21 1 20 2 19 3 17 4 18 5 16 6 3 7 4 8 93 9 5 10 92 11 6 12
REMARK SMILES IDX 91 13 7 14 2 16 1 17 8 18 9 19 10 22 11 23 12 24 15 25 13 26
REMARK SMILES IDX 14 27 22 28 23 29 24 30 25 31 26 32 27 33 28 34 29 35 90 36
REMARK SMILES IDX 30 37 89 38 31 39 32 40 33 41 83 42 34 43 88 44 82 45 84 46
REMARK SMILES IDX 35 47 87 48 81 49 80 50 36 52 68 53 48 54 67 55 49 56 52 57
REMARK SMILES IDX 66 58 85 59 50 60 51 61 65 63 86 64 53 65 37 66 38 67 46 68
REMARK SMILES IDX 39 69 45 70 47 71 44 72 40 73 41 74 42 75 43 76 69 77 70 78
REMARK SMILES IDX 78 79 71 80 77 81 79 82 76 83 72 84 73 85 74 86 75 87 54 88
REMARK SMILES IDX 55 89 63 90 56 91 62 92 64 93 61 94 57 95 58 96 59 97 60 98
REMARK H PARENT 91 15 9 20 9 21 84 51 52 62
REMARK Flexibility Score: inf
ROOT
ATOM      1  C   UNL A   1      30.629  27.738  22.885  1.00  0.00     0.202 C 
ENDROOT
BRANCH   1   2
ATOM      2  C   UNL A   1      30.996  26.379  22.285  1.00  0.00     0.261 C 
BRANCH   2   3
ATOM      3  O   UNL A   1      32.398  26.124  22.456  1.00  0.00    -0.459 OA
BRANCH   3   4
ATOM      4  C   UNL A   1      32.892  25.122  21.681  1.00  0.00     0.355 C 
ATOM      5  O   UNL A   1      33.214  25.230  20.506  1.00  0.00    -0.244 OA
BRANCH   4   6
ATOM      6  C   UNL A   1      32.995  23.921  22.472  1.00  0.00     0.134 A 
ATOM      7  C   UNL A   1      32.810  19.578  24.036  1.00  0.00     0.120 A 
ATOM      8  C   UNL A   1      33.909  20.010  24.776  1.00  0.00     0.047 A 
ATOM      9  C   UNL A   1      32.147  20.460  23.172  1.00  0.00     0.073 A 
ATOM     10  C   UNL A   1      34.350  21.337  24.693  1.00  0.00     0.015 A 
ATOM     11  C   UNL A   1      32.613  21.778  23.084  1.00  0.00     0.050 A 
ATOM     12  C   UNL A   1      33.697  22.240  23.827  1.00  0.00     0.009 A 
ATOM     13  N   UNL A   1      32.166  22.833  22.324  1.00  0.00    -0.349 N 
ATOM     14  C   UNL A   1      33.890  23.621  23.498  1.00  0.00     0.046 A 
ATOM     15  H   UNL A   1      31.364  22.813  21.754  1.00  0.00     0.167 HD
BRANCH   7  16
ATOM     16  O   UNL A   1      32.308  18.303  24.046  1.00  0.00    -0.497 OA
ATOM     17  C   UNL A   1      33.021  17.344  23.276  1.00  0.00     0.278 C 
ENDBRANCH   7  16
BRANCH  14  18
ATOM     18  C   UNL A   1      34.862  24.544  24.168  1.00  0.00     0.300 C 
BRANCH  18  19
ATOM     19  N   UNL A   1      34.595  24.582  25.592  1.00  0.00    -0.338 N 
ATOM     20  H   UNL A   1      35.473  24.749  26.082  1.00  0.00     0.346 HD
ATOM     21  H   UNL A   1      34.178  23.686  25.844  1.00  0.00     0.346 HD
BRANCH  19  22
ATOM     22  C   UNL A   1      33.648  25.622  25.972  1.00  0.00     0.308 C 
BRANCH  22  23
ATOM     23  C   UNL A   1      32.235  25.127  26.156  1.00  0.00     0.059 A 
ATOM     24  C   UNL A   1      31.030  25.723  25.827  1.00  0.00     0.021 A 
ATOM     25  S   UNL A   1      31.984  23.581  26.861  1.00  0.00    -0.143 S 
ATOM     26  C   UNL A   1      29.907  24.925  26.186  1.00  0.00     0.012 A 
ATOM     27  C   UNL A   1      30.286  23.730  26.751  1.00  0.00     0.065 A 
ENDBRANCH  22  23
ENDBRANCH  19  22
ENDBRANCH  18  19
ENDBRANCH  14  18
ENDBRANCH   4   6
ENDBRANCH   3   4
ENDBRANCH   2   3
ENDBRANCH   1   2
BRANCH   1  28
ATOM     28  O   UNL A   1      31.719  28.489  23.426  1.00  0.00    -0.374 OA
BRANCH  28  29
ATOM     29  C   UNL A   1      31.460  29.248  24.608  1.00  0.00     0.202 C 
BRANCH  29  30
ATOM     30  C   UNL A   1      32.674  29.871  25.304  1.00  0.00     0.261 C 
BRANCH  30  31
ATOM     31  O   UNL A   1      32.408  30.177  26.683  1.00  0.00    -0.460 OA
BRANCH  31  32
ATOM     32  C   UNL A   1      32.985  31.323  27.124  1.00  0.00     0.338 C 
ATOM     33  O   UNL A   1      32.457  32.417  27.231  1.00  0.00    -0.246 OA
BRANCH  32  34
ATOM     34  C   UNL A   1      34.332  31.030  27.652  1.00  0.00     0.060 A 
ATOM     35  C   UNL A   1      34.619  29.696  27.969  1.00  0.00     0.016 A 
ATOM     36  C   UNL A   1      35.277  32.033  27.880  1.00  0.00     0.016 A 
ATOM     37  C   UNL A   1      35.837  29.365  28.559  1.00  0.00     0.010 A 
ATOM     38  C   UNL A   1      36.495  31.700  28.484  1.00  0.00     0.010 A 
ATOM     39  C   UNL A   1      36.765  30.370  28.856  1.00  0.00    -0.014 A 
BRANCH  39  40
ATOM     40  C   UNL A   1      37.942  30.047  29.699  1.00  0.00     0.031 A 
ATOM     41  C   UNL A   1      38.967  29.084  29.166  1.00  0.00     0.074 A 
ATOM     42  C   UNL A   1      38.110  30.629  30.900  1.00  0.00     0.049 A 
ATOM     43  N   UNL A   1      40.057  28.635  29.732  1.00  0.00    -0.248 NA
ATOM     44  C   UNL A   1      38.728  28.557  27.814  1.00  0.00     0.031 C 
ATOM     45  C   UNL A   1      37.204  31.610  31.496  1.00  0.00     0.029 A 
ATOM     46  N   UNL A   1      39.100  30.474  31.837  1.00  0.00    -0.354 N 
ATOM     47  C   UNL A   1      40.636  27.773  28.806  1.00  0.00     0.074 A 
ATOM     48  C   UNL A   1      39.756  27.736  27.657  1.00  0.00     0.031 C 
ATOM     49  C   UNL A   1      37.675  31.959  32.705  1.00  0.00     0.029 A 
ATOM     50  C   UNL A   1      38.896  31.205  32.983  1.00  0.00     0.049 A 
ATOM     51  H   UNL A   1      39.884  29.894  31.699  1.00  0.00     0.167 HD
ATOM     52  C   UNL A   1      41.797  27.080  28.905  1.00  0.00     0.034 A 
ATOM     53  C   UNL A   1      39.601  31.239  34.132  1.00  0.00     0.034 A 
ATOM     54  C   UNL A   1      42.657  27.117  30.061  1.00  0.00     0.049 A 
ATOM     55  C   UNL A   1      40.849  30.396  34.248  1.00  0.00     0.074 A 
ATOM     56  C   UNL A   1      43.861  26.464  30.263  1.00  0.00     0.029 A 
ATOM     57  N   UNL A   1      42.399  27.838  31.220  1.00  0.00    -0.354 N 
ATOM     58  N   UNL A   1      41.391  29.593  33.361  1.00  0.00    -0.248 NA
ATOM     59  C   UNL A   1      41.586  30.472  35.517  1.00  0.00     0.031 C 
ATOM     60  C   UNL A   1      44.296  26.738  31.564  1.00  0.00     0.029 A 
ATOM     61  C   UNL A   1      43.402  27.620  32.150  1.00  0.00     0.049 A 
ATOM     62  H   UNL A   1      41.616  28.418  31.359  1.00  0.00     0.167 HD
ATOM     63  C   UNL A   1      42.548  29.095  33.956  1.00  0.00     0.074 A 
ATOM     64  C   UNL A   1      42.631  29.696  35.271  1.00  0.00     0.031 C 
ATOM     65  C   UNL A   1      43.464  28.223  33.460  1.00  0.00     0.034 A 
BRANCH  52  66
ATOM     66  C   UNL A   1      42.169  26.186  27.749  1.00  0.00     0.023 A 
ATOM     67  C   UNL A   1      41.693  24.867  27.648  1.00  0.00     0.031 A 
ATOM     68  C   UNL A   1      43.034  26.655  26.743  1.00  0.00     0.131 A 
ATOM     69  C   UNL A   1      42.130  24.045  26.598  1.00  0.00     0.055 A 
ATOM     70  C   UNL A   1      43.408  25.854  25.663  1.00  0.00     0.041 A 
ATOM     71  F   UNL A   1      43.537  27.898  26.801  1.00  0.00    -0.206 F 
ATOM     72  C   UNL A   1      42.966  24.537  25.593  1.00  0.00     0.022 A 
BRANCH  69  73
ATOM     73  S   UNL A   1      41.686  22.286  26.628  1.00  0.00     0.124 S 
ATOM     74  O   UNL A   1      42.287  21.809  25.386  1.00  0.00    -0.237 OA
ATOM     75  O   UNL A   1      42.314  21.824  27.861  1.00  0.00    -0.237 OA
ATOM     76  O   UNL A   1      40.225  22.301  26.640  1.00  0.00    -0.744 OA
ENDBRANCH  69  73
ENDBRANCH  52  66
BRANCH  53  77
ATOM     77  C   UNL A   1      39.132  32.057  35.286  1.00  0.00     0.023 A 
ATOM     78  C   UNL A   1      39.590  33.370  35.483  1.00  0.00     0.031 A 
ATOM     79  C   UNL A   1      38.268  31.509  36.252  1.00  0.00     0.131 A 
ATOM     80  C   UNL A   1      39.225  34.072  36.644  1.00  0.00     0.055 A 
ATOM     81  C   UNL A   1      37.865  32.230  37.377  1.00  0.00     0.041 A 
ATOM     82  F   UNL A   1      37.800  30.258  36.113  1.00  0.00    -0.206 F 
ATOM     83  C   UNL A   1      38.356  33.515  37.586  1.00  0.00     0.022 A 
BRANCH  80  84
ATOM     84  S   UNL A   1      39.979  35.692  36.953  1.00  0.00     0.124 S 
ATOM     85  O   UNL A   1      39.293  36.111  38.170  1.00  0.00    -0.237 OA
ATOM     86  O   UNL A   1      41.389  35.346  37.097  1.00  0.00    -0.237 OA
ATOM     87  O   UNL A   1      39.646  36.456  35.753  1.00  0.00    -0.744 OA
ENDBRANCH  80  84
ENDBRANCH  53  77
BRANCH  65  88
ATOM     88  C   UNL A   1      44.656  27.913  34.331  1.00  0.00     0.023 A 
ATOM     89  C   UNL A   1      44.653  26.839  35.237  1.00  0.00     0.031 A 
ATOM     90  C   UNL A   1      45.811  28.714  34.256  1.00  0.00     0.131 A 
ATOM     91  C   UNL A   1      45.762  26.625  36.069  1.00  0.00     0.055 A 
ATOM     92  C   UNL A   1      46.933  28.462  35.047  1.00  0.00     0.041 A 
ATOM     93  F   UNL A   1      45.867  29.753  33.408  1.00  0.00    -0.206 F 
ATOM     94  C   UNL A   1      46.907  27.419  35.970  1.00  0.00     0.022 A 
BRANCH  91  95
ATOM     95  S   UNL A   1      45.658  25.341  37.347  1.00  0.00     0.124 S 
ATOM     96  O   UNL A   1      45.360  24.149  36.558  1.00  0.00    -0.237 OA
ATOM     97  O   UNL A   1      46.987  25.390  37.947  1.00  0.00    -0.237 OA
ATOM     98  O   UNL A   1      44.572  25.802  38.209  1.00  0.00    -0.744 OA
ENDBRANCH  91  95
ENDBRANCH  65  88
ENDBRANCH  39  40
ENDBRANCH  32  34
ENDBRANCH  31  32
ENDBRANCH  30  31
ENDBRANCH  29  30
ENDBRANCH  28  29
ENDBRANCH   1  28
TORSDOF 22
ENDMDL
