MODEL 1
REMARK VINA RESULT:     -10.0      0.000      0.000
REMARK SMILES CC(C)C[C@H](NC(=O)CNC(=O)[C@@H](NC(=O)OCc1ccccc1)C(C)C)C(=O)OCCOCCOC(=O)c1ccc(-c2c3nc(c(-c4cc(S(=O)(=O)[O-])ccc4F)c4ccc([nH]4)c(-c4cc(S(=O)(=O)[O-])ccc4F)c4nc(c(-c5cc(S(=O)(=O)[O-])ccc5F)c5ccc2[nH]5)C=C4)C=C3)cc1
REMARK SMILES IDX 31 1 30 2 28 3 29 4 5 5 4 6 2 7 1 8 3 9 6 10 7 11 8 13 9 14
REMARK SMILES IDX 10 15 11 16 12 18 13 19 14 20 15 21 16 23 17 24 18 25 19 26
REMARK SMILES IDX 20 27 24 28 21 29 23 30 22 31 25 32 26 33 27 34 32 35 33 36
REMARK SMILES IDX 34 37 35 38 36 39 37 40 38 41 39 42 40 43 101 44 41 45
REMARK SMILES IDX 100 46 42 47 43 48 44 49 94 50 45 51 99 52 93 53 95 54 46 55
REMARK SMILES IDX 98 56 92 57 91 58 47 60 79 61 59 62 78 63 60 64 63 65 77 66
REMARK SMILES IDX 96 67 61 68 62 69 76 71 97 72 64 73 48 74 49 75 57 76 50 77
REMARK SMILES IDX 56 78 58 79 55 80 51 81 52 82 53 83 54 84 80 85 81 86 89 87
REMARK SMILES IDX 82 88 88 89 90 90 87 91 83 92 84 93 85 94 86 95 65 96 66 97
REMARK SMILES IDX 74 98 67 99 73 100 75 101 72 102 68 103 69 104 70 105 71 106
REMARK H PARENT 6 12 10 17 14 22 95 59 63 70
REMARK Flexibility Score: inf
ROOT
ATOM      1  C   UNL A   1      32.274  30.725  26.562  1.00  0.00     0.261 C 
ENDROOT
BRANCH   1   2
ATOM      2  O   UNL A   1      32.436  30.048  25.320  1.00  0.00    -0.462 OA
BRANCH   2   3
ATOM      3  C   UNL A   1      31.584  28.999  25.117  1.00  0.00     0.328 C 
ATOM      4  O   UNL A   1      31.148  28.246  25.977  1.00  0.00    -0.250 OA
BRANCH   3   5
ATOM      5  C   UNL A   1      31.369  28.791  23.627  1.00  0.00     0.192 C 
BRANCH   5   6
ATOM      6  C   UNL A   1      29.858  28.867  23.392  1.00  0.00     0.040 C 
BRANCH   6   7
ATOM      7  C   UNL A   1      29.125  30.170  23.012  1.00  0.00    -0.015 C 
ATOM      8  C   UNL A   1      29.364  30.604  21.561  1.00  0.00     0.007 C 
ATOM      9  C   UNL A   1      27.612  29.916  23.142  1.00  0.00     0.007 C 
ENDBRANCH   6   7
ENDBRANCH   5   6
BRANCH   5  10
ATOM     10  N   UNL A   1      32.035  27.553  23.156  1.00  0.00    -0.341 N 
ATOM     11  C   UNL A   1      31.435  26.432  22.652  1.00  0.00     0.240 C 
ATOM     12  H   UNL A   1      33.017  27.536  23.212  1.00  0.00     0.164 HD
ATOM     13  O   UNL A   1      31.693  26.123  21.483  1.00  0.00    -0.273 OA
BRANCH  11  14
ATOM     14  C   UNL A   1      30.402  25.622  23.445  1.00  0.00     0.216 C 
BRANCH  14  15
ATOM     15  N   UNL A   1      30.679  25.472  24.857  1.00  0.00    -0.345 N 
ATOM     16  C   UNL A   1      31.585  24.781  25.587  1.00  0.00     0.243 C 
ATOM     17  H   UNL A   1      30.065  25.996  25.420  1.00  0.00     0.164 HD
ATOM     18  O   UNL A   1      31.572  25.056  26.795  1.00  0.00    -0.273 OA
BRANCH  16  19
ATOM     19  C   UNL A   1      32.531  23.648  25.052  1.00  0.00     0.177 C 
BRANCH  19  20
ATOM     20  N   UNL A   1      32.093  22.907  23.860  1.00  0.00    -0.309 N 
ATOM     21  C   UNL A   1      32.407  21.695  23.355  1.00  0.00     0.408 C 
ATOM     22  H   UNL A   1      31.434  23.397  23.317  1.00  0.00     0.167 HD
ATOM     23  O   UNL A   1      32.074  21.423  22.206  1.00  0.00    -0.225 OA
BRANCH  21  24
ATOM     24  O   UNL A   1      33.084  20.899  24.201  1.00  0.00    -0.445 OA
BRANCH  24  25
ATOM     25  C   UNL A   1      32.287  19.914  24.878  1.00  0.00     0.270 C 
BRANCH  25  26
ATOM     26  C   UNL A   1      32.756  18.485  24.694  1.00  0.00    -0.011 A 
ATOM     27  C   UNL A   1      33.231  18.016  23.460  1.00  0.00     0.007 A 
ATOM     28  C   UNL A   1      32.733  17.603  25.783  1.00  0.00     0.007 A 
ATOM     29  C   UNL A   1      33.726  16.717  23.332  1.00  0.00     0.000 A 
ATOM     30  C   UNL A   1      33.207  16.296  25.649  1.00  0.00     0.000 A 
ATOM     31  C   UNL A   1      33.712  15.858  24.427  1.00  0.00     0.000 A 
ENDBRANCH  25  26
ENDBRANCH  24  25
ENDBRANCH  21  24
ENDBRANCH  19  20
BRANCH  19  32
ATOM     32  C   UNL A   1      34.031  24.027  25.082  1.00  0.00     0.015 C 
ATOM     33  C   UNL A   1      34.258  25.545  25.158  1.00  0.00     0.010 C 
ATOM     34  C   UNL A   1      34.741  23.422  26.301  1.00  0.00     0.010 C 
ENDBRANCH  19  32
ENDBRANCH  16  19
ENDBRANCH  14  15
ENDBRANCH  11  14
ENDBRANCH   5  10
ENDBRANCH   3   5
ENDBRANCH   2   3
ENDBRANCH   1   2
BRANCH   1  35
ATOM     35  C   UNL A   1      31.284  31.884  26.500  1.00  0.00     0.202 C 
BRANCH  35  36
ATOM     36  O   UNL A   1      31.715  33.160  26.950  1.00  0.00    -0.374 OA
BRANCH  36  37
ATOM     37  C   UNL A   1      32.729  33.258  27.948  1.00  0.00     0.202 C 
BRANCH  37  38
ATOM     38  C   UNL A   1      33.921  34.201  27.744  1.00  0.00     0.261 C 
BRANCH  38  39
ATOM     39  O   UNL A   1      34.171  35.075  28.860  1.00  0.00    -0.460 OA
BRANCH  39  40
ATOM     40  C   UNL A   1      34.292  34.428  30.046  1.00  0.00     0.338 C 
ATOM     41  O   UNL A   1      33.505  34.446  30.979  1.00  0.00    -0.246 OA
BRANCH  40  42
ATOM     42  C   UNL A   1      35.450  33.524  30.032  1.00  0.00     0.060 A 
ATOM     43  C   UNL A   1      35.330  32.287  30.679  1.00  0.00     0.016 A 
ATOM     44  C   UNL A   1      36.686  33.967  29.560  1.00  0.00     0.016 A 
ATOM     45  C   UNL A   1      36.460  31.505  30.894  1.00  0.00     0.010 A 
ATOM     46  C   UNL A   1      37.821  33.181  29.785  1.00  0.00     0.010 A 
ATOM     47  C   UNL A   1      37.718  31.965  30.485  1.00  0.00    -0.014 A 
BRANCH  47  48
ATOM     48  C   UNL A   1      38.934  31.230  30.908  1.00  0.00     0.031 A 
ATOM     49  C   UNL A   1      39.656  31.660  32.156  1.00  0.00     0.074 A 
ATOM     50  C   UNL A   1      39.360  30.167  30.203  1.00  0.00     0.049 A 
ATOM     51  N   UNL A   1      40.765  31.198  32.673  1.00  0.00    -0.248 NA
ATOM     52  C   UNL A   1      39.044  32.756  32.926  1.00  0.00     0.031 C 
ATOM     53  C   UNL A   1      38.698  29.627  29.016  1.00  0.00     0.029 A 
ATOM     54  N   UNL A   1      40.450  29.355  30.380  1.00  0.00    -0.354 N 
ATOM     55  C   UNL A   1      40.993  31.951  33.819  1.00  0.00     0.074 A 
ATOM     56  C   UNL A   1      39.919  32.918  33.908  1.00  0.00     0.031 C 
ATOM     57  C   UNL A   1      39.404  28.577  28.564  1.00  0.00     0.029 A 
ATOM     58  C   UNL A   1      40.592  28.405  29.395  1.00  0.00     0.049 A 
ATOM     59  H   UNL A   1      41.071  29.442  31.139  1.00  0.00     0.167 HD
ATOM     60  C   UNL A   1      42.005  31.841  34.715  1.00  0.00     0.034 A 
ATOM     61  C   UNL A   1      41.590  27.524  29.171  1.00  0.00     0.034 A 
ATOM     62  C   UNL A   1      43.069  30.871  34.604  1.00  0.00     0.049 A 
ATOM     63  C   UNL A   1      42.757  27.490  30.130  1.00  0.00     0.074 A 
ATOM     64  C   UNL A   1      44.133  30.659  35.462  1.00  0.00     0.029 A 
ATOM     65  N   UNL A   1      43.213  29.960  33.564  1.00  0.00    -0.354 N 
ATOM     66  N   UNL A   1      42.960  28.204  31.213  1.00  0.00    -0.248 NA
ATOM     67  C   UNL A   1      43.825  26.526  29.837  1.00  0.00     0.031 C 
ATOM     68  C   UNL A   1      44.964  29.685  34.900  1.00  0.00     0.029 A 
ATOM     69  C   UNL A   1      44.370  29.217  33.739  1.00  0.00     0.049 A 
ATOM     70  H   UNL A   1      42.584  29.858  32.813  1.00  0.00     0.167 HD
ATOM     71  C   UNL A   1      44.163  27.748  31.748  1.00  0.00     0.074 A 
ATOM     72  C   UNL A   1      44.626  26.687  30.880  1.00  0.00     0.031 C 
ATOM     73  C   UNL A   1      44.824  28.165  32.859  1.00  0.00     0.034 A 
BRANCH  60  74
ATOM     74  C   UNL A   1      42.048  32.826  35.858  1.00  0.00     0.023 A 
ATOM     75  C   UNL A   1      41.360  32.604  37.063  1.00  0.00     0.031 A 
ATOM     76  C   UNL A   1      42.801  34.008  35.739  1.00  0.00     0.131 A 
ATOM     77  C   UNL A   1      41.400  33.570  38.081  1.00  0.00     0.055 A 
ATOM     78  C   UNL A   1      42.898  34.930  36.783  1.00  0.00     0.041 A 
ATOM     79  F   UNL A   1      43.458  34.288  34.601  1.00  0.00    -0.206 F 
ATOM     80  C   UNL A   1      42.187  34.719  37.959  1.00  0.00     0.022 A 
BRANCH  77  81
ATOM     81  S   UNL A   1      40.319  33.364  39.521  1.00  0.00     0.124 S 
ATOM     82  O   UNL A   1      40.655  34.543  40.315  1.00  0.00    -0.237 OA
ATOM     83  O   UNL A   1      38.990  33.355  38.921  1.00  0.00    -0.237 OA
ATOM     84  O   UNL A   1      40.752  32.091  40.095  1.00  0.00    -0.744 OA
ENDBRANCH  77  81
ENDBRANCH  60  74
BRANCH  61  85
ATOM     85  C   UNL A   1      41.568  26.644  27.967  1.00  0.00     0.023 A 
ATOM     86  C   UNL A   1      41.204  25.291  28.062  1.00  0.00     0.031 A 
ATOM     87  C   UNL A   1      41.990  27.124  26.713  1.00  0.00     0.131 A 
ATOM     88  C   UNL A   1      41.328  24.453  26.943  1.00  0.00     0.055 A 
ATOM     89  C   UNL A   1      42.045  26.301  25.586  1.00  0.00     0.041 A 
ATOM     90  F   UNL A   1      42.356  28.406  26.564  1.00  0.00    -0.206 F 
ATOM     91  C   UNL A   1      41.730  24.953  25.702  1.00  0.00     0.022 A 
BRANCH  88  92
ATOM     92  S   UNL A   1      41.075  22.671  27.165  1.00  0.00     0.124 S 
ATOM     93  O   UNL A   1      41.598  22.464  28.511  1.00  0.00    -0.237 OA
ATOM     94  O   UNL A   1      39.629  22.551  27.013  1.00  0.00    -0.237 OA
ATOM     95  O   UNL A   1      41.866  22.078  26.089  1.00  0.00    -0.744 OA
ENDBRANCH  88  92
ENDBRANCH  61  85
BRANCH  73  96
ATOM     96  C   UNL A   1      46.094  27.432  33.220  1.00  0.00     0.023 A 
ATOM     97  C   UNL A   1      47.310  27.683  32.560  1.00  0.00     0.031 A 
ATOM     98  C   UNL A   1      46.084  26.457  34.234  1.00  0.00     0.131 A 
ATOM     99  C   UNL A   1      48.448  26.924  32.877  1.00  0.00     0.055 A 
ATOM    100  C   UNL A   1      47.235  25.755  34.594  1.00  0.00     0.041 A 
ATOM    101  F   UNL A   1      44.950  26.171  34.895  1.00  0.00    -0.206 F 
ATOM    102  C   UNL A   1      48.423  25.976  33.903  1.00  0.00     0.022 A 
BRANCH  99 103
ATOM    103  S   UNL A   1      49.934  27.115  31.855  1.00  0.00     0.124 S 
ATOM    104  O   UNL A   1      50.011  28.564  31.701  1.00  0.00    -0.237 OA
ATOM    105  O   UNL A   1      50.967  26.507  32.688  1.00  0.00    -0.237 OA
ATOM    106  O   UNL A   1      49.609  26.378  30.635  1.00  0.00    -0.744 OA
ENDBRANCH  99 103
ENDBRANCH  73  96
ENDBRANCH  47  48
ENDBRANCH  40  42
ENDBRANCH  39  40
ENDBRANCH  38  39
ENDBRANCH  37  38
ENDBRANCH  36  37
ENDBRANCH  35  36
ENDBRANCH   1  35
TORSDOF 28
ENDMDL
MODEL 2
REMARK VINA RESULT:      -9.8      1.837      2.192
REMARK SMILES CC(C)C[C@H](NC(=O)CNC(=O)[C@@H](NC(=O)OCc1ccccc1)C(C)C)C(=O)OCCOCCOC(=O)c1ccc(-c2c3nc(c(-c4cc(S(=O)(=O)[O-])ccc4F)c4ccc([nH]4)c(-c4cc(S(=O)(=O)[O-])ccc4F)c4nc(c(-c5cc(S(=O)(=O)[O-])ccc5F)c5ccc2[nH]5)C=C4)C=C3)cc1
REMARK SMILES IDX 31 1 30 2 28 3 29 4 5 5 4 6 2 7 1 8 3 9 6 10 7 11 8 13 9 14
REMARK SMILES IDX 10 15 11 16 12 18 13 19 14 20 15 21 16 23 17 24 18 25 19 26
REMARK SMILES IDX 20 27 24 28 21 29 23 30 22 31 25 32 26 33 27 34 32 35 33 36
REMARK SMILES IDX 34 37 35 38 36 39 37 40 38 41 39 42 40 43 101 44 41 45
REMARK SMILES IDX 100 46 42 47 43 48 44 49 94 50 45 51 99 52 93 53 95 54 46 55
REMARK SMILES IDX 98 56 92 57 91 58 47 60 79 61 59 62 78 63 60 64 63 65 77 66
REMARK SMILES IDX 96 67 61 68 62 69 76 71 97 72 64 73 48 74 49 75 57 76 50 77
REMARK SMILES IDX 56 78 58 79 55 80 51 81 52 82 53 83 54 84 80 85 81 86 89 87
REMARK SMILES IDX 82 88 88 89 90 90 87 91 83 92 84 93 85 94 86 95 65 96 66 97
REMARK SMILES IDX 74 98 67 99 73 100 75 101 72 102 68 103 69 104 70 105 71 106
REMARK H PARENT 6 12 10 17 14 22 95 59 63 70
REMARK Flexibility Score: inf
ROOT
ATOM      1  C   UNL A   1      32.519  30.716  26.733  1.00  0.00     0.261 C 
ENDROOT
BRANCH   1   2
ATOM      2  O   UNL A   1      32.668  29.894  25.580  1.00  0.00    -0.462 OA
BRANCH   2   3
ATOM      3  C   UNL A   1      31.705  28.939  25.420  1.00  0.00     0.328 C 
ATOM      4  O   UNL A   1      31.268  28.200  26.293  1.00  0.00    -0.250 OA
BRANCH   3   5
ATOM      5  C   UNL A   1      31.351  28.804  23.949  1.00  0.00     0.192 C 
BRANCH   5   6
ATOM      6  C   UNL A   1      29.824  28.880  23.861  1.00  0.00     0.040 C 
BRANCH   6   7
ATOM      7  C   UNL A   1      29.075  29.977  23.075  1.00  0.00    -0.015 C 
ATOM      8  C   UNL A   1      29.133  31.355  23.744  1.00  0.00     0.007 C 
ATOM      9  C   UNL A   1      29.765  30.133  21.708  1.00  0.00     0.007 C 
ENDBRANCH   6   7
ENDBRANCH   5   6
BRANCH   5  10
ATOM     10  N   UNL A   1      31.972  27.596  23.354  1.00  0.00    -0.341 N 
ATOM     11  C   UNL A   1      31.332  26.543  22.762  1.00  0.00     0.240 C 
ATOM     12  H   UNL A   1      32.955  27.547  23.390  1.00  0.00     0.164 HD
ATOM     13  O   UNL A   1      31.562  26.336  21.565  1.00  0.00    -0.273 OA
BRANCH  11  14
ATOM     14  C   UNL A   1      30.288  25.693  23.496  1.00  0.00     0.216 C 
BRANCH  14  15
ATOM     15  N   UNL A   1      30.570  25.428  24.890  1.00  0.00    -0.345 N 
ATOM     16  C   UNL A   1      31.502  24.711  25.559  1.00  0.00     0.243 C 
ATOM     17  H   UNL A   1      29.935  25.875  25.495  1.00  0.00     0.164 HD
ATOM     18  O   UNL A   1      31.478  24.875  26.786  1.00  0.00    -0.273 OA
BRANCH  16  19
ATOM     19  C   UNL A   1      32.492  23.668  24.928  1.00  0.00     0.177 C 
BRANCH  19  20
ATOM     20  N   UNL A   1      31.982  22.823  23.839  1.00  0.00    -0.309 N 
ATOM     21  C   UNL A   1      32.377  21.640  23.322  1.00  0.00     0.408 C 
ATOM     22  H   UNL A   1      31.188  23.198  23.395  1.00  0.00     0.167 HD
ATOM     23  O   UNL A   1      31.913  21.274  22.246  1.00  0.00    -0.225 OA
BRANCH  21  24
ATOM     24  O   UNL A   1      33.277  20.979  24.071  1.00  0.00    -0.445 OA
BRANCH  24  25
ATOM     25  C   UNL A   1      32.717  20.107  25.065  1.00  0.00     0.270 C 
BRANCH  25  26
ATOM     26  C   UNL A   1      33.207  18.675  25.001  1.00  0.00    -0.011 A 
ATOM     27  C   UNL A   1      32.388  17.596  25.367  1.00  0.00     0.007 A 
ATOM     28  C   UNL A   1      34.508  18.408  24.553  1.00  0.00     0.007 A 
ATOM     29  C   UNL A   1      32.835  16.282  25.232  1.00  0.00     0.000 A 
ATOM     30  C   UNL A   1      34.964  17.092  24.439  1.00  0.00     0.000 A 
ATOM     31  C   UNL A   1      34.124  16.030  24.769  1.00  0.00     0.000 A 
ENDBRANCH  25  26
ENDBRANCH  24  25
ENDBRANCH  21  24
ENDBRANCH  19  20
BRANCH  19  32
ATOM     32  C   UNL A   1      33.924  24.218  24.725  1.00  0.00     0.015 C 
ATOM     33  C   UNL A   1      34.272  24.437  23.243  1.00  0.00     0.010 C 
ATOM     34  C   UNL A   1      34.111  25.575  25.417  1.00  0.00     0.010 C 
ENDBRANCH  19  32
ENDBRANCH  16  19
ENDBRANCH  14  15
ENDBRANCH  11  14
ENDBRANCH   5  10
ENDBRANCH   3   5
ENDBRANCH   2   3
ENDBRANCH   1   2
BRANCH   1  35
ATOM     35  C   UNL A   1      31.376  31.720  26.621  1.00  0.00     0.202 C 
BRANCH  35  36
ATOM     36  O   UNL A   1      31.656  33.088  26.881  1.00  0.00    -0.374 OA
BRANCH  36  37
ATOM     37  C   UNL A   1      32.659  33.441  27.833  1.00  0.00     0.202 C 
BRANCH  37  38
ATOM     38  C   UNL A   1      33.597  34.622  27.560  1.00  0.00     0.261 C 
BRANCH  38  39
ATOM     39  O   UNL A   1      33.764  35.506  28.685  1.00  0.00    -0.460 OA
BRANCH  39  40
ATOM     40  C   UNL A   1      33.782  34.869  29.883  1.00  0.00     0.338 C 
ATOM     41  O   UNL A   1      32.946  34.945  30.769  1.00  0.00    -0.246 OA
BRANCH  40  42
ATOM     42  C   UNL A   1      34.886  33.903  29.945  1.00  0.00     0.060 A 
ATOM     43  C   UNL A   1      34.707  32.745  30.713  1.00  0.00     0.016 A 
ATOM     44  C   UNL A   1      36.136  34.224  29.417  1.00  0.00     0.016 A 
ATOM     45  C   UNL A   1      35.794  31.923  30.992  1.00  0.00     0.010 A 
ATOM     46  C   UNL A   1      37.229  33.400  29.706  1.00  0.00     0.010 A 
ATOM     47  C   UNL A   1      37.069  32.266  30.524  1.00  0.00    -0.014 A 
BRANCH  47  48
ATOM     48  C   UNL A   1      38.248  31.507  31.004  1.00  0.00     0.031 A 
ATOM     49  C   UNL A   1      38.867  31.867  32.327  1.00  0.00     0.074 A 
ATOM     50  C   UNL A   1      38.731  30.481  30.281  1.00  0.00     0.049 A 
ATOM     51  N   UNL A   1      39.931  31.376  32.906  1.00  0.00    -0.248 NA
ATOM     52  C   UNL A   1      38.193  32.923  33.103  1.00  0.00     0.031 C 
ATOM     53  C   UNL A   1      38.168  30.006  29.017  1.00  0.00     0.029 A 
ATOM     54  N   UNL A   1      39.805  29.657  30.501  1.00  0.00    -0.354 N 
ATOM     55  C   UNL A   1      40.066  32.067  34.105  1.00  0.00     0.074 A 
ATOM     56  C   UNL A   1      38.987  33.030  34.158  1.00  0.00     0.031 C 
ATOM     57  C   UNL A   1      38.909  28.979  28.568  1.00  0.00     0.029 A 
ATOM     58  C   UNL A   1      40.027  28.761  29.482  1.00  0.00     0.049 A 
ATOM     59  H   UNL A   1      40.363  29.703  31.311  1.00  0.00     0.167 HD
ATOM     60  C   UNL A   1      41.003  31.907  35.072  1.00  0.00     0.034 A 
ATOM     61  C   UNL A   1      41.041  27.891  29.292  1.00  0.00     0.034 A 
ATOM     62  C   UNL A   1      42.073  30.941  34.995  1.00  0.00     0.049 A 
ATOM     63  C   UNL A   1      42.127  27.802  30.338  1.00  0.00     0.074 A 
ATOM     64  C   UNL A   1      43.066  30.681  35.924  1.00  0.00     0.029 A 
ATOM     65  N   UNL A   1      42.302  30.087  33.924  1.00  0.00    -0.354 N 
ATOM     66  N   UNL A   1      42.241  28.458  31.471  1.00  0.00    -0.248 NA
ATOM     67  C   UNL A   1      43.217  26.852  30.082  1.00  0.00     0.031 C 
ATOM     68  C   UNL A   1      43.941  29.736  35.380  1.00  0.00     0.029 A 
ATOM     69  C   UNL A   1      43.443  29.332  34.151  1.00  0.00     0.049 A 
ATOM     70  H   UNL A   1      41.736  30.026  33.120  1.00  0.00     0.167 HD
ATOM     71  C   UNL A   1      43.398  27.971  32.076  1.00  0.00     0.074 A 
ATOM     72  C   UNL A   1      43.931  26.956  31.192  1.00  0.00     0.031 C 
ATOM     73  C   UNL A   1      43.968  28.327  33.256  1.00  0.00     0.034 A 
BRANCH  60  74
ATOM     74  C   UNL A   1      40.952  32.830  36.265  1.00  0.00     0.023 A 
ATOM     75  C   UNL A   1      41.870  33.881  36.438  1.00  0.00     0.031 A 
ATOM     76  C   UNL A   1      39.956  32.659  37.245  1.00  0.00     0.131 A 
ATOM     77  C   UNL A   1      41.802  34.687  37.586  1.00  0.00     0.055 A 
ATOM     78  C   UNL A   1      39.848  33.511  38.345  1.00  0.00     0.041 A 
ATOM     79  F   UNL A   1      39.068  31.656  37.147  1.00  0.00    -0.206 F 
ATOM     80  C   UNL A   1      40.781  34.526  38.526  1.00  0.00     0.022 A 
BRANCH  77  81
ATOM     81  S   UNL A   1      43.135  35.876  37.893  1.00  0.00     0.124 S 
ATOM     82  O   UNL A   1      43.040  36.061  39.339  1.00  0.00    -0.237 OA
ATOM     83  O   UNL A   1      44.313  35.161  37.417  1.00  0.00    -0.237 OA
ATOM     84  O   UNL A   1      42.747  37.040  37.098  1.00  0.00    -0.744 OA
ENDBRANCH  77  81
ENDBRANCH  60  74
BRANCH  61  85
ATOM     85  C   UNL A   1      41.117  27.075  28.045  1.00  0.00     0.023 A 
ATOM     86  C   UNL A   1      40.846  25.698  28.060  1.00  0.00     0.031 A 
ATOM     87  C   UNL A   1      41.543  27.648  26.832  1.00  0.00     0.131 A 
ATOM     88  C   UNL A   1      41.062  24.930  26.905  1.00  0.00     0.055 A 
ATOM     89  C   UNL A   1      41.690  26.891  25.668  1.00  0.00     0.041 A 
ATOM     90  F   UNL A   1      41.824  28.958  26.760  1.00  0.00    -0.206 F 
ATOM     91  C   UNL A   1      41.465  25.520  25.705  1.00  0.00     0.022 A 
BRANCH  88  92
ATOM     92  S   UNL A   1      40.926  23.126  27.029  1.00  0.00     0.124 S 
ATOM     93  O   UNL A   1      41.755  22.690  25.909  1.00  0.00    -0.237 OA
ATOM     94  O   UNL A   1      41.464  22.873  28.362  1.00  0.00    -0.237 OA
ATOM     95  O   UNL A   1      39.493  22.881  26.878  1.00  0.00    -0.744 OA
ENDBRANCH  88  92
ENDBRANCH  61  85
BRANCH  73  96
ATOM     96  C   UNL A   1      45.206  27.572  33.679  1.00  0.00     0.023 A 
ATOM     97  C   UNL A   1      45.130  26.339  34.351  1.00  0.00     0.031 A 
ATOM     98  C   UNL A   1      46.482  28.103  33.417  1.00  0.00     0.131 A 
ATOM     99  C   UNL A   1      46.305  25.710  34.793  1.00  0.00     0.055 A 
ATOM    100  C   UNL A   1      47.649  27.438  33.795  1.00  0.00     0.041 A 
ATOM    101  F   UNL A   1      46.615  29.279  32.782  1.00  0.00    -0.206 F 
ATOM    102  C   UNL A   1      47.564  26.242  34.501  1.00  0.00     0.022 A 
BRANCH  99 103
ATOM    103  S   UNL A   1      46.163  24.243  35.850  1.00  0.00     0.124 S 
ATOM    104  O   UNL A   1      46.642  24.747  37.133  1.00  0.00    -0.237 OA
ATOM    105  O   UNL A   1      44.737  23.942  35.775  1.00  0.00    -0.237 OA
ATOM    106  O   UNL A   1      47.037  23.267  35.201  1.00  0.00    -0.744 OA
ENDBRANCH  99 103
ENDBRANCH  73  96
ENDBRANCH  47  48
ENDBRANCH  40  42
ENDBRANCH  39  40
ENDBRANCH  38  39
ENDBRANCH  37  38
ENDBRANCH  36  37
ENDBRANCH  35  36
ENDBRANCH   1  35
TORSDOF 28
ENDMDL
MODEL 3
REMARK VINA RESULT:      -9.3      3.724      5.557
REMARK SMILES CC(C)C[C@H](NC(=O)CNC(=O)[C@@H](NC(=O)OCc1ccccc1)C(C)C)C(=O)OCCOCCOC(=O)c1ccc(-c2c3nc(c(-c4cc(S(=O)(=O)[O-])ccc4F)c4ccc([nH]4)c(-c4cc(S(=O)(=O)[O-])ccc4F)c4nc(c(-c5cc(S(=O)(=O)[O-])ccc5F)c5ccc2[nH]5)C=C4)C=C3)cc1
REMARK SMILES IDX 31 1 30 2 28 3 29 4 5 5 4 6 2 7 1 8 3 9 6 10 7 11 8 13 9 14
REMARK SMILES IDX 10 15 11 16 12 18 13 19 14 20 15 21 16 23 17 24 18 25 19 26
REMARK SMILES IDX 20 27 24 28 21 29 23 30 22 31 25 32 26 33 27 34 32 35 33 36
REMARK SMILES IDX 34 37 35 38 36 39 37 40 38 41 39 42 40 43 101 44 41 45
REMARK SMILES IDX 100 46 42 47 43 48 44 49 94 50 45 51 99 52 93 53 95 54 46 55
REMARK SMILES IDX 98 56 92 57 91 58 47 60 79 61 59 62 78 63 60 64 63 65 77 66
REMARK SMILES IDX 96 67 61 68 62 69 76 71 97 72 64 73 48 74 49 75 57 76 50 77
REMARK SMILES IDX 56 78 58 79 55 80 51 81 52 82 53 83 54 84 80 85 81 86 89 87
REMARK SMILES IDX 82 88 88 89 90 90 87 91 83 92 84 93 85 94 86 95 65 96 66 97
REMARK SMILES IDX 74 98 67 99 73 100 75 101 72 102 68 103 69 104 70 105 71 106
REMARK H PARENT 6 12 10 17 14 22 95 59 63 70
REMARK Flexibility Score: inf
ROOT
ATOM      1  C   UNL A   1      34.061  28.499  26.537  1.00  0.00     0.261 C 
ENDROOT
BRANCH   1   2
ATOM      2  O   UNL A   1      33.502  28.857  25.277  1.00  0.00    -0.462 OA
BRANCH   2   3
ATOM      3  C   UNL A   1      32.138  28.903  25.240  1.00  0.00     0.328 C 
ATOM      4  O   UNL A   1      31.390  28.943  26.208  1.00  0.00    -0.250 OA
BRANCH   3   5
ATOM      5  C   UNL A   1      31.655  28.735  23.809  1.00  0.00     0.192 C 
BRANCH   5   6
ATOM      6  C   UNL A   1      30.124  28.746  23.864  1.00  0.00     0.040 C 
BRANCH   6   7
ATOM      7  C   UNL A   1      29.259  29.794  23.133  1.00  0.00    -0.015 C 
ATOM      8  C   UNL A   1      29.241  31.162  23.825  1.00  0.00     0.007 C 
ATOM      9  C   UNL A   1      29.873  30.024  21.740  1.00  0.00     0.007 C 
ENDBRANCH   6   7
ENDBRANCH   5   6
BRANCH   5  10
ATOM     10  N   UNL A   1      32.269  27.547  23.170  1.00  0.00    -0.341 N 
ATOM     11  C   UNL A   1      31.621  26.478  22.615  1.00  0.00     0.240 C 
ATOM     12  H   UNL A   1      33.253  27.525  23.141  1.00  0.00     0.164 HD
ATOM     13  O   UNL A   1      31.778  26.281  21.405  1.00  0.00    -0.273 OA
BRANCH  11  14
ATOM     14  C   UNL A   1      30.651  25.597  23.412  1.00  0.00     0.216 C 
BRANCH  14  15
ATOM     15  N   UNL A   1      30.931  25.487  24.827  1.00  0.00    -0.345 N 
ATOM     16  C   UNL A   1      31.864  24.851  25.573  1.00  0.00     0.243 C 
ATOM     17  H   UNL A   1      30.291  25.993  25.378  1.00  0.00     0.164 HD
ATOM     18  O   UNL A   1      31.835  25.148  26.775  1.00  0.00    -0.273 OA
BRANCH  16  19
ATOM     19  C   UNL A   1      32.861  23.751  25.061  1.00  0.00     0.177 C 
BRANCH  19  20
ATOM     20  N   UNL A   1      33.285  22.723  26.022  1.00  0.00    -0.309 N 
ATOM     21  C   UNL A   1      34.490  22.226  26.376  1.00  0.00     0.408 C 
ATOM     22  H   UNL A   1      32.535  22.310  26.508  1.00  0.00     0.167 HD
ATOM     23  O   UNL A   1      34.539  21.192  27.034  1.00  0.00    -0.225 OA
BRANCH  21  24
ATOM     24  O   UNL A   1      35.538  22.946  25.938  1.00  0.00    -0.445 OA
BRANCH  24  25
ATOM     25  C   UNL A   1      36.708  22.180  25.610  1.00  0.00     0.270 C 
BRANCH  25  26
ATOM     26  C   UNL A   1      38.014  22.784  26.082  1.00  0.00    -0.011 A 
ATOM     27  C   UNL A   1      38.113  24.134  26.451  1.00  0.00     0.007 A 
ATOM     28  C   UNL A   1      39.158  21.980  26.169  1.00  0.00     0.007 A 
ATOM     29  C   UNL A   1      39.308  24.652  26.952  1.00  0.00     0.000 A 
ATOM     30  C   UNL A   1      40.361  22.504  26.647  1.00  0.00     0.000 A 
ATOM     31  C   UNL A   1      40.432  23.837  27.048  1.00  0.00     0.000 A 
ENDBRANCH  25  26
ENDBRANCH  24  25
ENDBRANCH  21  24
ENDBRANCH  19  20
BRANCH  19  32
ATOM     32  C   UNL A   1      32.538  23.236  23.638  1.00  0.00     0.015 C 
ATOM     33  C   UNL A   1      33.711  23.415  22.661  1.00  0.00     0.010 C 
ATOM     34  C   UNL A   1      32.204  21.737  23.643  1.00  0.00     0.010 C 
ENDBRANCH  19  32
ENDBRANCH  16  19
ENDBRANCH  14  15
ENDBRANCH  11  14
ENDBRANCH   5  10
ENDBRANCH   3   5
ENDBRANCH   2   3
ENDBRANCH   1   2
BRANCH   1  35
ATOM     35  C   UNL A   1      34.517  29.697  27.364  1.00  0.00     0.202 C 
BRANCH  35  36
ATOM     36  O   UNL A   1      35.906  29.848  27.617  1.00  0.00    -0.374 OA
BRANCH  36  37
ATOM     37  C   UNL A   1      36.356  30.808  28.572  1.00  0.00     0.202 C 
BRANCH  37  38
ATOM     38  C   UNL A   1      37.644  30.561  29.365  1.00  0.00     0.261 C 
BRANCH  38  39
ATOM     39  O   UNL A   1      37.627  31.115  30.694  1.00  0.00    -0.460 OA
BRANCH  39  40
ATOM     40  C   UNL A   1      37.397  30.198  31.667  1.00  0.00     0.338 C 
ATOM     41  O   UNL A   1      36.314  29.775  32.038  1.00  0.00    -0.246 OA
BRANCH  40  42
ATOM     42  C   UNL A   1      38.658  29.614  32.143  1.00  0.00     0.060 A 
ATOM     43  C   UNL A   1      39.763  30.462  32.289  1.00  0.00     0.016 A 
ATOM     44  C   UNL A   1      38.797  28.231  32.256  1.00  0.00     0.016 A 
ATOM     45  C   UNL A   1      41.027  29.921  32.508  1.00  0.00     0.010 A 
ATOM     46  C   UNL A   1      40.070  27.691  32.469  1.00  0.00     0.010 A 
ATOM     47  C   UNL A   1      41.194  28.532  32.560  1.00  0.00    -0.014 A 
BRANCH  47  48
ATOM     48  C   UNL A   1      42.564  27.965  32.577  1.00  0.00     0.031 A 
ATOM     49  C   UNL A   1      43.243  27.720  33.897  1.00  0.00     0.074 A 
ATOM     50  C   UNL A   1      43.173  27.636  31.424  1.00  0.00     0.049 A 
ATOM     51  N   UNL A   1      44.453  27.290  34.139  1.00  0.00    -0.248 NA
ATOM     52  C   UNL A   1      42.449  27.997  35.106  1.00  0.00     0.031 C 
ATOM     53  C   UNL A   1      42.581  27.771  30.093  1.00  0.00     0.029 A 
ATOM     54  N   UNL A   1      44.423  27.127  31.185  1.00  0.00    -0.354 N 
ATOM     55  C   UNL A   1      44.575  27.254  35.524  1.00  0.00     0.074 A 
ATOM     56  C   UNL A   1      43.321  27.732  36.068  1.00  0.00     0.031 C 
ATOM     57  C   UNL A   1      43.473  27.363  29.176  1.00  0.00     0.029 A 
ATOM     58  C   UNL A   1      44.715  26.991  29.848  1.00  0.00     0.049 A 
ATOM     59  H   UNL A   1      45.052  26.880  31.902  1.00  0.00     0.167 HD
ATOM     60  C   UNL A   1      45.635  26.855  36.269  1.00  0.00     0.034 A 
ATOM     61  C   UNL A   1      45.867  26.644  29.238  1.00  0.00     0.034 A 
ATOM     62  C   UNL A   1      46.877  26.385  35.704  1.00  0.00     0.049 A 
ATOM     63  C   UNL A   1      47.066  26.300  30.092  1.00  0.00     0.074 A 
ATOM     64  C   UNL A   1      48.009  25.940  36.364  1.00  0.00     0.029 A 
ATOM     65  N   UNL A   1      47.160  26.314  34.346  1.00  0.00    -0.354 N 
ATOM     66  N   UNL A   1      47.167  26.266  31.401  1.00  0.00    -0.248 NA
ATOM     67  C   UNL A   1      48.302  25.942  29.384  1.00  0.00     0.031 C 
ATOM     68  C   UNL A   1      49.001  25.683  35.413  1.00  0.00     0.029 A 
ATOM     69  C   UNL A   1      48.460  25.873  34.151  1.00  0.00     0.049 A 
ATOM     70  H   UNL A   1      46.528  26.542  33.626  1.00  0.00     0.167 HD
ATOM     71  C   UNL A   1      48.469  25.848  31.670  1.00  0.00     0.074 A 
ATOM     72  C   UNL A   1      49.105  25.625  30.388  1.00  0.00     0.031 C 
ATOM     73  C   UNL A   1      49.084  25.662  32.866  1.00  0.00     0.034 A 
BRANCH  60  74
ATOM     74  C   UNL A   1      45.524  26.964  37.771  1.00  0.00     0.023 A 
ATOM     75  C   UNL A   1      45.854  28.143  38.462  1.00  0.00     0.031 A 
ATOM     76  C   UNL A   1      45.068  25.866  38.524  1.00  0.00     0.131 A 
ATOM     77  C   UNL A   1      45.770  28.179  39.863  1.00  0.00     0.055 A 
ATOM     78  C   UNL A   1      44.915  25.933  39.910  1.00  0.00     0.041 A 
ATOM     79  F   UNL A   1      44.763  24.705  37.922  1.00  0.00    -0.206 F 
ATOM     80  C   UNL A   1      45.277  27.092  40.588  1.00  0.00     0.022 A 
BRANCH  77  81
ATOM     81  S   UNL A   1      46.423  29.628  40.736  1.00  0.00     0.124 S 
ATOM     82  O   UNL A   1      45.531  29.705  41.891  1.00  0.00    -0.237 OA
ATOM     83  O   UNL A   1      47.799  29.234  41.017  1.00  0.00    -0.237 OA
ATOM     84  O   UNL A   1      46.270  30.711  39.767  1.00  0.00    -0.744 OA
ENDBRANCH  77  81
ENDBRANCH  60  74
BRANCH  61  85
ATOM     85  C   UNL A   1      45.972  26.657  27.750  1.00  0.00     0.023 A 
ATOM     86  C   UNL A   1      45.838  25.477  27.001  1.00  0.00     0.031 A 
ATOM     87  C   UNL A   1      46.290  27.841  27.058  1.00  0.00     0.131 A 
ATOM     88  C   UNL A   1      46.081  25.494  25.619  1.00  0.00     0.055 A 
ATOM     89  C   UNL A   1      46.462  27.866  25.673  1.00  0.00     0.041 A 
ATOM     90  F   UNL A   1      46.437  28.998  27.723  1.00  0.00    -0.206 F 
ATOM     91  C   UNL A   1      46.375  26.683  24.948  1.00  0.00     0.022 A 
BRANCH  88  92
ATOM     92  S   UNL A   1      46.128  23.914  24.730  1.00  0.00     0.124 S 
ATOM     93  O   UNL A   1      44.778  23.843  24.182  1.00  0.00    -0.237 OA
ATOM     94  O   UNL A   1      47.201  24.141  23.768  1.00  0.00    -0.237 OA
ATOM     95  O   UNL A   1      46.429  22.942  25.780  1.00  0.00    -0.744 OA
ENDBRANCH  88  92
ENDBRANCH  61  85
BRANCH  73  96
ATOM     96  C   UNL A   1      50.502  25.144  32.839  1.00  0.00     0.023 A 
ATOM     97  C   UNL A   1      50.793  23.771  32.935  1.00  0.00     0.031 A 
ATOM     98  C   UNL A   1      51.581  26.040  32.727  1.00  0.00     0.131 A 
ATOM     99  C   UNL A   1      52.129  23.341  32.982  1.00  0.00     0.055 A 
ATOM    100  C   UNL A   1      52.905  25.600  32.702  1.00  0.00     0.041 A 
ATOM    101  F   UNL A   1      51.364  27.362  32.636  1.00  0.00    -0.206 F 
ATOM    102  C   UNL A   1      53.185  24.245  32.846  1.00  0.00     0.022 A 
BRANCH  99 103
ATOM    103  S   UNL A   1      52.469  21.595  33.334  1.00  0.00     0.124 S 
ATOM    104  O   UNL A   1      53.905  21.512  33.093  1.00  0.00    -0.237 OA
ATOM    105  O   UNL A   1      52.047  21.468  34.725  1.00  0.00    -0.237 OA
ATOM    106  O   UNL A   1      51.635  20.882  32.367  1.00  0.00    -0.744 OA
ENDBRANCH  99 103
ENDBRANCH  73  96
ENDBRANCH  47  48
ENDBRANCH  40  42
ENDBRANCH  39  40
ENDBRANCH  38  39
ENDBRANCH  37  38
ENDBRANCH  36  37
ENDBRANCH  35  36
ENDBRANCH   1  35
TORSDOF 28
ENDMDL
