MODEL 1
REMARK VINA RESULT:     -13.3      0.000      0.000
REMARK SMILES O=C(OCCOCCOC(=O)c1ccc(-c2c3nc(c(-c4cc(S(=O)(=O)[O-])ccc4F)c4ccc([nH]4)c(-c4cc(S(=O)(=O)[O-])ccc4F)c4nc(c(-c5cc(S(=O)(=O)[O-])ccc5F)c5ccc2[nH]5)C=C4)C=C3)cc1)C1=Cc2cc(Cl)cc(-c3ccccc3)c2O[C@@H]1C(F)(F)F
REMARK SMILES IDX 7 1 6 2 5 3 4 4 3 5 2 6 1 7 75 8 76 9 91 10 77 11 90 12
REMARK SMILES IDX 78 13 89 14 79 15 82 16 80 17 81 18 92 19 93 20 94 21 95 22
REMARK SMILES IDX 83 23 84 24 88 25 85 26 87 27 86 28 8 29 9 30 10 31 11 32
REMARK SMILES IDX 12 33 13 34 74 35 14 36 73 37 15 38 16 39 17 40 67 41 18 42
REMARK SMILES IDX 72 43 66 44 68 45 19 46 71 47 65 48 64 49 20 51 52 52 32 53
REMARK SMILES IDX 51 54 33 55 36 56 50 57 69 58 34 59 35 60 49 62 70 63 37 64
REMARK SMILES IDX 21 65 22 66 30 67 23 68 29 69 31 70 28 71 24 72 25 73 26 74
REMARK SMILES IDX 27 75 53 76 54 77 62 78 55 79 61 80 63 81 60 82 56 83 57 84
REMARK SMILES IDX 58 85 59 86 38 87 39 88 47 89 40 90 46 91 48 92 45 93 41 94
REMARK SMILES IDX 42 95 43 96 44 97
REMARK H PARENT 68 50 36 61
REMARK Flexibility Score: inf
ROOT
ATOM      1  C   UNL A   1      30.298  31.408  24.998  1.00  0.00     0.202 C 
ENDROOT
BRANCH   1   2
ATOM      2  O   UNL A   1      29.103  31.680  24.225  1.00  0.00    -0.374 OA
BRANCH   2   3
ATOM      3  C   UNL A   1      28.034  30.741  23.425  1.00  0.00     0.202 C 
BRANCH   3   4
ATOM      4  C   UNL A   1      28.042  28.596  23.057  1.00  0.00     0.261 C 
BRANCH   4   5
ATOM      5  O   UNL A   1      29.192  27.606  23.485  1.00  0.00    -0.460 OA
BRANCH   5   6
ATOM      6  C   UNL A   1      30.329  27.777  22.802  1.00  0.00     0.338 C 
ATOM      7  O   UNL A   1      30.571  27.705  21.626  1.00  0.00    -0.246 OA
BRANCH   6   8
ATOM      8  C   UNL A   1      31.167  27.760  23.970  1.00  0.00     0.087 C 
ATOM      9  C   UNL A   1      30.533  26.978  25.038  1.00  0.00     0.027 C 
ATOM     10  C   UNL A   1      32.835  27.300  23.099  1.00  0.00     0.316 C 
ATOM     11  C   UNL A   1      31.120  25.351  25.557  1.00  0.00     0.019 A 
ATOM     12  O   UNL A   1      33.479  25.545  23.655  1.00  0.00    -0.475 OA
ATOM     13  C   UNL A   1      30.241  24.654  26.341  1.00  0.00     0.032 A 
ATOM     14  C   UNL A   1      32.522  24.557  24.868  1.00  0.00     0.135 A 
ATOM     15  C   UNL A   1      30.508  23.293  26.447  1.00  0.00     0.042 A 
ATOM     16  C   UNL A   1      32.765  23.182  25.152  1.00  0.00     0.026 A 
ATOM     17  Cl  UNL A   1      29.384  22.339  27.358  1.00  0.00    -0.084 Cl
ATOM     18  C   UNL A   1      31.645  22.617  25.860  1.00  0.00     0.033 A 
BRANCH  10  19
ATOM     19  C   UNL A   1      33.451  28.780  23.153  1.00  0.00     0.430 C 
ATOM     20  F   UNL A   1      34.798  28.841  23.128  1.00  0.00    -0.167 F 
ATOM     21  F   UNL A   1      33.071  29.434  22.011  1.00  0.00    -0.167 F 
ATOM     22  F   UNL A   1      32.990  29.564  24.153  1.00  0.00    -0.167 F 
ENDBRANCH  10  19
BRANCH  16  23
ATOM     23  C   UNL A   1      34.021  22.215  24.853  1.00  0.00    -0.015 A 
ATOM     24  C   UNL A   1      35.460  23.319  24.838  1.00  0.00     0.009 A 
ATOM     25  C   UNL A   1      34.434  20.223  24.918  1.00  0.00     0.009 A 
ATOM     26  C   UNL A   1      37.079  22.624  24.916  1.00  0.00     0.001 A 
ATOM     27  C   UNL A   1      36.141  19.668  25.002  1.00  0.00     0.001 A 
ATOM     28  C   UNL A   1      37.398  20.879  25.002  1.00  0.00     0.000 A 
ENDBRANCH  16  23
ENDBRANCH   6   8
ENDBRANCH   5   6
ENDBRANCH   4   5
ENDBRANCH   3   4
ENDBRANCH   2   3
ENDBRANCH   1   2
BRANCH   1  29
ATOM     29  C   UNL A   1      30.823  32.538  25.879  1.00  0.00     0.261 C 
BRANCH  29  30
ATOM     30  O   UNL A   1      31.753  32.022  26.797  1.00  0.00    -0.460 OA
BRANCH  30  31
ATOM     31  C   UNL A   1      32.534  32.975  27.337  1.00  0.00     0.338 C 
ATOM     32  O   UNL A   1      32.318  34.158  27.505  1.00  0.00    -0.246 OA
BRANCH  31  33
ATOM     33  C   UNL A   1      33.703  32.259  27.778  1.00  0.00     0.060 A 
ATOM     34  C   UNL A   1      33.791  30.491  27.629  1.00  0.00     0.016 A 
ATOM     35  C   UNL A   1      35.050  33.128  28.621  1.00  0.00     0.016 A 
ATOM     36  C   UNL A   1      35.135  29.528  28.314  1.00  0.00     0.010 A 
ATOM     37  C   UNL A   1      36.551  31.992  29.353  1.00  0.00     0.010 A 
ATOM     38  C   UNL A   1      36.503  30.222  29.169  1.00  0.00    -0.014 A 
BRANCH  38  39
ATOM     39  C   UNL A   1      37.514  29.527  30.023  1.00  0.00     0.031 A 
ATOM     40  C   UNL A   1      37.784  30.004  31.439  1.00  0.00     0.074 A 
ATOM     41  C   UNL A   1      38.461  28.803  29.394  1.00  0.00     0.049 A 
ATOM     42  N   UNL A   1      38.804  29.754  32.226  1.00  0.00    -0.248 NA
ATOM     43  C   UNL A   1      36.811  30.935  32.027  1.00  0.00     0.031 C 
ATOM     44  C   UNL A   1      38.429  28.437  27.980  1.00  0.00     0.029 A 
ATOM     45  N   UNL A   1      39.677  28.328  29.830  1.00  0.00    -0.354 N 
ATOM     46  C   UNL A   1      38.604  30.510  33.383  1.00  0.00     0.074 A 
ATOM     47  C   UNL A   1      37.395  31.272  33.170  1.00  0.00     0.031 C 
ATOM     48  C   UNL A   1      39.584  27.840  27.649  1.00  0.00     0.029 A 
ATOM     49  C   UNL A   1      40.450  27.790  28.823  1.00  0.00     0.049 A 
ATOM     50  H   UNL A   1      39.967  28.369  30.769  1.00  0.00     0.167 HD
ATOM     51  C   UNL A   1      39.341  30.549  34.523  1.00  0.00     0.034 A 
ATOM     52  C   UNL A   1      41.717  27.327  28.829  1.00  0.00     0.034 A 
ATOM     53  C   UNL A   1      40.551  29.786  34.721  1.00  0.00     0.049 A 
ATOM     54  C   UNL A   1      42.501  27.333  30.119  1.00  0.00     0.074 A 
ATOM     55  C   UNL A   1      41.271  29.598  35.889  1.00  0.00     0.029 A 
ATOM     56  N   UNL A   1      41.242  29.124  33.718  1.00  0.00    -0.354 N 
ATOM     57  N   UNL A   1      42.173  27.844  31.282  1.00  0.00    -0.248 NA
ATOM     58  C   UNL A   1      43.814  26.670  30.106  1.00  0.00     0.031 C 
ATOM     59  C   UNL A   1      42.443  28.904  35.574  1.00  0.00     0.029 A 
ATOM     60  C   UNL A   1      42.407  28.574  34.230  1.00  0.00     0.049 A 
ATOM     61  H   UNL A   1      40.948  29.054  32.781  1.00  0.00     0.167 HD
ATOM     62  C   UNL A   1      43.217  27.519  32.146  1.00  0.00     0.074 A 
ATOM     63  C   UNL A   1      44.176  26.760  31.377  1.00  0.00     0.031 C 
ATOM     64  C   UNL A   1      43.364  27.818  33.461  1.00  0.00     0.034 A 
BRANCH  51  65
ATOM     65  C   UNL A   1      38.867  31.412  35.676  1.00  0.00     0.023 A 
ATOM     66  C   UNL A   1      38.160  30.862  36.758  1.00  0.00     0.031 A 
ATOM     67  C   UNL A   1      39.200  32.778  35.743  1.00  0.00     0.131 A 
ATOM     68  C   UNL A   1      37.774  31.674  37.836  1.00  0.00     0.055 A 
ATOM     69  C   UNL A   1      38.879  33.565  36.852  1.00  0.00     0.041 A 
ATOM     70  F   UNL A   1      39.865  33.370  34.737  1.00  0.00    -0.206 F 
ATOM     71  C   UNL A   1      38.154  33.016  37.905  1.00  0.00     0.022 A 
BRANCH  68  72
ATOM     72  S   UNL A   1      36.689  30.968  39.106  1.00  0.00     0.124 S 
ATOM     73  O   UNL A   1      35.649  31.989  39.205  1.00  0.00    -0.237 OA
ATOM     74  O   UNL A   1      36.284  29.702  38.508  1.00  0.00    -0.237 OA
ATOM     75  O   UNL A   1      37.557  30.857  40.277  1.00  0.00    -0.744 OA
ENDBRANCH  68  72
ENDBRANCH  51  65
BRANCH  52  76
ATOM     76  C   UNL A   1      42.332  26.780  27.585  1.00  0.00     0.023 A 
ATOM     77  C   UNL A   1      42.201  25.418  27.275  1.00  0.00     0.031 A 
ATOM     78  C   UNL A   1      43.112  27.577  26.729  1.00  0.00     0.131 A 
ATOM     79  C   UNL A   1      42.908  24.871  26.195  1.00  0.00     0.055 A 
ATOM     80  C   UNL A   1      43.757  27.041  25.610  1.00  0.00     0.041 A 
ATOM     81  F   UNL A   1      43.259  28.890  26.967  1.00  0.00    -0.206 F 
ATOM     82  C   UNL A   1      43.675  25.676  25.351  1.00  0.00     0.022 A 
BRANCH  79  83
ATOM     83  S   UNL A   1      42.921  23.069  26.004  1.00  0.00     0.124 S 
ATOM     84  O   UNL A   1      44.105  22.700  26.772  1.00  0.00    -0.237 OA
ATOM     85  O   UNL A   1      41.637  22.695  26.587  1.00  0.00    -0.237 OA
ATOM     86  O   UNL A   1      43.029  22.881  24.559  1.00  0.00    -0.744 OA
ENDBRANCH  79  83
ENDBRANCH  52  76
BRANCH  64  87
ATOM     87  C   UNL A   1      44.583  27.280  34.170  1.00  0.00     0.023 A 
ATOM     88  C   UNL A   1      44.640  25.959  34.647  1.00  0.00     0.031 A 
ATOM     89  C   UNL A   1      45.710  28.100  34.358  1.00  0.00     0.131 A 
ATOM     90  C   UNL A   1      45.781  25.512  35.331  1.00  0.00     0.055 A 
ATOM     91  C   UNL A   1      46.868  27.629  34.978  1.00  0.00     0.041 A 
ATOM     92  F   UNL A   1      45.709  29.373  33.930  1.00  0.00    -0.206 F 
ATOM     93  C   UNL A   1      46.903  26.331  35.478  1.00  0.00     0.022 A 
BRANCH  90  94
ATOM     94  S   UNL A   1      45.748  23.870  36.099  1.00  0.00     0.124 S 
ATOM     95  O   UNL A   1      46.655  23.117  35.240  1.00  0.00    -0.237 OA
ATOM     96  O   UNL A   1      46.229  24.145  37.449  1.00  0.00    -0.237 OA
ATOM     97  O   UNL A   1      44.342  23.479  36.011  1.00  0.00    -0.744 OA
ENDBRANCH  90  94
ENDBRANCH  64  87
ENDBRANCH  38  39
ENDBRANCH  31  33
ENDBRANCH  30  31
ENDBRANCH  29  30
ENDBRANCH   1  29
TORSDOF 19
ENDMDL
MODEL 2
REMARK VINA RESULT:     -13.3      1.668      7.346
REMARK SMILES O=C(OCCOCCOC(=O)c1ccc(-c2c3nc(c(-c4cc(S(=O)(=O)[O-])ccc4F)c4ccc([nH]4)c(-c4cc(S(=O)(=O)[O-])ccc4F)c4nc(c(-c5cc(S(=O)(=O)[O-])ccc5F)c5ccc2[nH]5)C=C4)C=C3)cc1)C1=Cc2cc(Cl)cc(-c3ccccc3)c2O[C@@H]1C(F)(F)F
REMARK SMILES IDX 7 1 6 2 5 3 4 4 3 5 2 6 1 7 75 8 76 9 91 10 77 11 90 12
REMARK SMILES IDX 78 13 89 14 79 15 82 16 80 17 81 18 92 19 93 20 94 21 95 22
REMARK SMILES IDX 83 23 84 24 88 25 85 26 87 27 86 28 8 29 9 30 10 31 11 32
REMARK SMILES IDX 12 33 13 34 74 35 14 36 73 37 15 38 16 39 17 40 67 41 18 42
REMARK SMILES IDX 72 43 66 44 68 45 19 46 71 47 65 48 64 49 20 51 52 52 32 53
REMARK SMILES IDX 51 54 33 55 36 56 50 57 69 58 34 59 35 60 49 62 70 63 37 64
REMARK SMILES IDX 21 65 22 66 30 67 23 68 29 69 31 70 28 71 24 72 25 73 26 74
REMARK SMILES IDX 27 75 53 76 54 77 62 78 55 79 61 80 63 81 60 82 56 83 57 84
REMARK SMILES IDX 58 85 59 86 38 87 39 88 47 89 40 90 46 91 48 92 45 93 41 94
REMARK SMILES IDX 42 95 43 96 44 97
REMARK H PARENT 68 50 36 61
REMARK Flexibility Score: inf
ROOT
ATOM      1  C   UNL A   1      30.572  31.551  25.301  1.00  0.00     0.202 C 
ENDROOT
BRANCH   1   2
ATOM      2  O   UNL A   1      29.526  31.906  24.364  1.00  0.00    -0.374 OA
BRANCH   2   3
ATOM      3  C   UNL A   1      28.443  31.046  23.497  1.00  0.00     0.202 C 
BRANCH   3   4
ATOM      4  C   UNL A   1      28.524  28.992  22.782  1.00  0.00     0.261 C 
BRANCH   4   5
ATOM      5  O   UNL A   1      29.425  27.852  23.394  1.00  0.00    -0.460 OA
BRANCH   5   6
ATOM      6  C   UNL A   1      30.528  27.599  22.682  1.00  0.00     0.338 C 
ATOM      7  O   UNL A   1      30.678  27.272  21.533  1.00  0.00    -0.246 OA
BRANCH   6   8
ATOM      8  C   UNL A   1      31.396  27.552  23.827  1.00  0.00     0.087 C 
ATOM      9  C   UNL A   1      30.743  26.835  24.929  1.00  0.00     0.027 C 
ATOM     10  C   UNL A   1      33.005  26.966  22.922  1.00  0.00     0.316 C 
ATOM     11  C   UNL A   1      31.238  25.184  25.468  1.00  0.00     0.019 A 
ATOM     12  O   UNL A   1      33.550  25.184  23.500  1.00  0.00    -0.475 OA
ATOM     13  C   UNL A   1      30.338  24.562  26.291  1.00  0.00     0.032 A 
ATOM     14  C   UNL A   1      32.566  24.286  24.761  1.00  0.00     0.135 A 
ATOM     15  C   UNL A   1      30.520  23.190  26.420  1.00  0.00     0.042 A 
ATOM     16  C   UNL A   1      32.728  22.905  25.069  1.00  0.00     0.026 A 
ATOM     17  Cl  UNL A   1      29.362  22.330  27.382  1.00  0.00    -0.084 Cl
ATOM     18  C   UNL A   1      31.594  22.429  25.819  1.00  0.00     0.033 A 
BRANCH  10  19
ATOM     19  C   UNL A   1      33.717  28.404  22.927  1.00  0.00     0.430 C 
ATOM     20  F   UNL A   1      34.765  28.526  22.088  1.00  0.00    -0.167 F 
ATOM     21  F   UNL A   1      32.812  29.320  22.458  1.00  0.00    -0.167 F 
ATOM     22  F   UNL A   1      34.066  28.874  24.145  1.00  0.00    -0.167 F 
ENDBRANCH  10  19
BRANCH  16  23
ATOM     23  C   UNL A   1      33.909  21.852  24.758  1.00  0.00    -0.015 A 
ATOM     24  C   UNL A   1      35.437  22.817  24.905  1.00  0.00     0.009 A 
ATOM     25  C   UNL A   1      34.142  19.832  24.685  1.00  0.00     0.009 A 
ATOM     26  C   UNL A   1      36.983  21.973  25.010  1.00  0.00     0.001 A 
ATOM     27  C   UNL A   1      35.787  19.117  24.812  1.00  0.00     0.001 A 
ATOM     28  C   UNL A   1      37.143  20.205  24.973  1.00  0.00     0.000 A 
ENDBRANCH  16  23
ENDBRANCH   6   8
ENDBRANCH   5   6
ENDBRANCH   4   5
ENDBRANCH   3   4
ENDBRANCH   2   3
ENDBRANCH   1   2
BRANCH   1  29
ATOM     29  C   UNL A   1      31.022  32.634  26.278  1.00  0.00     0.261 C 
BRANCH  29  30
ATOM     30  O   UNL A   1      32.217  32.237  26.900  1.00  0.00    -0.460 OA
BRANCH  30  31
ATOM     31  C   UNL A   1      32.779  33.223  27.623  1.00  0.00     0.338 C 
ATOM     32  O   UNL A   1      32.298  34.259  28.037  1.00  0.00    -0.246 OA
BRANCH  31  33
ATOM     33  C   UNL A   1      34.108  32.739  27.897  1.00  0.00     0.060 A 
ATOM     34  C   UNL A   1      34.384  31.031  28.300  1.00  0.00     0.016 A 
ATOM     35  C   UNL A   1      35.507  33.887  27.975  1.00  0.00     0.016 A 
ATOM     36  C   UNL A   1      35.978  30.405  28.819  1.00  0.00     0.010 A 
ATOM     37  C   UNL A   1      37.286  33.120  28.545  1.00  0.00     0.010 A 
ATOM     38  C   UNL A   1      37.423  31.394  28.957  1.00  0.00    -0.014 A 
BRANCH  38  39
ATOM     39  C   UNL A   1      38.710  31.067  29.643  1.00  0.00     0.031 A 
ATOM     40  C   UNL A   1      39.568  29.910  29.161  1.00  0.00     0.074 A 
ATOM     41  C   UNL A   1      38.861  31.497  30.911  1.00  0.00     0.049 A 
ATOM     42  N   UNL A   1      40.536  29.272  29.776  1.00  0.00    -0.248 NA
ATOM     43  C   UNL A   1      39.255  29.354  27.837  1.00  0.00     0.031 C 
ATOM     44  C   UNL A   1      37.987  32.463  31.573  1.00  0.00     0.029 A 
ATOM     45  N   UNL A   1      39.736  31.112  31.901  1.00  0.00    -0.354 N 
ATOM     46  C   UNL A   1      40.928  28.236  28.926  1.00  0.00     0.074 A 
ATOM     47  C   UNL A   1      40.052  28.294  27.778  1.00  0.00     0.031 C 
ATOM     48  C   UNL A   1      38.333  32.563  32.866  1.00  0.00     0.029 A 
ATOM     49  C   UNL A   1      39.447  31.657  33.134  1.00  0.00     0.049 A 
ATOM     50  H   UNL A   1      40.494  30.504  31.744  1.00  0.00     0.167 HD
ATOM     51  C   UNL A   1      41.934  27.336  29.075  1.00  0.00     0.034 A 
ATOM     52  C   UNL A   1      39.994  31.445  34.348  1.00  0.00     0.034 A 
ATOM     53  C   UNL A   1      42.798  27.285  30.230  1.00  0.00     0.049 A 
ATOM     54  C   UNL A   1      41.146  30.478  34.481  1.00  0.00     0.074 A 
ATOM     55  C   UNL A   1      43.960  26.553  30.407  1.00  0.00     0.029 A 
ATOM     56  N   UNL A   1      42.571  27.960  31.419  1.00  0.00    -0.354 N 
ATOM     57  N   UNL A   1      41.664  29.681  33.577  1.00  0.00    -0.248 NA
ATOM     58  C   UNL A   1      41.809  30.406  35.792  1.00  0.00     0.031 C 
ATOM     59  C   UNL A   1      44.381  26.711  31.731  1.00  0.00     0.029 A 
ATOM     60  C   UNL A   1      43.538  27.618  32.350  1.00  0.00     0.049 A 
ATOM     61  H   UNL A   1      41.831  28.590  31.579  1.00  0.00     0.167 HD
ATOM     62  C   UNL A   1      42.742  29.053  34.199  1.00  0.00     0.074 A 
ATOM     63  C   UNL A   1      42.808  29.571  35.546  1.00  0.00     0.031 C 
ATOM     64  C   UNL A   1      43.603  28.135  33.695  1.00  0.00     0.034 A 
BRANCH  51  65
ATOM     65  C   UNL A   1      42.201  26.342  27.962  1.00  0.00     0.023 A 
ATOM     66  C   UNL A   1      41.607  25.068  27.961  1.00  0.00     0.031 A 
ATOM     67  C   UNL A   1      42.980  26.698  26.845  1.00  0.00     0.131 A 
ATOM     68  C   UNL A   1      41.832  24.185  26.894  1.00  0.00     0.055 A 
ATOM     69  C   UNL A   1      43.140  25.843  25.751  1.00  0.00     0.041 A 
ATOM     70  F   UNL A   1      43.585  27.896  26.786  1.00  0.00    -0.206 F 
ATOM     71  C   UNL A   1      42.570  24.574  25.774  1.00  0.00     0.022 A 
BRANCH  68  72
ATOM     72  S   UNL A   1      41.216  22.485  27.034  1.00  0.00     0.124 S 
ATOM     73  O   UNL A   1      41.893  22.026  28.245  1.00  0.00    -0.237 OA
ATOM     74  O   UNL A   1      39.775  22.678  27.144  1.00  0.00    -0.237 OA
ATOM     75  O   UNL A   1      41.669  21.852  25.798  1.00  0.00    -0.744 OA
ENDBRANCH  68  72
ENDBRANCH  51  65
BRANCH  52  76
ATOM     76  C   UNL A   1      39.495  32.181  35.546  1.00  0.00     0.023 A 
ATOM     77  C   UNL A   1      40.007  33.451  35.856  1.00  0.00     0.031 A 
ATOM     78  C   UNL A   1      38.565  31.613  36.433  1.00  0.00     0.131 A 
ATOM     79  C   UNL A   1      39.659  34.073  37.062  1.00  0.00     0.055 A 
ATOM     80  C   UNL A   1      38.165  32.270  37.600  1.00  0.00     0.041 A 
ATOM     81  F   UNL A   1      38.031  30.407  36.180  1.00  0.00    -0.206 F 
ATOM     82  C   UNL A   1      38.730  33.499  37.931  1.00  0.00     0.022 A 
BRANCH  79  83
ATOM     83  S   UNL A   1      40.552  35.577  37.538  1.00  0.00     0.124 S 
ATOM     84  O   UNL A   1      41.906  35.269  37.092  1.00  0.00    -0.237 OA
ATOM     85  O   UNL A   1      39.845  36.602  36.777  1.00  0.00    -0.237 OA
ATOM     86  O   UNL A   1      40.368  35.637  38.986  1.00  0.00    -0.744 OA
ENDBRANCH  79  83
ENDBRANCH  52  76
BRANCH  64  87
ATOM     87  C   UNL A   1      44.727  27.665  34.587  1.00  0.00     0.023 A 
ATOM     88  C   UNL A   1      44.575  26.572  35.457  1.00  0.00     0.031 A 
ATOM     89  C   UNL A   1      45.974  28.316  34.554  1.00  0.00     0.131 A 
ATOM     90  C   UNL A   1      45.636  26.192  36.293  1.00  0.00     0.055 A 
ATOM     91  C   UNL A   1      47.047  27.890  35.337  1.00  0.00     0.041 A 
ATOM     92  F   UNL A   1      46.174  29.371  33.747  1.00  0.00    -0.206 F 
ATOM     93  C   UNL A   1      46.877  26.829  36.221  1.00  0.00     0.022 A 
BRANCH  90  94
ATOM     94  S   UNL A   1      45.346  24.904  37.536  1.00  0.00     0.124 S 
ATOM     95  O   UNL A   1      43.889  24.868  37.598  1.00  0.00    -0.237 OA
ATOM     96  O   UNL A   1      45.988  23.739  36.937  1.00  0.00    -0.237 OA
ATOM     97  O   UNL A   1      46.006  25.428  38.731  1.00  0.00    -0.744 OA
ENDBRANCH  90  94
ENDBRANCH  64  87
ENDBRANCH  38  39
ENDBRANCH  31  33
ENDBRANCH  30  31
ENDBRANCH  29  30
ENDBRANCH   1  29
TORSDOF 19
ENDMDL
MODEL 3
REMARK VINA RESULT:     -13.1      5.777     10.916
REMARK SMILES O=C(OCCOCCOC(=O)c1ccc(-c2c3nc(c(-c4cc(S(=O)(=O)[O-])ccc4F)c4ccc([nH]4)c(-c4cc(S(=O)(=O)[O-])ccc4F)c4nc(c(-c5cc(S(=O)(=O)[O-])ccc5F)c5ccc2[nH]5)C=C4)C=C3)cc1)C1=Cc2cc(Cl)cc(-c3ccccc3)c2O[C@@H]1C(F)(F)F
REMARK SMILES IDX 7 1 6 2 5 3 4 4 3 5 2 6 1 7 75 8 76 9 91 10 77 11 90 12
REMARK SMILES IDX 78 13 89 14 79 15 82 16 80 17 81 18 92 19 93 20 94 21 95 22
REMARK SMILES IDX 83 23 84 24 88 25 85 26 87 27 86 28 8 29 9 30 10 31 11 32
REMARK SMILES IDX 12 33 13 34 74 35 14 36 73 37 15 38 16 39 17 40 67 41 18 42
REMARK SMILES IDX 72 43 66 44 68 45 19 46 71 47 65 48 64 49 20 51 52 52 32 53
REMARK SMILES IDX 51 54 33 55 36 56 50 57 69 58 34 59 35 60 49 62 70 63 37 64
REMARK SMILES IDX 21 65 22 66 30 67 23 68 29 69 31 70 28 71 24 72 25 73 26 74
REMARK SMILES IDX 27 75 53 76 54 77 62 78 55 79 61 80 63 81 60 82 56 83 57 84
REMARK SMILES IDX 58 85 59 86 38 87 39 88 47 89 40 90 46 91 48 92 45 93 41 94
REMARK SMILES IDX 42 95 43 96 44 97
REMARK H PARENT 68 50 36 61
REMARK Flexibility Score: inf
ROOT
ATOM      1  C   UNL A   1      41.021  21.073  27.220  1.00  0.00     0.202 C 
ENDROOT
BRANCH   1   2
ATOM      2  O   UNL A   1      39.821  20.949  26.418  1.00  0.00    -0.374 OA
BRANCH   2   3
ATOM      3  C   UNL A   1      38.655  21.994  25.957  1.00  0.00     0.202 C 
BRANCH   3   4
ATOM      4  C   UNL A   1      37.285  21.919  24.268  1.00  0.00     0.261 C 
BRANCH   4   5
ATOM      5  O   UNL A   1      35.712  21.944  24.373  1.00  0.00    -0.460 OA
BRANCH   5   6
ATOM      6  C   UNL A   1      35.137  22.869  23.596  1.00  0.00     0.338 C 
ATOM      7  O   UNL A   1      35.564  23.514  22.675  1.00  0.00    -0.246 OA
BRANCH   6   8
ATOM      8  C   UNL A   1      33.983  23.025  24.439  1.00  0.00     0.087 C 
ATOM      9  C   UNL A   1      34.208  24.100  25.413  1.00  0.00     0.027 C 
ATOM     10  C   UNL A   1      32.635  23.052  23.049  1.00  0.00     0.316 C 
ATOM     11  C   UNL A   1      33.385  25.705  25.325  1.00  0.00     0.019 A 
ATOM     12  O   UNL A   1      31.737  24.781  22.947  1.00  0.00    -0.475 OA
ATOM     13  C   UNL A   1      33.935  26.670  26.125  1.00  0.00     0.032 A 
ATOM     14  C   UNL A   1      32.211  26.131  24.095  1.00  0.00     0.135 A 
ATOM     15  C   UNL A   1      33.560  27.971  25.810  1.00  0.00     0.042 A 
ATOM     16  C   UNL A   1      31.803  27.488  23.949  1.00  0.00     0.026 A 
ATOM     17  Cl  UNL A   1      34.287  29.245  26.732  1.00  0.00    -0.084 Cl
ATOM     18  C   UNL A   1      32.614  28.341  24.779  1.00  0.00     0.033 A 
BRANCH  10  19
ATOM     19  C   UNL A   1      32.130  21.549  23.295  1.00  0.00     0.430 C 
ATOM     20  F   UNL A   1      31.394  21.368  24.410  1.00  0.00    -0.167 F 
ATOM     21  F   UNL A   1      31.272  21.224  22.278  1.00  0.00    -0.167 F 
ATOM     22  F   UNL A   1      33.089  20.598  23.237  1.00  0.00    -0.167 F 
ENDBRANCH  10  19
BRANCH  16  23
ATOM     23  C   UNL A   1      30.638  28.186  23.078  1.00  0.00    -0.015 A 
ATOM     24  C   UNL A   1      29.095  27.506  23.745  1.00  0.00     0.009 A 
ATOM     25  C   UNL A   1      30.438  29.796  21.850  1.00  0.00     0.009 A 
ATOM     26  C   UNL A   1      27.564  28.278  23.331  1.00  0.00     0.001 A 
ATOM     27  C   UNL A   1      28.806  30.477  21.529  1.00  0.00     0.001 A 
ATOM     28  C   UNL A   1      27.433  29.702  22.279  1.00  0.00     0.000 A 
ENDBRANCH  16  23
ENDBRANCH   6   8
ENDBRANCH   5   6
ENDBRANCH   4   5
ENDBRANCH   3   4
ENDBRANCH   2   3
ENDBRANCH   1   2
BRANCH   1  29
ATOM     29  C   UNL A   1      42.336  20.654  26.568  1.00  0.00     0.261 C 
BRANCH  29  30
ATOM     30  O   UNL A   1      42.699  21.600  25.597  1.00  0.00    -0.460 OA
BRANCH  30  31
ATOM     31  C   UNL A   1      43.886  22.180  25.854  1.00  0.00     0.338 C 
ATOM     32  O   UNL A   1      45.012  21.740  25.733  1.00  0.00    -0.246 OA
BRANCH  31  33
ATOM     33  C   UNL A   1      43.542  23.525  26.237  1.00  0.00     0.060 A 
ATOM     34  C   UNL A   1      43.188  24.755  25.004  1.00  0.00     0.016 A 
ATOM     35  C   UNL A   1      43.597  24.029  27.976  1.00  0.00     0.016 A 
ATOM     36  C   UNL A   1      42.924  26.479  25.405  1.00  0.00     0.010 A 
ATOM     37  C   UNL A   1      43.270  25.982  28.370  1.00  0.00     0.010 A 
ATOM     38  C   UNL A   1      42.960  27.122  27.039  1.00  0.00    -0.014 A 
BRANCH  38  39
ATOM     39  C   UNL A   1      43.047  28.550  27.472  1.00  0.00     0.031 A 
ATOM     40  C   UNL A   1      44.399  29.209  27.686  1.00  0.00     0.074 A 
ATOM     41  C   UNL A   1      41.968  29.078  28.082  1.00  0.00     0.049 A 
ATOM     42  N   UNL A   1      44.701  30.307  28.339  1.00  0.00    -0.248 NA
ATOM     43  C   UNL A   1      45.575  28.509  27.152  1.00  0.00     0.031 C 
ATOM     44  C   UNL A   1      40.648  28.454  28.126  1.00  0.00     0.029 A 
ATOM     45  N   UNL A   1      41.828  30.202  28.864  1.00  0.00    -0.354 N 
ATOM     46  C   UNL A   1      46.092  30.414  28.308  1.00  0.00     0.074 A 
ATOM     47  C   UNL A   1      46.578  29.237  27.625  1.00  0.00     0.031 C 
ATOM     48  C   UNL A   1      39.844  29.170  28.928  1.00  0.00     0.029 A 
ATOM     49  C   UNL A   1      40.593  30.300  29.470  1.00  0.00     0.049 A 
ATOM     50  H   UNL A   1      42.541  30.870  28.981  1.00  0.00     0.167 HD
ATOM     51  C   UNL A   1      46.890  31.406  28.784  1.00  0.00     0.034 A 
ATOM     52  C   UNL A   1      40.117  31.180  30.374  1.00  0.00     0.034 A 
ATOM     53  C   UNL A   1      46.391  32.573  29.470  1.00  0.00     0.049 A 
ATOM     54  C   UNL A   1      41.004  32.306  30.850  1.00  0.00     0.074 A 
ATOM     55  C   UNL A   1      47.075  33.725  29.823  1.00  0.00     0.029 A 
ATOM     56  N   UNL A   1      45.097  32.720  29.947  1.00  0.00    -0.354 N 
ATOM     57  N   UNL A   1      42.273  32.520  30.597  1.00  0.00    -0.248 NA
ATOM     58  C   UNL A   1      40.384  33.328  31.707  1.00  0.00     0.031 C 
ATOM     59  C   UNL A   1      46.223  34.522  30.593  1.00  0.00     0.029 A 
ATOM     60  C   UNL A   1      44.980  33.915  30.638  1.00  0.00     0.049 A 
ATOM     61  H   UNL A   1      44.370  32.070  29.814  1.00  0.00     0.167 HD
ATOM     62  C   UNL A   1      42.586  33.725  31.223  1.00  0.00     0.074 A 
ATOM     63  C   UNL A   1      41.374  34.196  31.853  1.00  0.00     0.031 C 
ATOM     64  C   UNL A   1      43.770  34.384  31.267  1.00  0.00     0.034 A 
BRANCH  51  65
ATOM     65  C   UNL A   1      48.386  31.316  28.562  1.00  0.00     0.023 A 
ATOM     66  C   UNL A   1      49.005  31.959  27.477  1.00  0.00     0.031 A 
ATOM     67  C   UNL A   1      49.217  30.659  29.489  1.00  0.00     0.131 A 
ATOM     68  C   UNL A   1      50.399  31.901  27.321  1.00  0.00     0.055 A 
ATOM     69  C   UNL A   1      50.610  30.666  29.370  1.00  0.00     0.041 A 
ATOM     70  F   UNL A   1      48.691  30.013  30.543  1.00  0.00    -0.206 F 
ATOM     71  C   UNL A   1      51.209  31.283  28.277  1.00  0.00     0.022 A 
BRANCH  68  72
ATOM     72  S   UNL A   1      51.129  32.568  25.802  1.00  0.00     0.124 S 
ATOM     73  O   UNL A   1      50.058  33.436  25.318  1.00  0.00    -0.237 OA
ATOM     74  O   UNL A   1      52.323  33.244  26.295  1.00  0.00    -0.237 OA
ATOM     75  O   UNL A   1      51.374  31.380  24.987  1.00  0.00    -0.744 OA
ENDBRANCH  68  72
ENDBRANCH  51  65
BRANCH  52  76
ATOM     76  C   UNL A   1      38.716  31.071  30.876  1.00  0.00     0.023 A 
ATOM     77  C   UNL A   1      37.670  31.708  30.190  1.00  0.00     0.031 A 
ATOM     78  C   UNL A   1      38.405  30.400  32.071  1.00  0.00     0.131 A 
ATOM     79  C   UNL A   1      36.384  31.740  30.743  1.00  0.00     0.055 A 
ATOM     80  C   UNL A   1      37.105  30.373  32.583  1.00  0.00     0.041 A 
ATOM     81  F   UNL A   1      39.363  29.761  32.762  1.00  0.00    -0.206 F 
ATOM     82  C   UNL A   1      36.089  31.065  31.929  1.00  0.00     0.022 A 
BRANCH  79  83
ATOM     83  S   UNL A   1      35.140  32.800  29.959  1.00  0.00     0.124 S 
ATOM     84  O   UNL A   1      34.567  31.897  28.967  1.00  0.00    -0.237 OA
ATOM     85  O   UNL A   1      34.279  33.141  31.087  1.00  0.00    -0.237 OA
ATOM     86  O   UNL A   1      35.928  33.905  29.419  1.00  0.00    -0.744 OA
ENDBRANCH  79  83
ENDBRANCH  52  76
BRANCH  64  87
ATOM     87  C   UNL A   1      43.805  35.715  31.978  1.00  0.00     0.023 A 
ATOM     88  C   UNL A   1      43.790  36.932  31.274  1.00  0.00     0.031 A 
ATOM     89  C   UNL A   1      43.842  35.765  33.383  1.00  0.00     0.131 A 
ATOM     90  C   UNL A   1      43.858  38.146  31.975  1.00  0.00     0.055 A 
ATOM     91  C   UNL A   1      43.840  36.975  34.077  1.00  0.00     0.041 A 
ATOM     92  F   UNL A   1      43.866  34.634  34.107  1.00  0.00    -0.206 F 
ATOM     93  C   UNL A   1      43.860  38.175  33.372  1.00  0.00     0.022 A 
BRANCH  90  94
ATOM     94  S   UNL A   1      44.029  39.686  31.034  1.00  0.00     0.124 S 
ATOM     95  O   UNL A   1      44.232  39.189  29.677  1.00  0.00    -0.237 OA
ATOM     96  O   UNL A   1      42.756  40.351  31.286  1.00  0.00    -0.237 OA
ATOM     97  O   UNL A   1      45.194  40.329  31.639  1.00  0.00    -0.744 OA
ENDBRANCH  90  94
ENDBRANCH  64  87
ENDBRANCH  38  39
ENDBRANCH  31  33
ENDBRANCH  30  31
ENDBRANCH  29  30
ENDBRANCH   1  29
TORSDOF 19
ENDMDL
