MODEL 1
REMARK VINA RESULT:     -11.3      0.000      0.000
REMARK SMILES C[C@@H](C(=O)OCCOCCOC(=O)c1ccc(-c2c3nc(c(-c4cc(S(=O)(=O)[O-])ccc4F)c4ccc([nH]4)c(-c4cc(S(=O)(=O)[O-])ccc4F)c4nc(c(-c5cc(S(=O)(=O)[O-])ccc5F)c5ccc2[nH]5)C=C4)C=C3)cc1)c1ccc(C[C@H]2CCC[C@H]2O)cc1
REMARK SMILES IDX 7 1 6 2 5 3 3 4 4 5 2 6 1 7 77 8 78 9 89 10 79 11 88 12
REMARK SMILES IDX 80 13 81 14 82 15 83 16 86 17 84 18 85 19 87 20 8 22 9 23
REMARK SMILES IDX 10 24 11 25 12 26 13 27 14 28 15 29 76 30 16 31 75 32 17 33
REMARK SMILES IDX 18 34 19 35 69 36 20 37 74 38 68 39 70 40 21 41 73 42 67 43
REMARK SMILES IDX 66 44 22 46 54 47 34 48 53 49 35 50 38 51 52 52 71 53 36 54
REMARK SMILES IDX 37 55 51 57 72 58 39 59 23 60 24 61 32 62 25 63 31 64 33 65
REMARK SMILES IDX 30 66 26 67 27 68 28 69 29 70 55 71 56 72 64 73 57 74 63 75
REMARK SMILES IDX 65 76 62 77 58 78 59 79 60 80 61 81 40 82 41 83 49 84 42 85
REMARK SMILES IDX 48 86 50 87 47 88 43 89 44 90 45 91 46 92
REMARK H PARENT 87 21 70 45 38 56
REMARK Flexibility Score: inf
ROOT
ATOM      1  C   UNL A   1      31.067  28.449  22.777  1.00  0.00     0.202 C 
ENDROOT
BRANCH   1   2
ATOM      2  C   UNL A   1      30.709  26.978  23.016  1.00  0.00     0.261 C 
BRANCH   2   3
ATOM      3  O   UNL A   1      31.460  26.138  22.123  1.00  0.00    -0.463 OA
BRANCH   3   4
ATOM      4  C   UNL A   1      32.794  26.056  22.365  1.00  0.00     0.313 C 
ATOM      5  O   UNL A   1      33.666  26.324  21.545  1.00  0.00    -0.252 OA
BRANCH   4   6
ATOM      6  C   UNL A   1      33.098  25.712  23.828  1.00  0.00     0.126 C 
ATOM      7  C   UNL A   1      33.950  26.743  24.572  1.00  0.00     0.025 C 
BRANCH   6   8
ATOM      8  C   UNL A   1      33.672  24.306  23.990  1.00  0.00    -0.034 A 
ATOM      9  C   UNL A   1      33.088  23.188  23.376  1.00  0.00     0.005 A 
ATOM     10  C   UNL A   1      34.801  24.100  24.794  1.00  0.00     0.005 A 
ATOM     11  C   UNL A   1      33.568  21.903  23.615  1.00  0.00     0.004 A 
ATOM     12  C   UNL A   1      35.250  22.805  25.072  1.00  0.00     0.004 A 
ATOM     13  C   UNL A   1      34.587  21.691  24.541  1.00  0.00    -0.048 A 
BRANCH  13  14
ATOM     14  C   UNL A   1      34.881  20.297  25.036  1.00  0.00     0.041 C 
BRANCH  14  15
ATOM     15  C   UNL A   1      33.931  19.184  24.539  1.00  0.00     0.022 C 
ATOM     16  C   UNL A   1      34.578  17.816  24.253  1.00  0.00     0.007 C 
ATOM     17  C   UNL A   1      32.679  18.856  25.372  1.00  0.00     0.117 C 
ATOM     18  C   UNL A   1      33.511  16.761  24.550  1.00  0.00     0.003 C 
ATOM     19  C   UNL A   1      32.215  17.528  24.785  1.00  0.00     0.032 C 
BRANCH  17  20
ATOM     20  O   UNL A   1      32.903  18.679  26.757  1.00  0.00    -0.393 OA
ATOM     21  H   UNL A   1      33.856  18.629  26.927  1.00  0.00     0.210 HD
ENDBRANCH  17  20
ENDBRANCH  14  15
ENDBRANCH  13  14
ENDBRANCH   6   8
ENDBRANCH   4   6
ENDBRANCH   3   4
ENDBRANCH   2   3
ENDBRANCH   1   2
BRANCH   1  22
ATOM     22  O   UNL A   1      30.661  29.363  23.800  1.00  0.00    -0.374 OA
BRANCH  22  23
ATOM     23  C   UNL A   1      31.375  29.322  25.035  1.00  0.00     0.202 C 
BRANCH  23  24
ATOM     24  C   UNL A   1      31.572  30.644  25.780  1.00  0.00     0.261 C 
BRANCH  24  25
ATOM     25  O   UNL A   1      32.432  30.494  26.922  1.00  0.00    -0.460 OA
BRANCH  25  26
ATOM     26  C   UNL A   1      33.120  31.613  27.248  1.00  0.00     0.338 C 
ATOM     27  O   UNL A   1      32.678  32.753  27.319  1.00  0.00    -0.246 OA
BRANCH  26  28
ATOM     28  C   UNL A   1      34.474  31.258  27.711  1.00  0.00     0.060 A 
ATOM     29  C   UNL A   1      34.726  29.905  27.968  1.00  0.00     0.016 A 
ATOM     30  C   UNL A   1      35.455  32.224  27.952  1.00  0.00     0.016 A 
ATOM     31  C   UNL A   1      35.938  29.516  28.526  1.00  0.00     0.010 A 
ATOM     32  C   UNL A   1      36.671  31.831  28.521  1.00  0.00     0.010 A 
ATOM     33  C   UNL A   1      36.901  30.480  28.848  1.00  0.00    -0.014 A 
BRANCH  33  34
ATOM     34  C   UNL A   1      38.065  30.088  29.678  1.00  0.00     0.031 A 
ATOM     35  C   UNL A   1      39.058  29.109  29.113  1.00  0.00     0.074 A 
ATOM     36  C   UNL A   1      38.262  30.637  30.889  1.00  0.00     0.049 A 
ATOM     37  N   UNL A   1      40.138  28.612  29.658  1.00  0.00    -0.248 NA
ATOM     38  C   UNL A   1      38.795  28.628  27.747  1.00  0.00     0.031 C 
ATOM     39  C   UNL A   1      37.394  31.635  31.514  1.00  0.00     0.029 A 
ATOM     40  N   UNL A   1      39.256  30.432  31.812  1.00  0.00    -0.354 N 
ATOM     41  C   UNL A   1      40.683  27.757  28.705  1.00  0.00     0.074 A 
ATOM     42  C   UNL A   1      39.792  27.776  27.564  1.00  0.00     0.031 C 
ATOM     43  C   UNL A   1      37.893  31.950  32.722  1.00  0.00     0.029 A 
ATOM     44  C   UNL A   1      39.090  31.150  32.973  1.00  0.00     0.049 A 
ATOM     45  H   UNL A   1      40.017  29.826  31.658  1.00  0.00     0.167 HD
ATOM     46  C   UNL A   1      41.826  27.032  28.772  1.00  0.00     0.034 A 
ATOM     47  C   UNL A   1      39.809  31.142  34.114  1.00  0.00     0.034 A 
ATOM     48  C   UNL A   1      42.697  27.017  29.923  1.00  0.00     0.049 A 
ATOM     49  C   UNL A   1      41.029  30.257  34.200  1.00  0.00     0.074 A 
ATOM     50  C   UNL A   1      43.883  26.326  30.099  1.00  0.00     0.029 A 
ATOM     51  N   UNL A   1      42.468  27.716  31.102  1.00  0.00    -0.354 N 
ATOM     52  N   UNL A   1      41.536  29.455  33.292  1.00  0.00    -0.248 NA
ATOM     53  C   UNL A   1      41.777  30.283  35.464  1.00  0.00     0.031 C 
ATOM     54  C   UNL A   1      44.333  26.551  31.404  1.00  0.00     0.029 A 
ATOM     55  C   UNL A   1      43.472  27.446  32.020  1.00  0.00     0.049 A 
ATOM     56  H   UNL A   1      41.704  28.316  31.262  1.00  0.00     0.167 HD
ATOM     57  C   UNL A   1      42.681  28.906  33.865  1.00  0.00     0.074 A 
ATOM     58  C   UNL A   1      42.794  29.479  35.191  1.00  0.00     0.031 C 
ATOM     59  C   UNL A   1      43.563  28.015  33.344  1.00  0.00     0.034 A 
BRANCH  46  60
ATOM     60  C   UNL A   1      42.162  26.154  27.591  1.00  0.00     0.023 A 
ATOM     61  C   UNL A   1      41.721  24.821  27.507  1.00  0.00     0.031 A 
ATOM     62  C   UNL A   1      42.964  26.649  26.547  1.00  0.00     0.131 A 
ATOM     63  C   UNL A   1      42.139  24.012  26.439  1.00  0.00     0.055 A 
ATOM     64  C   UNL A   1      43.310  25.862  25.448  1.00  0.00     0.041 A 
ATOM     65  F   UNL A   1      43.435  27.906  26.584  1.00  0.00    -0.206 F 
ATOM     66  C   UNL A   1      42.909  24.530  25.396  1.00  0.00     0.022 A 
BRANCH  63  67
ATOM     67  S   UNL A   1      41.775  22.236  26.500  1.00  0.00     0.124 S 
ATOM     68  O   UNL A   1      42.280  21.877  27.823  1.00  0.00    -0.237 OA
ATOM     69  O   UNL A   1      40.327  22.205  26.338  1.00  0.00    -0.237 OA
ATOM     70  O   UNL A   1      42.541  21.691  25.381  1.00  0.00    -0.744 OA
ENDBRANCH  63  67
ENDBRANCH  46  60
BRANCH  47  71
ATOM     71  C   UNL A   1      39.377  31.960  35.283  1.00  0.00     0.023 A 
ATOM     72  C   UNL A   1      39.941  33.220  35.540  1.00  0.00     0.031 A 
ATOM     73  C   UNL A   1      38.431  31.463  36.198  1.00  0.00     0.131 A 
ATOM     74  C   UNL A   1      39.588  33.919  36.705  1.00  0.00     0.055 A 
ATOM     75  C   UNL A   1      38.044  32.186  37.326  1.00  0.00     0.041 A 
ATOM     76  F   UNL A   1      37.862  30.263  36.001  1.00  0.00    -0.206 F 
ATOM     77  C   UNL A   1      38.634  33.417  37.593  1.00  0.00     0.022 A 
BRANCH  74  78
ATOM     78  S   UNL A   1      40.462  35.461  37.091  1.00  0.00     0.124 S 
ATOM     79  O   UNL A   1      41.710  35.288  36.355  1.00  0.00    -0.237 OA
ATOM     80  O   UNL A   1      39.544  36.468  36.571  1.00  0.00    -0.237 OA
ATOM     81  O   UNL A   1      40.587  35.426  38.547  1.00  0.00    -0.744 OA
ENDBRANCH  74  78
ENDBRANCH  47  71
BRANCH  59  82
ATOM     82  C   UNL A   1      44.753  27.646  34.197  1.00  0.00     0.023 A 
ATOM     83  C   UNL A   1      44.726  26.543  35.068  1.00  0.00     0.031 A 
ATOM     84  C   UNL A   1      45.927  28.417  34.141  1.00  0.00     0.131 A 
ATOM     85  C   UNL A   1      45.833  26.275  35.889  1.00  0.00     0.055 A 
ATOM     86  C   UNL A   1      47.046  28.109  34.916  1.00  0.00     0.041 A 
ATOM     87  F   UNL A   1      46.008  29.482  33.329  1.00  0.00    -0.206 F 
ATOM     88  C   UNL A   1      46.999  27.040  35.806  1.00  0.00     0.022 A 
BRANCH  85  89
ATOM     89  S   UNL A   1      45.696  24.963  37.135  1.00  0.00     0.124 S 
ATOM     90  O   UNL A   1      46.252  23.814  36.428  1.00  0.00    -0.237 OA
ATOM     91  O   UNL A   1      46.502  25.488  38.232  1.00  0.00    -0.237 OA
ATOM     92  O   UNL A   1      44.260  24.892  37.401  1.00  0.00    -0.744 OA
ENDBRANCH  85  89
ENDBRANCH  59  82
ENDBRANCH  33  34
ENDBRANCH  26  28
ENDBRANCH  25  26
ENDBRANCH  24  25
ENDBRANCH  23  24
ENDBRANCH  22  23
ENDBRANCH   1  22
TORSDOF 21
ENDMDL
MODEL 2
REMARK VINA RESULT:     -11.2      5.018     10.736
REMARK SMILES C[C@@H](C(=O)OCCOCCOC(=O)c1ccc(-c2c3nc(c(-c4cc(S(=O)(=O)[O-])ccc4F)c4ccc([nH]4)c(-c4cc(S(=O)(=O)[O-])ccc4F)c4nc(c(-c5cc(S(=O)(=O)[O-])ccc5F)c5ccc2[nH]5)C=C4)C=C3)cc1)c1ccc(C[C@H]2CCC[C@H]2O)cc1
REMARK SMILES IDX 7 1 6 2 5 3 3 4 4 5 2 6 1 7 77 8 78 9 89 10 79 11 88 12
REMARK SMILES IDX 80 13 81 14 82 15 83 16 86 17 84 18 85 19 87 20 8 22 9 23
REMARK SMILES IDX 10 24 11 25 12 26 13 27 14 28 15 29 76 30 16 31 75 32 17 33
REMARK SMILES IDX 18 34 19 35 69 36 20 37 74 38 68 39 70 40 21 41 73 42 67 43
REMARK SMILES IDX 66 44 22 46 54 47 34 48 53 49 35 50 38 51 52 52 71 53 36 54
REMARK SMILES IDX 37 55 51 57 72 58 39 59 23 60 24 61 32 62 25 63 31 64 33 65
REMARK SMILES IDX 30 66 26 67 27 68 28 69 29 70 55 71 56 72 64 73 57 74 63 75
REMARK SMILES IDX 65 76 62 77 58 78 59 79 60 80 61 81 40 82 41 83 49 84 42 85
REMARK SMILES IDX 48 86 50 87 47 88 43 89 44 90 45 91 46 92
REMARK H PARENT 87 21 70 45 38 56
REMARK Flexibility Score: inf
ROOT
ATOM      1  C   UNL A   1      35.637  22.922  24.293  1.00  0.00     0.202 C 
ENDROOT
BRANCH   1   2
ATOM      2  C   UNL A   1      35.207  24.203  25.017  1.00  0.00     0.261 C 
BRANCH   2   3
ATOM      3  O   UNL A   1      34.214  24.895  24.240  1.00  0.00    -0.463 OA
BRANCH   3   4
ATOM      4  C   UNL A   1      32.927  24.513  24.445  1.00  0.00     0.313 C 
ATOM      5  O   UNL A   1      32.460  24.203  25.537  1.00  0.00    -0.252 OA
BRANCH   4   6
ATOM      6  C   UNL A   1      32.076  24.635  23.175  1.00  0.00     0.126 C 
ATOM      7  C   UNL A   1      32.863  24.598  21.863  1.00  0.00     0.025 C 
BRANCH   6   8
ATOM      8  C   UNL A   1      31.133  25.835  23.217  1.00  0.00    -0.034 A 
ATOM      9  C   UNL A   1      29.914  25.801  23.910  1.00  0.00     0.005 A 
ATOM     10  C   UNL A   1      31.464  27.008  22.526  1.00  0.00     0.005 A 
ATOM     11  C   UNL A   1      29.024  26.871  23.855  1.00  0.00     0.004 A 
ATOM     12  C   UNL A   1      30.547  28.060  22.430  1.00  0.00     0.004 A 
ATOM     13  C   UNL A   1      29.288  27.966  23.036  1.00  0.00    -0.048 A 
BRANCH  13  14
ATOM     14  C   UNL A   1      28.195  28.958  22.725  1.00  0.00     0.041 C 
BRANCH  14  15
ATOM     15  C   UNL A   1      28.654  30.393  22.381  1.00  0.00     0.022 C 
ATOM     16  C   UNL A   1      28.186  30.949  21.024  1.00  0.00     0.007 C 
ATOM     17  C   UNL A   1      28.364  31.522  23.386  1.00  0.00     0.117 C 
ATOM     18  C   UNL A   1      28.038  32.461  21.202  1.00  0.00     0.003 C 
ATOM     19  C   UNL A   1      28.628  32.782  22.571  1.00  0.00     0.032 C 
BRANCH  17  20
ATOM     20  O   UNL A   1      27.038  31.573  23.872  1.00  0.00    -0.393 OA
ATOM     21  H   UNL A   1      26.983  32.216  24.596  1.00  0.00     0.210 HD
ENDBRANCH  17  20
ENDBRANCH  14  15
ENDBRANCH  13  14
ENDBRANCH   6   8
ENDBRANCH   4   6
ENDBRANCH   3   4
ENDBRANCH   2   3
ENDBRANCH   1   2
BRANCH   1  22
ATOM     22  O   UNL A   1      34.958  21.725  24.686  1.00  0.00    -0.374 OA
BRANCH  22  23
ATOM     23  C   UNL A   1      35.754  20.557  24.885  1.00  0.00     0.202 C 
BRANCH  23  24
ATOM     24  C   UNL A   1      37.274  20.723  24.843  1.00  0.00     0.261 C 
BRANCH  24  25
ATOM     25  O   UNL A   1      37.768  21.449  25.981  1.00  0.00    -0.460 OA
BRANCH  25  26
ATOM     26  C   UNL A   1      39.101  21.329  26.180  1.00  0.00     0.338 C 
ATOM     27  O   UNL A   1      39.818  20.406  25.813  1.00  0.00    -0.246 OA
BRANCH  26  28
ATOM     28  C   UNL A   1      39.643  22.577  26.746  1.00  0.00     0.060 A 
ATOM     29  C   UNL A   1      39.136  23.780  26.241  1.00  0.00     0.016 A 
ATOM     30  C   UNL A   1      40.667  22.580  27.698  1.00  0.00     0.016 A 
ATOM     31  C   UNL A   1      39.691  24.991  26.638  1.00  0.00     0.010 A 
ATOM     32  C   UNL A   1      41.229  23.799  28.090  1.00  0.00     0.010 A 
ATOM     33  C   UNL A   1      40.770  25.007  27.530  1.00  0.00    -0.014 A 
BRANCH  33  34
ATOM     34  C   UNL A   1      41.518  26.271  27.735  1.00  0.00     0.031 A 
ATOM     35  C   UNL A   1      40.859  27.381  28.508  1.00  0.00     0.074 A 
ATOM     36  C   UNL A   1      42.779  26.404  27.291  1.00  0.00     0.049 A 
ATOM     37  N   UNL A   1      41.311  28.574  28.798  1.00  0.00    -0.248 NA
ATOM     38  C   UNL A   1      39.508  27.107  29.021  1.00  0.00     0.031 C 
ATOM     39  C   UNL A   1      43.534  25.374  26.578  1.00  0.00     0.029 A 
ATOM     40  N   UNL A   1      43.648  27.462  27.373  1.00  0.00    -0.354 N 
ATOM     41  C   UNL A   1      40.300  29.194  29.525  1.00  0.00     0.074 A 
ATOM     42  C   UNL A   1      39.198  28.259  29.597  1.00  0.00     0.031 C 
ATOM     43  C   UNL A   1      44.754  25.855  26.282  1.00  0.00     0.029 A 
ATOM     44  C   UNL A   1      44.852  27.238  26.748  1.00  0.00     0.049 A 
ATOM     45  H   UNL A   1      43.430  28.304  27.835  1.00  0.00     0.167 HD
ATOM     46  C   UNL A   1      40.297  30.427  30.090  1.00  0.00     0.034 A 
ATOM     47  C   UNL A   1      45.902  28.062  26.556  1.00  0.00     0.034 A 
ATOM     48  C   UNL A   1      41.401  31.351  29.998  1.00  0.00     0.049 A 
ATOM     49  C   UNL A   1      45.840  29.463  27.115  1.00  0.00     0.074 A 
ATOM     50  C   UNL A   1      41.511  32.621  30.537  1.00  0.00     0.029 A 
ATOM     51  N   UNL A   1      42.586  31.110  29.312  1.00  0.00    -0.354 N 
ATOM     52  N   UNL A   1      44.880  30.038  27.804  1.00  0.00    -0.248 NA
ATOM     53  C   UNL A   1      47.007  30.323  26.877  1.00  0.00     0.031 C 
ATOM     54  C   UNL A   1      42.726  33.173  30.118  1.00  0.00     0.029 A 
ATOM     55  C   UNL A   1      43.414  32.219  29.384  1.00  0.00     0.049 A 
ATOM     56  H   UNL A   1      42.804  30.272  28.843  1.00  0.00     0.167 HD
ATOM     57  C   UNL A   1      45.343  31.316  28.107  1.00  0.00     0.074 A 
ATOM     58  C   UNL A   1      46.671  31.421  27.539  1.00  0.00     0.031 C 
ATOM     59  C   UNL A   1      44.732  32.312  28.799  1.00  0.00     0.034 A 
BRANCH  46  60
ATOM     60  C   UNL A   1      39.039  30.861  30.801  1.00  0.00     0.023 A 
ATOM     61  C   UNL A   1      38.005  31.543  30.133  1.00  0.00     0.031 A 
ATOM     62  C   UNL A   1      38.884  30.618  32.178  1.00  0.00     0.131 A 
ATOM     63  C   UNL A   1      36.898  32.015  30.855  1.00  0.00     0.055 A 
ATOM     64  C   UNL A   1      37.743  31.021  32.873  1.00  0.00     0.041 A 
ATOM     65  F   UNL A   1      39.847  29.993  32.873  1.00  0.00    -0.206 F 
ATOM     66  C   UNL A   1      36.747  31.736  32.215  1.00  0.00     0.022 A 
BRANCH  63  67
ATOM     67  S   UNL A   1      35.722  33.115  30.020  1.00  0.00     0.124 S 
ATOM     68  O   UNL A   1      36.613  33.929  29.196  1.00  0.00    -0.237 OA
ATOM     69  O   UNL A   1      34.866  32.178  29.304  1.00  0.00    -0.237 OA
ATOM     70  O   UNL A   1      35.080  33.830  31.122  1.00  0.00    -0.744 OA
ENDBRANCH  63  67
ENDBRANCH  46  60
BRANCH  47  71
ATOM     71  C   UNL A   1      47.082  27.610  25.764  1.00  0.00     0.023 A 
ATOM     72  C   UNL A   1      47.212  27.928  24.403  1.00  0.00     0.031 A 
ATOM     73  C   UNL A   1      48.073  26.801  26.350  1.00  0.00     0.131 A 
ATOM     74  C   UNL A   1      48.282  27.402  23.662  1.00  0.00     0.055 A 
ATOM     75  C   UNL A   1      49.163  26.325  25.621  1.00  0.00     0.041 A 
ATOM     76  F   UNL A   1      47.996  26.466  27.648  1.00  0.00    -0.206 F 
ATOM     77  C   UNL A   1      49.265  26.614  24.264  1.00  0.00     0.022 A 
BRANCH  74  78
ATOM     78  S   UNL A   1      48.324  27.691  21.872  1.00  0.00     0.124 S 
ATOM     79  O   UNL A   1      47.015  28.291  21.637  1.00  0.00    -0.237 OA
ATOM     80  O   UNL A   1      49.472  28.581  21.735  1.00  0.00    -0.237 OA
ATOM     81  O   UNL A   1      48.505  26.352  21.314  1.00  0.00    -0.744 OA
ENDBRANCH  74  78
ENDBRANCH  47  71
BRANCH  59  82
ATOM     82  C   UNL A   1      45.519  33.583  29.016  1.00  0.00     0.023 A 
ATOM     83  C   UNL A   1      45.500  34.634  28.083  1.00  0.00     0.031 A 
ATOM     84  C   UNL A   1      46.304  33.737  30.172  1.00  0.00     0.131 A 
ATOM     85  C   UNL A   1      46.297  35.770  28.296  1.00  0.00     0.055 A 
ATOM     86  C   UNL A   1      47.047  34.895  30.407  1.00  0.00     0.041 A 
ATOM     87  F   UNL A   1      46.360  32.765  31.095  1.00  0.00    -0.206 F 
ATOM     88  C   UNL A   1      47.056  35.914  29.459  1.00  0.00     0.022 A 
BRANCH  85  89
ATOM     89  S   UNL A   1      46.398  37.021  26.986  1.00  0.00     0.124 S 
ATOM     90  O   UNL A   1      47.542  37.819  27.415  1.00  0.00    -0.237 OA
ATOM     91  O   UNL A   1      46.600  36.208  25.792  1.00  0.00    -0.237 OA
ATOM     92  O   UNL A   1      45.105  37.700  27.060  1.00  0.00    -0.744 OA
ENDBRANCH  85  89
ENDBRANCH  59  82
ENDBRANCH  33  34
ENDBRANCH  26  28
ENDBRANCH  25  26
ENDBRANCH  24  25
ENDBRANCH  23  24
ENDBRANCH  22  23
ENDBRANCH   1  22
TORSDOF 21
ENDMDL
MODEL 3
REMARK VINA RESULT:     -11.1      0.555      7.770
REMARK SMILES C[C@@H](C(=O)OCCOCCOC(=O)c1ccc(-c2c3nc(c(-c4cc(S(=O)(=O)[O-])ccc4F)c4ccc([nH]4)c(-c4cc(S(=O)(=O)[O-])ccc4F)c4nc(c(-c5cc(S(=O)(=O)[O-])ccc5F)c5ccc2[nH]5)C=C4)C=C3)cc1)c1ccc(C[C@H]2CCC[C@H]2O)cc1
REMARK SMILES IDX 7 1 6 2 5 3 3 4 4 5 2 6 1 7 77 8 78 9 89 10 79 11 88 12
REMARK SMILES IDX 80 13 81 14 82 15 83 16 86 17 84 18 85 19 87 20 8 22 9 23
REMARK SMILES IDX 10 24 11 25 12 26 13 27 14 28 15 29 76 30 16 31 75 32 17 33
REMARK SMILES IDX 18 34 19 35 69 36 20 37 74 38 68 39 70 40 21 41 73 42 67 43
REMARK SMILES IDX 66 44 22 46 54 47 34 48 53 49 35 50 38 51 52 52 71 53 36 54
REMARK SMILES IDX 37 55 51 57 72 58 39 59 23 60 24 61 32 62 25 63 31 64 33 65
REMARK SMILES IDX 30 66 26 67 27 68 28 69 29 70 55 71 56 72 64 73 57 74 63 75
REMARK SMILES IDX 65 76 62 77 58 78 59 79 60 80 61 81 40 82 41 83 49 84 42 85
REMARK SMILES IDX 48 86 50 87 47 88 43 89 44 90 45 91 46 92
REMARK H PARENT 87 21 70 45 38 56
REMARK Flexibility Score: inf
ROOT
ATOM      1  C   UNL A   1      31.407  28.636  22.920  1.00  0.00     0.202 C 
ENDROOT
BRANCH   1   2
ATOM      2  C   UNL A   1      30.857  27.213  23.063  1.00  0.00     0.261 C 
BRANCH   2   3
ATOM      3  O   UNL A   1      31.556  26.324  22.175  1.00  0.00    -0.463 OA
BRANCH   3   4
ATOM      4  C   UNL A   1      32.878  26.144  22.434  1.00  0.00     0.313 C 
ATOM      5  O   UNL A   1      33.777  26.347  21.626  1.00  0.00    -0.252 OA
BRANCH   4   6
ATOM      6  C   UNL A   1      33.137  25.777  23.900  1.00  0.00     0.126 C 
ATOM      7  C   UNL A   1      33.979  26.788  24.682  1.00  0.00     0.025 C 
BRANCH   6   8
ATOM      8  C   UNL A   1      33.690  24.362  24.059  1.00  0.00    -0.034 A 
ATOM      9  C   UNL A   1      33.031  23.241  23.534  1.00  0.00     0.005 A 
ATOM     10  C   UNL A   1      34.878  24.152  24.772  1.00  0.00     0.005 A 
ATOM     11  C   UNL A   1      33.499  21.952  23.773  1.00  0.00     0.004 A 
ATOM     12  C   UNL A   1      35.318  22.855  25.054  1.00  0.00     0.004 A 
ATOM     13  C   UNL A   1      34.588  21.743  24.616  1.00  0.00    -0.048 A 
BRANCH  13  14
ATOM     14  C   UNL A   1      34.890  20.357  25.130  1.00  0.00     0.041 C 
BRANCH  14  15
ATOM     15  C   UNL A   1      34.024  19.214  24.556  1.00  0.00     0.022 C 
ATOM     16  C   UNL A   1      34.751  17.886  24.274  1.00  0.00     0.007 C 
ATOM     17  C   UNL A   1      32.746  18.806  25.313  1.00  0.00     0.117 C 
ATOM     18  C   UNL A   1      33.722  16.774  24.488  1.00  0.00     0.003 C 
ATOM     19  C   UNL A   1      32.379  17.473  24.670  1.00  0.00     0.032 C 
BRANCH  17  20
ATOM     20  O   UNL A   1      32.905  18.604  26.703  1.00  0.00    -0.393 OA
ATOM     21  H   UNL A   1      32.922  19.461  27.155  1.00  0.00     0.210 HD
ENDBRANCH  17  20
ENDBRANCH  14  15
ENDBRANCH  13  14
ENDBRANCH   6   8
ENDBRANCH   4   6
ENDBRANCH   3   4
ENDBRANCH   2   3
ENDBRANCH   1   2
BRANCH   1  22
ATOM     22  O   UNL A   1      30.928  29.589  23.874  1.00  0.00    -0.374 OA
BRANCH  22  23
ATOM     23  C   UNL A   1      31.371  29.442  25.223  1.00  0.00     0.202 C 
BRANCH  23  24
ATOM     24  C   UNL A   1      31.696  30.719  26.001  1.00  0.00     0.261 C 
BRANCH  24  25
ATOM     25  O   UNL A   1      32.685  30.491  27.019  1.00  0.00    -0.460 OA
BRANCH  25  26
ATOM     26  C   UNL A   1      33.409  31.587  27.345  1.00  0.00     0.338 C 
ATOM     27  O   UNL A   1      32.988  32.729  27.484  1.00  0.00    -0.246 OA
BRANCH  26  28
ATOM     28  C   UNL A   1      34.782  31.198  27.710  1.00  0.00     0.060 A 
ATOM     29  C   UNL A   1      35.053  29.827  27.804  1.00  0.00     0.016 A 
ATOM     30  C   UNL A   1      35.767  32.141  28.018  1.00  0.00     0.016 A 
ATOM     31  C   UNL A   1      36.290  29.392  28.267  1.00  0.00     0.010 A 
ATOM     32  C   UNL A   1      37.007  31.701  28.491  1.00  0.00     0.010 A 
ATOM     33  C   UNL A   1      37.258  30.325  28.655  1.00  0.00    -0.014 A 
BRANCH  33  34
ATOM     34  C   UNL A   1      38.458  29.855  29.390  1.00  0.00     0.031 A 
ATOM     35  C   UNL A   1      38.722  30.404  30.766  1.00  0.00     0.074 A 
ATOM     36  C   UNL A   1      39.264  28.917  28.864  1.00  0.00     0.049 A 
ATOM     37  N   UNL A   1      39.710  30.153  31.586  1.00  0.00    -0.248 NA
ATOM     38  C   UNL A   1      37.737  31.366  31.285  1.00  0.00     0.031 C 
ATOM     39  C   UNL A   1      39.075  28.277  27.562  1.00  0.00     0.029 A 
ATOM     40  N   UNL A   1      40.405  28.340  29.360  1.00  0.00    -0.354 N 
ATOM     41  C   UNL A   1      39.468  30.926  32.717  1.00  0.00     0.074 A 
ATOM     42  C   UNL A   1      38.261  31.683  32.459  1.00  0.00     0.031 C 
ATOM     43  C   UNL A   1      40.071  27.398  27.360  1.00  0.00     0.029 A 
ATOM     44  C   UNL A   1      40.989  27.441  28.497  1.00  0.00     0.049 A 
ATOM     45  H   UNL A   1      40.772  28.549  30.249  1.00  0.00     0.167 HD
ATOM     46  C   UNL A   1      40.182  30.991  33.868  1.00  0.00     0.034 A 
ATOM     47  C   UNL A   1      42.143  26.753  28.606  1.00  0.00     0.034 A 
ATOM     48  C   UNL A   1      41.389  30.237  34.103  1.00  0.00     0.049 A 
ATOM     49  C   UNL A   1      42.970  26.909  29.860  1.00  0.00     0.074 A 
ATOM     50  C   UNL A   1      42.189  30.218  35.232  1.00  0.00     0.029 A 
ATOM     51  N   UNL A   1      41.980  29.376  33.186  1.00  0.00    -0.354 N 
ATOM     52  N   UNL A   1      42.730  27.641  30.924  1.00  0.00    -0.248 NA
ATOM     53  C   UNL A   1      44.220  26.140  29.929  1.00  0.00     0.031 C 
ATOM     54  C   UNL A   1      43.297  29.405  34.972  1.00  0.00     0.029 A 
ATOM     55  C   UNL A   1      43.151  28.850  33.710  1.00  0.00     0.049 A 
ATOM     56  H   UNL A   1      41.620  29.171  32.293  1.00  0.00     0.167 HD
ATOM     57  C   UNL A   1      43.784  27.395  31.800  1.00  0.00     0.074 A 
ATOM     58  C   UNL A   1      44.651  26.437  31.146  1.00  0.00     0.031 C 
ATOM     59  C   UNL A   1      44.013  27.905  33.038  1.00  0.00     0.034 A 
BRANCH  46  60
ATOM     60  C   UNL A   1      39.703  31.951  34.929  1.00  0.00     0.023 A 
ATOM     61  C   UNL A   1      40.195  33.266  35.017  1.00  0.00     0.031 A 
ATOM     62  C   UNL A   1      38.761  31.536  35.887  1.00  0.00     0.131 A 
ATOM     63  C   UNL A   1      39.795  34.093  36.078  1.00  0.00     0.055 A 
ATOM     64  C   UNL A   1      38.309  32.390  36.894  1.00  0.00     0.041 A 
ATOM     65  F   UNL A   1      38.274  30.285  35.869  1.00  0.00    -0.206 F 
ATOM     66  C   UNL A   1      38.836  33.673  37.002  1.00  0.00     0.022 A 
BRANCH  63  67
ATOM     67  S   UNL A   1      40.647  35.678  36.313  1.00  0.00     0.124 S 
ATOM     68  O   UNL A   1      41.855  35.484  35.515  1.00  0.00    -0.237 OA
ATOM     69  O   UNL A   1      39.681  36.636  35.790  1.00  0.00    -0.237 OA
ATOM     70  O   UNL A   1      40.866  35.737  37.757  1.00  0.00    -0.744 OA
ENDBRANCH  63  67
ENDBRANCH  46  60
BRANCH  47  71
ATOM     71  C   UNL A   1      42.615  25.888  27.486  1.00  0.00     0.023 A 
ATOM     72  C   UNL A   1      42.197  24.553  27.370  1.00  0.00     0.031 A 
ATOM     73  C   UNL A   1      43.541  26.374  26.545  1.00  0.00     0.131 A 
ATOM     74  C   UNL A   1      42.739  23.737  26.365  1.00  0.00     0.055 A 
ATOM     75  C   UNL A   1      44.036  25.572  25.515  1.00  0.00     0.041 A 
ATOM     76  F   UNL A   1      43.975  27.642  26.611  1.00  0.00    -0.206 F 
ATOM     77  C   UNL A   1      43.645  24.240  25.429  1.00  0.00     0.022 A 
BRANCH  74  78
ATOM     78  S   UNL A   1      42.308  21.974  26.350  1.00  0.00     0.124 S 
ATOM     79  O   UNL A   1      43.320  21.429  25.452  1.00  0.00    -0.237 OA
ATOM     80  O   UNL A   1      42.441  21.618  27.759  1.00  0.00    -0.237 OA
ATOM     81  O   UNL A   1      40.942  21.963  25.832  1.00  0.00    -0.744 OA
ENDBRANCH  74  78
ENDBRANCH  47  71
BRANCH  59  82
ATOM     82  C   UNL A   1      45.227  27.398  33.778  1.00  0.00     0.023 A 
ATOM     83  C   UNL A   1      45.166  26.273  34.619  1.00  0.00     0.031 A 
ATOM     84  C   UNL A   1      46.461  28.058  33.644  1.00  0.00     0.131 A 
ATOM     85  C   UNL A   1      46.306  25.875  35.336  1.00  0.00     0.055 A 
ATOM     86  C   UNL A   1      47.605  27.621  34.312  1.00  0.00     0.041 A 
ATOM     87  F   UNL A   1      46.577  29.138  32.855  1.00  0.00    -0.206 F 
ATOM     88  C   UNL A   1      47.529  26.531  35.175  1.00  0.00     0.022 A 
BRANCH  85  89
ATOM     89  S   UNL A   1      46.147  24.541  36.553  1.00  0.00     0.124 S 
ATOM     90  O   UNL A   1      47.536  24.143  36.752  1.00  0.00    -0.237 OA
ATOM     91  O   UNL A   1      45.510  25.217  37.679  1.00  0.00    -0.237 OA
ATOM     92  O   UNL A   1      45.311  23.553  35.873  1.00  0.00    -0.744 OA
ENDBRANCH  85  89
ENDBRANCH  59  82
ENDBRANCH  33  34
ENDBRANCH  26  28
ENDBRANCH  25  26
ENDBRANCH  24  25
ENDBRANCH  23  24
ENDBRANCH  22  23
ENDBRANCH   1  22
TORSDOF 21
ENDMDL
