MODEL 1
REMARK VINA RESULT:     -10.1      0.000      0.000
REMARK SMILES C[C@@H](CC(=O)OCCOCCOC(=O)c1ccc(-c2c3nc(c(-c4cc(S(=O)(=O)[O-])ccc4F)c4ccc([nH]4)c(-c4cc(S(=O)(=O)[O-])ccc4F)c4nc(c(-c5cc(S(=O)(=O)[O-])ccc5F)c5ccc2[nH]5)C=C4)C=C3)cc1)NC(=O)CN(C)c1ncccn1
REMARK SMILES IDX 8 1 7 2 6 3 4 4 5 5 3 6 2 7 1 8 78 9 79 10 80 12 81 13 82 14
REMARK SMILES IDX 83 15 84 16 85 17 89 18 86 19 88 20 87 21 9 22 10 23 11 24
REMARK SMILES IDX 12 25 13 26 14 27 15 28 16 29 77 30 17 31 76 32 18 33 19 34
REMARK SMILES IDX 20 35 70 36 21 37 75 38 69 39 71 40 22 41 74 42 68 43 67 44
REMARK SMILES IDX 23 46 55 47 35 48 54 49 36 50 39 51 53 52 72 53 37 54 38 55
REMARK SMILES IDX 52 57 73 58 40 59 24 60 25 61 33 62 26 63 32 64 34 65 31 66
REMARK SMILES IDX 27 67 28 68 29 69 30 70 56 71 57 72 65 73 58 74 64 75 66 76
REMARK SMILES IDX 63 77 59 78 60 79 61 80 62 81 41 82 42 83 50 84 43 85 49 86
REMARK SMILES IDX 51 87 48 88 44 89 45 90 46 91 47 92
REMARK H PARENT 78 11 71 45 39 56
REMARK Flexibility Score: inf
ROOT
ATOM      1  C   UNL A   1      34.249  19.885  24.969  1.00  0.00     0.202 C 
ENDROOT
BRANCH   1   2
ATOM      2  C   UNL A   1      32.863  20.422  25.330  1.00  0.00     0.261 C 
BRANCH   2   3
ATOM      3  O   UNL A   1      31.969  20.451  24.200  1.00  0.00    -0.463 OA
BRANCH   3   4
ATOM      4  C   UNL A   1      32.134  21.488  23.343  1.00  0.00     0.307 C 
ATOM      5  O   UNL A   1      32.132  21.391  22.119  1.00  0.00    -0.252 OA
BRANCH   4   6
ATOM      6  C   UNL A   1      32.362  22.825  24.006  1.00  0.00     0.147 C 
BRANCH   6   7
ATOM      7  C   UNL A   1      31.796  24.122  23.419  1.00  0.00     0.090 C 
ATOM      8  C   UNL A   1      30.276  24.227  23.405  1.00  0.00     0.031 C 
BRANCH   7   9
ATOM      9  N   UNL A   1      32.342  24.425  22.105  1.00  0.00    -0.352 N 
ATOM     10  C   UNL A   1      32.546  25.638  21.507  1.00  0.00     0.239 C 
ATOM     11  H   UNL A   1      32.604  23.641  21.569  1.00  0.00     0.163 HD
ATOM     12  O   UNL A   1      33.278  25.672  20.511  1.00  0.00    -0.273 OA
BRANCH  10  13
ATOM     13  C   UNL A   1      31.970  26.921  22.128  1.00  0.00     0.219 C 
BRANCH  13  14
ATOM     14  N   UNL A   1      32.882  27.628  23.028  1.00  0.00    -0.335 N 
ATOM     15  C   UNL A   1      34.025  28.346  22.509  1.00  0.00     0.147 C 
BRANCH  14  16
ATOM     16  C   UNL A   1      32.501  27.874  24.330  1.00  0.00     0.225 A 
ATOM     17  N   UNL A   1      32.225  29.138  24.698  1.00  0.00    -0.221 NA
ATOM     18  N   UNL A   1      32.434  26.850  25.191  1.00  0.00    -0.221 NA
ATOM     19  C   UNL A   1      31.884  29.358  25.981  1.00  0.00     0.117 A 
ATOM     20  C   UNL A   1      32.119  27.116  26.472  1.00  0.00     0.117 A 
ATOM     21  C   UNL A   1      31.824  28.371  26.930  1.00  0.00     0.040 A 
ENDBRANCH  14  16
ENDBRANCH  13  14
ENDBRANCH  10  13
ENDBRANCH   7   9
ENDBRANCH   6   7
ENDBRANCH   4   6
ENDBRANCH   3   4
ENDBRANCH   2   3
ENDBRANCH   1   2
BRANCH   1  22
ATOM     22  O   UNL A   1      35.224  20.870  24.629  1.00  0.00    -0.374 OA
BRANCH  22  23
ATOM     23  C   UNL A   1      36.236  21.150  25.601  1.00  0.00     0.202 C 
BRANCH  23  24
ATOM     24  C   UNL A   1      37.591  20.475  25.350  1.00  0.00     0.261 C 
BRANCH  24  25
ATOM     25  O   UNL A   1      38.656  21.446  25.259  1.00  0.00    -0.460 OA
BRANCH  25  26
ATOM     26  C   UNL A   1      39.592  21.326  26.231  1.00  0.00     0.338 C 
ATOM     27  O   UNL A   1      40.224  20.315  26.523  1.00  0.00    -0.246 OA
BRANCH  26  28
ATOM     28  C   UNL A   1      39.908  22.642  26.809  1.00  0.00     0.060 A 
ATOM     29  C   UNL A   1      39.378  23.779  26.186  1.00  0.00     0.016 A 
ATOM     30  C   UNL A   1      40.812  22.773  27.865  1.00  0.00     0.016 A 
ATOM     31  C   UNL A   1      39.771  25.053  26.602  1.00  0.00     0.010 A 
ATOM     32  C   UNL A   1      41.209  24.054  28.276  1.00  0.00     0.010 A 
ATOM     33  C   UNL A   1      40.710  25.201  27.632  1.00  0.00    -0.014 A 
BRANCH  33  34
ATOM     34  C   UNL A   1      41.235  26.554  27.963  1.00  0.00     0.031 A 
ATOM     35  C   UNL A   1      42.654  26.913  27.607  1.00  0.00     0.074 A 
ATOM     36  C   UNL A   1      40.442  27.470  28.549  1.00  0.00     0.049 A 
ATOM     37  N   UNL A   1      43.308  28.025  27.825  1.00  0.00    -0.248 NA
ATOM     38  C   UNL A   1      43.434  25.881  26.909  1.00  0.00     0.031 C 
ATOM     39  C   UNL A   1      39.038  27.265  28.902  1.00  0.00     0.029 A 
ATOM     40  N   UNL A   1      40.706  28.756  28.955  1.00  0.00    -0.354 N 
ATOM     41  C   UNL A   1      44.576  27.834  27.286  1.00  0.00     0.074 A 
ATOM     42  C   UNL A   1      44.606  26.483  26.763  1.00  0.00     0.031 C 
ATOM     43  C   UNL A   1      38.566  28.382  29.479  1.00  0.00     0.029 A 
ATOM     44  C   UNL A   1      39.642  29.368  29.575  1.00  0.00     0.049 A 
ATOM     45  H   UNL A   1      41.574  29.197  28.814  1.00  0.00     0.167 HD
ATOM     46  C   UNL A   1      45.614  28.705  27.224  1.00  0.00     0.034 A 
ATOM     47  C   UNL A   1      39.552  30.571  30.177  1.00  0.00     0.034 A 
ATOM     48  C   UNL A   1      45.583  30.044  27.764  1.00  0.00     0.049 A 
ATOM     49  C   UNL A   1      40.757  31.479  30.199  1.00  0.00     0.074 A 
ATOM     50  C   UNL A   1      46.572  31.014  27.724  1.00  0.00     0.029 A 
ATOM     51  N   UNL A   1      44.516  30.599  28.457  1.00  0.00    -0.354 N 
ATOM     52  N   UNL A   1      41.945  31.289  29.674  1.00  0.00    -0.248 NA
ATOM     53  C   UNL A   1      40.607  32.764  30.897  1.00  0.00     0.031 C 
ATOM     54  C   UNL A   1      46.132  32.123  28.458  1.00  0.00     0.029 A 
ATOM     55  C   UNL A   1      44.840  31.877  28.893  1.00  0.00     0.049 A 
ATOM     56  H   UNL A   1      43.654  30.152  28.618  1.00  0.00     0.167 HD
ATOM     57  C   UNL A   1      42.676  32.439  29.963  1.00  0.00     0.074 A 
ATOM     58  C   UNL A   1      41.791  33.323  30.692  1.00  0.00     0.031 C 
ATOM     59  C   UNL A   1      43.962  32.740  29.648  1.00  0.00     0.034 A 
BRANCH  46  60
ATOM     60  C   UNL A   1      46.896  28.214  26.593  1.00  0.00     0.023 A 
ATOM     61  C   UNL A   1      47.091  28.236  25.201  1.00  0.00     0.031 A 
ATOM     62  C   UNL A   1      47.930  27.704  27.397  1.00  0.00     0.131 A 
ATOM     63  C   UNL A   1      48.267  27.703  24.652  1.00  0.00     0.055 A 
ATOM     64  C   UNL A   1      49.127  27.239  26.849  1.00  0.00     0.041 A 
ATOM     65  F   UNL A   1      47.791  27.640  28.730  1.00  0.00    -0.206 F 
ATOM     66  C   UNL A   1      49.296  27.225  25.468  1.00  0.00     0.022 A 
BRANCH  63  67
ATOM     67  S   UNL A   1      48.384  27.525  22.851  1.00  0.00     0.124 S 
ATOM     68  O   UNL A   1      48.406  26.073  22.697  1.00  0.00    -0.237 OA
ATOM     69  O   UNL A   1      47.175  28.199  22.390  1.00  0.00    -0.237 OA
ATOM     70  O   UNL A   1      49.638  28.198  22.520  1.00  0.00    -0.744 OA
ENDBRANCH  63  67
ENDBRANCH  46  60
BRANCH  47  71
ATOM     71  C   UNL A   1      38.293  30.974  30.869  1.00  0.00     0.023 A 
ATOM     72  C   UNL A   1      37.278  31.668  30.192  1.00  0.00     0.031 A 
ATOM     73  C   UNL A   1      38.119  30.719  32.241  1.00  0.00     0.131 A 
ATOM     74  C   UNL A   1      36.151  32.118  30.898  1.00  0.00     0.055 A 
ATOM     75  C   UNL A   1      36.975  31.125  32.927  1.00  0.00     0.041 A 
ATOM     76  F   UNL A   1      39.062  30.063  32.935  1.00  0.00    -0.206 F 
ATOM     77  C   UNL A   1      35.987  31.839  32.257  1.00  0.00     0.022 A 
BRANCH  74  78
ATOM     78  S   UNL A   1      34.933  33.141  30.029  1.00  0.00     0.124 S 
ATOM     79  O   UNL A   1      35.773  34.193  29.467  1.00  0.00    -0.237 OA
ATOM     80  O   UNL A   1      34.366  32.194  29.075  1.00  0.00    -0.237 OA
ATOM     81  O   UNL A   1      34.025  33.568  31.093  1.00  0.00    -0.744 OA
ENDBRANCH  74  78
ENDBRANCH  47  71
BRANCH  59  82
ATOM     82  C   UNL A   1      44.476  34.093  30.080  1.00  0.00     0.023 A 
ATOM     83  C   UNL A   1      44.294  35.238  29.284  1.00  0.00     0.031 A 
ATOM     84  C   UNL A   1      45.171  34.235  31.293  1.00  0.00     0.131 A 
ATOM     85  C   UNL A   1      44.846  36.464  29.687  1.00  0.00     0.055 A 
ATOM     86  C   UNL A   1      45.670  35.469  31.715  1.00  0.00     0.041 A 
ATOM     87  F   UNL A   1      45.376  33.175  32.092  1.00  0.00    -0.206 F 
ATOM     88  C   UNL A   1      45.520  36.590  30.904  1.00  0.00     0.022 A 
BRANCH  85  89
ATOM     89  S   UNL A   1      44.743  37.880  28.556  1.00  0.00     0.124 S 
ATOM     90  O   UNL A   1      44.733  39.008  29.482  1.00  0.00    -0.237 OA
ATOM     91  O   UNL A   1      45.949  37.727  27.750  1.00  0.00    -0.237 OA
ATOM     92  O   UNL A   1      43.488  37.656  27.839  1.00  0.00    -0.744 OA
ENDBRANCH  85  89
ENDBRANCH  59  82
ENDBRANCH  33  34
ENDBRANCH  26  28
ENDBRANCH  25  26
ENDBRANCH  24  25
ENDBRANCH  23  24
ENDBRANCH  22  23
ENDBRANCH   1  22
TORSDOF 22
ENDMDL
MODEL 2
REMARK VINA RESULT:     -10.0      1.681      2.094
REMARK SMILES C[C@@H](CC(=O)OCCOCCOC(=O)c1ccc(-c2c3nc(c(-c4cc(S(=O)(=O)[O-])ccc4F)c4ccc([nH]4)c(-c4cc(S(=O)(=O)[O-])ccc4F)c4nc(c(-c5cc(S(=O)(=O)[O-])ccc5F)c5ccc2[nH]5)C=C4)C=C3)cc1)NC(=O)CN(C)c1ncccn1
REMARK SMILES IDX 8 1 7 2 6 3 4 4 5 5 3 6 2 7 1 8 78 9 79 10 80 12 81 13 82 14
REMARK SMILES IDX 83 15 84 16 85 17 89 18 86 19 88 20 87 21 9 22 10 23 11 24
REMARK SMILES IDX 12 25 13 26 14 27 15 28 16 29 77 30 17 31 76 32 18 33 19 34
REMARK SMILES IDX 20 35 70 36 21 37 75 38 69 39 71 40 22 41 74 42 68 43 67 44
REMARK SMILES IDX 23 46 55 47 35 48 54 49 36 50 39 51 53 52 72 53 37 54 38 55
REMARK SMILES IDX 52 57 73 58 40 59 24 60 25 61 33 62 26 63 32 64 34 65 31 66
REMARK SMILES IDX 27 67 28 68 29 69 30 70 56 71 57 72 65 73 58 74 64 75 66 76
REMARK SMILES IDX 63 77 59 78 60 79 61 80 62 81 41 82 42 83 50 84 43 85 49 86
REMARK SMILES IDX 51 87 48 88 44 89 45 90 46 91 47 92
REMARK H PARENT 78 11 71 45 39 56
REMARK Flexibility Score: inf
ROOT
ATOM      1  C   UNL A   1      36.770  21.877  24.254  1.00  0.00     0.202 C 
ENDROOT
BRANCH   1   2
ATOM      2  C   UNL A   1      35.376  21.971  24.876  1.00  0.00     0.261 C 
BRANCH   2   3
ATOM      3  O   UNL A   1      34.487  22.815  24.119  1.00  0.00    -0.463 OA
BRANCH   3   4
ATOM      4  C   UNL A   1      33.288  22.271  23.797  1.00  0.00     0.307 C 
ATOM      5  O   UNL A   1      32.811  21.268  24.320  1.00  0.00    -0.252 OA
BRANCH   4   6
ATOM      6  C   UNL A   1      32.551  22.981  22.686  1.00  0.00     0.147 C 
BRANCH   6   7
ATOM      7  C   UNL A   1      32.247  24.481  22.752  1.00  0.00     0.090 C 
ATOM      8  C   UNL A   1      33.165  25.373  21.927  1.00  0.00     0.031 C 
BRANCH   7   9
ATOM      9  N   UNL A   1      32.147  24.971  24.118  1.00  0.00    -0.352 N 
ATOM     10  C   UNL A   1      31.275  25.877  24.656  1.00  0.00     0.239 C 
ATOM     11  H   UNL A   1      32.804  24.594  24.747  1.00  0.00     0.163 HD
ATOM     12  O   UNL A   1      31.189  25.932  25.887  1.00  0.00    -0.273 OA
BRANCH  10  13
ATOM     13  C   UNL A   1      30.358  26.712  23.746  1.00  0.00     0.219 C 
BRANCH  13  14
ATOM     14  N   UNL A   1      30.687  28.137  23.689  1.00  0.00    -0.335 N 
ATOM     15  C   UNL A   1      32.052  28.575  23.509  1.00  0.00     0.147 C 
BRANCH  14  16
ATOM     16  C   UNL A   1      29.681  29.061  23.501  1.00  0.00     0.225 A 
ATOM     17  N   UNL A   1      28.516  28.654  22.965  1.00  0.00    -0.221 NA
ATOM     18  N   UNL A   1      29.901  30.339  23.842  1.00  0.00    -0.221 NA
ATOM     19  C   UNL A   1      27.560  29.580  22.764  1.00  0.00     0.117 A 
ATOM     20  C   UNL A   1      28.931  31.239  23.596  1.00  0.00     0.117 A 
ATOM     21  C   UNL A   1      27.718  30.909  23.055  1.00  0.00     0.040 A 
ENDBRANCH  14  16
ENDBRANCH  13  14
ENDBRANCH  10  13
ENDBRANCH   7   9
ENDBRANCH   6   7
ENDBRANCH   4   6
ENDBRANCH   3   4
ENDBRANCH   2   3
ENDBRANCH   1   2
BRANCH   1  22
ATOM     22  O   UNL A   1      37.775  21.282  25.074  1.00  0.00    -0.374 OA
BRANCH  22  23
ATOM     23  C   UNL A   1      37.953  19.867  24.966  1.00  0.00     0.202 C 
BRANCH  23  24
ATOM     24  C   UNL A   1      39.282  19.329  25.513  1.00  0.00     0.261 C 
BRANCH  24  25
ATOM     25  O   UNL A   1      39.628  19.954  26.767  1.00  0.00    -0.460 OA
BRANCH  25  26
ATOM     26  C   UNL A   1      40.938  20.279  26.874  1.00  0.00     0.338 C 
ATOM     27  O   UNL A   1      41.897  19.585  26.552  1.00  0.00    -0.246 OA
BRANCH  26  28
ATOM     28  C   UNL A   1      41.089  21.689  27.273  1.00  0.00     0.060 A 
ATOM     29  C   UNL A   1      40.545  22.671  26.436  1.00  0.00     0.016 A 
ATOM     30  C   UNL A   1      41.860  22.051  28.379  1.00  0.00     0.016 A 
ATOM     31  C   UNL A   1      40.793  24.022  26.690  1.00  0.00     0.010 A 
ATOM     32  C   UNL A   1      42.112  23.408  28.627  1.00  0.00     0.010 A 
ATOM     33  C   UNL A   1      41.601  24.401  27.771  1.00  0.00    -0.014 A 
BRANCH  33  34
ATOM     34  C   UNL A   1      41.982  25.829  27.942  1.00  0.00     0.031 A 
ATOM     35  C   UNL A   1      43.296  26.323  27.394  1.00  0.00     0.074 A 
ATOM     36  C   UNL A   1      41.148  26.692  28.554  1.00  0.00     0.049 A 
ATOM     37  N   UNL A   1      43.823  27.519  27.455  1.00  0.00    -0.248 NA
ATOM     38  C   UNL A   1      44.119  25.336  26.681  1.00  0.00     0.031 C 
ATOM     39  C   UNL A   1      39.829  26.352  29.085  1.00  0.00     0.029 A 
ATOM     40  N   UNL A   1      41.289  28.029  28.834  1.00  0.00    -0.354 N 
ATOM     41  C   UNL A   1      45.038  27.435  26.782  1.00  0.00     0.074 A 
ATOM     42  C   UNL A   1      45.182  26.058  26.354  1.00  0.00     0.031 C 
ATOM     43  C   UNL A   1      39.285  27.450  29.635  1.00  0.00     0.029 A 
ATOM     44  C   UNL A   1      40.231  28.560  29.533  1.00  0.00     0.049 A 
ATOM     45  H   UNL A   1      42.073  28.556  28.560  1.00  0.00     0.167 HD
ATOM     46  C   UNL A   1      45.944  28.415  26.536  1.00  0.00     0.034 A 
ATOM     47  C   UNL A   1      40.056  29.791  30.056  1.00  0.00     0.034 A 
ATOM     48  C   UNL A   1      45.801  29.781  26.981  1.00  0.00     0.049 A 
ATOM     49  C   UNL A   1      41.130  30.834  29.870  1.00  0.00     0.074 A 
ATOM     50  C   UNL A   1      46.649  30.854  26.756  1.00  0.00     0.029 A 
ATOM     51  N   UNL A   1      44.755  30.262  27.757  1.00  0.00    -0.354 N 
ATOM     52  N   UNL A   1      42.268  30.742  29.221  1.00  0.00    -0.248 NA
ATOM     53  C   UNL A   1      40.896  32.145  30.490  1.00  0.00     0.031 C 
ATOM     54  C   UNL A   1      46.154  31.961  27.458  1.00  0.00     0.029 A 
ATOM     55  C   UNL A   1      44.960  31.601  28.061  1.00  0.00     0.049 A 
ATOM     56  H   UNL A   1      43.980  29.731  28.050  1.00  0.00     0.167 HD
ATOM     57  C   UNL A   1      42.874  31.991  29.340  1.00  0.00     0.074 A 
ATOM     58  C   UNL A   1      41.969  32.821  30.107  1.00  0.00     0.031 C 
ATOM     59  C   UNL A   1      44.069  32.414  28.853  1.00  0.00     0.034 A 
BRANCH  46  60
ATOM     60  C   UNL A   1      47.200  28.028  25.792  1.00  0.00     0.023 A 
ATOM     61  C   UNL A   1      47.303  28.158  24.396  1.00  0.00     0.031 A 
ATOM     62  C   UNL A   1      48.303  27.508  26.490  1.00  0.00     0.131 A 
ATOM     63  C   UNL A   1      48.461  27.718  23.737  1.00  0.00     0.055 A 
ATOM     64  C   UNL A   1      49.480  27.136  25.836  1.00  0.00     0.041 A 
ATOM     65  F   UNL A   1      48.254  27.342  27.821  1.00  0.00    -0.206 F 
ATOM     66  C   UNL A   1      49.559  27.229  24.450  1.00  0.00     0.022 A 
BRANCH  63  67
ATOM     67  S   UNL A   1      48.467  27.675  21.924  1.00  0.00     0.124 S 
ATOM     68  O   UNL A   1      47.141  28.203  21.611  1.00  0.00    -0.237 OA
ATOM     69  O   UNL A   1      49.594  28.539  21.593  1.00  0.00    -0.237 OA
ATOM     70  O   UNL A   1      48.654  26.259  21.615  1.00  0.00    -0.744 OA
ENDBRANCH  63  67
ENDBRANCH  46  60
BRANCH  47  71
ATOM     71  C   UNL A   1      38.840  30.099  30.863  1.00  0.00     0.023 A 
ATOM     72  C   UNL A   1      37.778  30.845  30.329  1.00  0.00     0.031 A 
ATOM     73  C   UNL A   1      38.755  29.696  32.209  1.00  0.00     0.131 A 
ATOM     74  C   UNL A   1      36.694  31.199  31.148  1.00  0.00     0.055 A 
ATOM     75  C   UNL A   1      37.653  30.009  33.004  1.00  0.00     0.041 A 
ATOM     76  F   UNL A   1      39.746  28.985  32.769  1.00  0.00    -0.206 F 
ATOM     77  C   UNL A   1      36.618  30.775  32.477  1.00  0.00     0.022 A 
BRANCH  74  78
ATOM     78  S   UNL A   1      35.414  32.290  30.471  1.00  0.00     0.124 S 
ATOM     79  O   UNL A   1      36.155  33.531  30.271  1.00  0.00    -0.237 OA
ATOM     80  O   UNL A   1      35.017  31.578  29.260  1.00  0.00    -0.237 OA
ATOM     81  O   UNL A   1      34.404  32.328  31.527  1.00  0.00    -0.744 OA
ENDBRANCH  74  78
ENDBRANCH  47  71
BRANCH  59  82
ATOM     82  C   UNL A   1      44.450  33.851  29.125  1.00  0.00     0.023 A 
ATOM     83  C   UNL A   1      44.003  34.899  28.303  1.00  0.00     0.031 A 
ATOM     84  C   UNL A   1      45.286  34.170  30.209  1.00  0.00     0.131 A 
ATOM     85  C   UNL A   1      44.435  36.213  28.547  1.00  0.00     0.055 A 
ATOM     86  C   UNL A   1      45.669  35.485  30.480  1.00  0.00     0.041 A 
ATOM     87  F   UNL A   1      45.745  33.208  31.025  1.00  0.00    -0.206 F 
ATOM     88  C   UNL A   1      45.252  36.514  29.639  1.00  0.00     0.022 A 
BRANCH  85  89
ATOM     89  S   UNL A   1      43.980  37.515  27.367  1.00  0.00     0.124 S 
ATOM     90  O   UNL A   1      43.441  38.546  28.248  1.00  0.00    -0.237 OA
ATOM     91  O   UNL A   1      45.256  37.822  26.731  1.00  0.00    -0.237 OA
ATOM     92  O   UNL A   1      42.997  36.864  26.501  1.00  0.00    -0.744 OA
ENDBRANCH  85  89
ENDBRANCH  59  82
ENDBRANCH  33  34
ENDBRANCH  26  28
ENDBRANCH  25  26
ENDBRANCH  24  25
ENDBRANCH  23  24
ENDBRANCH  22  23
ENDBRANCH   1  22
TORSDOF 22
ENDMDL
MODEL 3
REMARK VINA RESULT:     -10.0      2.119      7.863
REMARK SMILES C[C@@H](CC(=O)OCCOCCOC(=O)c1ccc(-c2c3nc(c(-c4cc(S(=O)(=O)[O-])ccc4F)c4ccc([nH]4)c(-c4cc(S(=O)(=O)[O-])ccc4F)c4nc(c(-c5cc(S(=O)(=O)[O-])ccc5F)c5ccc2[nH]5)C=C4)C=C3)cc1)NC(=O)CN(C)c1ncccn1
REMARK SMILES IDX 8 1 7 2 6 3 4 4 5 5 3 6 2 7 1 8 78 9 79 10 80 12 81 13 82 14
REMARK SMILES IDX 83 15 84 16 85 17 89 18 86 19 88 20 87 21 9 22 10 23 11 24
REMARK SMILES IDX 12 25 13 26 14 27 15 28 16 29 77 30 17 31 76 32 18 33 19 34
REMARK SMILES IDX 20 35 70 36 21 37 75 38 69 39 71 40 22 41 74 42 68 43 67 44
REMARK SMILES IDX 23 46 55 47 35 48 54 49 36 50 39 51 53 52 72 53 37 54 38 55
REMARK SMILES IDX 52 57 73 58 40 59 24 60 25 61 33 62 26 63 32 64 34 65 31 66
REMARK SMILES IDX 27 67 28 68 29 69 30 70 56 71 57 72 65 73 58 74 64 75 66 76
REMARK SMILES IDX 63 77 59 78 60 79 61 80 62 81 41 82 42 83 50 84 43 85 49 86
REMARK SMILES IDX 51 87 48 88 44 89 45 90 46 91 47 92
REMARK H PARENT 78 11 71 45 39 56
REMARK Flexibility Score: inf
ROOT
ATOM      1  C   UNL A   1      33.312  20.199  24.491  1.00  0.00     0.202 C 
ENDROOT
BRANCH   1   2
ATOM      2  C   UNL A   1      32.109  21.093  24.186  1.00  0.00     0.261 C 
BRANCH   2   3
ATOM      3  O   UNL A   1      31.456  21.568  25.381  1.00  0.00    -0.463 OA
BRANCH   3   4
ATOM      4  C   UNL A   1      31.083  22.870  25.372  1.00  0.00     0.307 C 
ATOM      5  O   UNL A   1      30.741  23.507  26.364  1.00  0.00    -0.252 OA
BRANCH   4   6
ATOM      6  C   UNL A   1      31.081  23.518  24.007  1.00  0.00     0.147 C 
BRANCH   6   7
ATOM      7  C   UNL A   1      31.894  24.784  23.716  1.00  0.00     0.090 C 
ATOM      8  C   UNL A   1      33.325  24.551  23.251  1.00  0.00     0.031 C 
BRANCH   7   9
ATOM      9  N   UNL A   1      31.861  25.734  24.817  1.00  0.00    -0.352 N 
ATOM     10  C   UNL A   1      31.102  26.862  24.969  1.00  0.00     0.239 C 
ATOM     11  H   UNL A   1      32.474  25.535  25.561  1.00  0.00     0.163 HD
ATOM     12  O   UNL A   1      31.031  27.359  26.099  1.00  0.00    -0.273 OA
BRANCH  10  13
ATOM     13  C   UNL A   1      30.282  27.416  23.792  1.00  0.00     0.219 C 
BRANCH  13  14
ATOM     14  N   UNL A   1      30.712  28.730  23.312  1.00  0.00    -0.335 N 
ATOM     15  C   UNL A   1      32.074  28.953  22.885  1.00  0.00     0.147 C 
BRANCH  14  16
ATOM     16  C   UNL A   1      29.767  29.676  22.976  1.00  0.00     0.225 A 
ATOM     17  N   UNL A   1      29.527  30.687  23.832  1.00  0.00    -0.221 NA
ATOM     18  N   UNL A   1      29.105  29.551  21.818  1.00  0.00    -0.221 NA
ATOM     19  C   UNL A   1      28.578  31.581  23.495  1.00  0.00     0.117 A 
ATOM     20  C   UNL A   1      28.144  30.449  21.533  1.00  0.00     0.117 A 
ATOM     21  C   UNL A   1      27.837  31.506  22.346  1.00  0.00     0.040 A 
ENDBRANCH  14  16
ENDBRANCH  13  14
ENDBRANCH  10  13
ENDBRANCH   7   9
ENDBRANCH   6   7
ENDBRANCH   4   6
ENDBRANCH   3   4
ENDBRANCH   2   3
ENDBRANCH   1   2
BRANCH   1  22
ATOM     22  O   UNL A   1      34.298  20.763  25.354  1.00  0.00    -0.374 OA
BRANCH  22  23
ATOM     23  C   UNL A   1      35.670  20.554  25.004  1.00  0.00     0.202 C 
BRANCH  23  24
ATOM     24  C   UNL A   1      36.680  21.433  25.753  1.00  0.00     0.261 C 
BRANCH  24  25
ATOM     25  O   UNL A   1      37.972  21.417  25.110  1.00  0.00    -0.460 OA
BRANCH  25  26
ATOM     26  C   UNL A   1      39.000  21.153  25.953  1.00  0.00     0.338 C 
ATOM     27  O   UNL A   1      39.556  20.072  26.119  1.00  0.00    -0.246 OA
BRANCH  26  28
ATOM     28  C   UNL A   1      39.516  22.399  26.544  1.00  0.00     0.060 A 
ATOM     29  C   UNL A   1      39.081  23.615  26.001  1.00  0.00     0.016 A 
ATOM     30  C   UNL A   1      40.505  22.379  27.528  1.00  0.00     0.016 A 
ATOM     31  C   UNL A   1      39.655  24.816  26.424  1.00  0.00     0.010 A 
ATOM     32  C   UNL A   1      41.084  23.587  27.946  1.00  0.00     0.010 A 
ATOM     33  C   UNL A   1      40.681  24.810  27.380  1.00  0.00    -0.014 A 
BRANCH  33  34
ATOM     34  C   UNL A   1      41.388  26.077  27.710  1.00  0.00     0.031 A 
ATOM     35  C   UNL A   1      40.665  27.162  28.464  1.00  0.00     0.074 A 
ATOM     36  C   UNL A   1      42.679  26.248  27.369  1.00  0.00     0.049 A 
ATOM     37  N   UNL A   1      41.092  28.344  28.830  1.00  0.00    -0.248 NA
ATOM     38  C   UNL A   1      39.279  26.873  28.859  1.00  0.00     0.031 C 
ATOM     39  C   UNL A   1      43.505  25.257  26.681  1.00  0.00     0.029 A 
ATOM     40  N   UNL A   1      43.520  27.318  27.553  1.00  0.00    -0.354 N 
ATOM     41  C   UNL A   1      40.032  28.940  29.507  1.00  0.00     0.074 A 
ATOM     42  C   UNL A   1      38.931  27.999  29.465  1.00  0.00     0.031 C 
ATOM     43  C   UNL A   1      44.733  25.769  26.492  1.00  0.00     0.029 A 
ATOM     44  C   UNL A   1      44.770  27.137  27.008  1.00  0.00     0.049 A 
ATOM     45  H   UNL A   1      43.254  28.136  28.029  1.00  0.00     0.167 HD
ATOM     46  C   UNL A   1      39.984  30.153  30.112  1.00  0.00     0.034 A 
ATOM     47  C   UNL A   1      45.815  27.984  26.909  1.00  0.00     0.034 A 
ATOM     48  C   UNL A   1      41.080  31.093  30.133  1.00  0.00     0.049 A 
ATOM     49  C   UNL A   1      45.698  29.373  27.488  1.00  0.00     0.074 A 
ATOM     50  C   UNL A   1      41.141  32.334  30.746  1.00  0.00     0.029 A 
ATOM     51  N   UNL A   1      42.302  30.907  29.500  1.00  0.00    -0.354 N 
ATOM     52  N   UNL A   1      44.693  29.917  28.135  1.00  0.00    -0.248 NA
ATOM     53  C   UNL A   1      46.857  30.260  27.321  1.00  0.00     0.031 C 
ATOM     54  C   UNL A   1      42.367  32.928  30.420  1.00  0.00     0.029 A 
ATOM     55  C   UNL A   1      43.103  32.029  29.665  1.00  0.00     0.049 A 
ATOM     56  H   UNL A   1      42.563  30.098  29.005  1.00  0.00     0.167 HD
ATOM     57  C   UNL A   1      45.109  31.204  28.468  1.00  0.00     0.074 A 
ATOM     58  C   UNL A   1      46.461  31.347  27.966  1.00  0.00     0.031 C 
ATOM     59  C   UNL A   1      44.437  32.177  29.134  1.00  0.00     0.034 A 
BRANCH  46  60
ATOM     60  C   UNL A   1      38.680  30.555  30.758  1.00  0.00     0.023 A 
ATOM     61  C   UNL A   1      37.650  31.171  30.026  1.00  0.00     0.031 A 
ATOM     62  C   UNL A   1      38.471  30.330  32.130  1.00  0.00     0.131 A 
ATOM     63  C   UNL A   1      36.483  31.594  30.681  1.00  0.00     0.055 A 
ATOM     64  C   UNL A   1      37.279  30.690  32.762  1.00  0.00     0.041 A 
ATOM     65  F   UNL A   1      39.427  29.764  32.883  1.00  0.00    -0.206 F 
ATOM     66  C   UNL A   1      36.282  31.338  32.040  1.00  0.00     0.022 A 
BRANCH  63  67
ATOM     67  S   UNL A   1      35.284  32.597  29.761  1.00  0.00     0.124 S 
ATOM     68  O   UNL A   1      36.061  33.802  29.479  1.00  0.00    -0.237 OA
ATOM     69  O   UNL A   1      34.979  31.749  28.615  1.00  0.00    -0.237 OA
ATOM     70  O   UNL A   1      34.189  32.780  30.711  1.00  0.00    -0.744 OA
ENDBRANCH  63  67
ENDBRANCH  46  60
BRANCH  47  71
ATOM     71  C   UNL A   1      47.049  27.575  26.179  1.00  0.00     0.023 A 
ATOM     72  C   UNL A   1      47.214  27.847  24.813  1.00  0.00     0.031 A 
ATOM     73  C   UNL A   1      48.059  26.846  26.835  1.00  0.00     0.131 A 
ATOM     74  C   UNL A   1      48.344  27.361  24.136  1.00  0.00     0.055 A 
ATOM     75  C   UNL A   1      49.203  26.408  26.169  1.00  0.00     0.041 A 
ATOM     76  F   UNL A   1      47.947  26.555  28.140  1.00  0.00    -0.206 F 
ATOM     77  C   UNL A   1      49.345  26.655  24.808  1.00  0.00     0.022 A 
BRANCH  74  78
ATOM     78  S   UNL A   1      48.452  27.599  22.342  1.00  0.00     0.124 S 
ATOM     79  O   UNL A   1      48.647  26.232  21.871  1.00  0.00    -0.237 OA
ATOM     80  O   UNL A   1      47.160  28.205  22.037  1.00  0.00    -0.237 OA
ATOM     81  O   UNL A   1      49.605  28.485  22.185  1.00  0.00    -0.744 OA
ENDBRANCH  74  78
ENDBRANCH  47  71
BRANCH  59  82
ATOM     82  C   UNL A   1      45.169  33.477  29.372  1.00  0.00     0.023 A 
ATOM     83  C   UNL A   1      45.952  33.682  30.521  1.00  0.00     0.031 A 
ATOM     84  C   UNL A   1      45.067  34.529  28.445  1.00  0.00     0.131 A 
ATOM     85  C   UNL A   1      46.560  34.929  30.741  1.00  0.00     0.055 A 
ATOM     86  C   UNL A   1      45.720  35.748  28.641  1.00  0.00     0.041 A 
ATOM     87  F   UNL A   1      44.331  34.390  27.331  1.00  0.00    -0.206 F 
ATOM     88  C   UNL A   1      46.462  35.957  29.800  1.00  0.00     0.022 A 
BRANCH  85  89
ATOM     89  S   UNL A   1      47.418  35.216  32.314  1.00  0.00     0.124 S 
ATOM     90  O   UNL A   1      48.816  35.041  31.933  1.00  0.00    -0.237 OA
ATOM     91  O   UNL A   1      47.013  36.578  32.648  1.00  0.00    -0.237 OA
ATOM     92  O   UNL A   1      46.880  34.178  33.192  1.00  0.00    -0.744 OA
ENDBRANCH  85  89
ENDBRANCH  59  82
ENDBRANCH  33  34
ENDBRANCH  26  28
ENDBRANCH  25  26
ENDBRANCH  24  25
ENDBRANCH  23  24
ENDBRANCH  22  23
ENDBRANCH   1  22
TORSDOF 22
ENDMDL
