MODEL 1
REMARK VINA RESULT:     -12.9      0.000      0.000
REMARK SMILES Cc1ccc([C@@]23C[C@@H]4C[C@@H](C[C@@](C(=O)N5CCC(C(=O)OCCOCCOC(=O)c6ccc(-c7c8nc(c(-c9cc(S(=O)(=O)[O-])ccc9F)c9ccc([nH]9)c(-c9cc(S(=O)(=O)[O-])ccc9F)c9nc(c(-c%10cc(S(=O)(=O)[O-])ccc%10F)c%10ccc7[nH]%10)C=C9)C=C8)cc6)CC5)(C4)C2)C3)cc1
REMARK SMILES IDX 25 1 24 2 23 3 22 4 21 5 19 6 20 7 18 8 13 9 14 10 15 11
REMARK SMILES IDX 16 12 94 13 17 14 93 15 12 16 6 17 7 18 96 19 97 20 8 21
REMARK SMILES IDX 10 22 9 23 95 24 11 25 5 26 1 27 2 28 3 29 99 30 4 31 98 32
REMARK SMILES IDX 26 33 27 34 28 35 29 36 30 37 31 38 92 39 32 40 91 41 33 42
REMARK SMILES IDX 34 43 35 44 85 45 36 46 90 47 84 48 86 49 37 50 89 51 83 52
REMARK SMILES IDX 82 53 38 55 70 56 50 57 69 58 51 59 54 60 68 61 87 62 52 63
REMARK SMILES IDX 53 64 67 66 88 67 55 68 39 69 40 70 48 71 41 72 47 73 49 74
REMARK SMILES IDX 46 75 42 76 43 77 44 78 45 79 71 80 72 81 80 82 73 83 79 84
REMARK SMILES IDX 81 85 78 86 74 87 75 88 76 89 77 90 56 91 57 92 65 93 58 94
REMARK SMILES IDX 64 95 66 96 63 97 59 98 60 99 61 100 62 101
REMARK H PARENT 86 54 54 65
REMARK Flexibility Score: inf
ROOT
ATOM      1  C   UNL A   1      34.054  34.328  28.085  1.00  0.00     0.202 C 
ENDROOT
BRANCH   1   2
ATOM      2  O   UNL A   1      33.732  32.964  27.954  1.00  0.00    -0.374 OA
BRANCH   2   3
ATOM      3  C   UNL A   1      32.493  32.705  27.303  1.00  0.00     0.202 C 
BRANCH   3   4
ATOM      4  C   UNL A   1      32.476  31.232  27.098  1.00  0.00     0.261 C 
BRANCH   4   5
ATOM      5  O   UNL A   1      33.624  30.580  27.645  1.00  0.00    -0.463 OA
BRANCH   5   6
ATOM      6  C   UNL A   1      33.995  29.346  27.188  1.00  0.00     0.309 C 
ATOM      7  O   UNL A   1      35.033  28.762  27.388  1.00  0.00    -0.252 OA
BRANCH   6   8
ATOM      8  C   UNL A   1      32.822  28.781  26.417  1.00  0.00     0.103 C 
ATOM      9  C   UNL A   1      31.990  24.871  26.145  1.00  0.00     0.228 C 
ATOM     10  O   UNL A   1      31.593  24.423  27.224  1.00  0.00    -0.274 OA
ATOM     11  N   UNL A   1      31.765  26.212  25.772  1.00  0.00    -0.342 N 
ATOM     12  C   UNL A   1      30.960  27.058  26.635  1.00  0.00     0.120 C 
ATOM     13  C   UNL A   1      32.426  26.979  24.706  1.00  0.00     0.120 C 
ATOM     14  C   UNL A   1      31.868  28.032  27.361  1.00  0.00     0.037 C 
ATOM     15  C   UNL A   1      33.434  27.908  25.310  1.00  0.00     0.037 C 
BRANCH   9  16
ATOM     16  C   UNL A   1      32.593  23.921  25.089  1.00  0.00     0.051 C 
ATOM     17  C   UNL A   1      34.911  22.924  24.592  1.00  0.00    -0.003 C 
ATOM     18  C   UNL A   1      34.227  21.535  24.764  1.00  0.00     0.015 C 
ATOM     19  C   UNL A   1      34.099  23.959  25.365  1.00  0.00     0.028 C 
ATOM     20  C   UNL A   1      34.789  23.369  23.114  1.00  0.00     0.015 C 
ATOM     21  C   UNL A   1      32.769  21.548  24.264  1.00  0.00    -0.009 C 
ATOM     22  C   UNL A   1      33.295  23.433  22.692  1.00  0.00    -0.009 C 
ATOM     23  C   UNL A   1      32.717  22.012  22.801  1.00  0.00     0.007 C 
ATOM     24  C   UNL A   1      31.951  22.522  25.115  1.00  0.00     0.020 C 
ATOM     25  C   UNL A   1      32.479  24.393  23.612  1.00  0.00     0.020 C 
BRANCH  17  26
ATOM     26  C   UNL A   1      36.354  22.895  25.141  1.00  0.00    -0.042 A 
ATOM     27  C   UNL A   1      40.304  22.737  26.941  1.00  0.00     0.044 C 
ATOM     28  C   UNL A   1      38.947  22.771  26.310  1.00  0.00    -0.051 A 
ATOM     29  C   UNL A   1      38.198  23.937  26.397  1.00  0.00     0.004 A 
ATOM     30  C   UNL A   1      38.405  21.671  25.638  1.00  0.00     0.004 A 
ATOM     31  C   UNL A   1      36.937  23.998  25.808  1.00  0.00     0.004 A 
ATOM     32  C   UNL A   1      37.126  21.730  25.062  1.00  0.00     0.004 A 
ENDBRANCH  17  26
ENDBRANCH   9  16
ENDBRANCH   6   8
ENDBRANCH   5   6
ENDBRANCH   4   5
ENDBRANCH   3   4
ENDBRANCH   2   3
ENDBRANCH   1   2
BRANCH   1  33
ATOM     33  C   UNL A   1      33.553  34.942  29.401  1.00  0.00     0.261 C 
BRANCH  33  34
ATOM     34  O   UNL A   1      33.662  33.967  30.460  1.00  0.00    -0.460 OA
BRANCH  34  35
ATOM     35  C   UNL A   1      34.779  34.044  31.238  1.00  0.00     0.338 C 
ATOM     36  O   UNL A   1      35.112  35.016  31.895  1.00  0.00    -0.246 OA
BRANCH  35  37
ATOM     37  C   UNL A   1      35.615  32.821  31.049  1.00  0.00     0.060 A 
ATOM     38  C   UNL A   1      35.598  31.789  32.010  1.00  0.00     0.016 A 
ATOM     39  C   UNL A   1      36.603  32.838  30.067  1.00  0.00     0.016 A 
ATOM     40  C   UNL A   1      36.662  30.873  32.084  1.00  0.00     0.010 A 
ATOM     41  C   UNL A   1      37.681  31.988  30.193  1.00  0.00     0.010 A 
ATOM     42  C   UNL A   1      37.747  31.034  31.226  1.00  0.00    -0.014 A 
BRANCH  42  43
ATOM     43  C   UNL A   1      39.067  30.408  31.373  1.00  0.00     0.031 A 
ATOM     44  C   UNL A   1      39.310  29.158  30.630  1.00  0.00     0.074 A 
ATOM     45  C   UNL A   1      40.119  31.090  31.900  1.00  0.00     0.049 A 
ATOM     46  N   UNL A   1      40.386  28.471  30.743  1.00  0.00    -0.248 NA
ATOM     47  C   UNL A   1      38.356  28.540  29.706  1.00  0.00     0.031 C 
ATOM     48  C   UNL A   1      41.558  30.879  31.716  1.00  0.00     0.029 A 
ATOM     49  N   UNL A   1      40.097  32.155  32.798  1.00  0.00    -0.354 N 
ATOM     50  C   UNL A   1      40.449  27.625  29.668  1.00  0.00     0.074 A 
ATOM     51  C   UNL A   1      39.104  27.574  29.163  1.00  0.00     0.031 C 
ATOM     52  C   UNL A   1      42.237  31.521  32.686  1.00  0.00     0.029 A 
ATOM     53  C   UNL A   1      41.257  32.115  33.579  1.00  0.00     0.049 A 
ATOM     54  H   UNL A   1      39.382  32.828  32.870  1.00  0.00     0.167 HD
ATOM     55  C   UNL A   1      41.680  27.211  29.267  1.00  0.00     0.034 A 
ATOM     56  C   UNL A   1      41.142  32.003  34.924  1.00  0.00     0.034 A 
ATOM     57  C   UNL A   1      42.694  27.547  30.289  1.00  0.00     0.049 A 
ATOM     58  C   UNL A   1      41.667  30.620  35.241  1.00  0.00     0.074 A 
ATOM     59  C   UNL A   1      43.811  28.362  30.334  1.00  0.00     0.029 A 
ATOM     60  N   UNL A   1      42.418  27.219  31.625  1.00  0.00    -0.354 N 
ATOM     61  N   UNL A   1      41.721  29.654  34.352  1.00  0.00    -0.248 NA
ATOM     62  C   UNL A   1      42.373  30.286  36.468  1.00  0.00     0.031 C 
ATOM     63  C   UNL A   1      44.109  28.619  31.717  1.00  0.00     0.029 A 
ATOM     64  C   UNL A   1      43.203  27.927  32.514  1.00  0.00     0.049 A 
ATOM     65  H   UNL A   1      41.741  26.558  31.899  1.00  0.00     0.167 HD
ATOM     66  C   UNL A   1      42.607  28.704  34.762  1.00  0.00     0.074 A 
ATOM     67  C   UNL A   1      42.936  29.113  36.126  1.00  0.00     0.031 C 
ATOM     68  C   UNL A   1      43.079  27.696  33.960  1.00  0.00     0.034 A 
BRANCH  55  69
ATOM     69  C   UNL A   1      41.985  26.641  27.893  1.00  0.00     0.023 A 
ATOM     70  C   UNL A   1      42.803  25.499  27.787  1.00  0.00     0.031 A 
ATOM     71  C   UNL A   1      41.586  27.204  26.655  1.00  0.00     0.131 A 
ATOM     72  C   UNL A   1      43.148  24.957  26.530  1.00  0.00     0.055 A 
ATOM     73  C   UNL A   1      41.872  26.627  25.411  1.00  0.00     0.041 A 
ATOM     74  F   UNL A   1      40.957  28.382  26.564  1.00  0.00    -0.206 F 
ATOM     75  C   UNL A   1      42.659  25.494  25.342  1.00  0.00     0.022 A 
BRANCH  72  76
ATOM     76  S   UNL A   1      44.299  23.558  26.450  1.00  0.00     0.124 S 
ATOM     77  O   UNL A   1      44.113  23.090  25.080  1.00  0.00    -0.237 OA
ATOM     78  O   UNL A   1      45.578  24.188  26.754  1.00  0.00    -0.237 OA
ATOM     79  O   UNL A   1      43.801  22.647  27.482  1.00  0.00    -0.744 OA
ENDBRANCH  72  76
ENDBRANCH  55  69
BRANCH  56  80
ATOM     80  C   UNL A   1      39.956  32.793  35.424  1.00  0.00     0.023 A 
ATOM     81  C   UNL A   1      39.004  32.100  36.239  1.00  0.00     0.031 A 
ATOM     82  C   UNL A   1      39.989  34.188  35.551  1.00  0.00     0.131 A 
ATOM     83  C   UNL A   1      38.238  32.779  37.215  1.00  0.00     0.055 A 
ATOM     84  C   UNL A   1      39.208  34.862  36.510  1.00  0.00     0.041 A 
ATOM     85  F   UNL A   1      40.881  34.914  34.862  1.00  0.00    -0.206 F 
ATOM     86  C   UNL A   1      38.361  34.159  37.370  1.00  0.00     0.022 A 
BRANCH  83  87
ATOM     87  S   UNL A   1      37.342  31.824  38.502  1.00  0.00     0.124 S 
ATOM     88  O   UNL A   1      36.094  32.563  38.640  1.00  0.00    -0.237 OA
ATOM     89  O   UNL A   1      37.237  30.496  37.908  1.00  0.00    -0.237 OA
ATOM     90  O   UNL A   1      38.237  31.876  39.658  1.00  0.00    -0.744 OA
ENDBRANCH  83  87
ENDBRANCH  56  80
BRANCH  68  91
ATOM     91  C   UNL A   1      43.498  26.357  34.522  1.00  0.00     0.023 A 
ATOM     92  C   UNL A   1      44.842  25.986  34.630  1.00  0.00     0.031 A 
ATOM     93  C   UNL A   1      42.574  25.460  35.106  1.00  0.00     0.131 A 
ATOM     94  C   UNL A   1      45.224  24.759  35.178  1.00  0.00     0.055 A 
ATOM     95  C   UNL A   1      42.963  24.289  35.761  1.00  0.00     0.041 A 
ATOM     96  F   UNL A   1      41.252  25.686  35.104  1.00  0.00    -0.206 F 
ATOM     97  C   UNL A   1      44.296  23.917  35.779  1.00  0.00     0.022 A 
BRANCH  94  98
ATOM     98  S   UNL A   1      46.954  24.278  34.994  1.00  0.00     0.124 S 
ATOM     99  O   UNL A   1      47.430  24.351  36.374  1.00  0.00    -0.237 OA
ATOM    100  O   UNL A   1      46.851  22.935  34.434  1.00  0.00    -0.237 OA
ATOM    101  O   UNL A   1      47.497  25.291  34.093  1.00  0.00    -0.744 OA
ENDBRANCH  94  98
ENDBRANCH  68  91
ENDBRANCH  42  43
ENDBRANCH  35  37
ENDBRANCH  34  35
ENDBRANCH  33  34
ENDBRANCH   1  33
TORSDOF 19
ENDMDL
MODEL 2
REMARK VINA RESULT:     -12.7      4.330     10.809
REMARK SMILES Cc1ccc([C@@]23C[C@@H]4C[C@@H](C[C@@](C(=O)N5CCC(C(=O)OCCOCCOC(=O)c6ccc(-c7c8nc(c(-c9cc(S(=O)(=O)[O-])ccc9F)c9ccc([nH]9)c(-c9cc(S(=O)(=O)[O-])ccc9F)c9nc(c(-c%10cc(S(=O)(=O)[O-])ccc%10F)c%10ccc7[nH]%10)C=C9)C=C8)cc6)CC5)(C4)C2)C3)cc1
REMARK SMILES IDX 25 1 24 2 23 3 22 4 21 5 19 6 20 7 18 8 13 9 14 10 15 11
REMARK SMILES IDX 16 12 94 13 17 14 93 15 12 16 6 17 7 18 96 19 97 20 8 21
REMARK SMILES IDX 10 22 9 23 95 24 11 25 5 26 1 27 2 28 3 29 99 30 4 31 98 32
REMARK SMILES IDX 26 33 27 34 28 35 29 36 30 37 31 38 92 39 32 40 91 41 33 42
REMARK SMILES IDX 34 43 35 44 85 45 36 46 90 47 84 48 86 49 37 50 89 51 83 52
REMARK SMILES IDX 82 53 38 55 70 56 50 57 69 58 51 59 54 60 68 61 87 62 52 63
REMARK SMILES IDX 53 64 67 66 88 67 55 68 39 69 40 70 48 71 41 72 47 73 49 74
REMARK SMILES IDX 46 75 42 76 43 77 44 78 45 79 71 80 72 81 80 82 73 83 79 84
REMARK SMILES IDX 81 85 78 86 74 87 75 88 76 89 77 90 56 91 57 92 65 93 58 94
REMARK SMILES IDX 64 95 66 96 63 97 59 98 60 99 61 100 62 101
REMARK H PARENT 86 54 54 65
REMARK Flexibility Score: inf
ROOT
ATOM      1  C   UNL A   1      41.513  19.918  26.072  1.00  0.00     0.202 C 
ENDROOT
BRANCH   1   2
ATOM      2  O   UNL A   1      40.967  21.145  25.647  1.00  0.00    -0.374 OA
BRANCH   2   3
ATOM      3  C   UNL A   1      39.723  21.483  26.251  1.00  0.00     0.202 C 
BRANCH   3   4
ATOM      4  C   UNL A   1      38.712  20.699  25.492  1.00  0.00     0.261 C 
BRANCH   4   5
ATOM      5  O   UNL A   1      37.638  21.503  25.000  1.00  0.00    -0.463 OA
BRANCH   5   6
ATOM      6  C   UNL A   1      36.342  21.139  25.240  1.00  0.00     0.309 C 
ATOM      7  O   UNL A   1      35.775  20.136  24.881  1.00  0.00    -0.252 OA
BRANCH   6   8
ATOM      8  C   UNL A   1      35.732  22.207  26.121  1.00  0.00     0.103 C 
ATOM      9  C   UNL A   1      32.152  23.883  25.464  1.00  0.00     0.228 C 
ATOM     10  O   UNL A   1      31.239  23.082  25.674  1.00  0.00    -0.274 OA
ATOM     11  N   UNL A   1      33.375  23.813  26.162  1.00  0.00    -0.342 N 
ATOM     12  C   UNL A   1      33.525  22.835  27.225  1.00  0.00     0.120 C 
ATOM     13  C   UNL A   1      34.651  24.460  25.822  1.00  0.00     0.120 C 
ATOM     14  C   UNL A   1      34.416  21.708  26.739  1.00  0.00     0.037 C 
ATOM     15  C   UNL A   1      35.582  23.448  25.227  1.00  0.00     0.037 C 
BRANCH   9  16
ATOM     16  C   UNL A   1      31.914  25.104  24.549  1.00  0.00     0.051 C 
ATOM     17  C   UNL A   1      32.307  27.641  24.694  1.00  0.00    -0.003 C 
ATOM     18  C   UNL A   1      33.199  27.462  23.429  1.00  0.00     0.015 C 
ATOM     19  C   UNL A   1      32.248  26.309  25.434  1.00  0.00     0.028 C 
ATOM     20  C   UNL A   1      30.846  27.896  24.250  1.00  0.00     0.015 C 
ATOM     21  C   UNL A   1      32.659  26.361  22.497  1.00  0.00    -0.009 C 
ATOM     22  C   UNL A   1      30.334  26.718  23.375  1.00  0.00    -0.009 C 
ATOM     23  C   UNL A   1      31.204  26.664  22.109  1.00  0.00     0.007 C 
ATOM     24  C   UNL A   1      32.698  25.016  23.227  1.00  0.00     0.020 C 
ATOM     25  C   UNL A   1      30.438  25.356  24.130  1.00  0.00     0.020 C 
BRANCH  17  26
ATOM     26  C   UNL A   1      32.895  28.719  25.630  1.00  0.00    -0.042 A 
ATOM     27  C   UNL A   1      34.412  31.623  28.482  1.00  0.00     0.044 C 
ATOM     28  C   UNL A   1      33.910  30.612  27.499  1.00  0.00    -0.051 A 
ATOM     29  C   UNL A   1      32.662  30.803  26.921  1.00  0.00     0.004 A 
ATOM     30  C   UNL A   1      34.652  29.482  27.141  1.00  0.00     0.004 A 
ATOM     31  C   UNL A   1      32.177  29.883  25.994  1.00  0.00     0.004 A 
ATOM     32  C   UNL A   1      34.151  28.547  26.221  1.00  0.00     0.004 A 
ENDBRANCH  17  26
ENDBRANCH   9  16
ENDBRANCH   6   8
ENDBRANCH   5   6
ENDBRANCH   4   5
ENDBRANCH   3   4
ENDBRANCH   2   3
ENDBRANCH   1   2
BRANCH   1  33
ATOM     33  C   UNL A   1      43.038  19.849  25.908  1.00  0.00     0.261 C 
BRANCH  33  34
ATOM     34  O   UNL A   1      43.470  20.858  24.970  1.00  0.00    -0.460 OA
BRANCH  34  35
ATOM     35  C   UNL A   1      44.378  21.763  25.433  1.00  0.00     0.338 C 
ATOM     36  O   UNL A   1      45.554  21.526  25.656  1.00  0.00    -0.246 OA
BRANCH  35  37
ATOM     37  C   UNL A   1      43.691  23.044  25.772  1.00  0.00     0.060 A 
ATOM     38  C   UNL A   1      43.754  24.143  24.891  1.00  0.00     0.016 A 
ATOM     39  C   UNL A   1      43.228  23.225  27.073  1.00  0.00     0.016 A 
ATOM     40  C   UNL A   1      43.512  25.444  25.364  1.00  0.00     0.010 A 
ATOM     41  C   UNL A   1      43.069  24.508  27.551  1.00  0.00     0.010 A 
ATOM     42  C   UNL A   1      43.255  25.629  26.720  1.00  0.00    -0.014 A 
BRANCH  42  43
ATOM     43  C   UNL A   1      43.312  26.904  27.446  1.00  0.00     0.031 A 
ATOM     44  C   UNL A   1      42.050  27.650  27.606  1.00  0.00     0.074 A 
ATOM     45  C   UNL A   1      44.388  27.237  28.209  1.00  0.00     0.049 A 
ATOM     46  N   UNL A   1      41.983  28.812  28.141  1.00  0.00    -0.248 NA
ATOM     47  C   UNL A   1      40.741  27.174  27.154  1.00  0.00     0.031 C 
ATOM     48  C   UNL A   1      44.480  28.157  29.346  1.00  0.00     0.029 A 
ATOM     49  N   UNL A   1      45.708  26.812  28.075  1.00  0.00    -0.354 N 
ATOM     50  C   UNL A   1      40.675  29.035  28.476  1.00  0.00     0.074 A 
ATOM     51  C   UNL A   1      39.929  28.090  27.692  1.00  0.00     0.031 C 
ATOM     52  C   UNL A   1      45.771  28.472  29.570  1.00  0.00     0.029 A 
ATOM     53  C   UNL A   1      46.559  27.821  28.538  1.00  0.00     0.049 A 
ATOM     54  H   UNL A   1      45.996  25.942  27.713  1.00  0.00     0.167 HD
ATOM     55  C   UNL A   1      40.428  29.895  29.501  1.00  0.00     0.034 A 
ATOM     56  C   UNL A   1      47.472  28.355  27.689  1.00  0.00     0.034 A 
ATOM     57  C   UNL A   1      41.654  30.644  29.850  1.00  0.00     0.049 A 
ATOM     58  C   UNL A   1      46.993  29.770  27.452  1.00  0.00     0.074 A 
ATOM     59  C   UNL A   1      42.466  30.734  30.966  1.00  0.00     0.029 A 
ATOM     60  N   UNL A   1      42.386  31.234  28.809  1.00  0.00    -0.354 N 
ATOM     61  N   UNL A   1      45.749  30.146  27.640  1.00  0.00    -0.248 NA
ATOM     62  C   UNL A   1      47.886  30.896  27.226  1.00  0.00     0.031 C 
ATOM     63  C   UNL A   1      43.735  31.259  30.543  1.00  0.00     0.029 A 
ATOM     64  C   UNL A   1      43.683  31.532  29.179  1.00  0.00     0.049 A 
ATOM     65  H   UNL A   1      42.018  31.416  27.914  1.00  0.00     0.167 HD
ATOM     66  C   UNL A   1      45.696  31.500  27.780  1.00  0.00     0.074 A 
ATOM     67  C   UNL A   1      47.052  31.929  27.442  1.00  0.00     0.031 C 
ATOM     68  C   UNL A   1      44.595  32.184  28.230  1.00  0.00     0.034 A 
BRANCH  55  69
ATOM     69  C   UNL A   1      39.125  29.947  30.277  1.00  0.00     0.023 A 
ATOM     70  C   UNL A   1      38.477  31.187  30.454  1.00  0.00     0.031 A 
ATOM     71  C   UNL A   1      38.509  28.855  30.938  1.00  0.00     0.131 A 
ATOM     72  C   UNL A   1      37.286  31.292  31.204  1.00  0.00     0.055 A 
ATOM     73  C   UNL A   1      37.291  28.949  31.624  1.00  0.00     0.041 A 
ATOM     74  F   UNL A   1      39.078  27.646  31.023  1.00  0.00    -0.206 F 
ATOM     75  C   UNL A   1      36.670  30.175  31.761  1.00  0.00     0.022 A 
BRANCH  72  76
ATOM     76  S   UNL A   1      36.562  32.929  31.497  1.00  0.00     0.124 S 
ATOM     77  O   UNL A   1      36.797  33.598  30.221  1.00  0.00    -0.237 OA
ATOM     78  O   UNL A   1      35.177  32.605  31.816  1.00  0.00    -0.237 OA
ATOM     79  O   UNL A   1      37.345  33.452  32.617  1.00  0.00    -0.744 OA
ENDBRANCH  72  76
ENDBRANCH  55  69
BRANCH  56  80
ATOM     80  C   UNL A   1      48.033  27.292  26.775  1.00  0.00     0.023 A 
ATOM     81  C   UNL A   1      47.784  27.435  25.372  1.00  0.00     0.031 A 
ATOM     82  C   UNL A   1      49.134  26.503  27.137  1.00  0.00     0.131 A 
ATOM     83  C   UNL A   1      48.683  26.920  24.409  1.00  0.00     0.055 A 
ATOM     84  C   UNL A   1      50.013  25.974  26.173  1.00  0.00     0.041 A 
ATOM     85  F   UNL A   1      49.469  26.352  28.427  1.00  0.00    -0.206 F 
ATOM     86  C   UNL A   1      49.814  26.212  24.811  1.00  0.00     0.022 A 
BRANCH  83  87
ATOM     87  S   UNL A   1      48.558  27.463  22.660  1.00  0.00     0.124 S 
ATOM     88  O   UNL A   1      47.287  28.175  22.634  1.00  0.00    -0.237 OA
ATOM     89  O   UNL A   1      49.753  28.282  22.486  1.00  0.00    -0.237 OA
ATOM     90  O   UNL A   1      48.595  26.211  21.905  1.00  0.00    -0.744 OA
ENDBRANCH  83  87
ENDBRANCH  56  80
BRANCH  68  91
ATOM     91  C   UNL A   1      44.302  33.602  27.795  1.00  0.00     0.023 A 
ATOM     92  C   UNL A   1      44.477  34.692  28.653  1.00  0.00     0.031 A 
ATOM     93  C   UNL A   1      43.975  33.929  26.458  1.00  0.00     0.131 A 
ATOM     94  C   UNL A   1      44.232  36.003  28.234  1.00  0.00     0.055 A 
ATOM     95  C   UNL A   1      43.847  35.246  26.010  1.00  0.00     0.041 A 
ATOM     96  F   UNL A   1      43.797  32.996  25.512  1.00  0.00    -0.206 F 
ATOM     97  C   UNL A   1      43.950  36.296  26.906  1.00  0.00     0.022 A 
BRANCH  94  98
ATOM     98  S   UNL A   1      44.212  37.282  29.508  1.00  0.00     0.124 S 
ATOM     99  O   UNL A   1      43.768  36.527  30.678  1.00  0.00    -0.237 OA
ATOM    100  O   UNL A   1      45.603  37.723  29.535  1.00  0.00    -0.237 OA
ATOM    101  O   UNL A   1      43.256  38.260  28.997  1.00  0.00    -0.744 OA
ENDBRANCH  94  98
ENDBRANCH  68  91
ENDBRANCH  42  43
ENDBRANCH  35  37
ENDBRANCH  34  35
ENDBRANCH  33  34
ENDBRANCH   1  33
TORSDOF 19
ENDMDL
MODEL 3
REMARK VINA RESULT:     -12.4      2.413      3.510
REMARK SMILES Cc1ccc([C@@]23C[C@@H]4C[C@@H](C[C@@](C(=O)N5CCC(C(=O)OCCOCCOC(=O)c6ccc(-c7c8nc(c(-c9cc(S(=O)(=O)[O-])ccc9F)c9ccc([nH]9)c(-c9cc(S(=O)(=O)[O-])ccc9F)c9nc(c(-c%10cc(S(=O)(=O)[O-])ccc%10F)c%10ccc7[nH]%10)C=C9)C=C8)cc6)CC5)(C4)C2)C3)cc1
REMARK SMILES IDX 25 1 24 2 23 3 22 4 21 5 19 6 20 7 18 8 13 9 14 10 15 11
REMARK SMILES IDX 16 12 94 13 17 14 93 15 12 16 6 17 7 18 96 19 97 20 8 21
REMARK SMILES IDX 10 22 9 23 95 24 11 25 5 26 1 27 2 28 3 29 99 30 4 31 98 32
REMARK SMILES IDX 26 33 27 34 28 35 29 36 30 37 31 38 92 39 32 40 91 41 33 42
REMARK SMILES IDX 34 43 35 44 85 45 36 46 90 47 84 48 86 49 37 50 89 51 83 52
REMARK SMILES IDX 82 53 38 55 70 56 50 57 69 58 51 59 54 60 68 61 87 62 52 63
REMARK SMILES IDX 53 64 67 66 88 67 55 68 39 69 40 70 48 71 41 72 47 73 49 74
REMARK SMILES IDX 46 75 42 76 43 77 44 78 45 79 71 80 72 81 80 82 73 83 79 84
REMARK SMILES IDX 81 85 78 86 74 87 75 88 76 89 77 90 56 91 57 92 65 93 58 94
REMARK SMILES IDX 64 95 66 96 63 97 59 98 60 99 61 100 62 101
REMARK H PARENT 86 54 54 65
REMARK Flexibility Score: inf
ROOT
ATOM      1  C   UNL A   1      34.512  32.644  30.275  1.00  0.00     0.202 C 
ENDROOT
BRANCH   1   2
ATOM      2  O   UNL A   1      34.553  33.415  29.097  1.00  0.00    -0.374 OA
BRANCH   2   3
ATOM      3  C   UNL A   1      33.819  32.870  28.005  1.00  0.00     0.202 C 
BRANCH   3   4
ATOM      4  C   UNL A   1      34.277  31.458  27.911  1.00  0.00     0.261 C 
BRANCH   4   5
ATOM      5  O   UNL A   1      33.365  30.623  27.194  1.00  0.00    -0.463 OA
BRANCH   5   6
ATOM      6  C   UNL A   1      33.771  29.401  26.735  1.00  0.00     0.309 C 
ATOM      7  O   UNL A   1      34.851  28.879  26.871  1.00  0.00    -0.252 OA
BRANCH   6   8
ATOM      8  C   UNL A   1      32.579  28.755  26.063  1.00  0.00     0.103 C 
ATOM      9  C   UNL A   1      31.864  24.813  26.065  1.00  0.00     0.228 C 
ATOM     10  O   UNL A   1      31.538  24.419  27.187  1.00  0.00    -0.274 OA
ATOM     11  N   UNL A   1      31.576  26.121  25.626  1.00  0.00    -0.342 N 
ATOM     12  C   UNL A   1      30.789  26.993  26.479  1.00  0.00     0.120 C 
ATOM     13  C   UNL A   1      32.156  26.842  24.483  1.00  0.00     0.120 C 
ATOM     14  C   UNL A   1      31.701  28.036  27.098  1.00  0.00     0.037 C 
ATOM     15  C   UNL A   1      33.162  27.836  24.978  1.00  0.00     0.037 C 
BRANCH   9  16
ATOM     16  C   UNL A   1      32.444  23.819  25.036  1.00  0.00     0.051 C 
ATOM     17  C   UNL A   1      34.717  22.694  24.613  1.00  0.00    -0.003 C 
ATOM     18  C   UNL A   1      33.954  21.345  24.780  1.00  0.00     0.015 C 
ATOM     19  C   UNL A   1      33.942  23.780  25.352  1.00  0.00     0.028 C 
ATOM     20  C   UNL A   1      34.659  23.127  23.127  1.00  0.00     0.015 C 
ATOM     21  C   UNL A   1      32.514  21.431  24.239  1.00  0.00    -0.009 C 
ATOM     22  C   UNL A   1      33.183  23.266  22.663  1.00  0.00    -0.009 C 
ATOM     23  C   UNL A   1      32.527  21.880  22.771  1.00  0.00     0.007 C 
ATOM     24  C   UNL A   1      31.727  22.457  25.057  1.00  0.00     0.020 C 
ATOM     25  C   UNL A   1      32.396  24.280  23.551  1.00  0.00     0.020 C 
BRANCH  17  26
ATOM     26  C   UNL A   1      36.141  22.593  25.202  1.00  0.00    -0.042 A 
ATOM     27  C   UNL A   1      40.250  22.382  26.594  1.00  0.00     0.044 C 
ATOM     28  C   UNL A   1      38.832  22.475  26.125  1.00  0.00    -0.051 A 
ATOM     29  C   UNL A   1      38.253  21.368  25.519  1.00  0.00     0.004 A 
ATOM     30  C   UNL A   1      38.068  23.637  26.273  1.00  0.00     0.004 A 
ATOM     31  C   UNL A   1      36.931  21.425  25.085  1.00  0.00     0.004 A 
ATOM     32  C   UNL A   1      36.742  23.697  25.817  1.00  0.00     0.004 A 
ENDBRANCH  17  26
ENDBRANCH   9  16
ENDBRANCH   6   8
ENDBRANCH   5   6
ENDBRANCH   4   5
ENDBRANCH   3   4
ENDBRANCH   2   3
ENDBRANCH   1   2
BRANCH   1  33
ATOM     33  C   UNL A   1      35.870  32.555  30.984  1.00  0.00     0.261 C 
BRANCH  33  34
ATOM     34  O   UNL A   1      36.563  31.363  30.553  1.00  0.00    -0.460 OA
BRANCH  34  35
ATOM     35  C   UNL A   1      37.511  31.532  29.588  1.00  0.00     0.338 C 
ATOM     36  O   UNL A   1      37.583  32.489  28.835  1.00  0.00    -0.246 OA
BRANCH  35  37
ATOM     37  C   UNL A   1      38.356  30.306  29.486  1.00  0.00     0.060 A 
ATOM     38  C   UNL A   1      38.180  29.240  30.392  1.00  0.00     0.016 A 
ATOM     39  C   UNL A   1      39.487  30.344  28.673  1.00  0.00     0.016 A 
ATOM     40  C   UNL A   1      39.211  28.307  30.598  1.00  0.00     0.010 A 
ATOM     41  C   UNL A   1      40.525  29.475  28.935  1.00  0.00     0.010 A 
ATOM     42  C   UNL A   1      40.419  28.483  29.928  1.00  0.00    -0.014 A 
BRANCH  42  43
ATOM     43  C   UNL A   1      41.695  27.834  30.257  1.00  0.00     0.031 A 
ATOM     44  C   UNL A   1      42.048  26.616  29.505  1.00  0.00     0.074 A 
ATOM     45  C   UNL A   1      42.652  28.478  30.978  1.00  0.00     0.049 A 
ATOM     46  N   UNL A   1      43.087  25.911  29.758  1.00  0.00    -0.248 NA
ATOM     47  C   UNL A   1      41.252  26.054  28.412  1.00  0.00     0.031 C 
ATOM     48  C   UNL A   1      44.100  28.256  31.019  1.00  0.00     0.029 A 
ATOM     49  N   UNL A   1      42.491  29.501  31.909  1.00  0.00    -0.354 N 
ATOM     50  C   UNL A   1      43.318  25.113  28.670  1.00  0.00     0.074 A 
ATOM     51  C   UNL A   1      42.073  25.103  27.952  1.00  0.00     0.031 C 
ATOM     52  C   UNL A   1      44.617  28.845  32.115  1.00  0.00     0.029 A 
ATOM     53  C   UNL A   1      43.508  29.411  32.864  1.00  0.00     0.049 A 
ATOM     54  H   UNL A   1      41.777  30.180  31.897  1.00  0.00     0.167 HD
ATOM     55  C   UNL A   1      44.596  24.702  28.453  1.00  0.00     0.034 A 
ATOM     56  C   UNL A   1      43.177  29.240  34.167  1.00  0.00     0.034 A 
ATOM     57  C   UNL A   1      45.433  24.978  29.641  1.00  0.00     0.049 A 
ATOM     58  C   UNL A   1      43.635  27.837  34.499  1.00  0.00     0.074 A 
ATOM     59  C   UNL A   1      46.532  25.774  29.903  1.00  0.00     0.029 A 
ATOM     60  N   UNL A   1      44.942  24.594  30.897  1.00  0.00    -0.354 N 
ATOM     61  N   UNL A   1      43.827  26.912  33.587  1.00  0.00    -0.248 NA
ATOM     62  C   UNL A   1      44.132  27.439  35.807  1.00  0.00     0.031 C 
ATOM     63  C   UNL A   1      46.604  25.965  31.326  1.00  0.00     0.029 A 
ATOM     64  C   UNL A   1      45.577  25.250  31.934  1.00  0.00     0.049 A 
ATOM     65  H   UNL A   1      44.226  23.930  31.027  1.00  0.00     0.167 HD
ATOM     66  C   UNL A   1      44.630  25.933  34.090  1.00  0.00     0.074 A 
ATOM     67  C   UNL A   1      44.736  26.275  35.507  1.00  0.00     0.031 C 
ATOM     68  C   UNL A   1      45.219  24.956  33.328  1.00  0.00     0.034 A 
BRANCH  55  69
ATOM     69  C   UNL A   1      45.115  24.190  27.122  1.00  0.00     0.023 A 
ATOM     70  C   UNL A   1      44.703  22.923  26.662  1.00  0.00     0.031 A 
ATOM     71  C   UNL A   1      46.069  24.840  26.299  1.00  0.00     0.131 A 
ATOM     72  C   UNL A   1      45.192  22.387  25.451  1.00  0.00     0.055 A 
ATOM     73  C   UNL A   1      46.500  24.337  25.064  1.00  0.00     0.041 A 
ATOM     74  F   UNL A   1      46.697  25.964  26.666  1.00  0.00    -0.206 F 
ATOM     75  C   UNL A   1      46.062  23.102  24.632  1.00  0.00     0.022 A 
BRANCH  72  76
ATOM     76  S   UNL A   1      44.720  20.703  24.969  1.00  0.00     0.124 S 
ATOM     77  O   UNL A   1      43.518  20.485  25.769  1.00  0.00    -0.237 OA
ATOM     78  O   UNL A   1      44.529  20.833  23.530  1.00  0.00    -0.237 OA
ATOM     79  O   UNL A   1      45.875  19.898  25.367  1.00  0.00    -0.744 OA
ENDBRANCH  72  76
ENDBRANCH  55  69
BRANCH  56  80
ATOM     80  C   UNL A   1      41.930  30.022  34.505  1.00  0.00     0.023 A 
ATOM     81  C   UNL A   1      42.071  31.436  34.684  1.00  0.00     0.031 A 
ATOM     82  C   UNL A   1      40.648  29.558  34.180  1.00  0.00     0.131 A 
ATOM     83  C   UNL A   1      41.002  32.322  34.412  1.00  0.00     0.055 A 
ATOM     84  C   UNL A   1      39.582  30.444  33.932  1.00  0.00     0.041 A 
ATOM     85  F   UNL A   1      40.434  28.254  33.949  1.00  0.00    -0.206 F 
ATOM     86  C   UNL A   1      39.764  31.827  34.008  1.00  0.00     0.022 A 
BRANCH  83  87
ATOM     87  S   UNL A   1      41.325  34.122  34.256  1.00  0.00     0.124 S 
ATOM     88  O   UNL A   1      40.396  34.700  35.218  1.00  0.00    -0.237 OA
ATOM     89  O   UNL A   1      42.741  34.230  34.589  1.00  0.00    -0.237 OA
ATOM     90  O   UNL A   1      41.035  34.406  32.851  1.00  0.00    -0.744 OA
ENDBRANCH  83  87
ENDBRANCH  56  80
BRANCH  68  91
ATOM     91  C   UNL A   1      45.534  23.587  33.887  1.00  0.00     0.023 A 
ATOM     92  C   UNL A   1      46.803  23.260  34.375  1.00  0.00     0.031 A 
ATOM     93  C   UNL A   1      44.536  22.605  34.088  1.00  0.00     0.131 A 
ATOM     94  C   UNL A   1      47.079  22.002  34.918  1.00  0.00     0.055 A 
ATOM     95  C   UNL A   1      44.784  21.394  34.739  1.00  0.00     0.041 A 
ATOM     96  F   UNL A   1      43.266  22.780  33.697  1.00  0.00    -0.206 F 
ATOM     97  C   UNL A   1      46.070  21.073  35.138  1.00  0.00     0.022 A 
BRANCH  94  98
ATOM     98  S   UNL A   1      48.812  21.608  35.239  1.00  0.00     0.124 S 
ATOM     99  O   UNL A   1      49.247  22.781  35.994  1.00  0.00    -0.237 OA
ATOM    100  O   UNL A   1      48.717  20.367  36.002  1.00  0.00    -0.237 OA
ATOM    101  O   UNL A   1      49.387  21.477  33.903  1.00  0.00    -0.744 OA
ENDBRANCH  94  98
ENDBRANCH  68  91
ENDBRANCH  42  43
ENDBRANCH  35  37
ENDBRANCH  34  35
ENDBRANCH  33  34
ENDBRANCH   1  33
TORSDOF 19
ENDMDL
