MODEL 1
REMARK VINA RESULT:      -9.9      0.000      0.000
REMARK SMILES CS(=O)(=O)c1ccc(N2N=C(C(=O)OCCOCCOC(=O)c3ccc(-c4c5nc(c(-c6cc(S(=O)(=O)[O-])ccc6F)c6ccc([nH]6)c(-c6cc(S(=O)(=O)[O-])ccc6F)c6nc(c(-c7cc(S(=O)(=O)[O-])ccc7F)c7ccc4[nH]7)C=C6)C=C5)cc3)C[C@H]2c2cccs2)cc1
REMARK SMILES IDX 18 1 17 2 16 3 15 4 14 5 12 6 13 7 11 8 9 9 10 10 87 11
REMARK SMILES IDX 86 12 8 13 5 14 6 15 94 16 7 17 93 18 2 19 1 20 3 21 4 22
REMARK SMILES IDX 88 23 89 24 92 25 90 26 91 27 19 28 20 29 21 30 22 31 23 32
REMARK SMILES IDX 24 33 85 34 25 35 84 36 26 37 27 38 28 39 78 40 29 41 83 42
REMARK SMILES IDX 77 43 79 44 30 45 82 46 76 47 75 48 31 50 63 51 43 52 62 53
REMARK SMILES IDX 44 54 47 55 61 56 80 57 45 58 46 59 60 61 81 62 48 63 32 64
REMARK SMILES IDX 33 65 41 66 34 67 40 68 42 69 39 70 35 71 36 72 37 73 38 74
REMARK SMILES IDX 64 75 65 76 73 77 66 78 72 79 74 80 71 81 67 82 68 83 69 84
REMARK SMILES IDX 70 85 49 86 50 87 58 88 51 89 57 90 59 91 56 92 52 93 53 94
REMARK SMILES IDX 54 95 55 96
REMARK H PARENT 79 49 47 60
REMARK Flexibility Score: inf
ROOT
ATOM      1  C   UNL A   1      42.566  19.439  26.194  1.00  0.00     0.202 C 
ENDROOT
BRANCH   1   2
ATOM      2  O   UNL A   1      41.280  19.374  25.570  1.00  0.00    -0.374 OA
BRANCH   2   3
ATOM      3  C   UNL A   1      40.155  19.765  26.361  1.00  0.00     0.202 C 
BRANCH   3   4
ATOM      4  C   UNL A   1      39.933  21.277  26.433  1.00  0.00     0.261 C 
BRANCH   4   5
ATOM      5  O   UNL A   1      38.763  21.615  25.674  1.00  0.00    -0.459 OA
BRANCH   5   6
ATOM      6  C   UNL A   1      38.209  22.801  25.982  1.00  0.00     0.354 C 
ATOM      7  O   UNL A   1      38.578  23.615  26.809  1.00  0.00    -0.245 OA
BRANCH   6   8
ATOM      8  C   UNL A   1      37.078  23.070  25.026  1.00  0.00     0.148 C 
ATOM      9  N   UNL A   1      35.404  23.991  24.118  1.00  0.00    -0.256 N 
ATOM     10  N   UNL A   1      36.333  24.131  25.109  1.00  0.00    -0.169 NA
ATOM     11  C   UNL A   1      35.340  22.602  23.626  1.00  0.00     0.154 C 
ATOM     12  C   UNL A   1      36.792  22.163  23.868  1.00  0.00     0.099 C 
BRANCH   9  13
ATOM     13  C   UNL A   1      34.351  24.892  24.089  1.00  0.00     0.060 A 
ATOM     14  C   UNL A   1      32.100  26.573  24.070  1.00  0.00     0.067 A 
ATOM     15  C   UNL A   1      32.653  26.164  25.286  1.00  0.00     0.022 A 
ATOM     16  C   UNL A   1      32.662  26.156  22.864  1.00  0.00     0.022 A 
ATOM     17  C   UNL A   1      33.772  25.326  25.289  1.00  0.00     0.029 A 
ATOM     18  C   UNL A   1      33.777  25.313  22.883  1.00  0.00     0.029 A 
BRANCH  14  19
ATOM     19  S   UNL A   1      30.670  27.625  24.104  1.00  0.00     0.175 S 
ATOM     20  C   UNL A   1      30.419  28.183  22.441  1.00  0.00     0.163 C 
ATOM     21  O   UNL A   1      31.022  28.795  24.886  1.00  0.00    -0.224 OA
ATOM     22  O   UNL A   1      29.540  26.794  24.469  1.00  0.00    -0.224 OA
ENDBRANCH  14  19
ENDBRANCH   9  13
BRANCH  11  23
ATOM     23  C   UNL A   1      34.306  21.700  24.296  1.00  0.00     0.030 A 
ATOM     24  C   UNL A   1      34.558  20.585  25.081  1.00  0.00     0.017 A 
ATOM     25  S   UNL A   1      32.610  21.935  24.116  1.00  0.00    -0.147 S 
ATOM     26  C   UNL A   1      33.367  19.947  25.535  1.00  0.00     0.012 A 
ATOM     27  C   UNL A   1      32.236  20.598  25.103  1.00  0.00     0.065 A 
ENDBRANCH  11  23
ENDBRANCH   6   8
ENDBRANCH   5   6
ENDBRANCH   4   5
ENDBRANCH   3   4
ENDBRANCH   2   3
ENDBRANCH   1   2
BRANCH   1  28
ATOM     28  C   UNL A   1      43.488  20.557  25.693  1.00  0.00     0.261 C 
BRANCH  28  29
ATOM     29  O   UNL A   1      42.746  21.734  25.321  1.00  0.00    -0.460 OA
BRANCH  29  30
ATOM     30  C   UNL A   1      43.503  22.752  24.837  1.00  0.00     0.338 C 
ATOM     31  O   UNL A   1      44.170  22.744  23.817  1.00  0.00    -0.246 OA
BRANCH  30  32
ATOM     32  C   UNL A   1      43.273  23.979  25.630  1.00  0.00     0.060 A 
ATOM     33  C   UNL A   1      43.061  25.170  24.923  1.00  0.00     0.016 A 
ATOM     34  C   UNL A   1      43.319  23.985  27.026  1.00  0.00     0.016 A 
ATOM     35  C   UNL A   1      42.940  26.378  25.608  1.00  0.00     0.010 A 
ATOM     36  C   UNL A   1      43.205  25.202  27.711  1.00  0.00     0.010 A 
ATOM     37  C   UNL A   1      43.047  26.407  27.004  1.00  0.00    -0.014 A 
BRANCH  37  38
ATOM     38  C   UNL A   1      43.140  27.713  27.704  1.00  0.00     0.031 A 
ATOM     39  C   UNL A   1      44.491  28.349  27.883  1.00  0.00     0.074 A 
ATOM     40  C   UNL A   1      42.033  28.340  28.145  1.00  0.00     0.049 A 
ATOM     41  N   UNL A   1      44.811  29.467  28.482  1.00  0.00    -0.248 NA
ATOM     42  C   UNL A   1      45.634  27.622  27.311  1.00  0.00     0.031 C 
ATOM     43  C   UNL A   1      40.666  27.845  27.991  1.00  0.00     0.029 A 
ATOM     44  N   UNL A   1      41.888  29.528  28.815  1.00  0.00    -0.354 N 
ATOM     45  C   UNL A   1      46.193  29.581  28.359  1.00  0.00     0.074 A 
ATOM     46  C   UNL A   1      46.649  28.397  27.662  1.00  0.00     0.031 C 
ATOM     47  C   UNL A   1      39.820  28.719  28.565  1.00  0.00     0.029 A 
ATOM     48  C   UNL A   1      40.587  29.816  29.152  1.00  0.00     0.049 A 
ATOM     49  H   UNL A   1      42.645  30.118  29.035  1.00  0.00     0.167 HD
ATOM     50  C   UNL A   1      47.003  30.584  28.779  1.00  0.00     0.034 A 
ATOM     51  C   UNL A   1      40.075  30.836  29.871  1.00  0.00     0.034 A 
ATOM     52  C   UNL A   1      46.537  31.752  29.486  1.00  0.00     0.049 A 
ATOM     53  C   UNL A   1      41.006  31.898  30.405  1.00  0.00     0.074 A 
ATOM     54  C   UNL A   1      47.270  32.833  29.946  1.00  0.00     0.029 A 
ATOM     55  N   UNL A   1      45.218  31.987  29.850  1.00  0.00    -0.354 N 
ATOM     56  N   UNL A   1      42.309  31.997  30.274  1.00  0.00    -0.248 NA
ATOM     57  C   UNL A   1      40.396  32.988  31.179  1.00  0.00     0.031 C 
ATOM     58  C   UNL A   1      46.407  33.687  30.642  1.00  0.00     0.029 A 
ATOM     59  C   UNL A   1      45.121  33.176  30.557  1.00  0.00     0.049 A 
ATOM     60  H   UNL A   1      44.460  31.395  29.637  1.00  0.00     0.167 HD
ATOM     61  C   UNL A   1      42.667  33.177  30.924  1.00  0.00     0.074 A 
ATOM     62  C   UNL A   1      41.443  33.756  31.437  1.00  0.00     0.031 C 
ATOM     63  C   UNL A   1      43.896  33.735  31.076  1.00  0.00     0.034 A 
BRANCH  50  64
ATOM     64  C   UNL A   1      48.483  30.426  28.527  1.00  0.00     0.023 A 
ATOM     65  C   UNL A   1      49.300  29.665  29.382  1.00  0.00     0.031 A 
ATOM     66  C   UNL A   1      49.089  31.075  27.438  1.00  0.00     0.131 A 
ATOM     67  C   UNL A   1      50.687  29.629  29.173  1.00  0.00     0.055 A 
ATOM     68  C   UNL A   1      50.460  30.974  27.192  1.00  0.00     0.041 A 
ATOM     69  F   UNL A   1      48.362  31.833  26.603  1.00  0.00    -0.206 F 
ATOM     70  C   UNL A   1      51.270  30.260  28.071  1.00  0.00     0.022 A 
BRANCH  67  71
ATOM     71  S   UNL A   1      51.736  28.864  30.440  1.00  0.00     0.124 S 
ATOM     72  O   UNL A   1      52.049  30.008  31.293  1.00  0.00    -0.237 OA
ATOM     73  O   UNL A   1      50.851  27.859  31.016  1.00  0.00    -0.237 OA
ATOM     74  O   UNL A   1      52.866  28.338  29.677  1.00  0.00    -0.744 OA
ENDBRANCH  67  71
ENDBRANCH  50  64
BRANCH  51  75
ATOM     75  C   UNL A   1      38.617  30.888  30.175  1.00  0.00     0.023 A 
ATOM     76  C   UNL A   1      37.748  31.703  29.434  1.00  0.00     0.031 A 
ATOM     77  C   UNL A   1      38.083  30.160  31.253  1.00  0.00     0.131 A 
ATOM     78  C   UNL A   1      36.397  31.803  29.807  1.00  0.00     0.055 A 
ATOM     79  C   UNL A   1      36.730  30.227  31.591  1.00  0.00     0.041 A 
ATOM     80  F   UNL A   1      38.873  29.366  31.993  1.00  0.00    -0.206 F 
ATOM     81  C   UNL A   1      35.881  31.063  30.873  1.00  0.00     0.022 A 
BRANCH  78  82
ATOM     82  S   UNL A   1      35.336  32.980  28.923  1.00  0.00     0.124 S 
ATOM     83  O   UNL A   1      36.108  34.213  29.029  1.00  0.00    -0.237 OA
ATOM     84  O   UNL A   1      35.263  32.380  27.594  1.00  0.00    -0.237 OA
ATOM     85  O   UNL A   1      34.091  32.954  29.687  1.00  0.00    -0.744 OA
ENDBRANCH  78  82
ENDBRANCH  51  75
BRANCH  63  86
ATOM     86  C   UNL A   1      43.962  35.061  31.793  1.00  0.00     0.023 A 
ATOM     87  C   UNL A   1      44.129  35.143  33.186  1.00  0.00     0.031 A 
ATOM     88  C   UNL A   1      43.847  36.261  31.067  1.00  0.00     0.131 A 
ATOM     89  C   UNL A   1      44.126  36.397  33.817  1.00  0.00     0.055 A 
ATOM     90  C   UNL A   1      43.899  37.507  31.694  1.00  0.00     0.041 A 
ATOM     91  F   UNL A   1      43.686  36.241  29.734  1.00  0.00    -0.206 F 
ATOM     92  C   UNL A   1      44.026  37.579  33.078  1.00  0.00     0.022 A 
BRANCH  89  93
ATOM     93  S   UNL A   1      44.173  36.462  35.629  1.00  0.00     0.124 S 
ATOM     94  O   UNL A   1      43.451  37.700  35.908  1.00  0.00    -0.237 OA
ATOM     95  O   UNL A   1      43.489  35.228  36.004  1.00  0.00    -0.237 OA
ATOM     96  O   UNL A   1      45.601  36.495  35.935  1.00  0.00    -0.744 OA
ENDBRANCH  89  93
ENDBRANCH  63  86
ENDBRANCH  37  38
ENDBRANCH  30  32
ENDBRANCH  29  30
ENDBRANCH  28  29
ENDBRANCH   1  28
TORSDOF 20
ENDMDL
MODEL 2
REMARK VINA RESULT:      -9.9      4.655      7.584
REMARK SMILES CS(=O)(=O)c1ccc(N2N=C(C(=O)OCCOCCOC(=O)c3ccc(-c4c5nc(c(-c6cc(S(=O)(=O)[O-])ccc6F)c6ccc([nH]6)c(-c6cc(S(=O)(=O)[O-])ccc6F)c6nc(c(-c7cc(S(=O)(=O)[O-])ccc7F)c7ccc4[nH]7)C=C6)C=C5)cc3)C[C@H]2c2cccs2)cc1
REMARK SMILES IDX 18 1 17 2 16 3 15 4 14 5 12 6 13 7 11 8 9 9 10 10 87 11
REMARK SMILES IDX 86 12 8 13 5 14 6 15 94 16 7 17 93 18 2 19 1 20 3 21 4 22
REMARK SMILES IDX 88 23 89 24 92 25 90 26 91 27 19 28 20 29 21 30 22 31 23 32
REMARK SMILES IDX 24 33 85 34 25 35 84 36 26 37 27 38 28 39 78 40 29 41 83 42
REMARK SMILES IDX 77 43 79 44 30 45 82 46 76 47 75 48 31 50 63 51 43 52 62 53
REMARK SMILES IDX 44 54 47 55 61 56 80 57 45 58 46 59 60 61 81 62 48 63 32 64
REMARK SMILES IDX 33 65 41 66 34 67 40 68 42 69 39 70 35 71 36 72 37 73 38 74
REMARK SMILES IDX 64 75 65 76 73 77 66 78 72 79 74 80 71 81 67 82 68 83 69 84
REMARK SMILES IDX 70 85 49 86 50 87 58 88 51 89 57 90 59 91 56 92 52 93 53 94
REMARK SMILES IDX 54 95 55 96
REMARK H PARENT 79 49 47 60
REMARK Flexibility Score: inf
ROOT
ATOM      1  C   UNL A   1      45.908  22.617  25.488  1.00  0.00     0.202 C 
ENDROOT
BRANCH   1   2
ATOM      2  O   UNL A   1      46.403  21.283  25.347  1.00  0.00    -0.374 OA
BRANCH   2   3
ATOM      3  C   UNL A   1      45.744  20.445  24.394  1.00  0.00     0.202 C 
BRANCH   3   4
ATOM      4  C   UNL A   1      44.819  19.395  25.013  1.00  0.00     0.261 C 
BRANCH   4   5
ATOM      5  O   UNL A   1      43.487  19.924  25.079  1.00  0.00    -0.459 OA
BRANCH   5   6
ATOM      6  C   UNL A   1      42.575  19.102  25.627  1.00  0.00     0.354 C 
ATOM      7  O   UNL A   1      42.627  17.892  25.750  1.00  0.00    -0.245 OA
BRANCH   6   8
ATOM      8  C   UNL A   1      41.471  19.932  26.224  1.00  0.00     0.148 C 
ATOM      9  N   UNL A   1      39.667  21.018  26.415  1.00  0.00    -0.256 N 
ATOM     10  N   UNL A   1      40.387  20.221  25.572  1.00  0.00    -0.169 NA
ATOM     11  C   UNL A   1      40.504  21.552  27.506  1.00  0.00     0.154 C 
ATOM     12  C   UNL A   1      41.526  20.412  27.643  1.00  0.00     0.099 C 
BRANCH   9  13
ATOM     13  C   UNL A   1      38.536  21.639  25.909  1.00  0.00     0.060 A 
ATOM     14  C   UNL A   1      36.318  22.880  24.711  1.00  0.00     0.067 A 
ATOM     15  C   UNL A   1      36.452  21.490  24.656  1.00  0.00     0.022 A 
ATOM     16  C   UNL A   1      37.276  23.655  25.363  1.00  0.00     0.022 A 
ATOM     17  C   UNL A   1      37.558  20.879  25.253  1.00  0.00     0.029 A 
ATOM     18  C   UNL A   1      38.380  23.030  25.949  1.00  0.00     0.029 A 
BRANCH  14  19
ATOM     19  S   UNL A   1      34.908  23.624  23.929  1.00  0.00     0.175 S 
ATOM     20  C   UNL A   1      33.508  22.634  24.374  1.00  0.00     0.163 C 
ATOM     21  O   UNL A   1      35.087  23.470  22.496  1.00  0.00    -0.224 OA
ATOM     22  O   UNL A   1      34.734  24.935  24.523  1.00  0.00    -0.224 OA
ENDBRANCH  14  19
ENDBRANCH   9  13
BRANCH  11  23
ATOM     23  C   UNL A   1      41.139  22.919  27.257  1.00  0.00     0.030 A 
ATOM     24  C   UNL A   1      40.871  24.097  27.937  1.00  0.00     0.017 A 
ATOM     25  S   UNL A   1      42.291  23.196  26.008  1.00  0.00    -0.147 S 
ATOM     26  C   UNL A   1      41.618  25.205  27.440  1.00  0.00     0.012 A 
ATOM     27  C   UNL A   1      42.450  24.845  26.407  1.00  0.00     0.065 A 
ENDBRANCH  11  23
ENDBRANCH   6   8
ENDBRANCH   5   6
ENDBRANCH   4   5
ENDBRANCH   3   4
ENDBRANCH   2   3
ENDBRANCH   1   2
BRANCH   1  28
ATOM     28  C   UNL A   1      46.691  23.697  24.733  1.00  0.00     0.261 C 
BRANCH  28  29
ATOM     29  O   UNL A   1      45.948  24.928  24.640  1.00  0.00    -0.460 OA
BRANCH  29  30
ATOM     30  C   UNL A   1      46.693  26.053  24.797  1.00  0.00     0.338 C 
ATOM     31  O   UNL A   1      47.633  26.407  24.106  1.00  0.00    -0.246 OA
BRANCH  30  32
ATOM     32  C   UNL A   1      46.095  26.919  25.835  1.00  0.00     0.060 A 
ATOM     33  C   UNL A   1      46.925  27.325  26.888  1.00  0.00     0.016 A 
ATOM     34  C   UNL A   1      44.746  27.282  25.818  1.00  0.00     0.016 A 
ATOM     35  C   UNL A   1      46.398  28.057  27.952  1.00  0.00     0.010 A 
ATOM     36  C   UNL A   1      44.217  28.010  26.892  1.00  0.00     0.010 A 
ATOM     37  C   UNL A   1      45.034  28.374  27.978  1.00  0.00    -0.014 A 
BRANCH  37  38
ATOM     38  C   UNL A   1      44.441  28.954  29.210  1.00  0.00     0.031 A 
ATOM     39  C   UNL A   1      44.071  30.412  29.223  1.00  0.00     0.074 A 
ATOM     40  C   UNL A   1      44.206  28.187  30.290  1.00  0.00     0.049 A 
ATOM     41  N   UNL A   1      43.568  31.134  30.190  1.00  0.00    -0.248 NA
ATOM     42  C   UNL A   1      44.305  31.154  27.975  1.00  0.00     0.031 C 
ATOM     43  C   UNL A   1      44.481  26.754  30.383  1.00  0.00     0.029 A 
ATOM     44  N   UNL A   1      43.685  28.510  31.518  1.00  0.00    -0.354 N 
ATOM     45  C   UNL A   1      43.421  32.417  29.671  1.00  0.00     0.074 A 
ATOM     46  C   UNL A   1      43.928  32.378  28.314  1.00  0.00     0.031 C 
ATOM     47  C   UNL A   1      44.137  26.323  31.609  1.00  0.00     0.029 A 
ATOM     48  C   UNL A   1      43.649  27.454  32.397  1.00  0.00     0.049 A 
ATOM     49  H   UNL A   1      43.368  29.413  31.747  1.00  0.00     0.167 HD
ATOM     50  C   UNL A   1      42.904  33.520  30.265  1.00  0.00     0.034 A 
ATOM     51  C   UNL A   1      43.285  27.409  33.695  1.00  0.00     0.034 A 
ATOM     52  C   UNL A   1      42.417  33.549  31.622  1.00  0.00     0.049 A 
ATOM     53  C   UNL A   1      42.794  28.670  34.364  1.00  0.00     0.074 A 
ATOM     54  C   UNL A   1      41.863  34.610  32.319  1.00  0.00     0.029 A 
ATOM     55  N   UNL A   1      42.439  32.472  32.498  1.00  0.00    -0.354 N 
ATOM     56  N   UNL A   1      42.653  29.874  33.858  1.00  0.00    -0.248 NA
ATOM     57  C   UNL A   1      42.408  28.564  35.778  1.00  0.00     0.031 C 
ATOM     58  C   UNL A   1      41.610  34.192  33.631  1.00  0.00     0.029 A 
ATOM     59  C   UNL A   1      41.940  32.850  33.735  1.00  0.00     0.049 A 
ATOM     60  H   UNL A   1      42.762  31.569  32.273  1.00  0.00     0.167 HD
ATOM     61  C   UNL A   1      42.133  30.659  34.885  1.00  0.00     0.074 A 
ATOM     62  C   UNL A   1      41.978  29.791  36.033  1.00  0.00     0.031 C 
ATOM     63  C   UNL A   1      41.805  31.977  34.877  1.00  0.00     0.034 A 
BRANCH  50  64
ATOM     64  C   UNL A   1      42.894  34.796  29.459  1.00  0.00     0.023 A 
ATOM     65  C   UNL A   1      44.054  35.572  29.289  1.00  0.00     0.031 A 
ATOM     66  C   UNL A   1      41.699  35.260  28.883  1.00  0.00     0.131 A 
ATOM     67  C   UNL A   1      43.978  36.805  28.622  1.00  0.00     0.055 A 
ATOM     68  C   UNL A   1      41.646  36.452  28.156  1.00  0.00     0.041 A 
ATOM     69  F   UNL A   1      40.556  34.572  29.032  1.00  0.00    -0.206 F 
ATOM     70  C   UNL A   1      42.788  37.239  28.035  1.00  0.00     0.022 A 
BRANCH  67  71
ATOM     71  S   UNL A   1      45.426  37.898  28.654  1.00  0.00     0.124 S 
ATOM     72  O   UNL A   1      46.516  36.949  28.445  1.00  0.00    -0.237 OA
ATOM     73  O   UNL A   1      45.154  38.814  27.552  1.00  0.00    -0.237 OA
ATOM     74  O   UNL A   1      45.376  38.493  29.988  1.00  0.00    -0.744 OA
ENDBRANCH  67  71
ENDBRANCH  50  64
BRANCH  51  75
ATOM     75  C   UNL A   1      43.411  26.143  34.471  1.00  0.00     0.023 A 
ATOM     76  C   UNL A   1      44.666  25.585  34.755  1.00  0.00     0.031 A 
ATOM     77  C   UNL A   1      42.266  25.443  34.891  1.00  0.00     0.131 A 
ATOM     78  C   UNL A   1      44.747  24.342  35.403  1.00  0.00     0.055 A 
ATOM     79  C   UNL A   1      42.352  24.231  35.576  1.00  0.00     0.041 A 
ATOM     80  F   UNL A   1      41.041  25.935  34.643  1.00  0.00    -0.206 F 
ATOM     81  C   UNL A   1      43.599  23.666  35.825  1.00  0.00     0.022 A 
BRANCH  78  82
ATOM     82  S   UNL A   1      46.378  23.578  35.619  1.00  0.00     0.124 S 
ATOM     83  O   UNL A   1      47.269  24.672  35.253  1.00  0.00    -0.237 OA
ATOM     84  O   UNL A   1      46.355  23.214  37.033  1.00  0.00    -0.237 OA
ATOM     85  O   UNL A   1      46.353  22.453  34.687  1.00  0.00    -0.744 OA
ENDBRANCH  78  82
ENDBRANCH  51  75
BRANCH  63  86
ATOM     86  C   UNL A   1      41.208  32.542  36.142  1.00  0.00     0.023 A 
ATOM     87  C   UNL A   1      39.887  32.254  36.531  1.00  0.00     0.031 A 
ATOM     88  C   UNL A   1      41.972  33.388  36.967  1.00  0.00     0.131 A 
ATOM     89  C   UNL A   1      39.354  32.849  37.685  1.00  0.00     0.055 A 
ATOM     90  C   UNL A   1      41.453  33.934  38.141  1.00  0.00     0.041 A 
ATOM     91  F   UNL A   1      43.238  33.696  36.642  1.00  0.00    -0.206 F 
ATOM     92  C   UNL A   1      40.133  33.675  38.500  1.00  0.00     0.022 A 
BRANCH  89  93
ATOM     93  S   UNL A   1      37.599  32.593  38.066  1.00  0.00     0.124 S 
ATOM     94  O   UNL A   1      37.495  31.137  38.055  1.00  0.00    -0.237 OA
ATOM     95  O   UNL A   1      37.467  33.230  39.372  1.00  0.00    -0.237 OA
ATOM     96  O   UNL A   1      36.907  33.272  36.973  1.00  0.00    -0.744 OA
ENDBRANCH  89  93
ENDBRANCH  63  86
ENDBRANCH  37  38
ENDBRANCH  30  32
ENDBRANCH  29  30
ENDBRANCH  28  29
ENDBRANCH   1  28
TORSDOF 20
ENDMDL
MODEL 3
REMARK VINA RESULT:      -9.5      2.842      3.593
REMARK SMILES CS(=O)(=O)c1ccc(N2N=C(C(=O)OCCOCCOC(=O)c3ccc(-c4c5nc(c(-c6cc(S(=O)(=O)[O-])ccc6F)c6ccc([nH]6)c(-c6cc(S(=O)(=O)[O-])ccc6F)c6nc(c(-c7cc(S(=O)(=O)[O-])ccc7F)c7ccc4[nH]7)C=C6)C=C5)cc3)C[C@H]2c2cccs2)cc1
REMARK SMILES IDX 18 1 17 2 16 3 15 4 14 5 12 6 13 7 11 8 9 9 10 10 87 11
REMARK SMILES IDX 86 12 8 13 5 14 6 15 94 16 7 17 93 18 2 19 1 20 3 21 4 22
REMARK SMILES IDX 88 23 89 24 92 25 90 26 91 27 19 28 20 29 21 30 22 31 23 32
REMARK SMILES IDX 24 33 85 34 25 35 84 36 26 37 27 38 28 39 78 40 29 41 83 42
REMARK SMILES IDX 77 43 79 44 30 45 82 46 76 47 75 48 31 50 63 51 43 52 62 53
REMARK SMILES IDX 44 54 47 55 61 56 80 57 45 58 46 59 60 61 81 62 48 63 32 64
REMARK SMILES IDX 33 65 41 66 34 67 40 68 42 69 39 70 35 71 36 72 37 73 38 74
REMARK SMILES IDX 64 75 65 76 73 77 66 78 72 79 74 80 71 81 67 82 68 83 69 84
REMARK SMILES IDX 70 85 49 86 50 87 58 88 51 89 57 90 59 91 56 92 52 93 53 94
REMARK SMILES IDX 54 95 55 96
REMARK H PARENT 79 49 47 60
REMARK Flexibility Score: inf
ROOT
ATOM      1  C   UNL A   1      42.732  22.298  25.819  1.00  0.00     0.202 C 
ENDROOT
BRANCH   1   2
ATOM      2  O   UNL A   1      41.748  21.363  25.369  1.00  0.00    -0.374 OA
BRANCH   2   3
ATOM      3  C   UNL A   1      40.899  20.785  26.364  1.00  0.00     0.202 C 
BRANCH   3   4
ATOM      4  C   UNL A   1      39.942  21.777  27.027  1.00  0.00     0.261 C 
BRANCH   4   5
ATOM      5  O   UNL A   1      38.907  22.123  26.095  1.00  0.00    -0.459 OA
BRANCH   5   6
ATOM      6  C   UNL A   1      38.298  23.298  26.332  1.00  0.00     0.354 C 
ATOM      7  O   UNL A   1      38.621  24.170  27.118  1.00  0.00    -0.245 OA
BRANCH   6   8
ATOM      8  C   UNL A   1      37.170  23.466  25.350  1.00  0.00     0.148 C 
ATOM      9  N   UNL A   1      35.445  24.238  24.401  1.00  0.00    -0.256 N 
ATOM     10  N   UNL A   1      36.337  24.460  25.410  1.00  0.00    -0.169 NA
ATOM     11  C   UNL A   1      35.509  22.846  23.917  1.00  0.00     0.154 C 
ATOM     12  C   UNL A   1      36.987  22.533  24.193  1.00  0.00     0.099 C 
BRANCH   9  13
ATOM     13  C   UNL A   1      34.321  25.046  24.342  1.00  0.00     0.060 A 
ATOM     14  C   UNL A   1      32.149  26.819  24.148  1.00  0.00     0.067 A 
ATOM     15  C   UNL A   1      32.601  26.144  23.010  1.00  0.00     0.022 A 
ATOM     16  C   UNL A   1      32.766  26.612  25.381  1.00  0.00     0.022 A 
ATOM     17  C   UNL A   1      33.683  25.265  23.113  1.00  0.00     0.029 A 
ATOM     18  C   UNL A   1      33.851  25.735  25.467  1.00  0.00     0.029 A 
BRANCH  14  19
ATOM     19  S   UNL A   1      30.783  27.940  23.977  1.00  0.00     0.175 S 
ATOM     20  C   UNL A   1      30.882  28.604  22.338  1.00  0.00     0.163 C 
ATOM     21  O   UNL A   1      31.025  29.045  24.888  1.00  0.00    -0.224 OA
ATOM     22  O   UNL A   1      29.571  27.150  24.066  1.00  0.00    -0.224 OA
ENDBRANCH  14  19
ENDBRANCH   9  13
BRANCH  11  23
ATOM     23  C   UNL A   1      34.539  21.863  24.571  1.00  0.00     0.030 A 
ATOM     24  C   UNL A   1      34.796  21.038  25.655  1.00  0.00     0.017 A 
ATOM     25  S   UNL A   1      32.940  21.607  23.988  1.00  0.00    -0.147 S 
ATOM     26  C   UNL A   1      33.683  20.220  26.004  1.00  0.00     0.012 A 
ATOM     27  C   UNL A   1      32.598  20.451  25.192  1.00  0.00     0.065 A 
ENDBRANCH  11  23
ENDBRANCH   6   8
ENDBRANCH   5   6
ENDBRANCH   4   5
ENDBRANCH   3   4
ENDBRANCH   2   3
ENDBRANCH   1   2
BRANCH   1  28
ATOM     28  C   UNL A   1      43.057  23.437  24.846  1.00  0.00     0.261 C 
BRANCH  28  29
ATOM     29  O   UNL A   1      42.880  24.728  25.460  1.00  0.00    -0.460 OA
BRANCH  29  30
ATOM     30  C   UNL A   1      43.969  25.538  25.400  1.00  0.00     0.338 C 
ATOM     31  O   UNL A   1      44.907  25.443  24.627  1.00  0.00    -0.246 OA
BRANCH  30  32
ATOM     32  C   UNL A   1      43.791  26.698  26.299  1.00  0.00     0.060 A 
ATOM     33  C   UNL A   1      43.028  27.770  25.820  1.00  0.00     0.016 A 
ATOM     34  C   UNL A   1      44.399  26.769  27.555  1.00  0.00     0.016 A 
ATOM     35  C   UNL A   1      42.906  28.936  26.576  1.00  0.00     0.010 A 
ATOM     36  C   UNL A   1      44.282  27.944  28.308  1.00  0.00     0.010 A 
ATOM     37  C   UNL A   1      43.562  29.044  27.809  1.00  0.00    -0.014 A 
BRANCH  37  38
ATOM     38  C   UNL A   1      43.611  30.358  28.498  1.00  0.00     0.031 A 
ATOM     39  C   UNL A   1      44.674  31.348  28.106  1.00  0.00     0.074 A 
ATOM     40  C   UNL A   1      42.702  30.679  29.437  1.00  0.00     0.049 A 
ATOM     41  N   UNL A   1      44.921  32.538  28.588  1.00  0.00    -0.248 NA
ATOM     42  C   UNL A   1      45.581  30.933  27.025  1.00  0.00     0.031 C 
ATOM     43  C   UNL A   1      41.600  29.822  29.871  1.00  0.00     0.029 A 
ATOM     44  N   UNL A   1      42.566  31.813  30.198  1.00  0.00    -0.354 N 
ATOM     45  C   UNL A   1      46.012  33.019  27.871  1.00  0.00     0.074 A 
ATOM     46  C   UNL A   1      46.399  31.972  26.948  1.00  0.00     0.031 C 
ATOM     47  C   UNL A   1      40.907  30.458  30.833  1.00  0.00     0.029 A 
ATOM     48  C   UNL A   1      41.534  31.750  31.104  1.00  0.00     0.049 A 
ATOM     49  H   UNL A   1      43.154  32.598  30.104  1.00  0.00     0.167 HD
ATOM     50  C   UNL A   1      46.626  34.224  27.965  1.00  0.00     0.034 A 
ATOM     51  C   UNL A   1      41.153  32.625  32.057  1.00  0.00     0.034 A 
ATOM     52  C   UNL A   1      46.239  35.253  28.899  1.00  0.00     0.049 A 
ATOM     53  C   UNL A   1      41.906  33.925  32.204  1.00  0.00     0.074 A 
ATOM     54  C   UNL A   1      46.785  36.515  29.070  1.00  0.00     0.029 A 
ATOM     55  N   UNL A   1      45.218  35.136  29.833  1.00  0.00    -0.354 N 
ATOM     56  N   UNL A   1      42.930  34.371  31.512  1.00  0.00    -0.248 NA
ATOM     57  C   UNL A   1      41.447  34.843  33.256  1.00  0.00     0.031 C 
ATOM     58  C   UNL A   1      46.138  37.132  30.147  1.00  0.00     0.029 A 
ATOM     59  C   UNL A   1      45.140  36.286  30.604  1.00  0.00     0.049 A 
ATOM     60  H   UNL A   1      44.633  34.350  29.934  1.00  0.00     0.167 HD
ATOM     61  C   UNL A   1      43.216  35.633  32.028  1.00  0.00     0.074 A 
ATOM     62  C   UNL A   1      42.252  35.880  33.081  1.00  0.00     0.031 C 
ATOM     63  C   UNL A   1      44.183  36.513  31.660  1.00  0.00     0.034 A 
BRANCH  50  64
ATOM     64  C   UNL A   1      47.814  34.465  27.065  1.00  0.00     0.023 A 
ATOM     65  C   UNL A   1      49.119  34.119  27.458  1.00  0.00     0.031 A 
ATOM     66  C   UNL A   1      47.642  35.082  25.814  1.00  0.00     0.131 A 
ATOM     67  C   UNL A   1      50.207  34.455  26.638  1.00  0.00     0.055 A 
ATOM     68  C   UNL A   1      48.722  35.346  24.970  1.00  0.00     0.041 A 
ATOM     69  F   UNL A   1      46.422  35.455  25.398  1.00  0.00    -0.206 F 
ATOM     70  C   UNL A   1      50.016  35.046  25.387  1.00  0.00     0.022 A 
BRANCH  67  71
ATOM     71  S   UNL A   1      51.885  34.237  27.292  1.00  0.00     0.124 S 
ATOM     72  O   UNL A   1      52.256  32.943  26.725  1.00  0.00    -0.237 OA
ATOM     73  O   UNL A   1      52.587  35.397  26.753  1.00  0.00    -0.237 OA
ATOM     74  O   UNL A   1      51.692  34.241  28.740  1.00  0.00    -0.744 OA
ENDBRANCH  67  71
ENDBRANCH  50  64
BRANCH  51  75
ATOM     75  C   UNL A   1      40.035  32.291  32.984  1.00  0.00     0.023 A 
ATOM     76  C   UNL A   1      38.727  32.735  32.737  1.00  0.00     0.031 A 
ATOM     77  C   UNL A   1      40.276  31.565  34.164  1.00  0.00     0.131 A 
ATOM     78  C   UNL A   1      37.716  32.486  33.679  1.00  0.00     0.055 A 
ATOM     79  C   UNL A   1      39.257  31.279  35.075  1.00  0.00     0.041 A 
ATOM     80  F   UNL A   1      41.509  31.117  34.446  1.00  0.00    -0.206 F 
ATOM     81  C   UNL A   1      37.969  31.751  34.840  1.00  0.00     0.022 A 
BRANCH  78  82
ATOM     82  S   UNL A   1      36.073  33.204  33.402  1.00  0.00     0.124 S 
ATOM     83  O   UNL A   1      36.406  34.459  32.738  1.00  0.00    -0.237 OA
ATOM     84  O   UNL A   1      35.436  32.187  32.571  1.00  0.00    -0.237 OA
ATOM     85  O   UNL A   1      35.528  33.335  34.751  1.00  0.00    -0.744 OA
ENDBRANCH  78  82
ENDBRANCH  51  75
BRANCH  63  86
ATOM     86  C   UNL A   1      44.212  37.839  32.378  1.00  0.00     0.023 A 
ATOM     87  C   UNL A   1      43.441  38.933  31.946  1.00  0.00     0.031 A 
ATOM     88  C   UNL A   1      45.031  38.012  33.510  1.00  0.00     0.131 A 
ATOM     89  C   UNL A   1      43.544  40.165  32.610  1.00  0.00     0.055 A 
ATOM     90  C   UNL A   1      45.088  39.224  34.197  1.00  0.00     0.041 A 
ATOM     91  F   UNL A   1      45.787  37.000  33.965  1.00  0.00    -0.206 F 
ATOM     92  C   UNL A   1      44.351  40.313  33.742  1.00  0.00     0.022 A 
BRANCH  89  93
ATOM     93  S   UNL A   1      42.668  41.600  31.928  1.00  0.00     0.124 S 
ATOM     94  O   UNL A   1      42.314  42.342  33.134  1.00  0.00    -0.237 OA
ATOM     95  O   UNL A   1      43.685  42.212  31.078  1.00  0.00    -0.237 OA
ATOM     96  O   UNL A   1      41.540  41.006  31.213  1.00  0.00    -0.744 OA
ENDBRANCH  89  93
ENDBRANCH  63  86
ENDBRANCH  37  38
ENDBRANCH  30  32
ENDBRANCH  29  30
ENDBRANCH  28  29
ENDBRANCH   1  28
TORSDOF 20
ENDMDL
