MODEL 1
REMARK VINA RESULT:     -11.2      0.000      0.000
REMARK SMILES CC(=O)N[C@@H](CCc1nc2ccccc2[nH]1)C(=O)OCCOCCOC(=O)c1ccc(-c2c3nc(c(-c4cc(S(=O)(=O)[O-])ccc4F)c4ccc([nH]4)c(-c4cc(S(=O)(=O)[O-])ccc4F)c4nc(c(-c5cc(S(=O)(=O)[O-])ccc5F)c5ccc2[nH]5)C=C4)C=C3)cc1
REMARK SMILES IDX 22 1 21 2 20 3 19 4 17 5 18 6 5 7 4 8 1 9 2 10 3 11 6 13
REMARK SMILES IDX 7 14 8 15 9 16 16 17 10 18 15 19 11 21 14 22 12 23 13 24
REMARK SMILES IDX 23 25 24 26 25 27 26 28 27 29 28 30 29 31 90 32 30 33 89 34
REMARK SMILES IDX 31 35 32 36 33 37 83 38 34 39 88 40 82 41 84 42 35 43 87 44
REMARK SMILES IDX 81 45 80 46 36 48 68 49 48 50 67 51 49 52 52 53 66 54 85 55
REMARK SMILES IDX 50 56 51 57 65 59 86 60 53 61 37 62 38 63 46 64 39 65 45 66
REMARK SMILES IDX 47 67 44 68 40 69 41 70 42 71 43 72 69 73 70 74 78 75 71 76
REMARK SMILES IDX 77 77 79 78 76 79 72 80 73 81 74 82 75 83 54 84 55 85 63 86
REMARK SMILES IDX 56 87 62 88 64 89 61 90 57 91 58 92 59 93 60 94
REMARK H PARENT 4 12 16 20 84 47 52 58
REMARK Flexibility Score: inf
ROOT
ATOM      1  O   UNL A   1      35.329  22.631  24.389  1.00  0.00    -0.374 OA
ENDROOT
BRANCH   1   2
ATOM      2  C   UNL A   1      35.322  23.531  25.492  1.00  0.00     0.202 C 
BRANCH   2   3
ATOM      3  C   UNL A   1      34.149  23.409  26.467  1.00  0.00     0.261 C 
BRANCH   3   4
ATOM      4  O   UNL A   1      33.274  24.549  26.447  1.00  0.00    -0.462 OA
BRANCH   4   5
ATOM      5  C   UNL A   1      31.937  24.265  26.433  1.00  0.00     0.328 C 
ATOM      6  O   UNL A   1      31.315  23.712  27.335  1.00  0.00    -0.250 OA
BRANCH   5   7
ATOM      7  C   UNL A   1      31.258  24.720  25.126  1.00  0.00     0.192 C 
BRANCH   7   8
ATOM      8  N   UNL A   1      31.986  25.758  24.383  1.00  0.00    -0.343 N 
ATOM      9  C   UNL A   1      29.995  27.105  23.814  1.00  0.00     0.114 C 
ATOM     10  C   UNL A   1      31.484  26.881  23.795  1.00  0.00     0.217 C 
ATOM     11  O   UNL A   1      32.249  27.693  23.282  1.00  0.00    -0.275 OA
ATOM     12  H   UNL A   1      32.958  25.626  24.298  1.00  0.00     0.164 HD
ENDBRANCH   7   8
BRANCH   7  13
ATOM     13  C   UNL A   1      30.867  23.550  24.207  1.00  0.00     0.045 C 
BRANCH  13  14
ATOM     14  C   UNL A   1      32.008  22.883  23.423  1.00  0.00     0.078 C 
BRANCH  14  15
ATOM     15  C   UNL A   1      32.121  21.427  23.705  1.00  0.00     0.107 A 
ATOM     16  N   UNL A   1      32.270  20.879  24.892  1.00  0.00    -0.233 NA
ATOM     17  N   UNL A   1      32.143  20.473  22.717  1.00  0.00    -0.342 N 
ATOM     18  C   UNL A   1      32.511  19.548  24.659  1.00  0.00     0.089 A 
ATOM     19  C   UNL A   1      32.456  19.271  23.300  1.00  0.00     0.065 A 
ATOM     20  H   UNL A   1      31.963  20.624  21.761  1.00  0.00     0.168 HD
ATOM     21  C   UNL A   1      32.841  18.523  25.556  1.00  0.00     0.030 A 
ATOM     22  C   UNL A   1      32.721  18.009  22.770  1.00  0.00     0.028 A 
ATOM     23  C   UNL A   1      33.118  17.247  25.047  1.00  0.00     0.002 A 
ATOM     24  C   UNL A   1      33.056  16.998  23.675  1.00  0.00     0.002 A 
ENDBRANCH  14  15
ENDBRANCH  13  14
ENDBRANCH   7  13
ENDBRANCH   5   7
ENDBRANCH   4   5
ENDBRANCH   3   4
ENDBRANCH   2   3
ENDBRANCH   1   2
BRANCH   1  25
ATOM     25  C   UNL A   1      35.875  21.330  24.609  1.00  0.00     0.202 C 
BRANCH  25  26
ATOM     26  C   UNL A   1      37.009  21.198  25.635  1.00  0.00     0.261 C 
BRANCH  26  27
ATOM     27  O   UNL A   1      38.275  21.725  25.183  1.00  0.00    -0.460 OA
BRANCH  27  28
ATOM     28  C   UNL A   1      39.314  21.473  26.018  1.00  0.00     0.338 C 
ATOM     29  O   UNL A   1      39.982  20.444  26.061  1.00  0.00    -0.246 OA
BRANCH  28  30
ATOM     30  C   UNL A   1      39.665  22.643  26.842  1.00  0.00     0.060 A 
ATOM     31  C   UNL A   1      38.947  23.826  26.633  1.00  0.00     0.016 A 
ATOM     32  C   UNL A   1      40.816  22.649  27.637  1.00  0.00     0.016 A 
ATOM     33  C   UNL A   1      39.416  25.032  27.157  1.00  0.00     0.010 A 
ATOM     34  C   UNL A   1      41.285  23.863  28.162  1.00  0.00     0.010 A 
ATOM     35  C   UNL A   1      40.616  25.068  27.884  1.00  0.00    -0.014 A 
BRANCH  35  36
ATOM     36  C   UNL A   1      41.227  26.388  28.207  1.00  0.00     0.031 A 
ATOM     37  C   UNL A   1      42.626  26.692  27.739  1.00  0.00     0.074 A 
ATOM     38  C   UNL A   1      40.523  27.335  28.854  1.00  0.00     0.049 A 
ATOM     39  N   UNL A   1      43.327  27.788  27.878  1.00  0.00    -0.248 NA
ATOM     40  C   UNL A   1      43.328  25.612  27.030  1.00  0.00     0.031 C 
ATOM     41  C   UNL A   1      39.164  27.165  29.351  1.00  0.00     0.029 A 
ATOM     42  N   UNL A   1      40.843  28.625  29.194  1.00  0.00    -0.354 N 
ATOM     43  C   UNL A   1      44.555  27.534  27.278  1.00  0.00     0.074 A 
ATOM     44  C   UNL A   1      44.512  26.165  26.806  1.00  0.00     0.031 C 
ATOM     45  C   UNL A   1      38.746  28.316  29.903  1.00  0.00     0.029 A 
ATOM     46  C   UNL A   1      39.830  29.292  29.846  1.00  0.00     0.049 A 
ATOM     47  H   UNL A   1      41.714  29.036  28.990  1.00  0.00     0.167 HD
ATOM     48  C   UNL A   1      45.618  28.364  27.129  1.00  0.00     0.034 A 
ATOM     49  C   UNL A   1      39.787  30.539  30.356  1.00  0.00     0.034 A 
ATOM     50  C   UNL A   1      45.656  29.723  27.612  1.00  0.00     0.049 A 
ATOM     51  C   UNL A   1      40.997  31.428  30.219  1.00  0.00     0.074 A 
ATOM     52  C   UNL A   1      46.681  30.649  27.504  1.00  0.00     0.029 A 
ATOM     53  N   UNL A   1      44.630  30.352  28.305  1.00  0.00    -0.354 N 
ATOM     54  N   UNL A   1      42.149  31.172  29.642  1.00  0.00    -0.248 NA
ATOM     55  C   UNL A   1      40.899  32.774  30.800  1.00  0.00     0.031 C 
ATOM     56  C   UNL A   1      46.297  31.813  28.183  1.00  0.00     0.029 A 
ATOM     57  C   UNL A   1      45.006  31.640  28.655  1.00  0.00     0.049 A 
ATOM     58  H   UNL A   1      43.760  29.942  28.518  1.00  0.00     0.167 HD
ATOM     59  C   UNL A   1      42.905  32.333  29.777  1.00  0.00     0.074 A 
ATOM     60  C   UNL A   1      42.072  33.295  30.469  1.00  0.00     0.031 C 
ATOM     61  C   UNL A   1      44.174  32.582  29.365  1.00  0.00     0.034 A 
BRANCH  48  62
ATOM     62  C   UNL A   1      46.843  27.797  26.456  1.00  0.00     0.023 A 
ATOM     63  C   UNL A   1      47.131  28.052  25.103  1.00  0.00     0.031 A 
ATOM     64  C   UNL A   1      47.720  26.959  27.169  1.00  0.00     0.131 A 
ATOM     65  C   UNL A   1      48.225  27.423  24.491  1.00  0.00     0.055 A 
ATOM     66  C   UNL A   1      48.848  26.395  26.572  1.00  0.00     0.041 A 
ATOM     67  F   UNL A   1      47.484  26.664  28.458  1.00  0.00    -0.206 F 
ATOM     68  C   UNL A   1      49.099  26.613  25.221  1.00  0.00     0.022 A 
BRANCH  65  69
ATOM     69  S   UNL A   1      48.414  27.570  22.692  1.00  0.00     0.124 S 
ATOM     70  O   UNL A   1      48.485  26.167  22.288  1.00  0.00    -0.237 OA
ATOM     71  O   UNL A   1      47.205  28.286  22.306  1.00  0.00    -0.237 OA
ATOM     72  O   UNL A   1      49.660  28.318  22.538  1.00  0.00    -0.744 OA
ENDBRANCH  65  69
ENDBRANCH  48  62
BRANCH  49  73
ATOM     73  C   UNL A   1      38.576  31.016  31.083  1.00  0.00     0.023 A 
ATOM     74  C   UNL A   1      37.487  31.574  30.396  1.00  0.00     0.031 A 
ATOM     75  C   UNL A   1      38.515  30.965  32.488  1.00  0.00     0.131 A 
ATOM     76  C   UNL A   1      36.401  32.096  31.116  1.00  0.00     0.055 A 
ATOM     77  C   UNL A   1      37.411  31.441  33.196  1.00  0.00     0.041 A 
ATOM     78  F   UNL A   1      39.530  30.438  33.192  1.00  0.00    -0.206 F 
ATOM     79  C   UNL A   1      36.350  32.022  32.510  1.00  0.00     0.022 A 
BRANCH  76  80
ATOM     80  S   UNL A   1      35.083  32.946  30.205  1.00  0.00     0.124 S 
ATOM     81  O   UNL A   1      34.692  31.932  29.233  1.00  0.00    -0.237 OA
ATOM     82  O   UNL A   1      34.118  33.228  31.262  1.00  0.00    -0.237 OA
ATOM     83  O   UNL A   1      35.754  34.119  29.648  1.00  0.00    -0.744 OA
ENDBRANCH  76  80
ENDBRANCH  49  73
BRANCH  61  84
ATOM     84  C   UNL A   1      44.715  33.966  29.630  1.00  0.00     0.023 A 
ATOM     85  C   UNL A   1      44.581  35.004  28.691  1.00  0.00     0.031 A 
ATOM     86  C   UNL A   1      45.400  34.241  30.827  1.00  0.00     0.131 A 
ATOM     87  C   UNL A   1      45.174  36.251  28.937  1.00  0.00     0.055 A 
ATOM     88  C   UNL A   1      45.942  35.500  31.091  1.00  0.00     0.041 A 
ATOM     89  F   UNL A   1      45.559  33.287  31.758  1.00  0.00    -0.206 F 
ATOM     90  C   UNL A   1      45.843  36.510  30.137  1.00  0.00     0.022 A 
BRANCH  87  91
ATOM     91  S   UNL A   1      45.144  37.505  27.627  1.00  0.00     0.124 S 
ATOM     92  O   UNL A   1      46.106  36.969  26.669  1.00  0.00    -0.237 OA
ATOM     93  O   UNL A   1      43.747  37.483  27.206  1.00  0.00    -0.237 OA
ATOM     94  O   UNL A   1      45.565  38.727  28.311  1.00  0.00    -0.744 OA
ENDBRANCH  87  91
ENDBRANCH  61  84
ENDBRANCH  35  36
ENDBRANCH  28  30
ENDBRANCH  27  28
ENDBRANCH  26  27
ENDBRANCH  25  26
ENDBRANCH   1  25
TORSDOF 21
ENDMDL
MODEL 2
REMARK VINA RESULT:     -11.1      1.239      3.490
REMARK SMILES CC(=O)N[C@@H](CCc1nc2ccccc2[nH]1)C(=O)OCCOCCOC(=O)c1ccc(-c2c3nc(c(-c4cc(S(=O)(=O)[O-])ccc4F)c4ccc([nH]4)c(-c4cc(S(=O)(=O)[O-])ccc4F)c4nc(c(-c5cc(S(=O)(=O)[O-])ccc5F)c5ccc2[nH]5)C=C4)C=C3)cc1
REMARK SMILES IDX 22 1 21 2 20 3 19 4 17 5 18 6 5 7 4 8 1 9 2 10 3 11 6 13
REMARK SMILES IDX 7 14 8 15 9 16 16 17 10 18 15 19 11 21 14 22 12 23 13 24
REMARK SMILES IDX 23 25 24 26 25 27 26 28 27 29 28 30 29 31 90 32 30 33 89 34
REMARK SMILES IDX 31 35 32 36 33 37 83 38 34 39 88 40 82 41 84 42 35 43 87 44
REMARK SMILES IDX 81 45 80 46 36 48 68 49 48 50 67 51 49 52 52 53 66 54 85 55
REMARK SMILES IDX 50 56 51 57 65 59 86 60 53 61 37 62 38 63 46 64 39 65 45 66
REMARK SMILES IDX 47 67 44 68 40 69 41 70 42 71 43 72 69 73 70 74 78 75 71 76
REMARK SMILES IDX 77 77 79 78 76 79 72 80 73 81 74 82 75 83 54 84 55 85 63 86
REMARK SMILES IDX 56 87 62 88 64 89 61 90 57 91 58 92 59 93 60 94
REMARK H PARENT 4 12 16 20 84 47 52 58
REMARK Flexibility Score: inf
ROOT
ATOM      1  O   UNL A   1      36.440  21.712  25.662  1.00  0.00    -0.374 OA
ENDROOT
BRANCH   1   2
ATOM      2  C   UNL A   1      35.808  22.852  25.089  1.00  0.00     0.202 C 
BRANCH   2   3
ATOM      3  C   UNL A   1      34.789  23.582  25.967  1.00  0.00     0.261 C 
BRANCH   3   4
ATOM      4  O   UNL A   1      34.131  22.720  26.910  1.00  0.00    -0.462 OA
BRANCH   4   5
ATOM      5  C   UNL A   1      32.765  22.773  26.904  1.00  0.00     0.328 C 
ATOM      6  O   UNL A   1      32.064  23.206  27.813  1.00  0.00    -0.250 OA
BRANCH   5   7
ATOM      7  C   UNL A   1      32.167  22.214  25.598  1.00  0.00     0.192 C 
BRANCH   7   8
ATOM      8  N   UNL A   1      31.783  20.797  25.653  1.00  0.00    -0.343 N 
ATOM      9  C   UNL A   1      33.679  19.969  24.302  1.00  0.00     0.114 C 
ATOM     10  C   UNL A   1      32.438  19.726  25.121  1.00  0.00     0.217 C 
ATOM     11  O   UNL A   1      32.021  18.590  25.333  1.00  0.00    -0.275 OA
ATOM     12  H   UNL A   1      30.948  20.595  26.133  1.00  0.00     0.164 HD
ENDBRANCH   7   8
BRANCH   7  13
ATOM     13  C   UNL A   1      31.025  23.078  25.037  1.00  0.00     0.045 C 
BRANCH  13  14
ATOM     14  C   UNL A   1      31.421  24.170  24.031  1.00  0.00     0.078 C 
BRANCH  14  15
ATOM     15  C   UNL A   1      31.394  25.533  24.626  1.00  0.00     0.107 A 
ATOM     16  N   UNL A   1      31.574  26.664  23.977  1.00  0.00    -0.233 NA
ATOM     17  N   UNL A   1      31.230  25.760  25.971  1.00  0.00    -0.342 N 
ATOM     18  C   UNL A   1      31.645  27.638  24.941  1.00  0.00     0.089 A 
ATOM     19  C   UNL A   1      31.452  27.093  26.203  1.00  0.00     0.065 A 
ATOM     20  H   UNL A   1      30.993  25.085  26.648  1.00  0.00     0.168 HD
ATOM     21  C   UNL A   1      31.930  29.005  24.819  1.00  0.00     0.030 A 
ATOM     22  C   UNL A   1      31.532  27.844  27.375  1.00  0.00     0.028 A 
ATOM     23  C   UNL A   1      32.021  29.780  25.983  1.00  0.00     0.002 A 
ATOM     24  C   UNL A   1      31.823  29.205  27.240  1.00  0.00     0.002 A 
ENDBRANCH  14  15
ENDBRANCH  13  14
ENDBRANCH   7  13
ENDBRANCH   5   7
ENDBRANCH   4   5
ENDBRANCH   3   4
ENDBRANCH   2   3
ENDBRANCH   1   2
BRANCH   1  25
ATOM     25  C   UNL A   1      37.140  20.838  24.777  1.00  0.00     0.202 C 
BRANCH  25  26
ATOM     26  C   UNL A   1      38.437  20.196  25.288  1.00  0.00     0.261 C 
BRANCH  26  27
ATOM     27  O   UNL A   1      39.537  21.123  25.423  1.00  0.00    -0.460 OA
BRANCH  27  28
ATOM     28  C   UNL A   1      40.259  20.968  26.561  1.00  0.00     0.338 C 
ATOM     29  O   UNL A   1      40.809  19.939  26.942  1.00  0.00    -0.246 OA
BRANCH  28  30
ATOM     30  C   UNL A   1      40.429  22.237  27.292  1.00  0.00     0.060 A 
ATOM     31  C   UNL A   1      39.689  23.342  26.858  1.00  0.00     0.016 A 
ATOM     32  C   UNL A   1      41.453  22.399  28.230  1.00  0.00     0.016 A 
ATOM     33  C   UNL A   1      40.016  24.623  27.305  1.00  0.00     0.010 A 
ATOM     34  C   UNL A   1      41.781  23.688  28.677  1.00  0.00     0.010 A 
ATOM     35  C   UNL A   1      41.097  24.812  28.180  1.00  0.00    -0.014 A 
BRANCH  35  36
ATOM     36  C   UNL A   1      41.589  26.196  28.435  1.00  0.00     0.031 A 
ATOM     37  C   UNL A   1      42.951  26.603  27.937  1.00  0.00     0.074 A 
ATOM     38  C   UNL A   1      40.807  27.104  29.046  1.00  0.00     0.049 A 
ATOM     39  N   UNL A   1      43.550  27.763  28.018  1.00  0.00    -0.248 NA
ATOM     40  C   UNL A   1      43.743  25.560  27.271  1.00  0.00     0.031 C 
ATOM     41  C   UNL A   1      39.472  26.835  29.566  1.00  0.00     0.029 A 
ATOM     42  N   UNL A   1      41.010  28.433  29.324  1.00  0.00    -0.354 N 
ATOM     43  C   UNL A   1      44.792  27.593  27.416  1.00  0.00     0.074 A 
ATOM     44  C   UNL A   1      44.869  26.206  27.007  1.00  0.00     0.031 C 
ATOM     45  C   UNL A   1      38.955  27.968  30.070  1.00  0.00     0.029 A 
ATOM     46  C   UNL A   1      39.946  29.035  29.956  1.00  0.00     0.049 A 
ATOM     47  H   UNL A   1      41.838  28.910  29.091  1.00  0.00     0.167 HD
ATOM     48  C   UNL A   1      45.774  28.509  27.217  1.00  0.00     0.034 A 
ATOM     49  C   UNL A   1      39.793  30.295  30.409  1.00  0.00     0.034 A 
ATOM     50  C   UNL A   1      45.692  29.887  27.638  1.00  0.00     0.049 A 
ATOM     51  C   UNL A   1      40.916  31.282  30.218  1.00  0.00     0.074 A 
ATOM     52  C   UNL A   1      46.627  30.896  27.477  1.00  0.00     0.029 A 
ATOM     53  N   UNL A   1      44.617  30.451  28.314  1.00  0.00    -0.354 N 
ATOM     54  N   UNL A   1      42.082  31.105  29.640  1.00  0.00    -0.248 NA
ATOM     55  C   UNL A   1      40.701  32.639  30.739  1.00  0.00     0.031 C 
ATOM     56  C   UNL A   1      46.144  32.050  28.106  1.00  0.00     0.029 A 
ATOM     57  C   UNL A   1      44.878  31.783  28.601  1.00  0.00     0.049 A 
ATOM     58  H   UNL A   1      43.791  29.975  28.555  1.00  0.00     0.167 HD
ATOM     59  C   UNL A   1      42.731  32.335  29.714  1.00  0.00     0.074 A 
ATOM     60  C   UNL A   1      41.819  33.248  30.371  1.00  0.00     0.031 C 
ATOM     61  C   UNL A   1      43.969  32.678  29.276  1.00  0.00     0.034 A 
BRANCH  48  62
ATOM     62  C   UNL A   1      47.041  28.024  26.557  1.00  0.00     0.023 A 
ATOM     63  C   UNL A   1      47.232  28.114  25.167  1.00  0.00     0.031 A 
ATOM     64  C   UNL A   1      48.059  27.432  27.326  1.00  0.00     0.131 A 
ATOM     65  C   UNL A   1      48.381  27.559  24.583  1.00  0.00     0.055 A 
ATOM     66  C   UNL A   1      49.232  26.947  26.745  1.00  0.00     0.041 A 
ATOM     67  F   UNL A   1      47.921  27.301  28.655  1.00  0.00    -0.206 F 
ATOM     68  C   UNL A   1      49.393  26.996  25.364  1.00  0.00     0.022 A 
BRANCH  65  69
ATOM     69  S   UNL A   1      48.473  27.463  22.773  1.00  0.00     0.124 S 
ATOM     70  O   UNL A   1      47.288  28.219  22.377  1.00  0.00    -0.237 OA
ATOM     71  O   UNL A   1      49.757  28.092  22.490  1.00  0.00    -0.237 OA
ATOM     72  O   UNL A   1      48.406  26.028  22.502  1.00  0.00    -0.744 OA
ENDBRANCH  65  69
ENDBRANCH  48  62
BRANCH  49  73
ATOM     73  C   UNL A   1      38.550  30.693  31.128  1.00  0.00     0.023 A 
ATOM     74  C   UNL A   1      37.493  31.330  30.458  1.00  0.00     0.031 A 
ATOM     75  C   UNL A   1      38.423  30.486  32.514  1.00  0.00     0.131 A 
ATOM     76  C   UNL A   1      36.375  31.774  31.180  1.00  0.00     0.055 A 
ATOM     77  C   UNL A   1      37.287  30.885  33.219  1.00  0.00     0.041 A 
ATOM     78  F   UNL A   1      39.404  29.879  33.201  1.00  0.00    -0.206 F 
ATOM     79  C   UNL A   1      36.259  31.545  32.554  1.00  0.00     0.022 A 
BRANCH  76  80
ATOM     80  S   UNL A   1      35.100  32.726  30.309  1.00  0.00     0.124 S 
ATOM     81  O   UNL A   1      34.804  31.858  29.175  1.00  0.00    -0.237 OA
ATOM     82  O   UNL A   1      34.058  32.835  31.324  1.00  0.00    -0.237 OA
ATOM     83  O   UNL A   1      35.777  33.978  29.978  1.00  0.00    -0.744 OA
ENDBRANCH  76  80
ENDBRANCH  49  73
BRANCH  61  84
ATOM     84  C   UNL A   1      44.384  34.116  29.472  1.00  0.00     0.023 A 
ATOM     85  C   UNL A   1      44.034  35.118  28.549  1.00  0.00     0.031 A 
ATOM     86  C   UNL A   1      45.164  34.482  30.582  1.00  0.00     0.131 A 
ATOM     87  C   UNL A   1      44.514  36.425  28.721  1.00  0.00     0.055 A 
ATOM     88  C   UNL A   1      45.594  35.796  30.777  1.00  0.00     0.041 A 
ATOM     89  F   UNL A   1      45.528  33.566  31.494  1.00  0.00    -0.206 F 
ATOM     90  C   UNL A   1      45.280  36.774  29.836  1.00  0.00     0.022 A 
BRANCH  87  91
ATOM     91  S   UNL A   1      44.202  37.646  27.416  1.00  0.00     0.124 S 
ATOM     92  O   UNL A   1      43.107  37.028  26.675  1.00  0.00    -0.237 OA
ATOM     93  O   UNL A   1      43.859  38.840  28.182  1.00  0.00    -0.237 OA
ATOM     94  O   UNL A   1      45.474  37.715  26.699  1.00  0.00    -0.744 OA
ENDBRANCH  87  91
ENDBRANCH  61  84
ENDBRANCH  35  36
ENDBRANCH  28  30
ENDBRANCH  27  28
ENDBRANCH  26  27
ENDBRANCH  25  26
ENDBRANCH   1  25
TORSDOF 21
ENDMDL
MODEL 3
REMARK VINA RESULT:     -11.1      1.730      7.698
REMARK SMILES CC(=O)N[C@@H](CCc1nc2ccccc2[nH]1)C(=O)OCCOCCOC(=O)c1ccc(-c2c3nc(c(-c4cc(S(=O)(=O)[O-])ccc4F)c4ccc([nH]4)c(-c4cc(S(=O)(=O)[O-])ccc4F)c4nc(c(-c5cc(S(=O)(=O)[O-])ccc5F)c5ccc2[nH]5)C=C4)C=C3)cc1
REMARK SMILES IDX 22 1 21 2 20 3 19 4 17 5 18 6 5 7 4 8 1 9 2 10 3 11 6 13
REMARK SMILES IDX 7 14 8 15 9 16 16 17 10 18 15 19 11 21 14 22 12 23 13 24
REMARK SMILES IDX 23 25 24 26 25 27 26 28 27 29 28 30 29 31 90 32 30 33 89 34
REMARK SMILES IDX 31 35 32 36 33 37 83 38 34 39 88 40 82 41 84 42 35 43 87 44
REMARK SMILES IDX 81 45 80 46 36 48 68 49 48 50 67 51 49 52 52 53 66 54 85 55
REMARK SMILES IDX 50 56 51 57 65 59 86 60 53 61 37 62 38 63 46 64 39 65 45 66
REMARK SMILES IDX 47 67 44 68 40 69 41 70 42 71 43 72 69 73 70 74 78 75 71 76
REMARK SMILES IDX 77 77 79 78 76 79 72 80 73 81 74 82 75 83 54 84 55 85 63 86
REMARK SMILES IDX 56 87 62 88 64 89 61 90 57 91 58 92 59 93 60 94
REMARK H PARENT 4 12 16 20 84 47 52 58
REMARK Flexibility Score: inf
ROOT
ATOM      1  O   UNL A   1      36.645  21.917  24.307  1.00  0.00    -0.374 OA
ENDROOT
BRANCH   1   2
ATOM      2  C   UNL A   1      35.590  22.865  24.434  1.00  0.00     0.202 C 
BRANCH   2   3
ATOM      3  C   UNL A   1      34.948  23.351  23.133  1.00  0.00     0.261 C 
BRANCH   3   4
ATOM      4  O   UNL A   1      34.169  24.548  23.298  1.00  0.00    -0.462 OA
BRANCH   4   5
ATOM      5  C   UNL A   1      33.173  24.734  22.380  1.00  0.00     0.328 C 
ATOM      6  O   UNL A   1      33.276  24.560  21.170  1.00  0.00    -0.250 OA
BRANCH   5   7
ATOM      7  C   UNL A   1      31.858  25.202  23.035  1.00  0.00     0.192 C 
BRANCH   7   8
ATOM      8  N   UNL A   1      31.146  26.257  22.302  1.00  0.00    -0.343 N 
ATOM      9  C   UNL A   1      30.821  27.743  24.249  1.00  0.00     0.114 C 
ATOM     10  C   UNL A   1      30.680  27.446  22.779  1.00  0.00     0.217 C 
ATOM     11  O   UNL A   1      30.177  28.258  22.005  1.00  0.00    -0.275 OA
ATOM     12  H   UNL A   1      30.983  26.083  21.346  1.00  0.00     0.164 HD
ENDBRANCH   7   8
BRANCH   7  13
ATOM     13  C   UNL A   1      30.915  24.042  23.395  1.00  0.00     0.045 C 
BRANCH  13  14
ATOM     14  C   UNL A   1      31.207  23.303  24.711  1.00  0.00     0.078 C 
BRANCH  14  15
ATOM     15  C   UNL A   1      31.796  21.955  24.492  1.00  0.00     0.107 A 
ATOM     16  N   UNL A   1      31.918  21.343  23.333  1.00  0.00    -0.233 NA
ATOM     17  N   UNL A   1      32.238  21.156  25.518  1.00  0.00    -0.342 N 
ATOM     18  C   UNL A   1      32.340  20.071  23.627  1.00  0.00     0.089 A 
ATOM     19  C   UNL A   1      32.530  19.922  24.995  1.00  0.00     0.065 A 
ATOM     20  H   UNL A   1      32.332  21.422  26.461  1.00  0.00     0.168 HD
ATOM     21  C   UNL A   1      32.530  18.968  22.783  1.00  0.00     0.030 A 
ATOM     22  C   UNL A   1      32.900  18.714  25.584  1.00  0.00     0.028 A 
ATOM     23  C   UNL A   1      32.897  17.741  23.353  1.00  0.00     0.002 A 
ATOM     24  C   UNL A   1      33.080  17.620  24.731  1.00  0.00     0.002 A 
ENDBRANCH  14  15
ENDBRANCH  13  14
ENDBRANCH   7  13
ENDBRANCH   5   7
ENDBRANCH   4   5
ENDBRANCH   3   4
ENDBRANCH   2   3
ENDBRANCH   1   2
BRANCH   1  25
ATOM     25  C   UNL A   1      36.499  20.679  25.001  1.00  0.00     0.202 C 
BRANCH  25  26
ATOM     26  C   UNL A   1      37.758  19.824  25.207  1.00  0.00     0.261 C 
BRANCH  26  27
ATOM     27  O   UNL A   1      38.995  20.557  25.062  1.00  0.00    -0.460 OA
BRANCH  27  28
ATOM     28  C   UNL A   1      39.824  20.467  26.132  1.00  0.00     0.338 C 
ATOM     29  O   UNL A   1      40.394  19.456  26.531  1.00  0.00    -0.246 OA
BRANCH  28  30
ATOM     30  C   UNL A   1      40.086  21.780  26.747  1.00  0.00     0.060 A 
ATOM     31  C   UNL A   1      39.463  22.900  26.183  1.00  0.00     0.016 A 
ATOM     32  C   UNL A   1      41.090  21.942  27.707  1.00  0.00     0.016 A 
ATOM     33  C   UNL A   1      39.892  24.184  26.522  1.00  0.00     0.010 A 
ATOM     34  C   UNL A   1      41.520  23.234  28.045  1.00  0.00     0.010 A 
ATOM     35  C   UNL A   1      40.957  24.361  27.418  1.00  0.00    -0.014 A 
BRANCH  35  36
ATOM     36  C   UNL A   1      41.564  25.714  27.563  1.00  0.00     0.031 A 
ATOM     37  C   UNL A   1      40.837  26.771  28.354  1.00  0.00     0.074 A 
ATOM     38  C   UNL A   1      42.780  25.984  27.055  1.00  0.00     0.049 A 
ATOM     39  N   UNL A   1      41.206  27.995  28.634  1.00  0.00    -0.248 NA
ATOM     40  C   UNL A   1      39.520  26.400  28.887  1.00  0.00     0.031 C 
ATOM     41  C   UNL A   1      43.582  25.046  26.279  1.00  0.00     0.029 A 
ATOM     42  N   UNL A   1      43.558  27.112  27.120  1.00  0.00    -0.354 N 
ATOM     43  C   UNL A   1      40.165  28.545  29.375  1.00  0.00     0.074 A 
ATOM     44  C   UNL A   1      39.138  27.528  29.467  1.00  0.00     0.031 C 
ATOM     45  C   UNL A   1      44.756  25.619  25.967  1.00  0.00     0.029 A 
ATOM     46  C   UNL A   1      44.768  26.988  26.476  1.00  0.00     0.049 A 
ATOM     47  H   UNL A   1      43.278  27.933  27.585  1.00  0.00     0.167 HD
ATOM     48  C   UNL A   1      40.077  29.780  29.931  1.00  0.00     0.034 A 
ATOM     49  C   UNL A   1      45.764  27.879  26.301  1.00  0.00     0.034 A 
ATOM     50  C   UNL A   1      41.101  30.791  29.824  1.00  0.00     0.049 A 
ATOM     51  C   UNL A   1      45.623  29.259  26.888  1.00  0.00     0.074 A 
ATOM     52  C   UNL A   1      41.112  32.069  30.357  1.00  0.00     0.029 A 
ATOM     53  N   UNL A   1      42.295  30.645  29.128  1.00  0.00    -0.354 N 
ATOM     54  N   UNL A   1      44.633  29.760  27.592  1.00  0.00    -0.248 NA
ATOM     55  C   UNL A   1      46.734  30.194  26.659  1.00  0.00     0.031 C 
ATOM     56  C   UNL A   1      42.281  32.714  29.935  1.00  0.00     0.029 A 
ATOM     57  C   UNL A   1      43.034  31.817  29.195  1.00  0.00     0.049 A 
ATOM     58  H   UNL A   1      42.575  29.829  28.656  1.00  0.00     0.167 HD
ATOM     59  C   UNL A   1      45.013  31.064  27.903  1.00  0.00     0.074 A 
ATOM     60  C   UNL A   1      46.328  31.262  27.330  1.00  0.00     0.031 C 
ATOM     61  C   UNL A   1      44.335  32.010  28.601  1.00  0.00     0.034 A 
BRANCH  48  62
ATOM     62  C   UNL A   1      38.799  30.114  30.661  1.00  0.00     0.023 A 
ATOM     63  C   UNL A   1      37.754  30.821  30.040  1.00  0.00     0.031 A 
ATOM     64  C   UNL A   1      38.637  29.748  32.009  1.00  0.00     0.131 A 
ATOM     65  C   UNL A   1      36.627  31.199  30.784  1.00  0.00     0.055 A 
ATOM     66  C   UNL A   1      37.480  30.064  32.724  1.00  0.00     0.041 A 
ATOM     67  F   UNL A   1      39.610  29.089  32.659  1.00  0.00    -0.206 F 
ATOM     68  C   UNL A   1      36.472  30.807  32.116  1.00  0.00     0.022 A 
BRANCH  65  69
ATOM     69  S   UNL A   1      35.425  32.327  30.027  1.00  0.00     0.124 S 
ATOM     70  O   UNL A   1      35.044  31.587  28.826  1.00  0.00    -0.237 OA
ATOM     71  O   UNL A   1      34.404  32.440  31.060  1.00  0.00    -0.237 OA
ATOM     72  O   UNL A   1      36.201  33.540  29.780  1.00  0.00    -0.744 OA
ENDBRANCH  65  69
ENDBRANCH  48  62
BRANCH  49  73
ATOM     73  C   UNL A   1      46.967  27.517  25.498  1.00  0.00     0.023 A 
ATOM     74  C   UNL A   1      47.084  27.891  24.151  1.00  0.00     0.031 A 
ATOM     75  C   UNL A   1      48.000  26.743  26.060  1.00  0.00     0.131 A 
ATOM     76  C   UNL A   1      48.186  27.458  23.398  1.00  0.00     0.055 A 
ATOM     77  C   UNL A   1      49.118  26.356  25.320  1.00  0.00     0.041 A 
ATOM     78  F   UNL A   1      47.937  26.361  27.345  1.00  0.00    -0.206 F 
ATOM     79  C   UNL A   1      49.209  26.703  23.976  1.00  0.00     0.022 A 
BRANCH  76  80
ATOM     80  S   UNL A   1      48.228  27.832  21.623  1.00  0.00     0.124 S 
ATOM     81  O   UNL A   1      48.413  26.506  21.044  1.00  0.00    -0.237 OA
ATOM     82  O   UNL A   1      46.921  28.447  21.413  1.00  0.00    -0.237 OA
ATOM     83  O   UNL A   1      49.368  28.736  21.492  1.00  0.00    -0.744 OA
ENDBRANCH  76  80
ENDBRANCH  49  73
BRANCH  61  84
ATOM     84  C   UNL A   1      45.032  33.334  28.804  1.00  0.00     0.023 A 
ATOM     85  C   UNL A   1      45.863  33.568  29.914  1.00  0.00     0.031 A 
ATOM     86  C   UNL A   1      44.839  34.382  27.889  1.00  0.00     0.131 A 
ATOM     87  C   UNL A   1      46.421  34.839  30.113  1.00  0.00     0.055 A 
ATOM     88  C   UNL A   1      45.442  35.629  28.062  1.00  0.00     0.041 A 
ATOM     89  F   UNL A   1      44.056  34.214  26.811  1.00  0.00    -0.206 F 
ATOM     90  C   UNL A   1      46.227  35.868  29.187  1.00  0.00     0.022 A 
BRANCH  87  91
ATOM     91  S   UNL A   1      47.331  35.161  31.650  1.00  0.00     0.124 S 
ATOM     92  O   UNL A   1      47.199  36.608  31.785  1.00  0.00    -0.237 OA
ATOM     93  O   UNL A   1      46.594  34.360  32.622  1.00  0.00    -0.237 OA
ATOM     94  O   UNL A   1      48.683  34.687  31.354  1.00  0.00    -0.744 OA
ENDBRANCH  87  91
ENDBRANCH  61  84
ENDBRANCH  35  36
ENDBRANCH  28  30
ENDBRANCH  27  28
ENDBRANCH  26  27
ENDBRANCH  25  26
ENDBRANCH   1  25
TORSDOF 21
ENDMDL
