MODEL 1
REMARK VINA RESULT:     -11.1      0.000      0.000
REMARK SMILES CC1=C(C)C[C@@H](C(=O)OCCOCCOC(=O)c2ccc(-c3c4nc(c(-c5cc(S(=O)(=O)[O-])ccc5F)c5ccc([nH]5)c(-c5cc(S(=O)(=O)[O-])ccc5F)c5nc(c(-c6cc(S(=O)(=O)[O-])ccc6F)c6ccc3[nH]6)C=C5)C=C4)cc2)[C@@H](C(=O)NCC[NH+]2CCOCC2)C1
REMARK SMILES IDX 11 1 10 2 9 3 7 4 8 5 6 6 1 7 2 8 3 9 93 10 4 11 5 12 81 13
REMARK SMILES IDX 82 14 83 15 84 16 85 18 86 19 87 20 88 21 92 22 89 24 91 25
REMARK SMILES IDX 90 26 12 27 13 28 14 29 15 30 16 31 17 32 18 33 19 34 80 35
REMARK SMILES IDX 20 36 79 37 21 38 22 39 23 40 73 41 24 42 78 43 72 44 74 45
REMARK SMILES IDX 25 46 77 47 71 48 70 49 26 51 58 52 38 53 57 54 39 55 42 56
REMARK SMILES IDX 56 57 75 58 40 59 41 60 55 62 76 63 43 64 27 65 28 66 36 67
REMARK SMILES IDX 29 68 35 69 37 70 34 71 30 72 31 73 32 74 33 75 59 76 60 77
REMARK SMILES IDX 68 78 61 79 67 80 69 81 66 82 62 83 63 84 64 85 65 86 44 87
REMARK SMILES IDX 45 88 53 89 46 90 52 91 54 92 51 93 47 94 48 95 49 96 50 97
REMARK H PARENT 84 17 87 23 74 50 42 61
REMARK Flexibility Score: inf
ROOT
ATOM      1  C   UNL A   1      33.357  30.328  27.265  1.00  0.00     0.202 C 
ENDROOT
BRANCH   1   2
ATOM      2  C   UNL A   1      33.959  28.949  26.948  1.00  0.00     0.261 C 
BRANCH   2   3
ATOM      3  O   UNL A   1      33.077  27.921  26.429  1.00  0.00    -0.463 OA
BRANCH   3   4
ATOM      4  C   UNL A   1      33.456  27.382  25.254  1.00  0.00     0.310 C 
ATOM      5  O   UNL A   1      34.184  27.969  24.448  1.00  0.00    -0.252 OA
BRANCH   4   6
ATOM      6  C   UNL A   1      32.867  26.028  24.862  1.00  0.00     0.116 C 
ATOM      7  C   UNL A   1      35.798  23.286  23.114  1.00  0.00     0.039 C 
ATOM      8  C   UNL A   1      34.704  23.979  23.880  1.00  0.00    -0.074 C 
ATOM      9  C   UNL A   1      34.746  24.341  25.178  1.00  0.00    -0.073 C 
ATOM     10  C   UNL A   1      33.445  24.210  23.082  1.00  0.00     0.045 C 
ATOM     11  C   UNL A   1      35.895  24.116  26.122  1.00  0.00     0.039 C 
ATOM     12  C   UNL A   1      33.534  24.994  25.791  1.00  0.00     0.046 C 
ATOM     13  C   UNL A   1      32.621  25.473  23.436  1.00  0.00     0.097 C 
BRANCH  13  14
ATOM     14  C   UNL A   1      32.690  26.408  22.235  1.00  0.00     0.224 C 
ATOM     15  O   UNL A   1      33.591  26.310  21.402  1.00  0.00    -0.275 OA
ATOM     16  N   UNL A   1      31.711  27.335  21.992  1.00  0.00    -0.350 N 
ATOM     17  H   UNL A   1      31.876  27.878  21.188  1.00  0.00     0.163 HD
BRANCH  16  18
ATOM     18  C   UNL A   1      30.470  27.681  22.686  1.00  0.00     0.177 C 
BRANCH  18  19
ATOM     19  C   UNL A   1      30.543  28.996  23.507  1.00  0.00     0.283 C 
BRANCH  19  20
ATOM     20  N   UNL A   1      29.911  30.210  23.022  1.00  0.00    -0.330 N 
ATOM     21  C   UNL A   1      29.250  31.200  23.852  1.00  0.00     0.291 C 
ATOM     22  C   UNL A   1      29.616  30.332  21.593  1.00  0.00     0.291 C 
ATOM     23  H   UNL A   1      30.842  30.505  23.316  1.00  0.00     0.348 HD
ATOM     24  C   UNL A   1      27.758  31.300  23.512  1.00  0.00     0.221 C 
ATOM     25  C   UNL A   1      28.131  30.621  21.283  1.00  0.00     0.221 C 
ATOM     26  O   UNL A   1      27.589  31.639  22.130  1.00  0.00    -0.370 OA
ENDBRANCH  19  20
ENDBRANCH  18  19
ENDBRANCH  16  18
ENDBRANCH  13  14
ENDBRANCH   4   6
ENDBRANCH   3   4
ENDBRANCH   2   3
ENDBRANCH   1   2
BRANCH   1  27
ATOM     27  O   UNL A   1      32.364  30.874  26.415  1.00  0.00    -0.374 OA
BRANCH  27  28
ATOM     28  C   UNL A   1      31.590  31.978  26.832  1.00  0.00     0.202 C 
BRANCH  28  29
ATOM     29  C   UNL A   1      32.197  33.355  27.097  1.00  0.00     0.261 C 
BRANCH  29  30
ATOM     30  O   UNL A   1      32.411  33.793  28.432  1.00  0.00    -0.460 OA
BRANCH  30  31
ATOM     31  C   UNL A   1      33.429  34.649  28.630  1.00  0.00     0.338 C 
ATOM     32  O   UNL A   1      33.465  35.828  28.302  1.00  0.00    -0.246 OA
BRANCH  31  33
ATOM     33  C   UNL A   1      34.450  33.981  29.453  1.00  0.00     0.060 A 
ATOM     34  C   UNL A   1      35.786  34.210  29.122  1.00  0.00     0.016 A 
ATOM     35  C   UNL A   1      34.114  33.144  30.525  1.00  0.00     0.016 A 
ATOM     36  C   UNL A   1      36.795  33.588  29.849  1.00  0.00     0.010 A 
ATOM     37  C   UNL A   1      35.133  32.513  31.251  1.00  0.00     0.010 A 
ATOM     38  C   UNL A   1      36.478  32.721  30.907  1.00  0.00    -0.014 A 
BRANCH  38  39
ATOM     39  C   UNL A   1      37.586  32.024  31.605  1.00  0.00     0.031 A 
ATOM     40  C   UNL A   1      38.331  30.919  30.909  1.00  0.00     0.074 A 
ATOM     41  C   UNL A   1      37.972  32.443  32.825  1.00  0.00     0.049 A 
ATOM     42  N   UNL A   1      39.395  30.266  31.299  1.00  0.00    -0.248 NA
ATOM     43  C   UNL A   1      37.810  30.497  29.601  1.00  0.00     0.031 C 
ATOM     44  C   UNL A   1      37.327  33.515  33.584  1.00  0.00     0.029 A 
ATOM     45  N   UNL A   1      39.003  32.035  33.633  1.00  0.00    -0.354 N 
ATOM     46  C   UNL A   1      39.680  29.360  30.283  1.00  0.00     0.074 A 
ATOM     47  C   UNL A   1      38.652  29.525  29.276  1.00  0.00     0.031 C 
ATOM     48  C   UNL A   1      37.983  33.686  34.744  1.00  0.00     0.029 A 
ATOM     49  C   UNL A   1      39.075  32.718  34.825  1.00  0.00     0.049 A 
ATOM     50  H   UNL A   1      39.632  31.320  33.383  1.00  0.00     0.167 HD
ATOM     51  C   UNL A   1      40.708  28.481  30.201  1.00  0.00     0.034 A 
ATOM     52  C   UNL A   1      39.918  32.573  35.867  1.00  0.00     0.034 A 
ATOM     53  C   UNL A   1      41.717  28.326  31.222  1.00  0.00     0.049 A 
ATOM     54  C   UNL A   1      41.025  31.551  35.768  1.00  0.00     0.074 A 
ATOM     55  C   UNL A   1      42.823  27.493  31.220  1.00  0.00     0.029 A 
ATOM     56  N   UNL A   1      41.734  29.001  32.436  1.00  0.00    -0.354 N 
ATOM     57  N   UNL A   1      41.314  30.739  34.777  1.00  0.00    -0.248 NA
ATOM     58  C   UNL A   1      41.929  31.438  36.920  1.00  0.00     0.031 C 
ATOM     59  C   UNL A   1      43.462  27.608  32.459  1.00  0.00     0.029 A 
ATOM     60  C   UNL A   1      42.806  28.573  33.206  1.00  0.00     0.049 A 
ATOM     61  H   UNL A   1      41.081  29.685  32.710  1.00  0.00     0.167 HD
ATOM     62  C   UNL A   1      42.448  30.038  35.178  1.00  0.00     0.074 A 
ATOM     63  C   UNL A   1      42.801  30.538  36.491  1.00  0.00     0.031 C 
ATOM     64  C   UNL A   1      43.138  29.071  34.520  1.00  0.00     0.034 A 
BRANCH  51  65
ATOM     65  C   UNL A   1      40.763  27.580  28.991  1.00  0.00     0.023 A 
ATOM     66  C   UNL A   1      41.688  27.781  27.951  1.00  0.00     0.031 A 
ATOM     67  C   UNL A   1      39.873  26.496  28.881  1.00  0.00     0.131 A 
ATOM     68  C   UNL A   1      41.669  26.942  26.825  1.00  0.00     0.055 A 
ATOM     69  C   UNL A   1      39.904  25.624  27.790  1.00  0.00     0.041 A 
ATOM     70  F   UNL A   1      38.954  26.267  29.832  1.00  0.00    -0.206 F 
ATOM     71  C   UNL A   1      40.798  25.851  26.749  1.00  0.00     0.022 A 
BRANCH  68  72
ATOM     72  S   UNL A   1      42.720  27.358  25.407  1.00  0.00     0.124 S 
ATOM     73  O   UNL A   1      42.648  26.134  24.615  1.00  0.00    -0.237 OA
ATOM     74  O   UNL A   1      42.047  28.524  24.847  1.00  0.00    -0.237 OA
ATOM     75  O   UNL A   1      44.024  27.624  26.013  1.00  0.00    -0.744 OA
ENDBRANCH  68  72
ENDBRANCH  51  65
BRANCH  52  76
ATOM     76  C   UNL A   1      39.730  33.377  37.109  1.00  0.00     0.023 A 
ATOM     77  C   UNL A   1      39.054  32.861  38.227  1.00  0.00     0.031 A 
ATOM     78  C   UNL A   1      40.177  34.710  37.171  1.00  0.00     0.131 A 
ATOM     79  C   UNL A   1      38.801  33.686  39.335  1.00  0.00     0.055 A 
ATOM     80  C   UNL A   1      39.974  35.509  38.296  1.00  0.00     0.041 A 
ATOM     81  F   UNL A   1      40.826  35.257  36.131  1.00  0.00    -0.206 F 
ATOM     82  C   UNL A   1      39.268  35.002  39.382  1.00  0.00     0.022 A 
BRANCH  79  83
ATOM     83  S   UNL A   1      37.759  33.049  40.676  1.00  0.00     0.124 S 
ATOM     84  O   UNL A   1      37.887  34.101  41.678  1.00  0.00    -0.237 OA
ATOM     85  O   UNL A   1      36.459  32.938  40.023  1.00  0.00    -0.237 OA
ATOM     86  O   UNL A   1      38.390  31.777  41.022  1.00  0.00    -0.744 OA
ENDBRANCH  79  83
ENDBRANCH  52  76
BRANCH  64  87
ATOM     87  C   UNL A   1      44.367  28.521  35.204  1.00  0.00     0.023 A 
ATOM     88  C   UNL A   1      44.280  27.583  36.246  1.00  0.00     0.031 A 
ATOM     89  C   UNL A   1      45.647  28.954  34.811  1.00  0.00     0.131 A 
ATOM     90  C   UNL A   1      45.445  27.150  36.898  1.00  0.00     0.055 A 
ATOM     91  C   UNL A   1      46.806  28.474  35.421  1.00  0.00     0.041 A 
ATOM     92  F   UNL A   1      45.792  29.852  33.822  1.00  0.00    -0.206 F 
ATOM     93  C   UNL A   1      46.708  27.576  36.480  1.00  0.00     0.022 A 
BRANCH  90  94
ATOM     94  S   UNL A   1      45.283  26.090  38.361  1.00  0.00     0.124 S 
ATOM     95  O   UNL A   1      45.065  24.777  37.763  1.00  0.00    -0.237 OA
ATOM     96  O   UNL A   1      46.565  26.281  39.030  1.00  0.00    -0.237 OA
ATOM     97  O   UNL A   1      44.129  26.648  39.064  1.00  0.00    -0.744 OA
ENDBRANCH  90  94
ENDBRANCH  64  87
ENDBRANCH  38  39
ENDBRANCH  31  33
ENDBRANCH  30  31
ENDBRANCH  29  30
ENDBRANCH  28  29
ENDBRANCH  27  28
ENDBRANCH   1  27
TORSDOF 21
ENDMDL
MODEL 2
REMARK VINA RESULT:     -10.9      5.450      9.219
REMARK SMILES CC1=C(C)C[C@@H](C(=O)OCCOCCOC(=O)c2ccc(-c3c4nc(c(-c5cc(S(=O)(=O)[O-])ccc5F)c5ccc([nH]5)c(-c5cc(S(=O)(=O)[O-])ccc5F)c5nc(c(-c6cc(S(=O)(=O)[O-])ccc6F)c6ccc3[nH]6)C=C5)C=C4)cc2)[C@@H](C(=O)NCC[NH+]2CCOCC2)C1
REMARK SMILES IDX 11 1 10 2 9 3 7 4 8 5 6 6 1 7 2 8 3 9 93 10 4 11 5 12 81 13
REMARK SMILES IDX 82 14 83 15 84 16 85 18 86 19 87 20 88 21 92 22 89 24 91 25
REMARK SMILES IDX 90 26 12 27 13 28 14 29 15 30 16 31 17 32 18 33 19 34 80 35
REMARK SMILES IDX 20 36 79 37 21 38 22 39 23 40 73 41 24 42 78 43 72 44 74 45
REMARK SMILES IDX 25 46 77 47 71 48 70 49 26 51 58 52 38 53 57 54 39 55 42 56
REMARK SMILES IDX 56 57 75 58 40 59 41 60 55 62 76 63 43 64 27 65 28 66 36 67
REMARK SMILES IDX 29 68 35 69 37 70 34 71 30 72 31 73 32 74 33 75 59 76 60 77
REMARK SMILES IDX 68 78 61 79 67 80 69 81 66 82 62 83 63 84 64 85 65 86 44 87
REMARK SMILES IDX 45 88 53 89 46 90 52 91 54 92 51 93 47 94 48 95 49 96 50 97
REMARK H PARENT 84 17 87 23 74 50 42 61
REMARK Flexibility Score: inf
ROOT
ATOM      1  C   UNL A   1      35.796  22.350  23.697  1.00  0.00     0.202 C 
ENDROOT
BRANCH   1   2
ATOM      2  C   UNL A   1      35.637  23.879  23.661  1.00  0.00     0.261 C 
BRANCH   2   3
ATOM      3  O   UNL A   1      34.307  24.433  23.833  1.00  0.00    -0.463 OA
BRANCH   3   4
ATOM      4  C   UNL A   1      33.380  23.972  22.969  1.00  0.00     0.310 C 
ATOM      5  O   UNL A   1      33.641  23.666  21.803  1.00  0.00    -0.252 OA
BRANCH   4   6
ATOM      6  C   UNL A   1      31.925  23.933  23.432  1.00  0.00     0.116 C 
ATOM      7  C   UNL A   1      30.773  27.380  25.872  1.00  0.00     0.039 C 
ATOM      8  C   UNL A   1      30.898  26.249  24.888  1.00  0.00    -0.074 C 
ATOM      9  C   UNL A   1      31.181  26.363  23.575  1.00  0.00    -0.073 C 
ATOM     10  C   UNL A   1      30.611  24.889  25.474  1.00  0.00     0.045 C 
ATOM     11  C   UNL A   1      31.420  27.648  22.830  1.00  0.00     0.039 C 
ATOM     12  C   UNL A   1      31.228  25.116  22.730  1.00  0.00     0.046 C 
ATOM     13  C   UNL A   1      31.386  23.694  24.865  1.00  0.00     0.097 C 
BRANCH  13  14
ATOM     14  C   UNL A   1      32.318  23.163  25.947  1.00  0.00     0.224 C 
ATOM     15  O   UNL A   1      32.741  23.896  26.841  1.00  0.00    -0.275 OA
ATOM     16  N   UNL A   1      32.655  21.837  26.015  1.00  0.00    -0.350 N 
ATOM     17  H   UNL A   1      33.266  21.624  26.757  1.00  0.00     0.163 HD
BRANCH  16  18
ATOM     18  C   UNL A   1      32.289  20.672  25.209  1.00  0.00     0.177 C 
BRANCH  18  19
ATOM     19  C   UNL A   1      32.786  19.318  25.782  1.00  0.00     0.283 C 
BRANCH  19  20
ATOM     20  N   UNL A   1      32.655  18.093  25.013  1.00  0.00    -0.330 N 
ATOM     21  C   UNL A   1      32.541  16.759  25.573  1.00  0.00     0.291 C 
ATOM     22  C   UNL A   1      32.967  18.118  23.583  1.00  0.00     0.291 C 
ATOM     23  H   UNL A   1      31.699  18.340  25.268  1.00  0.00     0.348 HD
ATOM     24  C   UNL A   1      33.732  15.885  25.163  1.00  0.00     0.221 C 
ATOM     25  C   UNL A   1      34.042  17.092  23.159  1.00  0.00     0.221 C 
ATOM     26  O   UNL A   1      33.815  15.802  23.735  1.00  0.00    -0.370 OA
ENDBRANCH  19  20
ENDBRANCH  18  19
ENDBRANCH  16  18
ENDBRANCH  13  14
ENDBRANCH   4   6
ENDBRANCH   3   4
ENDBRANCH   2   3
ENDBRANCH   1   2
BRANCH   1  27
ATOM     27  O   UNL A   1      35.580  21.649  24.908  1.00  0.00    -0.374 OA
BRANCH  27  28
ATOM     28  C   UNL A   1      36.106  20.352  25.090  1.00  0.00     0.202 C 
BRANCH  28  29
ATOM     29  C   UNL A   1      37.607  20.070  25.120  1.00  0.00     0.261 C 
BRANCH  29  30
ATOM     30  O   UNL A   1      38.524  21.123  25.384  1.00  0.00    -0.460 OA
BRANCH  30  31
ATOM     31  C   UNL A   1      39.507  20.861  26.263  1.00  0.00     0.338 C 
ATOM     32  O   UNL A   1      39.965  19.759  26.539  1.00  0.00    -0.246 OA
BRANCH  31  33
ATOM     33  C   UNL A   1      40.064  22.138  26.739  1.00  0.00     0.060 A 
ATOM     34  C   UNL A   1      39.557  23.306  26.170  1.00  0.00     0.016 A 
ATOM     35  C   UNL A   1      41.065  22.197  27.717  1.00  0.00     0.016 A 
ATOM     36  C   UNL A   1      40.060  24.541  26.564  1.00  0.00     0.010 A 
ATOM     37  C   UNL A   1      41.576  23.442  28.106  1.00  0.00     0.010 A 
ATOM     38  C   UNL A   1      41.085  24.620  27.521  1.00  0.00    -0.014 A 
BRANCH  38  39
ATOM     39  C   UNL A   1      41.640  25.955  27.853  1.00  0.00     0.031 A 
ATOM     40  C   UNL A   1      42.985  26.361  27.317  1.00  0.00     0.074 A 
ATOM     41  C   UNL A   1      40.898  26.826  28.562  1.00  0.00     0.049 A 
ATOM     42  N   UNL A   1      43.592  27.517  27.397  1.00  0.00    -0.248 NA
ATOM     43  C   UNL A   1      43.744  25.329  26.594  1.00  0.00     0.031 C 
ATOM     44  C   UNL A   1      39.575  26.539  29.117  1.00  0.00     0.029 A 
ATOM     45  N   UNL A   1      41.137  28.128  28.923  1.00  0.00    -0.354 N 
ATOM     46  C   UNL A   1      44.801  27.358  26.729  1.00  0.00     0.074 A 
ATOM     47  C   UNL A   1      44.855  25.982  26.281  1.00  0.00     0.031 C 
ATOM     48  C   UNL A   1      39.115  27.637  29.742  1.00  0.00     0.029 A 
ATOM     49  C   UNL A   1      40.121  28.694  29.657  1.00  0.00     0.049 A 
ATOM     50  H   UNL A   1      41.960  28.611  28.679  1.00  0.00     0.167 HD
ATOM     51  C   UNL A   1      45.769  28.281  26.506  1.00  0.00     0.034 A 
ATOM     52  C   UNL A   1      40.017  29.921  30.207  1.00  0.00     0.034 A 
ATOM     53  C   UNL A   1      45.700  29.646  26.969  1.00  0.00     0.049 A 
ATOM     54  C   UNL A   1      41.133  30.913  29.984  1.00  0.00     0.074 A 
ATOM     55  C   UNL A   1      46.606  30.673  26.764  1.00  0.00     0.029 A 
ATOM     56  N   UNL A   1      44.677  30.174  27.749  1.00  0.00    -0.354 N 
ATOM     57  N   UNL A   1      42.246  30.765  29.303  1.00  0.00    -0.248 NA
ATOM     58  C   UNL A   1      40.970  32.242  30.589  1.00  0.00     0.031 C 
ATOM     59  C   UNL A   1      46.172  31.793  27.480  1.00  0.00     0.029 A 
ATOM     60  C   UNL A   1      44.952  31.496  28.066  1.00  0.00     0.049 A 
ATOM     61  H   UNL A   1      43.874  29.681  28.033  1.00  0.00     0.167 HD
ATOM     62  C   UNL A   1      42.903  31.991  29.377  1.00  0.00     0.074 A 
ATOM     63  C   UNL A   1      42.051  32.870  30.151  1.00  0.00     0.031 C 
ATOM     64  C   UNL A   1      44.100  32.358  28.851  1.00  0.00     0.034 A 
BRANCH  51  65
ATOM     65  C   UNL A   1      47.010  27.831  25.774  1.00  0.00     0.023 A 
ATOM     66  C   UNL A   1      47.193  28.062  24.399  1.00  0.00     0.031 A 
ATOM     67  C   UNL A   1      48.032  27.160  26.471  1.00  0.00     0.131 A 
ATOM     68  C   UNL A   1      48.345  27.583  23.756  1.00  0.00     0.055 A 
ATOM     69  C   UNL A   1      49.207  26.746  25.839  1.00  0.00     0.041 A 
ATOM     70  F   UNL A   1      47.904  26.892  27.780  1.00  0.00    -0.206 F 
ATOM     71  C   UNL A   1      49.364  26.948  24.471  1.00  0.00     0.022 A 
BRANCH  68  72
ATOM     72  S   UNL A   1      48.449  27.702  21.949  1.00  0.00     0.124 S 
ATOM     73  O   UNL A   1      47.122  28.209  21.609  1.00  0.00    -0.237 OA
ATOM     74  O   UNL A   1      49.558  28.629  21.756  1.00  0.00    -0.237 OA
ATOM     75  O   UNL A   1      48.709  26.325  21.529  1.00  0.00    -0.744 OA
ENDBRANCH  68  72
ENDBRANCH  51  65
BRANCH  52  76
ATOM     76  C   UNL A   1      38.842  30.271  31.057  1.00  0.00     0.023 A 
ATOM     77  C   UNL A   1      37.774  31.037  30.561  1.00  0.00     0.031 A 
ATOM     78  C   UNL A   1      38.802  29.889  32.411  1.00  0.00     0.131 A 
ATOM     79  C   UNL A   1      36.741  31.438  31.424  1.00  0.00     0.055 A 
ATOM     80  C   UNL A   1      37.745  30.242  33.250  1.00  0.00     0.041 A 
ATOM     81  F   UNL A   1      39.797  29.159  32.939  1.00  0.00    -0.206 F 
ATOM     82  C   UNL A   1      36.712  31.034  32.760  1.00  0.00     0.022 A 
BRANCH  79  83
ATOM     83  S   UNL A   1      35.482  32.587  30.800  1.00  0.00     0.124 S 
ATOM     84  O   UNL A   1      35.347  32.156  29.413  1.00  0.00    -0.237 OA
ATOM     85  O   UNL A   1      34.351  32.300  31.675  1.00  0.00    -0.237 OA
ATOM     86  O   UNL A   1      36.097  33.899  30.988  1.00  0.00    -0.744 OA
ENDBRANCH  79  83
ENDBRANCH  52  76
BRANCH  64  87
ATOM     87  C   UNL A   1      44.534  33.788  29.069  1.00  0.00     0.023 A 
ATOM     88  C   UNL A   1      45.308  34.167  30.180  1.00  0.00     0.031 A 
ATOM     89  C   UNL A   1      44.156  34.788  28.155  1.00  0.00     0.131 A 
ATOM     90  C   UNL A   1      45.632  35.518  30.378  1.00  0.00     0.055 A 
ATOM     91  C   UNL A   1      44.533  36.120  28.324  1.00  0.00     0.041 A 
ATOM     92  F   UNL A   1      43.414  34.484  27.077  1.00  0.00    -0.206 F 
ATOM     93  C   UNL A   1      45.264  36.494  29.448  1.00  0.00     0.022 A 
BRANCH  90  94
ATOM     94  S   UNL A   1      46.464  35.998  31.916  1.00  0.00     0.124 S 
ATOM     95  O   UNL A   1      45.418  35.782  32.909  1.00  0.00    -0.237 OA
ATOM     96  O   UNL A   1      47.591  35.072  31.965  1.00  0.00    -0.237 OA
ATOM     97  O   UNL A   1      46.823  37.398  31.690  1.00  0.00    -0.744 OA
ENDBRANCH  90  94
ENDBRANCH  64  87
ENDBRANCH  38  39
ENDBRANCH  31  33
ENDBRANCH  30  31
ENDBRANCH  29  30
ENDBRANCH  28  29
ENDBRANCH  27  28
ENDBRANCH   1  27
TORSDOF 21
ENDMDL
MODEL 3
REMARK VINA RESULT:     -10.7      6.241     11.926
REMARK SMILES CC1=C(C)C[C@@H](C(=O)OCCOCCOC(=O)c2ccc(-c3c4nc(c(-c5cc(S(=O)(=O)[O-])ccc5F)c5ccc([nH]5)c(-c5cc(S(=O)(=O)[O-])ccc5F)c5nc(c(-c6cc(S(=O)(=O)[O-])ccc6F)c6ccc3[nH]6)C=C5)C=C4)cc2)[C@@H](C(=O)NCC[NH+]2CCOCC2)C1
REMARK SMILES IDX 11 1 10 2 9 3 7 4 8 5 6 6 1 7 2 8 3 9 93 10 4 11 5 12 81 13
REMARK SMILES IDX 82 14 83 15 84 16 85 18 86 19 87 20 88 21 92 22 89 24 91 25
REMARK SMILES IDX 90 26 12 27 13 28 14 29 15 30 16 31 17 32 18 33 19 34 80 35
REMARK SMILES IDX 20 36 79 37 21 38 22 39 23 40 73 41 24 42 78 43 72 44 74 45
REMARK SMILES IDX 25 46 77 47 71 48 70 49 26 51 58 52 38 53 57 54 39 55 42 56
REMARK SMILES IDX 56 57 75 58 40 59 41 60 55 62 76 63 43 64 27 65 28 66 36 67
REMARK SMILES IDX 29 68 35 69 37 70 34 71 30 72 31 73 32 74 33 75 59 76 60 77
REMARK SMILES IDX 68 78 61 79 67 80 69 81 66 82 62 83 63 84 64 85 65 86 44 87
REMARK SMILES IDX 45 88 53 89 46 90 52 91 54 92 51 93 47 94 48 95 49 96 50 97
REMARK H PARENT 84 17 87 23 74 50 42 61
REMARK Flexibility Score: inf
ROOT
ATOM      1  C   UNL A   1      37.657  21.517  24.994  1.00  0.00     0.202 C 
ENDROOT
BRANCH   1   2
ATOM      2  C   UNL A   1      36.499  22.514  25.164  1.00  0.00     0.261 C 
BRANCH   2   3
ATOM      3  O   UNL A   1      36.004  23.195  23.982  1.00  0.00    -0.463 OA
BRANCH   3   4
ATOM      4  C   UNL A   1      34.805  23.794  24.126  1.00  0.00     0.310 C 
ATOM      5  O   UNL A   1      34.623  24.764  24.867  1.00  0.00    -0.252 OA
BRANCH   4   6
ATOM      6  C   UNL A   1      33.602  23.170  23.423  1.00  0.00     0.116 C 
ATOM      7  C   UNL A   1      29.936  25.532  23.804  1.00  0.00     0.039 C 
ATOM      8  C   UNL A   1      31.113  24.699  23.373  1.00  0.00    -0.074 C 
ATOM      9  C   UNL A   1      32.167  25.124  22.648  1.00  0.00    -0.073 C 
ATOM     10  C   UNL A   1      31.016  23.247  23.770  1.00  0.00     0.045 C 
ATOM     11  C   UNL A   1      32.372  26.517  22.119  1.00  0.00     0.039 C 
ATOM     12  C   UNL A   1      33.240  24.133  22.275  1.00  0.00     0.046 C 
ATOM     13  C   UNL A   1      32.352  22.520  24.068  1.00  0.00     0.097 C 
BRANCH  13  14
ATOM     14  C   UNL A   1      32.356  22.176  25.551  1.00  0.00     0.224 C 
ATOM     15  O   UNL A   1      31.756  22.872  26.370  1.00  0.00    -0.275 OA
ATOM     16  N   UNL A   1      32.955  21.037  26.021  1.00  0.00    -0.350 N 
ATOM     17  H   UNL A   1      32.891  20.933  26.997  1.00  0.00     0.163 HD
BRANCH  16  18
ATOM     18  C   UNL A   1      33.671  19.942  25.364  1.00  0.00     0.177 C 
BRANCH  18  19
ATOM     19  C   UNL A   1      32.789  18.705  25.044  1.00  0.00     0.283 C 
BRANCH  19  20
ATOM     20  N   UNL A   1      33.393  17.454  24.619  1.00  0.00    -0.330 N 
ATOM     21  C   UNL A   1      32.717  16.171  24.573  1.00  0.00     0.291 C 
ATOM     22  C   UNL A   1      34.851  17.368  24.525  1.00  0.00     0.291 C 
ATOM     23  H   UNL A   1      32.908  17.800  23.791  1.00  0.00     0.348 HD
ATOM     24  C   UNL A   1      33.363  15.171  25.540  1.00  0.00     0.221 C 
ATOM     25  C   UNL A   1      35.466  16.227  25.366  1.00  0.00     0.221 C 
ATOM     26  O   UNL A   1      34.748  14.998  25.218  1.00  0.00    -0.370 OA
ENDBRANCH  19  20
ENDBRANCH  18  19
ENDBRANCH  16  18
ENDBRANCH  13  14
ENDBRANCH   4   6
ENDBRANCH   3   4
ENDBRANCH   2   3
ENDBRANCH   1   2
BRANCH   1  27
ATOM     27  O   UNL A   1      37.391  20.126  24.981  1.00  0.00    -0.374 OA
BRANCH  27  28
ATOM     28  C   UNL A   1      38.421  19.195  25.236  1.00  0.00     0.202 C 
BRANCH  28  29
ATOM     29  C   UNL A   1      39.689  19.563  26.005  1.00  0.00     0.261 C 
BRANCH  29  30
ATOM     30  O   UNL A   1      40.962  19.416  25.391  1.00  0.00    -0.460 OA
BRANCH  30  31
ATOM     31  C   UNL A   1      42.031  19.431  26.206  1.00  0.00     0.338 C 
ATOM     32  O   UNL A   1      42.690  18.462  26.563  1.00  0.00    -0.246 OA
BRANCH  31  33
ATOM     33  C   UNL A   1      42.387  20.831  26.488  1.00  0.00     0.060 A 
ATOM     34  C   UNL A   1      42.526  21.686  25.395  1.00  0.00     0.016 A 
ATOM     35  C   UNL A   1      42.586  21.301  27.792  1.00  0.00     0.016 A 
ATOM     36  C   UNL A   1      42.883  23.015  25.599  1.00  0.00     0.010 A 
ATOM     37  C   UNL A   1      42.953  22.638  27.994  1.00  0.00     0.010 A 
ATOM     38  C   UNL A   1      43.117  23.498  26.896  1.00  0.00    -0.014 A 
BRANCH  38  39
ATOM     39  C   UNL A   1      43.567  24.903  27.056  1.00  0.00     0.031 A 
ATOM     40  C   UNL A   1      42.617  25.938  27.590  1.00  0.00     0.074 A 
ATOM     41  C   UNL A   1      44.850  25.223  26.800  1.00  0.00     0.049 A 
ATOM     42  N   UNL A   1      42.847  27.185  27.909  1.00  0.00    -0.248 NA
ATOM     43  C   UNL A   1      41.226  25.509  27.796  1.00  0.00     0.031 C 
ATOM     44  C   UNL A   1      45.858  24.292  26.290  1.00  0.00     0.029 A 
ATOM     45  N   UNL A   1      45.530  26.405  26.947  1.00  0.00    -0.354 N 
ATOM     46  C   UNL A   1      41.634  27.692  28.361  1.00  0.00     0.074 A 
ATOM     47  C   UNL A   1      40.663  26.625  28.241  1.00  0.00     0.031 C 
ATOM     48  C   UNL A   1      47.031  24.938  26.176  1.00  0.00     0.029 A 
ATOM     49  C   UNL A   1      46.852  26.333  26.575  1.00  0.00     0.049 A 
ATOM     50  H   UNL A   1      45.110  27.228  27.288  1.00  0.00     0.167 HD
ATOM     51  C   UNL A   1      41.364  28.932  28.839  1.00  0.00     0.034 A 
ATOM     52  C   UNL A   1      47.807  27.285  26.549  1.00  0.00     0.034 A 
ATOM     53  C   UNL A   1      42.345  29.985  28.942  1.00  0.00     0.049 A 
ATOM     54  C   UNL A   1      47.464  28.670  27.041  1.00  0.00     0.074 A 
ATOM     55  C   UNL A   1      42.186  31.264  29.448  1.00  0.00     0.029 A 
ATOM     56  N   UNL A   1      43.664  29.892  28.514  1.00  0.00    -0.354 N 
ATOM     57  N   UNL A   1      46.325  29.120  27.516  1.00  0.00    -0.248 NA
ATOM     58  C   UNL A   1      48.539  29.671  27.008  1.00  0.00     0.031 C 
ATOM     59  C   UNL A   1      43.382  31.965  29.256  1.00  0.00     0.029 A 
ATOM     60  C   UNL A   1      44.315  31.102  28.706  1.00  0.00     0.049 A 
ATOM     61  H   UNL A   1      44.076  29.085  28.131  1.00  0.00     0.167 HD
ATOM     62  C   UNL A   1      46.557  30.449  27.863  1.00  0.00     0.074 A 
ATOM     63  C   UNL A   1      47.947  30.719  27.560  1.00  0.00     0.031 C 
ATOM     64  C   UNL A   1      45.699  31.362  28.387  1.00  0.00     0.034 A 
BRANCH  51  65
ATOM     65  C   UNL A   1      39.939  29.234  29.235  1.00  0.00     0.023 A 
ATOM     66  C   UNL A   1      39.530  29.281  30.579  1.00  0.00     0.031 A 
ATOM     67  C   UNL A   1      38.972  29.484  28.244  1.00  0.00     0.131 A 
ATOM     68  C   UNL A   1      38.183  29.521  30.894  1.00  0.00     0.055 A 
ATOM     69  C   UNL A   1      37.648  29.789  28.565  1.00  0.00     0.041 A 
ATOM     70  F   UNL A   1      39.298  29.431  26.943  1.00  0.00    -0.206 F 
ATOM     71  C   UNL A   1      37.244  29.799  29.897  1.00  0.00     0.022 A 
BRANCH  68  72
ATOM     72  S   UNL A   1      37.646  29.357  32.619  1.00  0.00     0.124 S 
ATOM     73  O   UNL A   1      36.289  29.893  32.558  1.00  0.00    -0.237 OA
ATOM     74  O   UNL A   1      37.757  27.921  32.848  1.00  0.00    -0.237 OA
ATOM     75  O   UNL A   1      38.602  30.181  33.356  1.00  0.00    -0.744 OA
ENDBRANCH  68  72
ENDBRANCH  51  65
BRANCH  52  76
ATOM     76  C   UNL A   1      49.161  26.982  26.000  1.00  0.00     0.023 A 
ATOM     77  C   UNL A   1      50.253  26.711  26.840  1.00  0.00     0.031 A 
ATOM     78  C   UNL A   1      49.393  27.021  24.612  1.00  0.00     0.131 A 
ATOM     79  C   UNL A   1      51.534  26.540  26.288  1.00  0.00     0.055 A 
ATOM     80  C   UNL A   1      50.656  26.794  24.066  1.00  0.00     0.041 A 
ATOM     81  F   UNL A   1      48.386  27.279  23.763  1.00  0.00    -0.206 F 
ATOM     82  C   UNL A   1      51.740  26.566  24.907  1.00  0.00     0.022 A 
BRANCH  79  83
ATOM     83  S   UNL A   1      52.952  26.386  27.411  1.00  0.00     0.124 S 
ATOM     84  O   UNL A   1      53.634  27.658  27.205  1.00  0.00    -0.237 OA
ATOM     85  O   UNL A   1      52.298  26.209  28.702  1.00  0.00    -0.237 OA
ATOM     86  O   UNL A   1      53.658  25.210  26.905  1.00  0.00    -0.744 OA
ENDBRANCH  79  83
ENDBRANCH  52  76
BRANCH  64  87
ATOM     87  C   UNL A   1      46.261  32.729  28.698  1.00  0.00     0.023 A 
ATOM     88  C   UNL A   1      46.266  33.764  27.747  1.00  0.00     0.031 A 
ATOM     89  C   UNL A   1      46.811  32.994  29.966  1.00  0.00     0.131 A 
ATOM     90  C   UNL A   1      46.858  34.997  28.058  1.00  0.00     0.055 A 
ATOM     91  C   UNL A   1      47.343  34.242  30.290  1.00  0.00     0.041 A 
ATOM     92  F   UNL A   1      46.836  32.043  30.913  1.00  0.00    -0.206 F 
ATOM     93  C   UNL A   1      47.382  35.249  29.329  1.00  0.00     0.022 A 
BRANCH  90  94
ATOM     94  S   UNL A   1      47.019  36.242  26.748  1.00  0.00     0.124 S 
ATOM     95  O   UNL A   1      46.403  35.568  25.610  1.00  0.00    -0.237 OA
ATOM     96  O   UNL A   1      46.278  37.372  27.298  1.00  0.00    -0.237 OA
ATOM     97  O   UNL A   1      48.464  36.442  26.641  1.00  0.00    -0.744 OA
ENDBRANCH  90  94
ENDBRANCH  64  87
ENDBRANCH  38  39
ENDBRANCH  31  33
ENDBRANCH  30  31
ENDBRANCH  29  30
ENDBRANCH  28  29
ENDBRANCH  27  28
ENDBRANCH   1  27
TORSDOF 21
ENDMDL
