MODEL 1
REMARK VINA RESULT:     -11.2      0.000      0.000
REMARK SMILES C[C@@H](c1ccncc1)N1C[C@@H](C(=O)OCCOCCOC(=O)c2ccc(-c3c4nc(c(-c5cc(S(=O)(=O)[O-])ccc5F)c5ccc([nH]5)c(-c5cc(S(=O)(=O)[O-])ccc5F)c5nc(c(-c6cc(S(=O)(=O)[O-])ccc6F)c6ccc3[nH]6)C=C5)C=C4)cc2)CC1=O
REMARK SMILES IDX 18 1 17 2 16 3 15 4 14 5 12 6 13 7 11 8 9 9 10 10 87 11
REMARK SMILES IDX 86 12 88 13 2 14 1 15 3 16 4 17 8 18 5 19 7 20 6 21 19 22
REMARK SMILES IDX 20 23 21 24 22 25 23 26 24 27 85 28 25 29 84 30 26 31 27 32
REMARK SMILES IDX 28 33 78 34 29 35 83 36 77 37 79 38 30 39 82 40 76 41 75 42
REMARK SMILES IDX 31 44 63 45 43 46 62 47 44 48 47 49 61 50 80 51 45 52 46 53
REMARK SMILES IDX 60 55 81 56 48 57 32 58 33 59 41 60 34 61 40 62 42 63 39 64
REMARK SMILES IDX 35 65 36 66 37 67 38 68 64 69 65 70 73 71 66 72 72 73 74 74
REMARK SMILES IDX 71 75 67 76 68 77 69 78 70 79 49 80 50 81 58 82 51 83 57 84
REMARK SMILES IDX 59 85 56 86 52 87 53 88 54 89 55 90
REMARK H PARENT 79 43 47 54
REMARK Flexibility Score: inf
ROOT
ATOM      1  C   UNL A   1      35.834  20.846  25.017  1.00  0.00     0.202 C 
ENDROOT
BRANCH   1   2
ATOM      2  O   UNL A   1      34.709  19.968  25.002  1.00  0.00    -0.374 OA
BRANCH   2   3
ATOM      3  C   UNL A   1      33.400  20.526  25.034  1.00  0.00     0.202 C 
BRANCH   3   4
ATOM      4  C   UNL A   1      33.130  21.652  26.036  1.00  0.00     0.261 C 
BRANCH   4   5
ATOM      5  O   UNL A   1      31.945  22.394  25.719  1.00  0.00    -0.463 OA
BRANCH   5   6
ATOM      6  C   UNL A   1      31.959  23.683  26.133  1.00  0.00     0.311 C 
ATOM      7  O   UNL A   1      31.406  24.118  27.138  1.00  0.00    -0.252 OA
BRANCH   6   8
ATOM      8  C   UNL A   1      32.719  24.590  25.216  1.00  0.00     0.128 C 
ATOM      9  N   UNL A   1      32.441  26.573  24.012  1.00  0.00    -0.335 N 
ATOM     10  C   UNL A   1      31.990  25.910  25.213  1.00  0.00     0.136 C 
ATOM     11  C   UNL A   1      33.075  25.660  23.169  1.00  0.00     0.224 C 
ATOM     12  C   UNL A   1      32.869  24.274  23.742  1.00  0.00     0.117 C 
ATOM     13  O   UNL A   1      33.687  25.893  22.141  1.00  0.00    -0.275 OA
BRANCH   9  14
ATOM     14  C   UNL A   1      32.367  28.039  23.815  1.00  0.00     0.112 C 
ATOM     15  C   UNL A   1      30.985  28.477  23.301  1.00  0.00     0.036 C 
BRANCH  14  16
ATOM     16  C   UNL A   1      32.794  28.827  25.062  1.00  0.00    -0.023 A 
ATOM     17  C   UNL A   1      33.994  28.509  25.722  1.00  0.00     0.026 A 
ATOM     18  C   UNL A   1      32.012  29.842  25.629  1.00  0.00     0.026 A 
ATOM     19  C   UNL A   1      34.294  29.122  26.930  1.00  0.00     0.111 A 
ATOM     20  C   UNL A   1      32.428  30.444  26.809  1.00  0.00     0.111 A 
ATOM     21  N   UNL A   1      33.542  30.092  27.483  1.00  0.00    -0.265 NA
ENDBRANCH  14  16
ENDBRANCH   9  14
ENDBRANCH   6   8
ENDBRANCH   5   6
ENDBRANCH   4   5
ENDBRANCH   3   4
ENDBRANCH   2   3
ENDBRANCH   1   2
BRANCH   1  22
ATOM     22  C   UNL A   1      37.245  20.246  25.013  1.00  0.00     0.261 C 
BRANCH  22  23
ATOM     23  O   UNL A   1      38.286  21.239  25.030  1.00  0.00    -0.460 OA
BRANCH  23  24
ATOM     24  C   UNL A   1      39.262  21.006  25.942  1.00  0.00     0.338 C 
ATOM     25  O   UNL A   1      39.867  19.953  26.114  1.00  0.00    -0.246 OA
BRANCH  24  26
ATOM     26  C   UNL A   1      39.668  22.256  26.604  1.00  0.00     0.060 A 
ATOM     27  C   UNL A   1      38.981  23.426  26.253  1.00  0.00     0.016 A 
ATOM     28  C   UNL A   1      40.771  22.308  27.457  1.00  0.00     0.016 A 
ATOM     29  C   UNL A   1      39.427  24.662  26.714  1.00  0.00     0.010 A 
ATOM     30  C   UNL A   1      41.224  23.553  27.911  1.00  0.00     0.010 A 
ATOM     31  C   UNL A   1      40.576  24.737  27.510  1.00  0.00    -0.014 A 
BRANCH  31  32
ATOM     32  C   UNL A   1      41.184  26.063  27.782  1.00  0.00     0.031 A 
ATOM     33  C   UNL A   1      42.547  26.367  27.221  1.00  0.00     0.074 A 
ATOM     34  C   UNL A   1      40.511  26.998  28.476  1.00  0.00     0.049 A 
ATOM     35  N   UNL A   1      43.279  27.444  27.350  1.00  0.00    -0.248 NA
ATOM     36  C   UNL A   1      43.167  25.312  26.405  1.00  0.00     0.031 C 
ATOM     37  C   UNL A   1      39.164  26.836  29.021  1.00  0.00     0.029 A 
ATOM     38  N   UNL A   1      40.872  28.271  28.842  1.00  0.00    -0.354 N 
ATOM     39  C   UNL A   1      44.447  27.197  26.636  1.00  0.00     0.074 A 
ATOM     40  C   UNL A   1      44.339  25.853  26.109  1.00  0.00     0.031 C 
ATOM     41  C   UNL A   1      38.814  27.965  29.661  1.00  0.00     0.029 A 
ATOM     42  C   UNL A   1      39.925  28.913  29.605  1.00  0.00     0.049 A 
ATOM     43  H   UNL A   1      41.726  28.684  28.584  1.00  0.00     0.167 HD
ATOM     44  C   UNL A   1      45.506  28.019  26.432  1.00  0.00     0.034 A 
ATOM     45  C   UNL A   1      39.963  30.117  30.210  1.00  0.00     0.034 A 
ATOM     46  C   UNL A   1      45.602  29.352  26.976  1.00  0.00     0.049 A 
ATOM     47  C   UNL A   1      41.192  30.980  30.046  1.00  0.00     0.074 A 
ATOM     48  C   UNL A   1      46.623  30.274  26.825  1.00  0.00     0.029 A 
ATOM     49  N   UNL A   1      44.647  29.951  27.788  1.00  0.00    -0.354 N 
ATOM     50  N   UNL A   1      42.288  30.737  29.365  1.00  0.00    -0.248 NA
ATOM     51  C   UNL A   1      41.183  32.283  30.726  1.00  0.00     0.031 C 
ATOM     52  C   UNL A   1      46.320  31.398  27.602  1.00  0.00     0.029 A 
ATOM     53  C   UNL A   1      45.071  31.214  28.174  1.00  0.00     0.049 A 
ATOM     54  H   UNL A   1      43.792  29.539  28.051  1.00  0.00     0.167 HD
ATOM     55  C   UNL A   1      43.084  31.871  29.510  1.00  0.00     0.074 A 
ATOM     56  C   UNL A   1      42.336  32.801  30.331  1.00  0.00     0.031 C 
ATOM     57  C   UNL A   1      44.319  32.125  29.006  1.00  0.00     0.034 A 
BRANCH  44  58
ATOM     58  C   UNL A   1      46.666  27.471  25.634  1.00  0.00     0.023 A 
ATOM     59  C   UNL A   1      46.960  27.931  24.339  1.00  0.00     0.031 A 
ATOM     60  C   UNL A   1      47.471  26.448  26.168  1.00  0.00     0.131 A 
ATOM     61  C   UNL A   1      47.983  27.323  23.595  1.00  0.00     0.055 A 
ATOM     62  C   UNL A   1      48.539  25.903  25.453  1.00  0.00     0.041 A 
ATOM     63  F   UNL A   1      47.225  25.952  27.390  1.00  0.00    -0.206 F 
ATOM     64  C   UNL A   1      48.791  26.329  24.152  1.00  0.00     0.022 A 
BRANCH  61  65
ATOM     65  S   UNL A   1      48.154  27.751  21.840  1.00  0.00     0.124 S 
ATOM     66  O   UNL A   1      46.881  28.419  21.574  1.00  0.00    -0.237 OA
ATOM     67  O   UNL A   1      49.337  28.603  21.837  1.00  0.00    -0.237 OA
ATOM     68  O   UNL A   1      48.317  26.454  21.186  1.00  0.00    -0.744 OA
ENDBRANCH  61  65
ENDBRANCH  44  58
BRANCH  45  69
ATOM     69  C   UNL A   1      38.827  30.568  31.066  1.00  0.00     0.023 A 
ATOM     70  C   UNL A   1      37.770  31.324  30.535  1.00  0.00     0.031 A 
ATOM     71  C   UNL A   1      38.813  30.293  32.445  1.00  0.00     0.131 A 
ATOM     72  C   UNL A   1      36.767  31.817  31.385  1.00  0.00     0.055 A 
ATOM     73  C   UNL A   1      37.786  30.740  33.278  1.00  0.00     0.041 A 
ATOM     74  F   UNL A   1      39.800  29.575  33.004  1.00  0.00    -0.206 F 
ATOM     75  C   UNL A   1      36.762  31.519  32.750  1.00  0.00     0.022 A 
BRANCH  72  76
ATOM     76  S   UNL A   1      35.513  32.930  30.696  1.00  0.00     0.124 S 
ATOM     77  O   UNL A   1      36.041  34.239  31.064  1.00  0.00    -0.237 OA
ATOM     78  O   UNL A   1      35.560  32.595  29.276  1.00  0.00    -0.237 OA
ATOM     79  O   UNL A   1      34.288  32.533  31.387  1.00  0.00    -0.744 OA
ENDBRANCH  72  76
ENDBRANCH  45  69
BRANCH  57  80
ATOM     80  C   UNL A   1      44.913  33.484  29.292  1.00  0.00     0.023 A 
ATOM     81  C   UNL A   1      44.650  34.596  28.475  1.00  0.00     0.031 A 
ATOM     82  C   UNL A   1      45.765  33.662  30.397  1.00  0.00     0.131 A 
ATOM     83  C   UNL A   1      45.277  35.824  28.741  1.00  0.00     0.055 A 
ATOM     84  C   UNL A   1      46.337  34.901  30.693  1.00  0.00     0.041 A 
ATOM     85  F   UNL A   1      46.054  32.635  31.211  1.00  0.00    -0.206 F 
ATOM     86  C   UNL A   1      46.105  35.988  29.855  1.00  0.00     0.022 A 
BRANCH  83  87
ATOM     87  S   UNL A   1      45.070  37.184  27.558  1.00  0.00     0.124 S 
ATOM     88  O   UNL A   1      43.803  36.841  26.921  1.00  0.00    -0.237 OA
ATOM     89  O   UNL A   1      45.050  38.355  28.429  1.00  0.00    -0.237 OA
ATOM     90  O   UNL A   1      46.247  37.073  26.699  1.00  0.00    -0.744 OA
ENDBRANCH  83  87
ENDBRANCH  57  80
ENDBRANCH  31  32
ENDBRANCH  24  26
ENDBRANCH  23  24
ENDBRANCH  22  23
ENDBRANCH   1  22
TORSDOF 19
ENDMDL
MODEL 2
REMARK VINA RESULT:     -11.2      1.941      7.890
REMARK SMILES C[C@@H](c1ccncc1)N1C[C@@H](C(=O)OCCOCCOC(=O)c2ccc(-c3c4nc(c(-c5cc(S(=O)(=O)[O-])ccc5F)c5ccc([nH]5)c(-c5cc(S(=O)(=O)[O-])ccc5F)c5nc(c(-c6cc(S(=O)(=O)[O-])ccc6F)c6ccc3[nH]6)C=C5)C=C4)cc2)CC1=O
REMARK SMILES IDX 18 1 17 2 16 3 15 4 14 5 12 6 13 7 11 8 9 9 10 10 87 11
REMARK SMILES IDX 86 12 88 13 2 14 1 15 3 16 4 17 8 18 5 19 7 20 6 21 19 22
REMARK SMILES IDX 20 23 21 24 22 25 23 26 24 27 85 28 25 29 84 30 26 31 27 32
REMARK SMILES IDX 28 33 78 34 29 35 83 36 77 37 79 38 30 39 82 40 76 41 75 42
REMARK SMILES IDX 31 44 63 45 43 46 62 47 44 48 47 49 61 50 80 51 45 52 46 53
REMARK SMILES IDX 60 55 81 56 48 57 32 58 33 59 41 60 34 61 40 62 42 63 39 64
REMARK SMILES IDX 35 65 36 66 37 67 38 68 64 69 65 70 73 71 66 72 72 73 74 74
REMARK SMILES IDX 71 75 67 76 68 77 69 78 70 79 49 80 50 81 58 82 51 83 57 84
REMARK SMILES IDX 59 85 56 86 52 87 53 88 54 89 55 90
REMARK H PARENT 79 43 47 54
REMARK Flexibility Score: inf
ROOT
ATOM      1  C   UNL A   1      35.686  20.986  24.809  1.00  0.00     0.202 C 
ENDROOT
BRANCH   1   2
ATOM      2  O   UNL A   1      34.947  21.415  25.953  1.00  0.00    -0.374 OA
BRANCH   2   3
ATOM      3  C   UNL A   1      33.578  21.775  25.792  1.00  0.00     0.202 C 
BRANCH   3   4
ATOM      4  C   UNL A   1      33.174  23.210  26.140  1.00  0.00     0.261 C 
BRANCH   4   5
ATOM      5  O   UNL A   1      31.958  23.608  25.492  1.00  0.00    -0.463 OA
BRANCH   5   6
ATOM      6  C   UNL A   1      31.053  24.200  26.308  1.00  0.00     0.311 C 
ATOM      7  O   UNL A   1      30.479  23.663  27.250  1.00  0.00    -0.252 OA
BRANCH   6   8
ATOM      8  C   UNL A   1      30.771  25.624  25.942  1.00  0.00     0.128 C 
ATOM      9  N   UNL A   1      31.238  27.173  24.255  1.00  0.00    -0.335 N 
ATOM     10  C   UNL A   1      31.059  25.755  24.467  1.00  0.00     0.136 C 
ATOM     11  C   UNL A   1      31.416  27.821  25.477  1.00  0.00     0.224 C 
ATOM     12  C   UNL A   1      31.560  26.765  26.551  1.00  0.00     0.117 C 
ATOM     13  O   UNL A   1      31.464  29.022  25.684  1.00  0.00    -0.275 OA
BRANCH   9  14
ATOM     14  C   UNL A   1      31.084  27.824  22.933  1.00  0.00     0.112 C 
ATOM     15  C   UNL A   1      31.335  26.838  21.779  1.00  0.00     0.036 C 
BRANCH  14  16
ATOM     16  C   UNL A   1      29.741  28.555  22.786  1.00  0.00    -0.023 A 
ATOM     17  C   UNL A   1      29.700  29.856  22.257  1.00  0.00     0.026 A 
ATOM     18  C   UNL A   1      28.523  28.005  23.206  1.00  0.00     0.026 A 
ATOM     19  C   UNL A   1      28.506  30.562  22.268  1.00  0.00     0.111 A 
ATOM     20  C   UNL A   1      27.366  28.767  23.118  1.00  0.00     0.111 A 
ATOM     21  N   UNL A   1      27.334  30.042  22.678  1.00  0.00    -0.265 NA
ENDBRANCH  14  16
ENDBRANCH   9  14
ENDBRANCH   6   8
ENDBRANCH   5   6
ENDBRANCH   4   5
ENDBRANCH   3   4
ENDBRANCH   2   3
ENDBRANCH   1   2
BRANCH   1  22
ATOM     22  C   UNL A   1      37.037  20.292  25.016  1.00  0.00     0.261 C 
BRANCH  22  23
ATOM     23  O   UNL A   1      38.153  21.198  24.987  1.00  0.00    -0.460 OA
BRANCH  23  24
ATOM     24  C   UNL A   1      39.106  20.939  25.917  1.00  0.00     0.338 C 
ATOM     25  O   UNL A   1      39.648  19.859  26.127  1.00  0.00    -0.246 OA
BRANCH  24  26
ATOM     26  C   UNL A   1      39.576  22.183  26.544  1.00  0.00     0.060 A 
ATOM     27  C   UNL A   1      39.092  23.393  26.025  1.00  0.00     0.016 A 
ATOM     28  C   UNL A   1      40.558  22.178  27.536  1.00  0.00     0.016 A 
ATOM     29  C   UNL A   1      39.627  24.602  26.462  1.00  0.00     0.010 A 
ATOM     30  C   UNL A   1      41.100  23.395  27.966  1.00  0.00     0.010 A 
ATOM     31  C   UNL A   1      40.663  24.610  27.402  1.00  0.00    -0.014 A 
BRANCH  31  32
ATOM     32  C   UNL A   1      41.393  25.874  27.668  1.00  0.00     0.031 A 
ATOM     33  C   UNL A   1      40.688  26.980  28.406  1.00  0.00     0.074 A 
ATOM     34  C   UNL A   1      42.679  26.015  27.300  1.00  0.00     0.049 A 
ATOM     35  N   UNL A   1      41.118  28.174  28.725  1.00  0.00    -0.248 NA
ATOM     36  C   UNL A   1      39.311  26.700  28.841  1.00  0.00     0.031 C 
ATOM     37  C   UNL A   1      43.480  24.993  26.628  1.00  0.00     0.029 A 
ATOM     38  N   UNL A   1      43.536  27.078  27.438  1.00  0.00    -0.354 N 
ATOM     39  C   UNL A   1      40.065  28.789  29.395  1.00  0.00     0.074 A 
ATOM     40  C   UNL A   1      38.964  27.849  29.401  1.00  0.00     0.031 C 
ATOM     41  C   UNL A   1      44.712  25.482  26.405  1.00  0.00     0.029 A 
ATOM     42  C   UNL A   1      44.775  26.863  26.881  1.00  0.00     0.049 A 
ATOM     43  H   UNL A   1      43.288  27.914  27.893  1.00  0.00     0.167 HD
ATOM     44  C   UNL A   1      40.024  30.022  29.960  1.00  0.00     0.034 A 
ATOM     45  C   UNL A   1      45.827  27.694  26.747  1.00  0.00     0.034 A 
ATOM     46  C   UNL A   1      41.128  30.951  29.934  1.00  0.00     0.049 A 
ATOM     47  C   UNL A   1      45.728  29.095  27.304  1.00  0.00     0.074 A 
ATOM     48  C   UNL A   1      41.200  32.220  30.482  1.00  0.00     0.029 A 
ATOM     49  N   UNL A   1      42.350  30.720  29.314  1.00  0.00    -0.354 N 
ATOM     50  N   UNL A   1      44.729  29.665  27.938  1.00  0.00    -0.248 NA
ATOM     51  C   UNL A   1      46.902  29.961  27.132  1.00  0.00     0.031 C 
ATOM     52  C   UNL A   1      42.433  32.782  30.133  1.00  0.00     0.029 A 
ATOM     53  C   UNL A   1      43.167  31.834  29.436  1.00  0.00     0.049 A 
ATOM     54  H   UNL A   1      42.600  29.885  28.856  1.00  0.00     0.167 HD
ATOM     55  C   UNL A   1      45.169  30.944  28.268  1.00  0.00     0.074 A 
ATOM     56  C   UNL A   1      46.526  31.057  27.774  1.00  0.00     0.031 C 
ATOM     57  C   UNL A   1      44.514  31.936  28.925  1.00  0.00     0.034 A 
BRANCH  44  58
ATOM     58  C   UNL A   1      38.725  30.449  30.600  1.00  0.00     0.023 A 
ATOM     59  C   UNL A   1      37.798  31.263  29.927  1.00  0.00     0.031 A 
ATOM     60  C   UNL A   1      38.424  30.059  31.918  1.00  0.00     0.131 A 
ATOM     61  C   UNL A   1      36.650  31.719  30.595  1.00  0.00     0.055 A 
ATOM     62  C   UNL A   1      37.242  30.451  32.550  1.00  0.00     0.041 A 
ATOM     63  F   UNL A   1      39.281  29.301  32.619  1.00  0.00    -0.206 F 
ATOM     64  C   UNL A   1      36.354  31.298  31.894  1.00  0.00     0.022 A 
BRANCH  61  65
ATOM     65  S   UNL A   1      35.623  32.982  29.796  1.00  0.00     0.124 S 
ATOM     66  O   UNL A   1      36.546  33.529  28.804  1.00  0.00    -0.237 OA
ATOM     67  O   UNL A   1      34.511  32.198  29.270  1.00  0.00    -0.237 OA
ATOM     68  O   UNL A   1      35.284  33.890  30.889  1.00  0.00    -0.744 OA
ENDBRANCH  61  65
ENDBRANCH  44  58
BRANCH  45  69
ATOM     69  C   UNL A   1      47.052  27.251  26.021  1.00  0.00     0.023 A 
ATOM     70  C   UNL A   1      48.095  26.587  26.687  1.00  0.00     0.031 A 
ATOM     71  C   UNL A   1      47.219  27.536  24.654  1.00  0.00     0.131 A 
ATOM     72  C   UNL A   1      49.275  26.271  25.996  1.00  0.00     0.055 A 
ATOM     73  C   UNL A   1      48.373  27.172  23.958  1.00  0.00     0.041 A 
ATOM     74  F   UNL A   1      46.254  28.170  23.969  1.00  0.00    -0.206 F 
ATOM     75  C   UNL A   1      49.416  26.547  24.635  1.00  0.00     0.022 A 
BRANCH  72  76
ATOM     76  S   UNL A   1      50.664  25.569  26.927  1.00  0.00     0.124 S 
ATOM     77  O   UNL A   1      50.026  24.454  27.619  1.00  0.00    -0.237 OA
ATOM     78  O   UNL A   1      51.594  25.214  25.860  1.00  0.00    -0.237 OA
ATOM     79  O   UNL A   1      51.093  26.672  27.783  1.00  0.00    -0.744 OA
ENDBRANCH  72  76
ENDBRANCH  45  69
BRANCH  57  80
ATOM     80  C   UNL A   1      45.281  33.211  29.187  1.00  0.00     0.023 A 
ATOM     81  C   UNL A   1      45.179  34.326  28.339  1.00  0.00     0.031 A 
ATOM     82  C   UNL A   1      46.135  33.304  30.301  1.00  0.00     0.131 A 
ATOM     83  C   UNL A   1      45.961  35.466  28.584  1.00  0.00     0.055 A 
ATOM     84  C   UNL A   1      46.863  34.463  30.575  1.00  0.00     0.041 A 
ATOM     85  F   UNL A   1      46.274  32.270  31.145  1.00  0.00    -0.206 F 
ATOM     86  C   UNL A   1      46.790  35.548  29.706  1.00  0.00     0.022 A 
BRANCH  83  87
ATOM     87  S   UNL A   1      45.952  36.809  27.364  1.00  0.00     0.124 S 
ATOM     88  O   UNL A   1      44.666  37.447  27.624  1.00  0.00    -0.237 OA
ATOM     89  O   UNL A   1      47.134  37.579  27.740  1.00  0.00    -0.237 OA
ATOM     90  O   UNL A   1      46.051  36.110  26.084  1.00  0.00    -0.744 OA
ENDBRANCH  83  87
ENDBRANCH  57  80
ENDBRANCH  31  32
ENDBRANCH  24  26
ENDBRANCH  23  24
ENDBRANCH  22  23
ENDBRANCH   1  22
TORSDOF 19
ENDMDL
MODEL 3
REMARK VINA RESULT:     -11.0      1.274      2.022
REMARK SMILES C[C@@H](c1ccncc1)N1C[C@@H](C(=O)OCCOCCOC(=O)c2ccc(-c3c4nc(c(-c5cc(S(=O)(=O)[O-])ccc5F)c5ccc([nH]5)c(-c5cc(S(=O)(=O)[O-])ccc5F)c5nc(c(-c6cc(S(=O)(=O)[O-])ccc6F)c6ccc3[nH]6)C=C5)C=C4)cc2)CC1=O
REMARK SMILES IDX 18 1 17 2 16 3 15 4 14 5 12 6 13 7 11 8 9 9 10 10 87 11
REMARK SMILES IDX 86 12 88 13 2 14 1 15 3 16 4 17 8 18 5 19 7 20 6 21 19 22
REMARK SMILES IDX 20 23 21 24 22 25 23 26 24 27 85 28 25 29 84 30 26 31 27 32
REMARK SMILES IDX 28 33 78 34 29 35 83 36 77 37 79 38 30 39 82 40 76 41 75 42
REMARK SMILES IDX 31 44 63 45 43 46 62 47 44 48 47 49 61 50 80 51 45 52 46 53
REMARK SMILES IDX 60 55 81 56 48 57 32 58 33 59 41 60 34 61 40 62 42 63 39 64
REMARK SMILES IDX 35 65 36 66 37 67 38 68 64 69 65 70 73 71 66 72 72 73 74 74
REMARK SMILES IDX 71 75 67 76 68 77 69 78 70 79 49 80 50 81 58 82 51 83 57 84
REMARK SMILES IDX 59 85 56 86 52 87 53 88 54 89 55 90
REMARK H PARENT 79 43 47 54
REMARK Flexibility Score: inf
ROOT
ATOM      1  C   UNL A   1      35.750  20.555  24.870  1.00  0.00     0.202 C 
ENDROOT
BRANCH   1   2
ATOM      2  O   UNL A   1      34.373  20.594  25.243  1.00  0.00    -0.374 OA
BRANCH   2   3
ATOM      3  C   UNL A   1      33.568  21.679  24.791  1.00  0.00     0.202 C 
BRANCH   3   4
ATOM      4  C   UNL A   1      32.352  22.064  25.638  1.00  0.00     0.261 C 
BRANCH   4   5
ATOM      5  O   UNL A   1      31.832  23.356  25.292  1.00  0.00    -0.463 OA
BRANCH   5   6
ATOM      6  C   UNL A   1      31.328  24.057  26.335  1.00  0.00     0.311 C 
ATOM      7  O   UNL A   1      31.161  23.629  27.472  1.00  0.00    -0.252 OA
BRANCH   6   8
ATOM      8  C   UNL A   1      30.945  25.458  25.974  1.00  0.00     0.128 C 
ATOM      9  N   UNL A   1      31.290  27.038  24.286  1.00  0.00    -0.335 N 
ATOM     10  C   UNL A   1      31.211  25.611  24.497  1.00  0.00     0.136 C 
ATOM     11  C   UNL A   1      31.432  27.696  25.507  1.00  0.00     0.224 C 
ATOM     12  C   UNL A   1      31.658  26.651  26.578  1.00  0.00     0.117 C 
ATOM     13  O   UNL A   1      31.399  28.896  25.717  1.00  0.00    -0.275 OA
BRANCH   9  14
ATOM     14  C   UNL A   1      31.081  27.678  22.967  1.00  0.00     0.112 C 
ATOM     15  C   UNL A   1      31.319  26.692  21.810  1.00  0.00     0.036 C 
BRANCH  14  16
ATOM     16  C   UNL A   1      29.717  28.377  22.857  1.00  0.00    -0.023 A 
ATOM     17  C   UNL A   1      29.632  29.683  22.345  1.00  0.00     0.026 A 
ATOM     18  C   UNL A   1      28.522  27.792  23.296  1.00  0.00     0.026 A 
ATOM     19  C   UNL A   1      28.422  30.359  22.391  1.00  0.00     0.111 A 
ATOM     20  C   UNL A   1      27.345  28.527  23.243  1.00  0.00     0.111 A 
ATOM     21  N   UNL A   1      27.272  29.805  22.819  1.00  0.00    -0.265 NA
ENDBRANCH  14  16
ENDBRANCH   9  14
ENDBRANCH   6   8
ENDBRANCH   5   6
ENDBRANCH   4   5
ENDBRANCH   3   4
ENDBRANCH   2   3
ENDBRANCH   1   2
BRANCH   1  22
ATOM     22  C   UNL A   1      36.782  21.247  25.769  1.00  0.00     0.261 C 
BRANCH  22  23
ATOM     23  O   UNL A   1      38.044  21.473  25.116  1.00  0.00    -0.460 OA
BRANCH  23  24
ATOM     24  C   UNL A   1      39.125  21.265  25.908  1.00  0.00     0.338 C 
ATOM     25  O   UNL A   1      39.812  20.250  25.957  1.00  0.00    -0.246 OA
BRANCH  24  26
ATOM     26  C   UNL A   1      39.517  22.506  26.594  1.00  0.00     0.060 A 
ATOM     27  C   UNL A   1      38.930  23.701  26.155  1.00  0.00     0.016 A 
ATOM     28  C   UNL A   1      40.523  22.522  27.561  1.00  0.00     0.016 A 
ATOM     29  C   UNL A   1      39.383  24.923  26.646  1.00  0.00     0.010 A 
ATOM     30  C   UNL A   1      40.984  23.752  28.046  1.00  0.00     0.010 A 
ATOM     31  C   UNL A   1      40.441  24.958  27.562  1.00  0.00    -0.014 A 
BRANCH  31  32
ATOM     32  C   UNL A   1      41.080  26.259  27.881  1.00  0.00     0.031 A 
ATOM     33  C   UNL A   1      42.492  26.508  27.423  1.00  0.00     0.074 A 
ATOM     34  C   UNL A   1      40.395  27.221  28.526  1.00  0.00     0.049 A 
ATOM     35  N   UNL A   1      43.255  27.555  27.609  1.00  0.00    -0.248 NA
ATOM     36  C   UNL A   1      43.128  25.429  26.652  1.00  0.00     0.031 C 
ATOM     37  C   UNL A   1      39.006  27.112  28.969  1.00  0.00     0.029 A 
ATOM     38  N   UNL A   1      40.778  28.478  28.921  1.00  0.00    -0.354 N 
ATOM     39  C   UNL A   1      44.461  27.261  26.982  1.00  0.00     0.074 A 
ATOM     40  C   UNL A   1      44.340  25.922  26.445  1.00  0.00     0.031 C 
ATOM     41  C   UNL A   1      38.655  28.255  29.585  1.00  0.00     0.029 A 
ATOM     42  C   UNL A   1      39.804  29.158  29.614  1.00  0.00     0.049 A 
ATOM     43  H   UNL A   1      41.666  28.856  28.728  1.00  0.00     0.167 HD
ATOM     44  C   UNL A   1      45.565  28.040  26.859  1.00  0.00     0.034 A 
ATOM     45  C   UNL A   1      39.845  30.359  30.223  1.00  0.00     0.034 A 
ATOM     46  C   UNL A   1      45.673  29.368  27.412  1.00  0.00     0.049 A 
ATOM     47  C   UNL A   1      41.116  31.173  30.152  1.00  0.00     0.074 A 
ATOM     48  C   UNL A   1      46.739  30.249  27.339  1.00  0.00     0.029 A 
ATOM     49  N   UNL A   1      44.685  30.005  28.153  1.00  0.00    -0.354 N 
ATOM     50  N   UNL A   1      42.250  30.886  29.553  1.00  0.00    -0.248 NA
ATOM     51  C   UNL A   1      41.109  32.475  30.833  1.00  0.00     0.031 C 
ATOM     52  C   UNL A   1      46.424  31.384  28.095  1.00  0.00     0.029 A 
ATOM     53  C   UNL A   1      45.130  31.250  28.573  1.00  0.00     0.049 A 
ATOM     54  H   UNL A   1      43.798  29.628  28.351  1.00  0.00     0.167 HD
ATOM     55  C   UNL A   1      43.077  31.987  29.760  1.00  0.00     0.074 A 
ATOM     56  C   UNL A   1      42.308  32.946  30.526  1.00  0.00     0.031 C 
ATOM     57  C   UNL A   1      44.355  32.191  29.349  1.00  0.00     0.034 A 
BRANCH  44  58
ATOM     58  C   UNL A   1      46.757  27.445  26.148  1.00  0.00     0.023 A 
ATOM     59  C   UNL A   1      47.126  27.847  24.853  1.00  0.00     0.031 A 
ATOM     60  C   UNL A   1      47.519  26.437  26.766  1.00  0.00     0.131 A 
ATOM     61  C   UNL A   1      48.179  27.198  24.190  1.00  0.00     0.055 A 
ATOM     62  C   UNL A   1      48.616  25.849  26.132  1.00  0.00     0.041 A 
ATOM     63  F   UNL A   1      47.202  25.995  27.993  1.00  0.00    -0.206 F 
ATOM     64  C   UNL A   1      48.942  26.218  24.831  1.00  0.00     0.022 A 
BRANCH  61  65
ATOM     65  S   UNL A   1      48.448  27.549  22.431  1.00  0.00     0.124 S 
ATOM     66  O   UNL A   1      49.695  28.311  22.469  1.00  0.00    -0.237 OA
ATOM     67  O   UNL A   1      48.533  26.213  21.852  1.00  0.00    -0.237 OA
ATOM     68  O   UNL A   1      47.266  28.319  22.051  1.00  0.00    -0.744 OA
ENDBRANCH  61  65
ENDBRANCH  44  58
BRANCH  45  69
ATOM     69  C   UNL A   1      38.668  30.856  30.993  1.00  0.00     0.023 A 
ATOM     70  C   UNL A   1      37.667  31.625  30.380  1.00  0.00     0.031 A 
ATOM     71  C   UNL A   1      38.558  30.611  32.374  1.00  0.00     0.131 A 
ATOM     72  C   UNL A   1      36.624  32.160  31.152  1.00  0.00     0.055 A 
ATOM     73  C   UNL A   1      37.491  31.101  33.129  1.00  0.00     0.041 A 
ATOM     74  F   UNL A   1      39.489  29.883  33.011  1.00  0.00    -0.206 F 
ATOM     75  C   UNL A   1      36.523  31.892  32.519  1.00  0.00     0.022 A 
BRANCH  72  76
ATOM     76  S   UNL A   1      35.445  33.286  30.360  1.00  0.00     0.124 S 
ATOM     77  O   UNL A   1      36.310  34.033  29.453  1.00  0.00    -0.237 OA
ATOM     78  O   UNL A   1      34.511  32.355  29.735  1.00  0.00    -0.237 OA
ATOM     79  O   UNL A   1      34.902  34.053  31.479  1.00  0.00    -0.744 OA
ENDBRANCH  72  76
ENDBRANCH  45  69
BRANCH  57  80
ATOM     80  C   UNL A   1      44.980  33.525  29.682  1.00  0.00     0.023 A 
ATOM     81  C   UNL A   1      44.901  34.622  28.806  1.00  0.00     0.031 A 
ATOM     82  C   UNL A   1      45.676  33.696  30.893  1.00  0.00     0.131 A 
ATOM     83  C   UNL A   1      45.554  35.823  29.127  1.00  0.00     0.055 A 
ATOM     84  C   UNL A   1      46.270  34.911  31.235  1.00  0.00     0.041 A 
ATOM     85  F   UNL A   1      45.786  32.683  31.766  1.00  0.00    -0.206 F 
ATOM     86  C   UNL A   1      46.223  35.979  30.344  1.00  0.00     0.022 A 
BRANCH  83  87
ATOM     87  S   UNL A   1      45.596  37.150  27.891  1.00  0.00     0.124 S 
ATOM     88  O   UNL A   1      46.681  36.717  27.018  1.00  0.00    -0.237 OA
ATOM     89  O   UNL A   1      44.254  37.086  27.320  1.00  0.00    -0.237 OA
ATOM     90  O   UNL A   1      45.875  38.346  28.683  1.00  0.00    -0.744 OA
ENDBRANCH  83  87
ENDBRANCH  57  80
ENDBRANCH  31  32
ENDBRANCH  24  26
ENDBRANCH  23  24
ENDBRANCH  22  23
ENDBRANCH   1  22
TORSDOF 19
ENDMDL
