MODEL 1
REMARK VINA RESULT:     -11.0      0.000      0.000
REMARK SMILES CC[NH2+][C@@]1(C(=O)OCCOCCOC(=O)c2ccc(-c3c4nc(c(-c5cc(S(=O)(=O)[O-])ccc5F)c5ccc([nH]5)c(-c5cc(S(=O)(=O)[O-])ccc5F)c5nc(c(-c6cc(S(=O)(=O)[O-])ccc6F)c6ccc3[nH]6)C=C5)C=C4)cc2)CCC[C@@H](Sc2ncc(C)cn2)C1
REMARK SMILES IDX 11 1 10 2 9 3 8 4 7 5 5 6 6 7 4 8 79 9 91 10 80 11 82 12
REMARK SMILES IDX 81 13 3 14 2 17 1 18 83 19 84 20 85 21 90 22 86 23 89 24
REMARK SMILES IDX 87 25 88 26 12 27 13 28 14 29 15 30 16 31 17 32 78 33 18 34
REMARK SMILES IDX 77 35 19 36 20 37 21 38 71 39 22 40 76 41 70 42 72 43 23 44
REMARK SMILES IDX 75 45 69 46 68 47 24 49 56 50 36 51 55 52 37 53 40 54 54 55
REMARK SMILES IDX 73 56 38 57 39 58 53 60 74 61 41 62 25 63 26 64 34 65 27 66
REMARK SMILES IDX 33 67 35 68 32 69 28 70 29 71 30 72 31 73 57 74 58 75 66 76
REMARK SMILES IDX 59 77 65 78 67 79 64 80 60 81 61 82 62 83 63 84 42 85 43 86
REMARK SMILES IDX 51 87 44 88 50 89 52 90 49 91 45 92 46 93 47 94 48 95
REMARK H PARENT 3 15 3 16 72 48 40 59
REMARK Flexibility Score: inf
ROOT
ATOM      1  C   UNL A   1      31.373  31.534  26.651  1.00  0.00     0.202 C 
ENDROOT
BRANCH   1   2
ATOM      2  O   UNL A   1      32.059  30.563  25.863  1.00  0.00    -0.374 OA
BRANCH   2   3
ATOM      3  C   UNL A   1      33.322  30.103  26.343  1.00  0.00     0.202 C 
BRANCH   3   4
ATOM      4  C   UNL A   1      33.331  28.771  27.097  1.00  0.00     0.261 C 
BRANCH   4   5
ATOM      5  O   UNL A   1      32.977  27.664  26.248  1.00  0.00    -0.459 OA
BRANCH   5   6
ATOM      6  C   UNL A   1      31.741  27.150  26.461  1.00  0.00     0.368 C 
ATOM      7  O   UNL A   1      31.022  27.443  27.417  1.00  0.00    -0.245 OA
BRANCH   6   8
ATOM      8  C   UNL A   1      31.278  26.138  25.368  1.00  0.00     0.195 C 
ATOM      9  C   UNL A   1      30.543  25.011  26.133  1.00  0.00     0.081 C 
ATOM     10  C   UNL A   1      32.342  25.496  24.445  1.00  0.00     0.096 C 
ATOM     11  C   UNL A   1      31.517  24.138  26.927  1.00  0.00     0.008 C 
ATOM     12  C   UNL A   1      33.258  24.460  25.119  1.00  0.00     0.061 C 
ATOM     13  C   UNL A   1      32.513  23.453  25.998  1.00  0.00     0.015 C 
BRANCH   8  14
ATOM     14  N   UNL A   1      30.255  26.834  24.503  1.00  0.00    -0.332 N 
ATOM     15  H   UNL A   1      29.980  26.198  23.755  1.00  0.00     0.347 HD
ATOM     16  H   UNL A   1      29.473  27.084  25.109  1.00  0.00     0.347 HD
BRANCH  14  17
ATOM     17  C   UNL A   1      30.739  28.082  23.895  1.00  0.00     0.257 C 
ATOM     18  C   UNL A   1      30.201  28.230  22.480  1.00  0.00     0.071 C 
ENDBRANCH  14  17
ENDBRANCH   8  14
BRANCH  12  19
ATOM     19  S   UNL A   1      34.353  23.633  23.878  1.00  0.00    -0.083 SA
BRANCH  19  20
ATOM     20  C   UNL A   1      33.831  21.940  24.012  1.00  0.00     0.187 A 
ATOM     21  N   UNL A   1      34.606  21.089  24.705  1.00  0.00    -0.231 NA
ATOM     22  N   UNL A   1      32.690  21.598  23.392  1.00  0.00    -0.231 NA
ATOM     23  C   UNL A   1      34.200  19.806  24.748  1.00  0.00     0.119 A 
ATOM     24  C   UNL A   1      32.327  20.304  23.472  1.00  0.00     0.119 A 
ATOM     25  C   UNL A   1      33.054  19.341  24.138  1.00  0.00    -0.014 A 
ATOM     26  C   UNL A   1      32.622  17.917  24.197  1.00  0.00     0.048 C 
ENDBRANCH  19  20
ENDBRANCH  12  19
ENDBRANCH   6   8
ENDBRANCH   5   6
ENDBRANCH   4   5
ENDBRANCH   3   4
ENDBRANCH   2   3
ENDBRANCH   1   2
BRANCH   1  27
ATOM     27  C   UNL A   1      31.954  32.954  26.708  1.00  0.00     0.261 C 
BRANCH  27  28
ATOM     28  O   UNL A   1      32.326  33.353  28.038  1.00  0.00    -0.460 OA
BRANCH  28  29
ATOM     29  C   UNL A   1      33.434  34.131  28.100  1.00  0.00     0.338 C 
ATOM     30  O   UNL A   1      33.469  35.357  28.119  1.00  0.00    -0.246 OA
BRANCH  29  31
ATOM     31  C   UNL A   1      34.628  33.307  28.355  1.00  0.00     0.060 A 
ATOM     32  C   UNL A   1      34.430  32.065  28.973  1.00  0.00     0.016 A 
ATOM     33  C   UNL A   1      35.917  33.769  28.082  1.00  0.00     0.016 A 
ATOM     34  C   UNL A   1      35.523  31.303  29.373  1.00  0.00     0.010 A 
ATOM     35  C   UNL A   1      37.016  33.009  28.501  1.00  0.00     0.010 A 
ATOM     36  C   UNL A   1      36.821  31.794  29.184  1.00  0.00    -0.014 A 
BRANCH  36  37
ATOM     37  C   UNL A   1      37.949  31.119  29.873  1.00  0.00     0.031 A 
ATOM     38  C   UNL A   1      38.228  31.474  31.308  1.00  0.00     0.074 A 
ATOM     39  C   UNL A   1      38.670  30.170  29.252  1.00  0.00     0.049 A 
ATOM     40  N   UNL A   1      39.154  31.021  32.113  1.00  0.00    -0.248 NA
ATOM     41  C   UNL A   1      37.336  32.472  31.918  1.00  0.00     0.031 C 
ATOM     42  C   UNL A   1      38.451  29.706  27.883  1.00  0.00     0.029 A 
ATOM     43  N   UNL A   1      39.733  29.424  29.695  1.00  0.00    -0.354 N 
ATOM     44  C   UNL A   1      38.957  31.676  33.324  1.00  0.00     0.074 A 
ATOM     45  C   UNL A   1      37.846  32.585  33.134  1.00  0.00     0.031 C 
ATOM     46  C   UNL A   1      39.361  28.760  27.594  1.00  0.00     0.029 A 
ATOM     47  C   UNL A   1      40.245  28.574  28.743  1.00  0.00     0.049 A 
ATOM     48  H   UNL A   1      40.094  29.490  30.608  1.00  0.00     0.167 HD
ATOM     49  C   UNL A   1      39.635  31.527  34.489  1.00  0.00     0.034 A 
ATOM     50  C   UNL A   1      41.319  27.759  28.790  1.00  0.00     0.034 A 
ATOM     51  C   UNL A   1      40.755  30.634  34.654  1.00  0.00     0.049 A 
ATOM     52  C   UNL A   1      42.120  27.682  30.067  1.00  0.00     0.074 A 
ATOM     53  C   UNL A   1      41.518  30.404  35.786  1.00  0.00     0.029 A 
ATOM     54  N   UNL A   1      41.283  29.831  33.651  1.00  0.00    -0.354 N 
ATOM     55  N   UNL A   1      41.924  28.306  31.207  1.00  0.00    -0.248 NA
ATOM     56  C   UNL A   1      43.283  26.785  30.067  1.00  0.00     0.031 C 
ATOM     57  C   UNL A   1      42.547  29.517  35.447  1.00  0.00     0.029 A 
ATOM     58  C   UNL A   1      42.381  29.132  34.127  1.00  0.00     0.049 A 
ATOM     59  H   UNL A   1      40.928  29.769  32.734  1.00  0.00     0.167 HD
ATOM     60  C   UNL A   1      42.922  27.853  32.066  1.00  0.00     0.074 A 
ATOM     61  C   UNL A   1      43.711  26.896  31.316  1.00  0.00     0.031 C 
ATOM     62  C   UNL A   1      43.164  28.192  33.359  1.00  0.00     0.034 A 
BRANCH  49  63
ATOM     63  C   UNL A   1      39.212  32.399  35.648  1.00  0.00     0.023 A 
ATOM     64  C   UNL A   1      39.626  33.740  35.757  1.00  0.00     0.031 A 
ATOM     65  C   UNL A   1      38.420  31.869  36.681  1.00  0.00     0.131 A 
ATOM     66  C   UNL A   1      39.308  34.479  36.906  1.00  0.00     0.055 A 
ATOM     67  C   UNL A   1      38.043  32.634  37.787  1.00  0.00     0.041 A 
ATOM     68  F   UNL A   1      38.016  30.590  36.644  1.00  0.00    -0.206 F 
ATOM     69  C   UNL A   1      38.499  33.943  37.911  1.00  0.00     0.022 A 
BRANCH  66  70
ATOM     70  S   UNL A   1      40.081  36.105  37.136  1.00  0.00     0.124 S 
ATOM     71  O   UNL A   1      39.277  36.664  38.220  1.00  0.00    -0.237 OA
ATOM     72  O   UNL A   1      41.456  35.754  37.473  1.00  0.00    -0.237 OA
ATOM     73  O   UNL A   1      39.903  36.755  35.839  1.00  0.00    -0.744 OA
ENDBRANCH  66  70
ENDBRANCH  49  63
BRANCH  50  74
ATOM     74  C   UNL A   1      41.733  26.985  27.584  1.00  0.00     0.023 A 
ATOM     75  C   UNL A   1      41.545  25.596  27.509  1.00  0.00     0.031 A 
ATOM     76  C   UNL A   1      42.373  27.624  26.507  1.00  0.00     0.131 A 
ATOM     77  C   UNL A   1      42.031  24.885  26.400  1.00  0.00     0.055 A 
ATOM     78  C   UNL A   1      42.809  26.919  25.384  1.00  0.00     0.041 A 
ATOM     79  F   UNL A   1      42.579  28.951  26.530  1.00  0.00    -0.206 F 
ATOM     80  C   UNL A   1      42.650  25.538  25.332  1.00  0.00     0.022 A 
BRANCH  77  81
ATOM     81  S   UNL A   1      41.909  23.075  26.405  1.00  0.00     0.124 S 
ATOM     82  O   UNL A   1      42.760  22.723  27.536  1.00  0.00    -0.237 OA
ATOM     83  O   UNL A   1      40.477  22.868  26.590  1.00  0.00    -0.237 OA
ATOM     84  O   UNL A   1      42.426  22.695  25.092  1.00  0.00    -0.744 OA
ENDBRANCH  77  81
ENDBRANCH  50  74
BRANCH  62  85
ATOM     85  C   UNL A   1      44.303  27.482  34.050  1.00  0.00     0.023 A 
ATOM     86  C   UNL A   1      44.095  26.334  34.833  1.00  0.00     0.031 A 
ATOM     87  C   UNL A   1      45.616  27.970  33.926  1.00  0.00     0.131 A 
ATOM     88  C   UNL A   1      45.174  25.743  35.508  1.00  0.00     0.055 A 
ATOM     89  C   UNL A   1      46.695  27.344  34.552  1.00  0.00     0.041 A 
ATOM     90  F   UNL A   1      45.873  29.063  33.190  1.00  0.00    -0.206 F 
ATOM     91  C   UNL A   1      46.475  26.231  35.358  1.00  0.00     0.022 A 
BRANCH  88  92
ATOM     92  S   UNL A   1      44.845  24.376  36.653  1.00  0.00     0.124 S 
ATOM     93  O   UNL A   1      44.284  23.364  35.763  1.00  0.00    -0.237 OA
ATOM     94  O   UNL A   1      46.171  24.089  37.188  1.00  0.00    -0.237 OA
ATOM     95  O   UNL A   1      43.901  24.950  37.611  1.00  0.00    -0.744 OA
ENDBRANCH  88  92
ENDBRANCH  62  85
ENDBRANCH  36  37
ENDBRANCH  29  31
ENDBRANCH  28  29
ENDBRANCH  27  28
ENDBRANCH   1  27
TORSDOF 21
ENDMDL
MODEL 2
REMARK VINA RESULT:     -10.7      2.079      3.999
REMARK SMILES CC[NH2+][C@@]1(C(=O)OCCOCCOC(=O)c2ccc(-c3c4nc(c(-c5cc(S(=O)(=O)[O-])ccc5F)c5ccc([nH]5)c(-c5cc(S(=O)(=O)[O-])ccc5F)c5nc(c(-c6cc(S(=O)(=O)[O-])ccc6F)c6ccc3[nH]6)C=C5)C=C4)cc2)CCC[C@@H](Sc2ncc(C)cn2)C1
REMARK SMILES IDX 11 1 10 2 9 3 8 4 7 5 5 6 6 7 4 8 79 9 91 10 80 11 82 12
REMARK SMILES IDX 81 13 3 14 2 17 1 18 83 19 84 20 85 21 90 22 86 23 89 24
REMARK SMILES IDX 87 25 88 26 12 27 13 28 14 29 15 30 16 31 17 32 78 33 18 34
REMARK SMILES IDX 77 35 19 36 20 37 21 38 71 39 22 40 76 41 70 42 72 43 23 44
REMARK SMILES IDX 75 45 69 46 68 47 24 49 56 50 36 51 55 52 37 53 40 54 54 55
REMARK SMILES IDX 73 56 38 57 39 58 53 60 74 61 41 62 25 63 26 64 34 65 27 66
REMARK SMILES IDX 33 67 35 68 32 69 28 70 29 71 30 72 31 73 57 74 58 75 66 76
REMARK SMILES IDX 59 77 65 78 67 79 64 80 60 81 61 82 62 83 63 84 42 85 43 86
REMARK SMILES IDX 51 87 44 88 50 89 52 90 49 91 45 92 46 93 47 94 48 95
REMARK H PARENT 3 15 3 16 72 48 40 59
REMARK Flexibility Score: inf
ROOT
ATOM      1  C   UNL A   1      31.349  31.771  26.754  1.00  0.00     0.202 C 
ENDROOT
BRANCH   1   2
ATOM      2  O   UNL A   1      31.851  30.768  25.874  1.00  0.00    -0.374 OA
BRANCH   2   3
ATOM      3  C   UNL A   1      33.178  30.294  26.108  1.00  0.00     0.202 C 
BRANCH   3   4
ATOM      4  C   UNL A   1      33.377  29.367  27.310  1.00  0.00     0.261 C 
BRANCH   4   5
ATOM      5  O   UNL A   1      33.215  27.980  26.960  1.00  0.00    -0.459 OA
BRANCH   5   6
ATOM      6  C   UNL A   1      31.978  27.473  27.185  1.00  0.00     0.368 C 
ATOM      7  O   UNL A   1      31.210  27.876  28.058  1.00  0.00    -0.245 OA
BRANCH   6   8
ATOM      8  C   UNL A   1      31.585  26.312  26.219  1.00  0.00     0.195 C 
ATOM      9  C   UNL A   1      32.727  26.237  25.178  1.00  0.00     0.081 C 
ATOM     10  C   UNL A   1      30.234  26.391  25.467  1.00  0.00     0.096 C 
ATOM     11  C   UNL A   1      32.692  27.425  24.213  1.00  0.00     0.008 C 
ATOM     12  C   UNL A   1      30.165  27.442  24.347  1.00  0.00     0.061 C 
ATOM     13  C   UNL A   1      31.388  27.447  23.426  1.00  0.00     0.015 C 
BRANCH   8  14
ATOM     14  N   UNL A   1      31.615  25.027  27.012  1.00  0.00    -0.332 N 
ATOM     15  H   UNL A   1      32.176  25.180  27.850  1.00  0.00     0.347 HD
ATOM     16  H   UNL A   1      30.647  24.789  27.228  1.00  0.00     0.347 HD
BRANCH  14  17
ATOM     17  C   UNL A   1      32.182  23.887  26.277  1.00  0.00     0.257 C 
ATOM     18  C   UNL A   1      32.315  22.678  27.189  1.00  0.00     0.071 C 
ENDBRANCH  14  17
ENDBRANCH   8  14
BRANCH  12  19
ATOM     19  S   UNL A   1      28.578  27.309  23.406  1.00  0.00    -0.083 SA
BRANCH  19  20
ATOM     20  C   UNL A   1      28.402  28.957  22.766  1.00  0.00     0.187 A 
ATOM     21  N   UNL A   1      29.167  29.318  21.723  1.00  0.00    -0.231 NA
ATOM     22  N   UNL A   1      27.519  29.761  23.378  1.00  0.00    -0.231 NA
ATOM     23  C   UNL A   1      29.036  30.588  21.294  1.00  0.00     0.119 A 
ATOM     24  C   UNL A   1      27.423  31.019  22.906  1.00  0.00     0.119 A 
ATOM     25  C   UNL A   1      28.171  31.504  21.855  1.00  0.00    -0.014 A 
ATOM     26  C   UNL A   1      28.041  32.905  21.365  1.00  0.00     0.048 C 
ENDBRANCH  19  20
ENDBRANCH  12  19
ENDBRANCH   6   8
ENDBRANCH   5   6
ENDBRANCH   4   5
ENDBRANCH   3   4
ENDBRANCH   2   3
ENDBRANCH   1   2
BRANCH   1  27
ATOM     27  C   UNL A   1      32.173  33.055  26.924  1.00  0.00     0.261 C 
BRANCH  27  28
ATOM     28  O   UNL A   1      32.767  33.170  28.228  1.00  0.00    -0.460 OA
BRANCH  28  29
ATOM     29  C   UNL A   1      33.866  33.961  28.275  1.00  0.00     0.338 C 
ATOM     30  O   UNL A   1      33.886  35.187  28.311  1.00  0.00    -0.246 OA
BRANCH  29  31
ATOM     31  C   UNL A   1      35.076  33.150  28.490  1.00  0.00     0.060 A 
ATOM     32  C   UNL A   1      34.896  31.842  28.962  1.00  0.00     0.016 A 
ATOM     33  C   UNL A   1      36.358  33.676  28.322  1.00  0.00     0.016 A 
ATOM     34  C   UNL A   1      35.998  31.074  29.324  1.00  0.00     0.010 A 
ATOM     35  C   UNL A   1      37.465  32.907  28.702  1.00  0.00     0.010 A 
ATOM     36  C   UNL A   1      37.285  31.619  29.242  1.00  0.00    -0.014 A 
BRANCH  36  37
ATOM     37  C   UNL A   1      38.408  30.907  29.901  1.00  0.00     0.031 A 
ATOM     38  C   UNL A   1      38.735  31.249  31.330  1.00  0.00     0.074 A 
ATOM     39  C   UNL A   1      39.082  29.936  29.261  1.00  0.00     0.049 A 
ATOM     40  N   UNL A   1      39.666  30.765  32.110  1.00  0.00    -0.248 NA
ATOM     41  C   UNL A   1      37.891  32.275  31.963  1.00  0.00     0.031 C 
ATOM     42  C   UNL A   1      38.812  29.482  27.897  1.00  0.00     0.029 A 
ATOM     43  N   UNL A   1      40.130  29.155  29.676  1.00  0.00    -0.354 N 
ATOM     44  C   UNL A   1      39.521  31.424  33.326  1.00  0.00     0.074 A 
ATOM     45  C   UNL A   1      38.436  32.368  33.166  1.00  0.00     0.031 C 
ATOM     46  C   UNL A   1      39.683  28.507  27.584  1.00  0.00     0.029 A 
ATOM     47  C   UNL A   1      40.590  28.291  28.710  1.00  0.00     0.049 A 
ATOM     48  H   UNL A   1      40.517  29.207  30.579  1.00  0.00     0.167 HD
ATOM     49  C   UNL A   1      40.223  31.251  34.473  1.00  0.00     0.034 A 
ATOM     50  C   UNL A   1      41.637  27.441  28.729  1.00  0.00     0.034 A 
ATOM     51  C   UNL A   1      41.317  30.321  34.608  1.00  0.00     0.049 A 
ATOM     52  C   UNL A   1      42.468  27.335  29.985  1.00  0.00     0.074 A 
ATOM     53  C   UNL A   1      42.102  30.064  35.720  1.00  0.00     0.029 A 
ATOM     54  N   UNL A   1      41.794  29.504  33.591  1.00  0.00    -0.354 N 
ATOM     55  N   UNL A   1      42.322  27.963  31.130  1.00  0.00    -0.248 NA
ATOM     56  C   UNL A   1      43.601  26.401  29.954  1.00  0.00     0.031 C 
ATOM     57  C   UNL A   1      43.092  29.144  35.354  1.00  0.00     0.029 A 
ATOM     58  C   UNL A   1      42.880  28.768  34.038  1.00  0.00     0.049 A 
ATOM     59  H   UNL A   1      41.414  29.454  32.683  1.00  0.00     0.167 HD
ATOM     60  C   UNL A   1      43.326  27.476  31.963  1.00  0.00     0.074 A 
ATOM     61  C   UNL A   1      44.063  26.495  31.191  1.00  0.00     0.031 C 
ATOM     62  C   UNL A   1      43.612  27.804  33.249  1.00  0.00     0.034 A 
BRANCH  49  63
ATOM     63  C   UNL A   1      39.859  32.133  35.644  1.00  0.00     0.023 A 
ATOM     64  C   UNL A   1      38.921  31.730  36.612  1.00  0.00     0.031 A 
ATOM     65  C   UNL A   1      40.426  33.413  35.769  1.00  0.00     0.131 A 
ATOM     66  C   UNL A   1      38.525  32.626  37.618  1.00  0.00     0.055 A 
ATOM     67  C   UNL A   1      40.085  34.272  36.816  1.00  0.00     0.041 A 
ATOM     68  F   UNL A   1      41.309  33.861  34.862  1.00  0.00    -0.206 F 
ATOM     69  C   UNL A   1      39.118  33.885  37.741  1.00  0.00     0.022 A 
BRANCH  66  70
ATOM     70  S   UNL A   1      37.125  32.177  38.680  1.00  0.00     0.124 S 
ATOM     71  O   UNL A   1      37.046  30.733  38.471  1.00  0.00    -0.237 OA
ATOM     72  O   UNL A   1      37.578  32.609  39.998  1.00  0.00    -0.237 OA
ATOM     73  O   UNL A   1      36.011  32.941  38.121  1.00  0.00    -0.744 OA
ENDBRANCH  66  70
ENDBRANCH  49  63
BRANCH  50  74
ATOM     74  C   UNL A   1      41.995  26.656  27.512  1.00  0.00     0.023 A 
ATOM     75  C   UNL A   1      41.739  25.279  27.431  1.00  0.00     0.031 A 
ATOM     76  C   UNL A   1      42.649  27.271  26.429  1.00  0.00     0.131 A 
ATOM     77  C   UNL A   1      42.172  24.553  26.310  1.00  0.00     0.055 A 
ATOM     78  C   UNL A   1      43.033  26.554  25.295  1.00  0.00     0.041 A 
ATOM     79  F   UNL A   1      42.919  28.586  26.456  1.00  0.00    -0.206 F 
ATOM     80  C   UNL A   1      42.806  25.183  25.236  1.00  0.00     0.022 A 
BRANCH  77  81
ATOM     81  S   UNL A   1      41.963  22.751  26.305  1.00  0.00     0.124 S 
ATOM     82  O   UNL A   1      40.511  22.620  26.362  1.00  0.00    -0.237 OA
ATOM     83  O   UNL A   1      42.593  22.376  25.044  1.00  0.00    -0.237 OA
ATOM     84  O   UNL A   1      42.676  22.322  27.507  1.00  0.00    -0.744 OA
ENDBRANCH  77  81
ENDBRANCH  50  74
BRANCH  62  85
ATOM     85  C   UNL A   1      44.744  27.056  33.910  1.00  0.00     0.023 A 
ATOM     86  C   UNL A   1      44.550  25.806  34.520  1.00  0.00     0.031 A 
ATOM     87  C   UNL A   1      46.036  27.611  33.933  1.00  0.00     0.131 A 
ATOM     88  C   UNL A   1      45.618  25.175  35.177  1.00  0.00     0.055 A 
ATOM     89  C   UNL A   1      47.108  26.953  34.537  1.00  0.00     0.041 A 
ATOM     90  F   UNL A   1      46.279  28.803  33.365  1.00  0.00    -0.206 F 
ATOM     91  C   UNL A   1      46.900  25.733  35.174  1.00  0.00     0.022 A 
BRANCH  88  92
ATOM     92  S   UNL A   1      45.294  23.653  36.109  1.00  0.00     0.124 S 
ATOM     93  O   UNL A   1      46.366  22.779  35.645  1.00  0.00    -0.237 OA
ATOM     94  O   UNL A   1      45.394  24.106  37.492  1.00  0.00    -0.237 OA
ATOM     95  O   UNL A   1      43.950  23.268  35.680  1.00  0.00    -0.744 OA
ENDBRANCH  88  92
ENDBRANCH  62  85
ENDBRANCH  36  37
ENDBRANCH  29  31
ENDBRANCH  28  29
ENDBRANCH  27  28
ENDBRANCH   1  27
TORSDOF 21
ENDMDL
MODEL 3
REMARK VINA RESULT:     -10.5      1.997      7.954
REMARK SMILES CC[NH2+][C@@]1(C(=O)OCCOCCOC(=O)c2ccc(-c3c4nc(c(-c5cc(S(=O)(=O)[O-])ccc5F)c5ccc([nH]5)c(-c5cc(S(=O)(=O)[O-])ccc5F)c5nc(c(-c6cc(S(=O)(=O)[O-])ccc6F)c6ccc3[nH]6)C=C5)C=C4)cc2)CCC[C@@H](Sc2ncc(C)cn2)C1
REMARK SMILES IDX 11 1 10 2 9 3 8 4 7 5 5 6 6 7 4 8 79 9 91 10 80 11 82 12
REMARK SMILES IDX 81 13 3 14 2 17 1 18 83 19 84 20 85 21 90 22 86 23 89 24
REMARK SMILES IDX 87 25 88 26 12 27 13 28 14 29 15 30 16 31 17 32 78 33 18 34
REMARK SMILES IDX 77 35 19 36 20 37 21 38 71 39 22 40 76 41 70 42 72 43 23 44
REMARK SMILES IDX 75 45 69 46 68 47 24 49 56 50 36 51 55 52 37 53 40 54 54 55
REMARK SMILES IDX 73 56 38 57 39 58 53 60 74 61 41 62 25 63 26 64 34 65 27 66
REMARK SMILES IDX 33 67 35 68 32 69 28 70 29 71 30 72 31 73 57 74 58 75 66 76
REMARK SMILES IDX 59 77 65 78 67 79 64 80 60 81 61 82 62 83 63 84 42 85 43 86
REMARK SMILES IDX 51 87 44 88 50 89 52 90 49 91 45 92 46 93 47 94 48 95
REMARK H PARENT 3 15 3 16 72 48 40 59
REMARK Flexibility Score: inf
ROOT
ATOM      1  C   UNL A   1      31.429  29.874  25.158  1.00  0.00     0.202 C 
ENDROOT
BRANCH   1   2
ATOM      2  O   UNL A   1      32.062  28.597  25.139  1.00  0.00    -0.374 OA
BRANCH   2   3
ATOM      3  C   UNL A   1      31.273  27.468  25.517  1.00  0.00     0.202 C 
BRANCH   3   4
ATOM      4  C   UNL A   1      32.025  26.169  25.815  1.00  0.00     0.261 C 
BRANCH   4   5
ATOM      5  O   UNL A   1      33.440  26.294  25.583  1.00  0.00    -0.459 OA
BRANCH   5   6
ATOM      6  C   UNL A   1      33.879  25.763  24.415  1.00  0.00     0.368 C 
ATOM      7  O   UNL A   1      33.827  26.337  23.328  1.00  0.00    -0.245 OA
BRANCH   6   8
ATOM      8  C   UNL A   1      34.480  24.330  24.557  1.00  0.00     0.195 C 
ATOM      9  C   UNL A   1      34.744  23.848  23.111  1.00  0.00     0.081 C 
ATOM     10  C   UNL A   1      33.661  23.245  25.298  1.00  0.00     0.096 C 
ATOM     11  C   UNL A   1      33.441  23.531  22.373  1.00  0.00     0.008 C 
ATOM     12  C   UNL A   1      32.423  22.728  24.547  1.00  0.00     0.061 C 
ATOM     13  C   UNL A   1      32.681  22.410  23.072  1.00  0.00     0.015 C 
BRANCH   8  14
ATOM     14  N   UNL A   1      35.822  24.463  25.238  1.00  0.00    -0.332 N 
ATOM     15  H   UNL A   1      36.534  24.604  24.521  1.00  0.00     0.347 HD
ATOM     16  H   UNL A   1      35.753  25.253  25.880  1.00  0.00     0.347 HD
BRANCH  14  17
ATOM     17  C   UNL A   1      36.200  23.292  26.042  1.00  0.00     0.257 C 
ATOM     18  C   UNL A   1      37.233  22.452  25.307  1.00  0.00     0.071 C 
ENDBRANCH  14  17
ENDBRANCH   8  14
BRANCH  12  19
ATOM     19  S   UNL A   1      31.643  21.312  25.445  1.00  0.00    -0.083 SA
BRANCH  19  20
ATOM     20  C   UNL A   1      32.472  19.923  24.712  1.00  0.00     0.187 A 
ATOM     21  N   UNL A   1      31.827  19.227  23.761  1.00  0.00    -0.231 NA
ATOM     22  N   UNL A   1      33.701  19.631  25.167  1.00  0.00    -0.231 NA
ATOM     23  C   UNL A   1      32.471  18.155  23.259  1.00  0.00     0.119 A 
ATOM     24  C   UNL A   1      34.303  18.553  24.628  1.00  0.00     0.119 A 
ATOM     25  C   UNL A   1      33.728  17.756  23.661  1.00  0.00    -0.014 A 
ATOM     26  C   UNL A   1      34.424  16.567  23.094  1.00  0.00     0.048 C 
ENDBRANCH  19  20
ENDBRANCH  12  19
ENDBRANCH   6   8
ENDBRANCH   5   6
ENDBRANCH   4   5
ENDBRANCH   3   4
ENDBRANCH   2   3
ENDBRANCH   1   2
BRANCH   1  27
ATOM     27  C   UNL A   1      31.718  30.803  26.345  1.00  0.00     0.261 C 
BRANCH  27  28
ATOM     28  O   UNL A   1      32.948  30.483  27.018  1.00  0.00    -0.460 OA
BRANCH  28  29
ATOM     29  C   UNL A   1      33.660  31.562  27.425  1.00  0.00     0.338 C 
ATOM     30  O   UNL A   1      33.228  32.691  27.632  1.00  0.00    -0.246 OA
BRANCH  29  31
ATOM     31  C   UNL A   1      35.027  31.164  27.802  1.00  0.00     0.060 A 
ATOM     32  C   UNL A   1      35.257  29.801  28.038  1.00  0.00     0.016 A 
ATOM     33  C   UNL A   1      36.040  32.102  28.009  1.00  0.00     0.016 A 
ATOM     34  C   UNL A   1      36.484  29.377  28.537  1.00  0.00     0.010 A 
ATOM     35  C   UNL A   1      37.269  31.675  28.527  1.00  0.00     0.010 A 
ATOM     36  C   UNL A   1      37.480  30.317  28.831  1.00  0.00    -0.014 A 
BRANCH  36  37
ATOM     37  C   UNL A   1      38.655  29.889  29.629  1.00  0.00     0.031 A 
ATOM     38  C   UNL A   1      39.580  28.854  29.047  1.00  0.00     0.074 A 
ATOM     39  C   UNL A   1      38.925  30.453  30.818  1.00  0.00     0.049 A 
ATOM     40  N   UNL A   1      40.663  28.326  29.555  1.00  0.00    -0.248 NA
ATOM     41  C   UNL A   1      39.235  28.352  27.708  1.00  0.00     0.031 C 
ATOM     42  C   UNL A   1      38.131  31.506  31.451  1.00  0.00     0.029 A 
ATOM     43  N   UNL A   1      39.945  30.221  31.706  1.00  0.00    -0.354 N 
ATOM     44  C   UNL A   1      41.131  27.431  28.599  1.00  0.00     0.074 A 
ATOM     45  C   UNL A   1      40.192  27.462  27.498  1.00  0.00     0.031 C 
ATOM     46  C   UNL A   1      38.689  31.821  32.633  1.00  0.00     0.029 A 
ATOM     47  C   UNL A   1      39.859  30.972  32.855  1.00  0.00     0.049 A 
ATOM     48  H   UNL A   1      40.670  29.578  31.537  1.00  0.00     0.167 HD
ATOM     49  C   UNL A   1      42.247  26.660  28.633  1.00  0.00     0.034 A 
ATOM     50  C   UNL A   1      40.624  30.956  33.965  1.00  0.00     0.034 A 
ATOM     51  C   UNL A   1      43.160  26.624  29.749  1.00  0.00     0.049 A 
ATOM     52  C   UNL A   1      41.806  30.018  34.023  1.00  0.00     0.074 A 
ATOM     53  C   UNL A   1      44.318  25.880  29.895  1.00  0.00     0.029 A 
ATOM     54  N   UNL A   1      43.009  27.355  30.921  1.00  0.00    -0.354 N 
ATOM     55  N   UNL A   1      42.240  29.176  33.112  1.00  0.00    -0.248 NA
ATOM     56  C   UNL A   1      42.606  30.034  35.255  1.00  0.00     0.031 C 
ATOM     57  C   UNL A   1      44.827  26.110  31.178  1.00  0.00     0.029 A 
ATOM     58  C   UNL A   1      44.032  27.055  31.806  1.00  0.00     0.049 A 
ATOM     59  H   UNL A   1      42.280  27.994  31.097  1.00  0.00     0.167 HD
ATOM     60  C   UNL A   1      43.379  28.585  33.652  1.00  0.00     0.074 A 
ATOM     61  C   UNL A   1      43.571  29.175  34.962  1.00  0.00     0.031 C 
ATOM     62  C   UNL A   1      44.198  27.644  33.115  1.00  0.00     0.034 A 
BRANCH  49  63
ATOM     63  C   UNL A   1      42.495  25.754  27.450  1.00  0.00     0.023 A 
ATOM     64  C   UNL A   1      41.989  24.441  27.403  1.00  0.00     0.031 A 
ATOM     65  C   UNL A   1      43.284  26.194  26.374  1.00  0.00     0.131 A 
ATOM     66  C   UNL A   1      42.339  23.595  26.340  1.00  0.00     0.055 A 
ATOM     67  C   UNL A   1      43.567  25.371  25.282  1.00  0.00     0.041 A 
ATOM     68  F   UNL A   1      43.814  27.428  26.375  1.00  0.00    -0.206 F 
ATOM     69  C   UNL A   1      43.105  24.058  25.268  1.00  0.00     0.022 A 
BRANCH  66  70
ATOM     70  S   UNL A   1      41.898  21.838  26.446  1.00  0.00     0.124 S 
ATOM     71  O   UNL A   1      40.459  21.879  26.196  1.00  0.00    -0.237 OA
ATOM     72  O   UNL A   1      42.714  21.244  25.393  1.00  0.00    -0.237 OA
ATOM     73  O   UNL A   1      42.276  21.471  27.810  1.00  0.00    -0.744 OA
ENDBRANCH  66  70
ENDBRANCH  49  63
BRANCH  50  74
ATOM     74  C   UNL A   1      40.279  31.817  35.133  1.00  0.00     0.023 A 
ATOM     75  C   UNL A   1      39.305  31.426  36.065  1.00  0.00     0.031 A 
ATOM     76  C   UNL A   1      40.887  33.074  35.302  1.00  0.00     0.131 A 
ATOM     77  C   UNL A   1      38.937  32.301  37.100  1.00  0.00     0.055 A 
ATOM     78  C   UNL A   1      40.553  33.919  36.361  1.00  0.00     0.041 A 
ATOM     79  F   UNL A   1      41.823  33.497  34.437  1.00  0.00    -0.206 F 
ATOM     80  C   UNL A   1      39.563  33.539  37.261  1.00  0.00     0.022 A 
BRANCH  77  81
ATOM     81  S   UNL A   1      37.570  31.830  38.194  1.00  0.00     0.124 S 
ATOM     82  O   UNL A   1      37.342  30.443  37.805  1.00  0.00    -0.237 OA
ATOM     83  O   UNL A   1      38.152  32.039  39.515  1.00  0.00    -0.237 OA
ATOM     84  O   UNL A   1      36.505  32.763  37.830  1.00  0.00    -0.744 OA
ENDBRANCH  77  81
ENDBRANCH  50  74
BRANCH  62  85
ATOM     85  C   UNL A   1      45.399  27.234  33.932  1.00  0.00     0.023 A 
ATOM     86  C   UNL A   1      45.336  26.189  34.869  1.00  0.00     0.031 A 
ATOM     87  C   UNL A   1      46.623  27.908  33.773  1.00  0.00     0.131 A 
ATOM     88  C   UNL A   1      46.460  25.882  35.651  1.00  0.00     0.055 A 
ATOM     89  C   UNL A   1      47.754  27.561  34.513  1.00  0.00     0.041 A 
ATOM     90  F   UNL A   1      46.740  28.915  32.893  1.00  0.00    -0.206 F 
ATOM     91  C   UNL A   1      47.674  26.551  35.467  1.00  0.00     0.022 A 
BRANCH  88  92
ATOM     92  S   UNL A   1      46.294  24.653  36.974  1.00  0.00     0.124 S 
ATOM     93  O   UNL A   1      44.861  24.692  37.247  1.00  0.00    -0.237 OA
ATOM     94  O   UNL A   1      46.789  23.437  36.337  1.00  0.00    -0.237 OA
ATOM     95  O   UNL A   1      47.143  25.181  38.042  1.00  0.00    -0.744 OA
ENDBRANCH  88  92
ENDBRANCH  62  85
ENDBRANCH  36  37
ENDBRANCH  29  31
ENDBRANCH  28  29
ENDBRANCH  27  28
ENDBRANCH   1  27
TORSDOF 21
ENDMDL
