MODEL 1
REMARK VINA RESULT:     -11.5      0.000      0.000
REMARK SMILES Cc1cc(C)c2c(O[C@@H](C)C(=O)OCCOCCOC(=O)c3ccc(-c4c5nc(c(-c6cc(S(=O)(=O)[O-])ccc6F)c6ccc([nH]6)c(-c6cc(S(=O)(=O)[O-])ccc6F)c6nc(c(-c7cc(S(=O)(=O)[O-])ccc7F)c7ccc4[nH]7)C=C6)C=C5)cc3)nsc2n1
REMARK SMILES IDX 17 1 16 2 15 3 14 4 13 5 11 6 12 7 9 8 10 9 8 10 7 11 1 12
REMARK SMILES IDX 2 13 3 14 88 15 4 16 87 17 5 18 6 19 86 20 85 21 18 22 19 23
REMARK SMILES IDX 20 24 21 25 22 26 23 27 84 28 24 29 83 30 25 31 26 32 27 33
REMARK SMILES IDX 77 34 28 35 82 36 76 37 78 38 29 39 81 40 75 41 74 42 30 44
REMARK SMILES IDX 62 45 42 46 61 47 43 48 46 49 60 50 79 51 44 52 45 53 59 55
REMARK SMILES IDX 80 56 47 57 31 58 32 59 40 60 33 61 39 62 41 63 38 64 34 65
REMARK SMILES IDX 35 66 36 67 37 68 63 69 64 70 72 71 65 72 71 73 73 74 70 75
REMARK SMILES IDX 66 76 67 77 68 78 69 79 48 80 49 81 57 82 50 83 56 84 58 85
REMARK SMILES IDX 55 86 51 87 52 88 53 89 54 90
REMARK H PARENT 78 43 46 54
REMARK Flexibility Score: inf
ROOT
ATOM      1  C   UNL A   1      33.330  30.589  27.378  1.00  0.00     0.202 C 
ENDROOT
BRANCH   1   2
ATOM      2  O   UNL A   1      32.211  30.495  26.507  1.00  0.00    -0.374 OA
BRANCH   2   3
ATOM      3  C   UNL A   1      32.157  29.431  25.560  1.00  0.00     0.202 C 
BRANCH   3   4
ATOM      4  C   UNL A   1      31.014  29.452  24.551  1.00  0.00     0.261 C 
BRANCH   4   5
ATOM      5  O   UNL A   1      31.477  29.449  23.190  1.00  0.00    -0.461 OA
BRANCH   5   6
ATOM      6  C   UNL A   1      31.599  28.235  22.585  1.00  0.00     0.347 C 
ATOM      7  O   UNL A   1      30.679  27.618  22.057  1.00  0.00    -0.248 OA
BRANCH   6   8
ATOM      8  C   UNL A   1      33.043  27.724  22.612  1.00  0.00     0.281 C 
ATOM      9  C   UNL A   1      34.119  28.805  22.551  1.00  0.00     0.066 C 
BRANCH   8  10
ATOM     10  O   UNL A   1      33.443  26.602  21.883  1.00  0.00    -0.462 OA
BRANCH  10  11
ATOM     11  C   UNL A   1      33.408  25.342  22.376  1.00  0.00     0.236 A 
ATOM     12  C   UNL A   1      35.176  21.531  26.203  1.00  0.00     0.067 C 
ATOM     13  C   UNL A   1      34.665  22.630  25.322  1.00  0.00     0.039 A 
ATOM     14  C   UNL A   1      34.628  23.928  25.791  1.00  0.00     0.027 A 
ATOM     15  N   UNL A   1      34.188  22.281  24.126  1.00  0.00    -0.240 NA
ATOM     16  C   UNL A   1      34.120  24.989  25.001  1.00  0.00    -0.034 A 
ATOM     17  C   UNL A   1      33.784  23.305  23.353  1.00  0.00     0.147 A 
ATOM     18  C   UNL A   1      34.015  26.283  25.768  1.00  0.00     0.045 C 
ATOM     19  C   UNL A   1      33.766  24.682  23.641  1.00  0.00     0.078 A 
ATOM     20  S   UNL A   1      33.156  22.987  21.810  1.00  0.00    -0.012 S 
ATOM     21  N   UNL A   1      33.001  24.558  21.378  1.00  0.00    -0.153 NA
ENDBRANCH  10  11
ENDBRANCH   8  10
ENDBRANCH   6   8
ENDBRANCH   5   6
ENDBRANCH   4   5
ENDBRANCH   3   4
ENDBRANCH   2   3
ENDBRANCH   1   2
BRANCH   1  22
ATOM     22  C   UNL A   1      33.823  31.963  27.827  1.00  0.00     0.261 C 
BRANCH  22  23
ATOM     23  O   UNL A   1      35.232  32.143  27.810  1.00  0.00    -0.460 OA
BRANCH  23  24
ATOM     24  C   UNL A   1      35.786  31.903  29.026  1.00  0.00     0.338 C 
ATOM     25  O   UNL A   1      35.411  32.356  30.093  1.00  0.00    -0.246 OA
BRANCH  24  26
ATOM     26  C   UNL A   1      37.037  31.160  28.860  1.00  0.00     0.060 A 
ATOM     27  C   UNL A   1      36.933  29.836  28.435  1.00  0.00     0.016 A 
ATOM     28  C   UNL A   1      38.231  31.677  29.384  1.00  0.00     0.016 A 
ATOM     29  C   UNL A   1      37.985  28.983  28.689  1.00  0.00     0.010 A 
ATOM     30  C   UNL A   1      39.284  30.824  29.630  1.00  0.00     0.010 A 
ATOM     31  C   UNL A   1      39.121  29.472  29.350  1.00  0.00    -0.014 A 
BRANCH  31  32
ATOM     32  C   UNL A   1      40.213  28.548  29.590  1.00  0.00     0.031 A 
ATOM     33  C   UNL A   1      40.541  28.455  31.028  1.00  0.00     0.074 A 
ATOM     34  C   UNL A   1      40.818  27.816  28.634  1.00  0.00     0.049 A 
ATOM     35  N   UNL A   1      41.561  28.979  31.618  1.00  0.00    -0.248 NA
ATOM     36  C   UNL A   1      39.518  27.931  31.947  1.00  0.00     0.031 C 
ATOM     37  C   UNL A   1      40.444  27.669  27.228  1.00  0.00     0.029 A 
ATOM     38  N   UNL A   1      41.885  26.978  28.752  1.00  0.00    -0.354 N 
ATOM     39  C   UNL A   1      41.443  28.617  32.950  1.00  0.00     0.074 A 
ATOM     40  C   UNL A   1      40.082  28.187  33.129  1.00  0.00     0.031 C 
ATOM     41  C   UNL A   1      41.133  26.636  26.687  1.00  0.00     0.029 A 
ATOM     42  C   UNL A   1      42.088  26.131  27.663  1.00  0.00     0.049 A 
ATOM     43  H   UNL A   1      42.468  26.969  29.545  1.00  0.00     0.167 HD
ATOM     44  C   UNL A   1      42.555  28.432  33.710  1.00  0.00     0.034 A 
ATOM     45  C   UNL A   1      42.952  25.079  27.591  1.00  0.00     0.034 A 
ATOM     46  C   UNL A   1      43.705  29.071  33.112  1.00  0.00     0.049 A 
ATOM     47  C   UNL A   1      44.017  25.352  28.593  1.00  0.00     0.074 A 
ATOM     48  C   UNL A   1      44.000  30.371  32.738  1.00  0.00     0.029 A 
ATOM     49  N   UNL A   1      44.601  28.278  32.431  1.00  0.00    -0.354 N 
ATOM     50  N   UNL A   1      44.845  26.357  28.495  1.00  0.00    -0.248 NA
ATOM     51  C   UNL A   1      43.834  24.826  29.938  1.00  0.00     0.031 C 
ATOM     52  C   UNL A   1      44.704  30.249  31.505  1.00  0.00     0.029 A 
ATOM     53  C   UNL A   1      44.880  28.890  31.234  1.00  0.00     0.049 A 
ATOM     54  H   UNL A   1      44.976  27.423  32.746  1.00  0.00     0.167 HD
ATOM     55  C   UNL A   1      44.938  26.867  29.782  1.00  0.00     0.074 A 
ATOM     56  C   UNL A   1      44.363  25.832  30.642  1.00  0.00     0.031 C 
ATOM     57  C   UNL A   1      45.206  28.187  30.007  1.00  0.00     0.034 A 
BRANCH  44  58
ATOM     58  C   UNL A   1      42.681  27.348  34.752  1.00  0.00     0.023 A 
ATOM     59  C   UNL A   1      43.445  26.217  34.413  1.00  0.00     0.031 A 
ATOM     60  C   UNL A   1      41.877  27.226  35.911  1.00  0.00     0.131 A 
ATOM     61  C   UNL A   1      43.323  25.023  35.142  1.00  0.00     0.055 A 
ATOM     62  C   UNL A   1      41.808  26.056  36.668  1.00  0.00     0.041 A 
ATOM     63  F   UNL A   1      41.043  28.187  36.324  1.00  0.00    -0.206 F 
ATOM     64  C   UNL A   1      42.509  24.934  36.268  1.00  0.00     0.022 A 
BRANCH  61  65
ATOM     65  S   UNL A   1      44.138  23.541  34.501  1.00  0.00     0.124 S 
ATOM     66  O   UNL A   1      45.285  24.113  33.808  1.00  0.00    -0.237 OA
ATOM     67  O   UNL A   1      44.425  22.803  35.727  1.00  0.00    -0.237 OA
ATOM     68  O   UNL A   1      43.120  22.942  33.640  1.00  0.00    -0.744 OA
ENDBRANCH  61  65
ENDBRANCH  44  58
BRANCH  45  69
ATOM     69  C   UNL A   1      42.736  23.739  26.956  1.00  0.00     0.023 A 
ATOM     70  C   UNL A   1      43.717  23.091  26.165  1.00  0.00     0.031 A 
ATOM     71  C   UNL A   1      41.628  22.948  27.338  1.00  0.00     0.131 A 
ATOM     72  C   UNL A   1      43.566  21.728  25.799  1.00  0.00     0.055 A 
ATOM     73  C   UNL A   1      41.484  21.606  26.972  1.00  0.00     0.041 A 
ATOM     74  F   UNL A   1      40.680  23.423  28.158  1.00  0.00    -0.206 F 
ATOM     75  C   UNL A   1      42.458  20.987  26.209  1.00  0.00     0.022 A 
BRANCH  72  76
ATOM     76  S   UNL A   1      44.870  20.848  24.867  1.00  0.00     0.124 S 
ATOM     77  O   UNL A   1      46.082  21.263  25.564  1.00  0.00    -0.237 OA
ATOM     78  O   UNL A   1      44.480  19.451  25.016  1.00  0.00    -0.237 OA
ATOM     79  O   UNL A   1      44.733  21.377  23.508  1.00  0.00    -0.744 OA
ENDBRANCH  72  76
ENDBRANCH  45  69
BRANCH  57  80
ATOM     80  C   UNL A   1      45.704  29.042  28.859  1.00  0.00     0.023 A 
ATOM     81  C   UNL A   1      44.968  30.070  28.227  1.00  0.00     0.031 A 
ATOM     82  C   UNL A   1      47.064  28.909  28.527  1.00  0.00     0.131 A 
ATOM     83  C   UNL A   1      45.609  30.924  27.304  1.00  0.00     0.055 A 
ATOM     84  C   UNL A   1      47.698  29.770  27.634  1.00  0.00     0.041 A 
ATOM     85  F   UNL A   1      47.819  27.968  29.117  1.00  0.00    -0.206 F 
ATOM     86  C   UNL A   1      46.973  30.784  27.020  1.00  0.00     0.022 A 
BRANCH  83  87
ATOM     87  S   UNL A   1      44.693  32.273  26.484  1.00  0.00     0.124 S 
ATOM     88  O   UNL A   1      45.697  32.874  25.613  1.00  0.00    -0.237 OA
ATOM     89  O   UNL A   1      43.604  31.568  25.818  1.00  0.00    -0.237 OA
ATOM     90  O   UNL A   1      44.269  33.126  27.597  1.00  0.00    -0.744 OA
ENDBRANCH  83  87
ENDBRANCH  57  80
ENDBRANCH  31  32
ENDBRANCH  24  26
ENDBRANCH  23  24
ENDBRANCH  22  23
ENDBRANCH   1  22
TORSDOF 19
ENDMDL
MODEL 2
REMARK VINA RESULT:     -11.4      1.680      3.048
REMARK SMILES Cc1cc(C)c2c(O[C@@H](C)C(=O)OCCOCCOC(=O)c3ccc(-c4c5nc(c(-c6cc(S(=O)(=O)[O-])ccc6F)c6ccc([nH]6)c(-c6cc(S(=O)(=O)[O-])ccc6F)c6nc(c(-c7cc(S(=O)(=O)[O-])ccc7F)c7ccc4[nH]7)C=C6)C=C5)cc3)nsc2n1
REMARK SMILES IDX 17 1 16 2 15 3 14 4 13 5 11 6 12 7 9 8 10 9 8 10 7 11 1 12
REMARK SMILES IDX 2 13 3 14 88 15 4 16 87 17 5 18 6 19 86 20 85 21 18 22 19 23
REMARK SMILES IDX 20 24 21 25 22 26 23 27 84 28 24 29 83 30 25 31 26 32 27 33
REMARK SMILES IDX 77 34 28 35 82 36 76 37 78 38 29 39 81 40 75 41 74 42 30 44
REMARK SMILES IDX 62 45 42 46 61 47 43 48 46 49 60 50 79 51 44 52 45 53 59 55
REMARK SMILES IDX 80 56 47 57 31 58 32 59 40 60 33 61 39 62 41 63 38 64 34 65
REMARK SMILES IDX 35 66 36 67 37 68 63 69 64 70 72 71 65 72 71 73 73 74 70 75
REMARK SMILES IDX 66 76 67 77 68 78 69 79 48 80 49 81 57 82 50 83 56 84 58 85
REMARK SMILES IDX 55 86 51 87 52 88 53 89 54 90
REMARK H PARENT 78 43 46 54
REMARK Flexibility Score: inf
ROOT
ATOM      1  C   UNL A   1      33.871  30.450  27.338  1.00  0.00     0.202 C 
ENDROOT
BRANCH   1   2
ATOM      2  O   UNL A   1      32.584  29.850  27.263  1.00  0.00    -0.374 OA
BRANCH   2   3
ATOM      3  C   UNL A   1      32.395  28.719  26.418  1.00  0.00     0.202 C 
BRANCH   3   4
ATOM      4  C   UNL A   1      31.465  27.620  26.920  1.00  0.00     0.261 C 
BRANCH   4   5
ATOM      5  O   UNL A   1      31.927  26.303  26.579  1.00  0.00    -0.461 OA
BRANCH   5   6
ATOM      6  C   UNL A   1      31.008  25.448  26.049  1.00  0.00     0.347 C 
ATOM      7  O   UNL A   1      29.864  25.301  26.466  1.00  0.00    -0.248 OA
BRANCH   6   8
ATOM      8  C   UNL A   1      31.561  24.693  24.835  1.00  0.00     0.281 C 
ATOM      9  C   UNL A   1      32.854  23.921  25.081  1.00  0.00     0.066 C 
BRANCH   8  10
ATOM     10  O   UNL A   1      31.569  25.256  23.558  1.00  0.00    -0.462 OA
BRANCH  10  11
ATOM     11  C   UNL A   1      31.412  26.581  23.327  1.00  0.00     0.236 A 
ATOM     12  C   UNL A   1      28.145  30.894  21.591  1.00  0.00     0.067 C 
ATOM     13  C   UNL A   1      28.886  29.720  22.156  1.00  0.00     0.039 A 
ATOM     14  C   UNL A   1      28.187  28.679  22.735  1.00  0.00     0.027 A 
ATOM     15  N   UNL A   1      30.218  29.775  22.139  1.00  0.00    -0.240 NA
ATOM     16  C   UNL A   1      28.853  27.569  23.310  1.00  0.00    -0.034 A 
ATOM     17  C   UNL A   1      30.839  28.680  22.613  1.00  0.00     0.147 A 
ATOM     18  C   UNL A   1      27.911  26.639  24.033  1.00  0.00     0.045 C 
ATOM     19  C   UNL A   1      30.281  27.505  23.149  1.00  0.00     0.078 A 
ATOM     20  S   UNL A   1      32.534  28.632  22.646  1.00  0.00    -0.012 S 
ATOM     21  N   UNL A   1      32.636  27.083  23.164  1.00  0.00    -0.153 NA
ENDBRANCH  10  11
ENDBRANCH   8  10
ENDBRANCH   6   8
ENDBRANCH   5   6
ENDBRANCH   4   5
ENDBRANCH   3   4
ENDBRANCH   2   3
ENDBRANCH   1   2
BRANCH   1  22
ATOM     22  C   UNL A   1      34.027  31.823  27.989  1.00  0.00     0.261 C 
BRANCH  22  23
ATOM     23  O   UNL A   1      34.926  31.880  29.088  1.00  0.00    -0.460 OA
BRANCH  23  24
ATOM     24  C   UNL A   1      36.192  32.165  28.689  1.00  0.00     0.338 C 
ATOM     25  O   UNL A   1      36.515  32.951  27.816  1.00  0.00    -0.246 OA
BRANCH  24  26
ATOM     26  C   UNL A   1      37.131  31.242  29.331  1.00  0.00     0.060 A 
ATOM     27  C   UNL A   1      38.387  31.749  29.662  1.00  0.00     0.016 A 
ATOM     28  C   UNL A   1      36.865  29.865  29.333  1.00  0.00     0.016 A 
ATOM     29  C   UNL A   1      39.425  30.860  29.837  1.00  0.00     0.010 A 
ATOM     30  C   UNL A   1      37.903  28.979  29.517  1.00  0.00     0.010 A 
ATOM     31  C   UNL A   1      39.185  29.486  29.691  1.00  0.00    -0.014 A 
BRANCH  31  32
ATOM     32  C   UNL A   1      40.300  28.581  29.894  1.00  0.00     0.031 A 
ATOM     33  C   UNL A   1      40.635  28.445  31.327  1.00  0.00     0.074 A 
ATOM     34  C   UNL A   1      40.919  27.900  28.911  1.00  0.00     0.049 A 
ATOM     35  N   UNL A   1      41.644  28.971  31.934  1.00  0.00    -0.248 NA
ATOM     36  C   UNL A   1      39.628  27.862  32.229  1.00  0.00     0.031 C 
ATOM     37  C   UNL A   1      40.545  27.795  27.502  1.00  0.00     0.029 A 
ATOM     38  N   UNL A   1      42.007  27.084  28.996  1.00  0.00    -0.354 N 
ATOM     39  C   UNL A   1      41.539  28.558  33.252  1.00  0.00     0.074 A 
ATOM     40  C   UNL A   1      40.189  28.088  33.418  1.00  0.00     0.031 C 
ATOM     41  C   UNL A   1      41.257  26.799  26.921  1.00  0.00     0.029 A 
ATOM     42  C   UNL A   1      42.227  26.283  27.876  1.00  0.00     0.049 A 
ATOM     43  H   UNL A   1      42.593  27.061  29.787  1.00  0.00     0.167 HD
ATOM     44  C   UNL A   1      42.657  28.373  34.002  1.00  0.00     0.034 A 
ATOM     45  C   UNL A   1      43.117  25.256  27.764  1.00  0.00     0.034 A 
ATOM     46  C   UNL A   1      43.790  29.062  33.425  1.00  0.00     0.049 A 
ATOM     47  C   UNL A   1      44.177  25.517  28.773  1.00  0.00     0.074 A 
ATOM     48  C   UNL A   1      44.051  30.381  33.098  1.00  0.00     0.029 A 
ATOM     49  N   UNL A   1      44.703  28.315  32.714  1.00  0.00    -0.354 N 
ATOM     50  N   UNL A   1      44.980  26.546  28.710  1.00  0.00    -0.248 NA
ATOM     51  C   UNL A   1      44.012  24.939  30.098  1.00  0.00     0.031 C 
ATOM     52  C   UNL A   1      44.754  30.321  31.860  1.00  0.00     0.029 A 
ATOM     53  C   UNL A   1      44.963  28.978  31.539  1.00  0.00     0.049 A 
ATOM     54  H   UNL A   1      45.099  27.459  32.996  1.00  0.00     0.167 HD
ATOM     55  C   UNL A   1      45.066  27.011  30.014  1.00  0.00     0.074 A 
ATOM     56  C   UNL A   1      44.519  25.931  30.837  1.00  0.00     0.031 C 
ATOM     57  C   UNL A   1      45.302  28.328  30.286  1.00  0.00     0.034 A 
BRANCH  44  58
ATOM     58  C   UNL A   1      42.814  27.256  35.003  1.00  0.00     0.023 A 
ATOM     59  C   UNL A   1      43.551  26.129  34.599  1.00  0.00     0.031 A 
ATOM     60  C   UNL A   1      42.055  27.105  36.189  1.00  0.00     0.131 A 
ATOM     61  C   UNL A   1      43.445  24.913  35.294  1.00  0.00     0.055 A 
ATOM     62  C   UNL A   1      42.004  25.912  36.911  1.00  0.00     0.041 A 
ATOM     63  F   UNL A   1      41.249  28.059  36.666  1.00  0.00    -0.206 F 
ATOM     64  C   UNL A   1      42.676  24.796  36.449  1.00  0.00     0.022 A 
BRANCH  61  65
ATOM     65  S   UNL A   1      44.217  23.444  34.575  1.00  0.00     0.124 S 
ATOM     66  O   UNL A   1      44.627  22.714  35.768  1.00  0.00    -0.237 OA
ATOM     67  O   UNL A   1      43.114  22.869  33.813  1.00  0.00    -0.237 OA
ATOM     68  O   UNL A   1      45.306  23.994  33.771  1.00  0.00    -0.744 OA
ENDBRANCH  61  65
ENDBRANCH  44  58
BRANCH  45  69
ATOM     69  C   UNL A   1      42.931  23.935  27.082  1.00  0.00     0.023 A 
ATOM     70  C   UNL A   1      43.797  23.462  26.063  1.00  0.00     0.031 A 
ATOM     71  C   UNL A   1      42.025  22.988  27.611  1.00  0.00     0.131 A 
ATOM     72  C   UNL A   1      43.732  22.113  25.628  1.00  0.00     0.055 A 
ATOM     73  C   UNL A   1      41.965  21.660  27.177  1.00  0.00     0.041 A 
ATOM     74  F   UNL A   1      41.218  23.291  28.637  1.00  0.00    -0.206 F 
ATOM     75  C   UNL A   1      42.826  21.213  26.190  1.00  0.00     0.022 A 
BRANCH  72  76
ATOM     76  S   UNL A   1      44.909  21.460  24.391  1.00  0.00     0.124 S 
ATOM     77  O   UNL A   1      44.658  22.321  23.241  1.00  0.00    -0.237 OA
ATOM     78  O   UNL A   1      46.195  21.625  25.057  1.00  0.00    -0.237 OA
ATOM     79  O   UNL A   1      44.486  20.068  24.220  1.00  0.00    -0.744 OA
ENDBRANCH  72  76
ENDBRANCH  45  69
BRANCH  57  80
ATOM     80  C   UNL A   1      45.775  29.236  29.169  1.00  0.00     0.023 A 
ATOM     81  C   UNL A   1      44.937  30.027  28.349  1.00  0.00     0.031 A 
ATOM     82  C   UNL A   1      47.164  29.430  29.069  1.00  0.00     0.131 A 
ATOM     83  C   UNL A   1      45.509  30.978  27.476  1.00  0.00     0.055 A 
ATOM     84  C   UNL A   1      47.722  30.387  28.224  1.00  0.00     0.041 A 
ATOM     85  F   UNL A   1      48.006  28.726  29.844  1.00  0.00    -0.206 F 
ATOM     86  C   UNL A   1      46.896  31.167  27.425  1.00  0.00     0.022 A 
BRANCH  83  87
ATOM     87  S   UNL A   1      44.457  32.029  26.419  1.00  0.00     0.124 S 
ATOM     88  O   UNL A   1      44.011  33.076  27.331  1.00  0.00    -0.237 OA
ATOM     89  O   UNL A   1      45.372  32.445  25.361  1.00  0.00    -0.237 OA
ATOM     90  O   UNL A   1      43.397  31.120  25.976  1.00  0.00    -0.744 OA
ENDBRANCH  83  87
ENDBRANCH  57  80
ENDBRANCH  31  32
ENDBRANCH  24  26
ENDBRANCH  23  24
ENDBRANCH  22  23
ENDBRANCH   1  22
TORSDOF 19
ENDMDL
MODEL 3
REMARK VINA RESULT:     -11.3      3.903      6.553
REMARK SMILES Cc1cc(C)c2c(O[C@@H](C)C(=O)OCCOCCOC(=O)c3ccc(-c4c5nc(c(-c6cc(S(=O)(=O)[O-])ccc6F)c6ccc([nH]6)c(-c6cc(S(=O)(=O)[O-])ccc6F)c6nc(c(-c7cc(S(=O)(=O)[O-])ccc7F)c7ccc4[nH]7)C=C6)C=C5)cc3)nsc2n1
REMARK SMILES IDX 17 1 16 2 15 3 14 4 13 5 11 6 12 7 9 8 10 9 8 10 7 11 1 12
REMARK SMILES IDX 2 13 3 14 88 15 4 16 87 17 5 18 6 19 86 20 85 21 18 22 19 23
REMARK SMILES IDX 20 24 21 25 22 26 23 27 84 28 24 29 83 30 25 31 26 32 27 33
REMARK SMILES IDX 77 34 28 35 82 36 76 37 78 38 29 39 81 40 75 41 74 42 30 44
REMARK SMILES IDX 62 45 42 46 61 47 43 48 46 49 60 50 79 51 44 52 45 53 59 55
REMARK SMILES IDX 80 56 47 57 31 58 32 59 40 60 33 61 39 62 41 63 38 64 34 65
REMARK SMILES IDX 35 66 36 67 37 68 63 69 64 70 72 71 65 72 71 73 73 74 70 75
REMARK SMILES IDX 66 76 67 77 68 78 69 79 48 80 49 81 57 82 50 83 56 84 58 85
REMARK SMILES IDX 55 86 51 87 52 88 53 89 54 90
REMARK H PARENT 78 43 46 54
REMARK Flexibility Score: inf
ROOT
ATOM      1  C   UNL A   1      34.178  34.857  28.919  1.00  0.00     0.202 C 
ENDROOT
BRANCH   1   2
ATOM      2  O   UNL A   1      33.653  34.575  30.210  1.00  0.00    -0.374 OA
BRANCH   2   3
ATOM      3  C   UNL A   1      34.530  34.587  31.333  1.00  0.00     0.202 C 
BRANCH   3   4
ATOM      4  C   UNL A   1      33.980  34.062  32.654  1.00  0.00     0.261 C 
BRANCH   4   5
ATOM      5  O   UNL A   1      34.559  32.802  33.033  1.00  0.00    -0.461 OA
BRANCH   5   6
ATOM      6  C   UNL A   1      35.624  32.845  33.882  1.00  0.00     0.347 C 
ATOM      7  O   UNL A   1      35.664  33.491  34.924  1.00  0.00    -0.248 OA
BRANCH   6   8
ATOM      8  C   UNL A   1      36.779  31.963  33.398  1.00  0.00     0.281 C 
ATOM      9  C   UNL A   1      36.382  30.822  32.465  1.00  0.00     0.066 C 
BRANCH   8  10
ATOM     10  O   UNL A   1      37.803  31.553  34.254  1.00  0.00    -0.462 OA
BRANCH  10  11
ATOM     11  C   UNL A   1      39.035  32.114  34.264  1.00  0.00     0.236 A 
ATOM     12  C   UNL A   1      43.264  34.691  31.478  1.00  0.00     0.067 C 
ATOM     13  C   UNL A   1      42.050  34.132  32.156  1.00  0.00     0.039 A 
ATOM     14  C   UNL A   1      40.794  34.400  31.650  1.00  0.00     0.027 A 
ATOM     15  N   UNL A   1      42.244  33.451  33.286  1.00  0.00    -0.240 NA
ATOM     16  C   UNL A   1      39.622  33.918  32.283  1.00  0.00    -0.034 A 
ATOM     17  C   UNL A   1      41.132  32.928  33.834  1.00  0.00     0.147 A 
ATOM     18  C   UNL A   1      38.361  34.468  31.664  1.00  0.00     0.045 C 
ATOM     19  C   UNL A   1      39.798  33.028  33.399  1.00  0.00     0.078 A 
ATOM     20  S   UNL A   1      41.250  32.042  35.275  1.00  0.00    -0.012 S 
ATOM     21  N   UNL A   1      39.673  31.603  35.317  1.00  0.00    -0.153 NA
ENDBRANCH  10  11
ENDBRANCH   8  10
ENDBRANCH   6   8
ENDBRANCH   5   6
ENDBRANCH   4   5
ENDBRANCH   3   4
ENDBRANCH   2   3
ENDBRANCH   1   2
BRANCH   1  22
ATOM     22  C   UNL A   1      34.581  33.705  28.000  1.00  0.00     0.261 C 
BRANCH  22  23
ATOM     23  O   UNL A   1      35.872  33.160  28.234  1.00  0.00    -0.460 OA
BRANCH  23  24
ATOM     24  C   UNL A   1      35.807  31.980  28.901  1.00  0.00     0.338 C 
ATOM     25  O   UNL A   1      34.909  31.614  29.638  1.00  0.00    -0.246 OA
BRANCH  24  26
ATOM     26  C   UNL A   1      37.080  31.266  28.765  1.00  0.00     0.060 A 
ATOM     27  C   UNL A   1      37.017  29.946  28.318  1.00  0.00     0.016 A 
ATOM     28  C   UNL A   1      38.244  31.800  29.334  1.00  0.00     0.016 A 
ATOM     29  C   UNL A   1      38.078  29.112  28.593  1.00  0.00     0.010 A 
ATOM     30  C   UNL A   1      39.307  30.966  29.601  1.00  0.00     0.010 A 
ATOM     31  C   UNL A   1      39.183  29.615  29.297  1.00  0.00    -0.014 A 
BRANCH  31  32
ATOM     32  C   UNL A   1      40.285  28.710  29.558  1.00  0.00     0.031 A 
ATOM     33  C   UNL A   1      40.599  28.638  31.001  1.00  0.00     0.074 A 
ATOM     34  C   UNL A   1      40.913  27.979  28.617  1.00  0.00     0.049 A 
ATOM     35  N   UNL A   1      41.604  29.183  31.597  1.00  0.00    -0.248 NA
ATOM     36  C   UNL A   1      39.574  28.106  31.914  1.00  0.00     0.031 C 
ATOM     37  C   UNL A   1      40.558  27.812  27.209  1.00  0.00     0.029 A 
ATOM     38  N   UNL A   1      41.991  27.159  28.755  1.00  0.00    -0.354 N 
ATOM     39  C   UNL A   1      41.476  28.832  32.932  1.00  0.00     0.074 A 
ATOM     40  C   UNL A   1      40.120  28.383  33.099  1.00  0.00     0.031 C 
ATOM     41  C   UNL A   1      41.269  26.785  26.685  1.00  0.00     0.029 A 
ATOM     42  C   UNL A   1      42.220  26.305  27.677  1.00  0.00     0.049 A 
ATOM     43  H   UNL A   1      42.565  27.168  29.555  1.00  0.00     0.167 HD
ATOM     44  C   UNL A   1      42.582  28.672  33.706  1.00  0.00     0.034 A 
ATOM     45  C   UNL A   1      43.102  25.266  27.625  1.00  0.00     0.034 A 
ATOM     46  C   UNL A   1      43.729  29.324  33.114  1.00  0.00     0.049 A 
ATOM     47  C   UNL A   1      44.150  25.565  28.637  1.00  0.00     0.074 A 
ATOM     48  C   UNL A   1      44.007  30.624  32.731  1.00  0.00     0.029 A 
ATOM     49  N   UNL A   1      44.645  28.538  32.452  1.00  0.00    -0.354 N 
ATOM     50  N   UNL A   1      44.964  26.582  28.538  1.00  0.00    -0.248 NA
ATOM     51  C   UNL A   1      43.960  25.050  29.985  1.00  0.00     0.031 C 
ATOM     52  C   UNL A   1      44.727  30.501  31.507  1.00  0.00     0.029 A 
ATOM     53  C   UNL A   1      44.928  29.143  31.252  1.00  0.00     0.049 A 
ATOM     54  H   UNL A   1      45.029  27.692  32.780  1.00  0.00     0.167 HD
ATOM     55  C   UNL A   1      45.035  27.106  29.821  1.00  0.00     0.074 A 
ATOM     56  C   UNL A   1      44.466  26.071  30.685  1.00  0.00     0.031 C 
ATOM     57  C   UNL A   1      45.279  28.433  30.036  1.00  0.00     0.034 A 
BRANCH  44  58
ATOM     58  C   UNL A   1      42.713  27.601  34.760  1.00  0.00     0.023 A 
ATOM     59  C   UNL A   1      43.451  26.453  34.421  1.00  0.00     0.031 A 
ATOM     60  C   UNL A   1      41.933  27.509  35.937  1.00  0.00     0.131 A 
ATOM     61  C   UNL A   1      43.325  25.272  35.169  1.00  0.00     0.055 A 
ATOM     62  C   UNL A   1      41.861  26.351  36.712  1.00  0.00     0.041 A 
ATOM     63  F   UNL A   1      41.124  28.489  36.355  1.00  0.00    -0.206 F 
ATOM     64  C   UNL A   1      42.534  25.211  36.313  1.00  0.00     0.022 A 
BRANCH  61  65
ATOM     65  S   UNL A   1      44.101  23.767  34.532  1.00  0.00     0.124 S 
ATOM     66  O   UNL A   1      42.988  23.137  33.832  1.00  0.00    -0.237 OA
ATOM     67  O   UNL A   1      45.166  24.310  33.694  1.00  0.00    -0.237 OA
ATOM     68  O   UNL A   1      44.551  23.081  35.740  1.00  0.00    -0.744 OA
ENDBRANCH  61  65
ENDBRANCH  44  58
BRANCH  45  69
ATOM     69  C   UNL A   1      42.914  23.917  27.002  1.00  0.00     0.023 A 
ATOM     70  C   UNL A   1      43.803  23.379  26.037  1.00  0.00     0.031 A 
ATOM     71  C   UNL A   1      41.974  23.012  27.547  1.00  0.00     0.131 A 
ATOM     72  C   UNL A   1      43.727  22.012  25.666  1.00  0.00     0.055 A 
ATOM     73  C   UNL A   1      41.903  21.666  27.176  1.00  0.00     0.041 A 
ATOM     74  F   UNL A   1      41.140  23.379  28.530  1.00  0.00    -0.206 F 
ATOM     75  C   UNL A   1      42.787  21.156  26.241  1.00  0.00     0.022 A 
BRANCH  72  76
ATOM     76  S   UNL A   1      44.931  21.279  24.502  1.00  0.00     0.124 S 
ATOM     77  O   UNL A   1      44.419  19.923  24.340  1.00  0.00    -0.237 OA
ATOM     78  O   UNL A   1      44.826  22.156  23.342  1.00  0.00    -0.237 OA
ATOM     79  O   UNL A   1      46.203  21.373  25.222  1.00  0.00    -0.744 OA
ENDBRANCH  72  76
ENDBRANCH  45  69
BRANCH  57  80
ATOM     80  C   UNL A   1      45.777  29.284  28.885  1.00  0.00     0.023 A 
ATOM     81  C   UNL A   1      45.018  30.265  28.207  1.00  0.00     0.031 A 
ATOM     82  C   UNL A   1      47.151  29.204  28.599  1.00  0.00     0.131 A 
ATOM     83  C   UNL A   1      45.651  31.127  27.285  1.00  0.00     0.055 A 
ATOM     84  C   UNL A   1      47.776  30.072  27.706  1.00  0.00     0.041 A 
ATOM     85  F   UNL A   1      47.926  28.309  29.234  1.00  0.00    -0.206 F 
ATOM     86  C   UNL A   1      47.029  31.040  27.047  1.00  0.00     0.022 A 
BRANCH  83  87
ATOM     87  S   UNL A   1      44.705  32.417  26.407  1.00  0.00     0.124 S 
ATOM     88  O   UNL A   1      43.615  31.668  25.792  1.00  0.00    -0.237 OA
ATOM     89  O   UNL A   1      44.331  33.332  27.480  1.00  0.00    -0.237 OA
ATOM     90  O   UNL A   1      45.674  32.967  25.456  1.00  0.00    -0.744 OA
ENDBRANCH  83  87
ENDBRANCH  57  80
ENDBRANCH  31  32
ENDBRANCH  24  26
ENDBRANCH  23  24
ENDBRANCH  22  23
ENDBRANCH   1  22
TORSDOF 19
ENDMDL
