MODEL 1
REMARK VINA RESULT:     -11.4      0.000      0.000
REMARK SMILES CC(C)N(c1cc2c(cc1Cl)C=C(C(=O)OCCOCCOC(=O)c1ccc(-c3c4nc(c(-c5cc(S(=O)(=O)[O-])ccc5F)c5ccc([nH]5)c(-c5cc(S(=O)(=O)[O-])ccc5F)c5nc(c(-c6cc(S(=O)(=O)[O-])ccc6F)c6ccc3[nH]6)C=C5)C=C4)cc1)[C@@H](C(F)(F)F)O2)C(C)C
REMARK SMILES IDX 20 1 19 2 18 3 17 4 16 5 14 6 15 7 13 8 5 9 6 10 10 11 7 12
REMARK SMILES IDX 9 13 11 14 8 15 93 16 12 17 88 18 4 19 2 20 1 21 3 22 94 23
REMARK SMILES IDX 95 24 96 25 89 26 90 27 91 28 92 29 21 30 22 31 23 32 24 33
REMARK SMILES IDX 25 34 26 35 87 36 27 37 86 38 28 39 29 40 30 41 80 42 31 43
REMARK SMILES IDX 85 44 79 45 81 46 32 47 84 48 78 49 77 50 33 52 65 53 45 54
REMARK SMILES IDX 64 55 46 56 49 57 63 58 82 59 47 60 48 61 62 63 83 64 50 65
REMARK SMILES IDX 34 66 35 67 43 68 36 69 42 70 44 71 41 72 37 73 38 74 39 75
REMARK SMILES IDX 40 76 66 77 67 78 75 79 68 80 74 81 76 82 73 83 69 84 70 85
REMARK SMILES IDX 71 86 72 87 51 88 52 89 60 90 53 91 59 92 61 93 58 94 54 95
REMARK SMILES IDX 55 96 56 97 57 98
REMARK H PARENT 81 51 49 62
REMARK Flexibility Score: inf
ROOT
ATOM      1  C   UNL A   1      33.023  30.840  27.241  1.00  0.00     0.202 C 
ENDROOT
BRANCH   1   2
ATOM      2  O   UNL A   1      31.738  30.959  26.636  1.00  0.00    -0.374 OA
BRANCH   2   3
ATOM      3  C   UNL A   1      31.489  30.259  25.419  1.00  0.00     0.202 C 
BRANCH   3   4
ATOM      4  C   UNL A   1      32.111  28.869  25.249  1.00  0.00     0.261 C 
BRANCH   4   5
ATOM      5  O   UNL A   1      31.214  27.816  25.636  1.00  0.00    -0.460 OA
BRANCH   5   6
ATOM      6  C   UNL A   1      30.550  27.249  24.603  1.00  0.00     0.338 C 
ATOM      7  O   UNL A   1      29.775  27.800  23.838  1.00  0.00    -0.246 OA
BRANCH   6   8
ATOM      8  C   UNL A   1      30.998  25.857  24.416  1.00  0.00     0.087 C 
ATOM      9  C   UNL A   1      33.489  21.536  25.180  1.00  0.00     0.060 A 
ATOM     10  C   UNL A   1      32.866  22.152  24.066  1.00  0.00     0.074 A 
ATOM     11  C   UNL A   1      33.258  22.143  26.439  1.00  0.00     0.065 A 
ATOM     12  C   UNL A   1      32.136  23.342  24.176  1.00  0.00     0.130 A 
ATOM     13  C   UNL A   1      32.483  23.304  26.554  1.00  0.00     0.034 A 
ATOM     14  Cl  UNL A   1      33.991  21.632  27.924  1.00  0.00    -0.082 Cl
ATOM     15  C   UNL A   1      31.959  23.923  25.424  1.00  0.00     0.019 A 
ATOM     16  O   UNL A   1      31.643  23.884  23.020  1.00  0.00    -0.475 OA
ATOM     17  C   UNL A   1      31.326  25.218  25.545  1.00  0.00     0.027 C 
ATOM     18  C   UNL A   1      31.133  25.256  23.043  1.00  0.00     0.316 C 
BRANCH   9  19
ATOM     19  N   UNL A   1      34.319  20.412  24.970  1.00  0.00    -0.365 N 
BRANCH  19  20
ATOM     20  C   UNL A   1      33.677  19.104  24.703  1.00  0.00     0.076 C 
ATOM     21  C   UNL A   1      32.734  18.659  25.819  1.00  0.00     0.030 C 
ATOM     22  C   UNL A   1      32.967  19.034  23.350  1.00  0.00     0.030 C 
ENDBRANCH  19  20
BRANCH  19  23
ATOM     23  C   UNL A   1      35.782  20.653  25.056  1.00  0.00     0.076 C 
ATOM     24  C   UNL A   1      36.613  19.416  24.725  1.00  0.00     0.030 C 
ATOM     25  C   UNL A   1      36.243  21.864  24.249  1.00  0.00     0.030 C 
ENDBRANCH  19  23
ENDBRANCH   9  19
BRANCH  18  26
ATOM     26  C   UNL A   1      31.995  26.120  22.110  1.00  0.00     0.430 C 
ATOM     27  F   UNL A   1      31.262  27.101  21.532  1.00  0.00    -0.167 F 
ATOM     28  F   UNL A   1      33.004  26.726  22.778  1.00  0.00    -0.167 F 
ATOM     29  F   UNL A   1      32.550  25.388  21.117  1.00  0.00    -0.167 F 
ENDBRANCH  18  26
ENDBRANCH   6   8
ENDBRANCH   5   6
ENDBRANCH   4   5
ENDBRANCH   3   4
ENDBRANCH   2   3
ENDBRANCH   1   2
BRANCH   1  30
ATOM     30  C   UNL A   1      33.769  32.113  27.662  1.00  0.00     0.261 C 
BRANCH  30  31
ATOM     31  O   UNL A   1      32.930  33.278  27.688  1.00  0.00    -0.460 OA
BRANCH  31  32
ATOM     32  C   UNL A   1      33.341  34.255  28.539  1.00  0.00     0.338 C 
ATOM     33  O   UNL A   1      32.802  35.332  28.733  1.00  0.00    -0.246 OA
BRANCH  32  34
ATOM     34  C   UNL A   1      34.439  33.733  29.375  1.00  0.00     0.060 A 
ATOM     35  C   UNL A   1      34.183  32.891  30.455  1.00  0.00     0.016 A 
ATOM     36  C   UNL A   1      35.754  34.082  29.037  1.00  0.00     0.016 A 
ATOM     37  C   UNL A   1      35.256  32.376  31.188  1.00  0.00     0.010 A 
ATOM     38  C   UNL A   1      36.823  33.566  29.769  1.00  0.00     0.010 A 
ATOM     39  C   UNL A   1      36.583  32.694  30.839  1.00  0.00    -0.014 A 
BRANCH  39  40
ATOM     40  C   UNL A   1      37.708  31.983  31.496  1.00  0.00     0.031 A 
ATOM     41  C   UNL A   1      38.427  30.848  30.834  1.00  0.00     0.074 A 
ATOM     42  C   UNL A   1      38.062  32.369  32.738  1.00  0.00     0.049 A 
ATOM     43  N   UNL A   1      39.491  30.207  31.243  1.00  0.00    -0.248 NA
ATOM     44  C   UNL A   1      37.882  30.361  29.559  1.00  0.00     0.031 C 
ATOM     45  C   UNL A   1      37.383  33.414  33.502  1.00  0.00     0.029 A 
ATOM     46  N   UNL A   1      39.067  31.942  33.569  1.00  0.00    -0.354 N 
ATOM     47  C   UNL A   1      39.753  29.245  30.276  1.00  0.00     0.074 A 
ATOM     48  C   UNL A   1      38.707  29.357  29.283  1.00  0.00     0.031 C 
ATOM     49  C   UNL A   1      38.008  33.572  34.676  1.00  0.00     0.029 A 
ATOM     50  C   UNL A   1      39.109  32.615  34.768  1.00  0.00     0.049 A 
ATOM     51  H   UNL A   1      39.695  31.223  33.330  1.00  0.00     0.167 HD
ATOM     52  C   UNL A   1      40.782  28.365  30.226  1.00  0.00     0.034 A 
ATOM     53  C   UNL A   1      39.938  32.484  35.825  1.00  0.00     0.034 A 
ATOM     54  C   UNL A   1      41.810  28.270  31.236  1.00  0.00     0.049 A 
ATOM     55  C   UNL A   1      41.079  31.506  35.741  1.00  0.00     0.074 A 
ATOM     56  C   UNL A   1      42.942  27.473  31.223  1.00  0.00     0.029 A 
ATOM     57  N   UNL A   1      41.829  28.964  32.438  1.00  0.00    -0.354 N 
ATOM     58  N   UNL A   1      41.405  30.707  34.752  1.00  0.00    -0.248 NA
ATOM     59  C   UNL A   1      41.979  31.421  36.899  1.00  0.00     0.031 C 
ATOM     60  C   UNL A   1      43.588  27.610  32.452  1.00  0.00     0.029 A 
ATOM     61  C   UNL A   1      42.923  28.572  33.195  1.00  0.00     0.049 A 
ATOM     62  H   UNL A   1      41.163  29.635  32.713  1.00  0.00     0.167 HD
ATOM     63  C   UNL A   1      42.554  30.034  35.162  1.00  0.00     0.074 A 
ATOM     64  C   UNL A   1      42.884  30.548  36.476  1.00  0.00     0.031 C 
ATOM     65  C   UNL A   1      43.259  29.077  34.508  1.00  0.00     0.034 A 
BRANCH  52  66
ATOM     66  C   UNL A   1      40.888  27.429  29.044  1.00  0.00     0.023 A 
ATOM     67  C   UNL A   1      41.824  27.692  28.025  1.00  0.00     0.031 A 
ATOM     68  C   UNL A   1      39.963  26.389  28.842  1.00  0.00     0.131 A 
ATOM     69  C   UNL A   1      41.784  26.956  26.833  1.00  0.00     0.055 A 
ATOM     70  C   UNL A   1      39.960  25.625  27.675  1.00  0.00     0.041 A 
ATOM     71  F   UNL A   1      39.042  26.104  29.777  1.00  0.00    -0.206 F 
ATOM     72  C   UNL A   1      40.863  25.918  26.657  1.00  0.00     0.022 A 
BRANCH  69  73
ATOM     73  S   UNL A   1      42.859  27.377  25.435  1.00  0.00     0.124 S 
ATOM     74  O   UNL A   1      42.109  28.456  24.796  1.00  0.00    -0.237 OA
ATOM     75  O   UNL A   1      44.088  27.786  26.108  1.00  0.00    -0.237 OA
ATOM     76  O   UNL A   1      42.940  26.138  24.668  1.00  0.00    -0.744 OA
ENDBRANCH  69  73
ENDBRANCH  52  66
BRANCH  53  77
ATOM     77  C   UNL A   1      39.728  33.369  37.006  1.00  0.00     0.023 A 
ATOM     78  C   UNL A   1      39.056  32.888  38.146  1.00  0.00     0.031 A 
ATOM     79  C   UNL A   1      40.050  34.734  36.956  1.00  0.00     0.131 A 
ATOM     80  C   UNL A   1      38.646  33.783  39.141  1.00  0.00     0.055 A 
ATOM     81  C   UNL A   1      39.713  35.609  37.991  1.00  0.00     0.041 A 
ATOM     82  F   UNL A   1      40.676  35.243  35.883  1.00  0.00    -0.206 F 
ATOM     83  C   UNL A   1      38.986  35.138  39.081  1.00  0.00     0.022 A 
BRANCH  80  84
ATOM     84  S   UNL A   1      37.517  33.248  40.457  1.00  0.00     0.124 S 
ATOM     85  O   UNL A   1      37.468  34.428  41.315  1.00  0.00    -0.237 OA
ATOM     86  O   UNL A   1      36.298  32.965  39.702  1.00  0.00    -0.237 OA
ATOM     87  O   UNL A   1      38.179  32.080  41.027  1.00  0.00    -0.744 OA
ENDBRANCH  80  84
ENDBRANCH  53  77
BRANCH  65  88
ATOM     88  C   UNL A   1      44.475  28.478  35.183  1.00  0.00     0.023 A 
ATOM     89  C   UNL A   1      44.318  27.472  36.157  1.00  0.00     0.031 A 
ATOM     90  C   UNL A   1      45.761  29.012  34.985  1.00  0.00     0.131 A 
ATOM     91  C   UNL A   1      45.414  27.072  36.933  1.00  0.00     0.055 A 
ATOM     92  C   UNL A   1      46.862  28.566  35.719  1.00  0.00     0.041 A 
ATOM     93  F   UNL A   1      45.967  29.980  34.079  1.00  0.00    -0.206 F 
ATOM     94  C   UNL A   1      46.688  27.603  36.711  1.00  0.00     0.022 A 
BRANCH  91  95
ATOM     95  S   UNL A   1      45.208  25.926  38.325  1.00  0.00     0.124 S 
ATOM     96  O   UNL A   1      46.593  25.589  38.647  1.00  0.00    -0.237 OA
ATOM     97  O   UNL A   1      44.526  26.760  39.311  1.00  0.00    -0.237 OA
ATOM     98  O   UNL A   1      44.417  24.835  37.769  1.00  0.00    -0.744 OA
ENDBRANCH  91  95
ENDBRANCH  65  88
ENDBRANCH  39  40
ENDBRANCH  32  34
ENDBRANCH  31  32
ENDBRANCH  30  31
ENDBRANCH   1  30
TORSDOF 21
ENDMDL
MODEL 2
REMARK VINA RESULT:     -11.1      1.882      7.515
REMARK SMILES CC(C)N(c1cc2c(cc1Cl)C=C(C(=O)OCCOCCOC(=O)c1ccc(-c3c4nc(c(-c5cc(S(=O)(=O)[O-])ccc5F)c5ccc([nH]5)c(-c5cc(S(=O)(=O)[O-])ccc5F)c5nc(c(-c6cc(S(=O)(=O)[O-])ccc6F)c6ccc3[nH]6)C=C5)C=C4)cc1)[C@@H](C(F)(F)F)O2)C(C)C
REMARK SMILES IDX 20 1 19 2 18 3 17 4 16 5 14 6 15 7 13 8 5 9 6 10 10 11 7 12
REMARK SMILES IDX 9 13 11 14 8 15 93 16 12 17 88 18 4 19 2 20 1 21 3 22 94 23
REMARK SMILES IDX 95 24 96 25 89 26 90 27 91 28 92 29 21 30 22 31 23 32 24 33
REMARK SMILES IDX 25 34 26 35 87 36 27 37 86 38 28 39 29 40 30 41 80 42 31 43
REMARK SMILES IDX 85 44 79 45 81 46 32 47 84 48 78 49 77 50 33 52 65 53 45 54
REMARK SMILES IDX 64 55 46 56 49 57 63 58 82 59 47 60 48 61 62 63 83 64 50 65
REMARK SMILES IDX 34 66 35 67 43 68 36 69 42 70 44 71 41 72 37 73 38 74 39 75
REMARK SMILES IDX 40 76 66 77 67 78 75 79 68 80 74 81 76 82 73 83 69 84 70 85
REMARK SMILES IDX 71 86 72 87 51 88 52 89 60 90 53 91 59 92 61 93 58 94 54 95
REMARK SMILES IDX 55 96 56 97 57 98
REMARK H PARENT 81 51 49 62
REMARK Flexibility Score: inf
ROOT
ATOM      1  C   UNL A   1      32.749  30.064  26.886  1.00  0.00     0.202 C 
ENDROOT
BRANCH   1   2
ATOM      2  O   UNL A   1      31.480  30.550  26.453  1.00  0.00    -0.374 OA
BRANCH   2   3
ATOM      3  C   UNL A   1      31.078  30.303  25.108  1.00  0.00     0.202 C 
BRANCH   3   4
ATOM      4  C   UNL A   1      31.617  29.046  24.415  1.00  0.00     0.261 C 
BRANCH   4   5
ATOM      5  O   UNL A   1      31.192  27.838  25.063  1.00  0.00    -0.460 OA
BRANCH   5   6
ATOM      6  C   UNL A   1      30.302  27.112  24.348  1.00  0.00     0.338 C 
ATOM      7  O   UNL A   1      29.289  27.522  23.803  1.00  0.00    -0.246 OA
BRANCH   6   8
ATOM      8  C   UNL A   1      30.792  25.731  24.181  1.00  0.00     0.087 C 
ATOM      9  C   UNL A   1      33.336  21.464  25.066  1.00  0.00     0.060 A 
ATOM     10  C   UNL A   1      32.761  22.071  23.921  1.00  0.00     0.074 A 
ATOM     11  C   UNL A   1      33.021  22.060  26.312  1.00  0.00     0.065 A 
ATOM     12  C   UNL A   1      31.999  23.244  23.995  1.00  0.00     0.130 A 
ATOM     13  C   UNL A   1      32.215  23.203  26.388  1.00  0.00     0.034 A 
ATOM     14  Cl  UNL A   1      33.684  21.558  27.833  1.00  0.00    -0.082 Cl
ATOM     15  C   UNL A   1      31.739  23.815  25.233  1.00  0.00     0.019 A 
ATOM     16  O   UNL A   1      31.557  23.780  22.816  1.00  0.00    -0.475 OA
ATOM     17  C   UNL A   1      31.071  25.095  25.324  1.00  0.00     0.027 C 
ATOM     18  C   UNL A   1      31.016  25.140  22.815  1.00  0.00     0.316 C 
BRANCH   9  19
ATOM     19  N   UNL A   1      34.202  20.361  24.897  1.00  0.00    -0.365 N 
BRANCH  19  20
ATOM     20  C   UNL A   1      33.607  19.043  24.576  1.00  0.00     0.076 C 
ATOM     21  C   UNL A   1      32.968  18.362  25.786  1.00  0.00     0.030 C 
ATOM     22  C   UNL A   1      32.620  19.083  23.408  1.00  0.00     0.030 C 
ENDBRANCH  19  20
BRANCH  19  23
ATOM     23  C   UNL A   1      35.651  20.632  25.078  1.00  0.00     0.076 C 
ATOM     24  C   UNL A   1      36.527  19.414  24.797  1.00  0.00     0.030 C 
ATOM     25  C   UNL A   1      36.138  21.856  24.308  1.00  0.00     0.030 C 
ENDBRANCH  19  23
ENDBRANCH   9  19
BRANCH  18  26
ATOM     26  C   UNL A   1      31.907  26.029  21.935  1.00  0.00     0.430 C 
ATOM     27  F   UNL A   1      31.233  27.115  21.489  1.00  0.00    -0.167 F 
ATOM     28  F   UNL A   1      32.985  26.488  22.613  1.00  0.00    -0.167 F 
ATOM     29  F   UNL A   1      32.366  25.362  20.851  1.00  0.00    -0.167 F 
ENDBRANCH  18  26
ENDBRANCH   6   8
ENDBRANCH   5   6
ENDBRANCH   4   5
ENDBRANCH   3   4
ENDBRANCH   2   3
ENDBRANCH   1   2
BRANCH   1  30
ATOM     30  C   UNL A   1      33.835  31.073  27.284  1.00  0.00     0.261 C 
BRANCH  30  31
ATOM     31  O   UNL A   1      33.307  32.269  27.877  1.00  0.00    -0.460 OA
BRANCH  31  32
ATOM     32  C   UNL A   1      34.207  33.277  28.023  1.00  0.00     0.338 C 
ATOM     33  O   UNL A   1      34.039  34.455  27.755  1.00  0.00    -0.246 OA
BRANCH  32  34
ATOM     34  C   UNL A   1      35.377  32.772  28.766  1.00  0.00     0.060 A 
ATOM     35  C   UNL A   1      35.226  31.876  29.823  1.00  0.00     0.016 A 
ATOM     36  C   UNL A   1      36.653  33.192  28.364  1.00  0.00     0.016 A 
ATOM     37  C   UNL A   1      36.363  31.381  30.466  1.00  0.00     0.010 A 
ATOM     38  C   UNL A   1      37.786  32.695  29.006  1.00  0.00     0.010 A 
ATOM     39  C   UNL A   1      37.651  31.771  30.050  1.00  0.00    -0.014 A 
BRANCH  39  40
ATOM     40  C   UNL A   1      38.845  31.085  30.606  1.00  0.00     0.031 A 
ATOM     41  C   UNL A   1      39.433  31.462  31.931  1.00  0.00     0.074 A 
ATOM     42  C   UNL A   1      39.417  30.114  29.867  1.00  0.00     0.049 A 
ATOM     43  N   UNL A   1      40.405  30.881  32.586  1.00  0.00    -0.248 NA
ATOM     44  C   UNL A   1      38.872  32.641  32.604  1.00  0.00     0.031 C 
ATOM     45  C   UNL A   1      38.969  29.718  28.534  1.00  0.00     0.029 A 
ATOM     46  N   UNL A   1      40.483  29.288  30.124  1.00  0.00    -0.354 N 
ATOM     47  C   UNL A   1      40.572  31.616  33.753  1.00  0.00     0.074 A 
ATOM     48  C   UNL A   1      39.629  32.713  33.693  1.00  0.00     0.031 C 
ATOM     49  C   UNL A   1      39.729  28.704  28.101  1.00  0.00     0.029 A 
ATOM     50  C   UNL A   1      40.746  28.401  29.107  1.00  0.00     0.049 A 
ATOM     51  H   UNL A   1      41.007  29.328  30.956  1.00  0.00     0.167 HD
ATOM     52  C   UNL A   1      41.425  31.379  34.778  1.00  0.00     0.034 A 
ATOM     53  C   UNL A   1      41.693  27.447  28.991  1.00  0.00     0.034 A 
ATOM     54  C   UNL A   1      42.361  30.279  34.809  1.00  0.00     0.049 A 
ATOM     55  C   UNL A   1      42.623  27.196  30.147  1.00  0.00     0.074 A 
ATOM     56  C   UNL A   1      43.199  29.906  35.846  1.00  0.00     0.029 A 
ATOM     57  N   UNL A   1      42.605  29.396  33.766  1.00  0.00    -0.354 N 
ATOM     58  N   UNL A   1      42.669  27.803  31.311  1.00  0.00    -0.248 NA
ATOM     59  C   UNL A   1      43.616  26.125  29.992  1.00  0.00     0.031 C 
ATOM     60  C   UNL A   1      44.014  28.866  35.398  1.00  0.00     0.029 A 
ATOM     61  C   UNL A   1      43.617  28.515  34.117  1.00  0.00     0.049 A 
ATOM     62  H   UNL A   1      42.129  29.395  32.904  1.00  0.00     0.167 HD
ATOM     63  C   UNL A   1      43.684  27.178  32.031  1.00  0.00     0.074 A 
ATOM     64  C   UNL A   1      44.202  26.124  31.183  1.00  0.00     0.031 C 
ATOM     65  C   UNL A   1      44.143  27.462  33.277  1.00  0.00     0.034 A 
BRANCH  52  66
ATOM     66  C   UNL A   1      41.402  32.298  35.977  1.00  0.00     0.023 A 
ATOM     67  C   UNL A   1      40.302  32.274  36.857  1.00  0.00     0.031 A 
ATOM     68  C   UNL A   1      42.370  33.302  36.155  1.00  0.00     0.131 A 
ATOM     69  C   UNL A   1      40.174  33.262  37.843  1.00  0.00     0.055 A 
ATOM     70  C   UNL A   1      42.264  34.253  37.170  1.00  0.00     0.041 A 
ATOM     71  F   UNL A   1      43.433  33.378  35.337  1.00  0.00    -0.206 F 
ATOM     72  C   UNL A   1      41.154  34.246  38.009  1.00  0.00     0.022 A 
BRANCH  69  73
ATOM     73  S   UNL A   1      38.690  33.363  38.881  1.00  0.00     0.124 S 
ATOM     74  O   UNL A   1      38.754  32.103  39.617  1.00  0.00    -0.237 OA
ATOM     75  O   UNL A   1      38.955  34.561  39.673  1.00  0.00    -0.237 OA
ATOM     76  O   UNL A   1      37.596  33.468  37.922  1.00  0.00    -0.744 OA
ENDBRANCH  69  73
ENDBRANCH  52  66
BRANCH  53  77
ATOM     77  C   UNL A   1      41.731  26.632  27.743  1.00  0.00     0.023 A 
ATOM     78  C   UNL A   1      41.231  25.316  27.736  1.00  0.00     0.031 A 
ATOM     79  C   UNL A   1      42.400  27.090  26.597  1.00  0.00     0.131 A 
ATOM     80  C   UNL A   1      41.493  24.478  26.647  1.00  0.00     0.055 A 
ATOM     81  C   UNL A   1      42.585  26.277  25.478  1.00  0.00     0.041 A 
ATOM     82  F   UNL A   1      42.909  28.332  26.562  1.00  0.00    -0.206 F 
ATOM     83  C   UNL A   1      42.150  24.954  25.508  1.00  0.00     0.022 A 
BRANCH  80  84
ATOM     84  S   UNL A   1      41.137  22.701  26.740  1.00  0.00     0.124 S 
ATOM     85  O   UNL A   1      41.718  22.340  28.029  1.00  0.00    -0.237 OA
ATOM     86  O   UNL A   1      39.677  22.689  26.680  1.00  0.00    -0.237 OA
ATOM     87  O   UNL A   1      41.810  22.151  25.568  1.00  0.00    -0.744 OA
ENDBRANCH  80  84
ENDBRANCH  53  77
BRANCH  65  88
ATOM     88  C   UNL A   1      45.284  26.641  33.838  1.00  0.00     0.023 A 
ATOM     89  C   UNL A   1      45.019  25.429  34.507  1.00  0.00     0.031 A 
ATOM     90  C   UNL A   1      46.602  27.131  33.856  1.00  0.00     0.131 A 
ATOM     91  C   UNL A   1      46.042  24.780  35.212  1.00  0.00     0.055 A 
ATOM     92  C   UNL A   1      47.631  26.449  34.508  1.00  0.00     0.041 A 
ATOM     93  F   UNL A   1      46.909  28.286  33.245  1.00  0.00    -0.206 F 
ATOM     94  C   UNL A   1      47.349  25.276  35.205  1.00  0.00     0.022 A 
BRANCH  91  95
ATOM     95  S   UNL A   1      45.694  23.330  36.244  1.00  0.00     0.124 S 
ATOM     96  O   UNL A   1      44.359  22.947  35.789  1.00  0.00    -0.237 OA
ATOM     97  O   UNL A   1      46.767  22.416  35.862  1.00  0.00    -0.237 OA
ATOM     98  O   UNL A   1      45.761  23.843  37.608  1.00  0.00    -0.744 OA
ENDBRANCH  91  95
ENDBRANCH  65  88
ENDBRANCH  39  40
ENDBRANCH  32  34
ENDBRANCH  31  32
ENDBRANCH  30  31
ENDBRANCH   1  30
TORSDOF 21
ENDMDL
MODEL 3
REMARK VINA RESULT:     -11.0      5.832      9.828
REMARK SMILES CC(C)N(c1cc2c(cc1Cl)C=C(C(=O)OCCOCCOC(=O)c1ccc(-c3c4nc(c(-c5cc(S(=O)(=O)[O-])ccc5F)c5ccc([nH]5)c(-c5cc(S(=O)(=O)[O-])ccc5F)c5nc(c(-c6cc(S(=O)(=O)[O-])ccc6F)c6ccc3[nH]6)C=C5)C=C4)cc1)[C@@H](C(F)(F)F)O2)C(C)C
REMARK SMILES IDX 20 1 19 2 18 3 17 4 16 5 14 6 15 7 13 8 5 9 6 10 10 11 7 12
REMARK SMILES IDX 9 13 11 14 8 15 93 16 12 17 88 18 4 19 2 20 1 21 3 22 94 23
REMARK SMILES IDX 95 24 96 25 89 26 90 27 91 28 92 29 21 30 22 31 23 32 24 33
REMARK SMILES IDX 25 34 26 35 87 36 27 37 86 38 28 39 29 40 30 41 80 42 31 43
REMARK SMILES IDX 85 44 79 45 81 46 32 47 84 48 78 49 77 50 33 52 65 53 45 54
REMARK SMILES IDX 64 55 46 56 49 57 63 58 82 59 47 60 48 61 62 63 83 64 50 65
REMARK SMILES IDX 34 66 35 67 43 68 36 69 42 70 44 71 41 72 37 73 38 74 39 75
REMARK SMILES IDX 40 76 66 77 67 78 75 79 68 80 74 81 76 82 73 83 69 84 70 85
REMARK SMILES IDX 71 86 72 87 51 88 52 89 60 90 53 91 59 92 61 93 58 94 54 95
REMARK SMILES IDX 55 96 56 97 57 98
REMARK H PARENT 81 51 49 62
REMARK Flexibility Score: inf
ROOT
ATOM      1  C   UNL A   1      40.967  20.374  26.830  1.00  0.00     0.202 C 
ENDROOT
BRANCH   1   2
ATOM      2  O   UNL A   1      39.789  20.161  26.056  1.00  0.00    -0.374 OA
BRANCH   2   3
ATOM      3  C   UNL A   1      38.926  21.268  25.806  1.00  0.00     0.202 C 
BRANCH   3   4
ATOM      4  C   UNL A   1      37.680  21.030  24.947  1.00  0.00     0.261 C 
BRANCH   4   5
ATOM      5  O   UNL A   1      36.543  21.775  25.410  1.00  0.00    -0.460 OA
BRANCH   5   6
ATOM      6  C   UNL A   1      35.354  21.281  24.996  1.00  0.00     0.338 C 
ATOM      7  O   UNL A   1      35.075  20.109  24.798  1.00  0.00    -0.246 OA
BRANCH   6   8
ATOM      8  C   UNL A   1      34.349  22.359  24.941  1.00  0.00     0.087 C 
ATOM      9  C   UNL A   1      32.343  26.939  24.267  1.00  0.00     0.060 A 
ATOM     10  C   UNL A   1      31.997  25.793  25.026  1.00  0.00     0.074 A 
ATOM     11  C   UNL A   1      33.397  26.775  23.334  1.00  0.00     0.065 A 
ATOM     12  C   UNL A   1      32.705  24.588  24.934  1.00  0.00     0.130 A 
ATOM     13  C   UNL A   1      34.069  25.552  23.206  1.00  0.00     0.034 A 
ATOM     14  Cl  UNL A   1      34.061  28.053  22.370  1.00  0.00    -0.082 Cl
ATOM     15  C   UNL A   1      33.752  24.477  24.029  1.00  0.00     0.019 A 
ATOM     16  O   UNL A   1      32.325  23.573  25.769  1.00  0.00    -0.475 OA
ATOM     17  C   UNL A   1      34.580  23.292  24.011  1.00  0.00     0.027 C 
ATOM     18  C   UNL A   1      33.205  22.413  25.917  1.00  0.00     0.316 C 
BRANCH   9  19
ATOM     19  N   UNL A   1      31.669  28.157  24.512  1.00  0.00    -0.365 N 
BRANCH  19  20
ATOM     20  C   UNL A   1      30.401  28.415  23.791  1.00  0.00     0.076 C 
ATOM     21  C   UNL A   1      30.604  29.132  22.457  1.00  0.00     0.030 C 
ATOM     22  C   UNL A   1      29.541  27.166  23.595  1.00  0.00     0.030 C 
ENDBRANCH  19  20
BRANCH  19  23
ATOM     23  C   UNL A   1      32.318  29.083  25.475  1.00  0.00     0.076 C 
ATOM     24  C   UNL A   1      31.505  30.350  25.726  1.00  0.00     0.030 C 
ATOM     25  C   UNL A   1      32.719  28.410  26.784  1.00  0.00     0.030 C 
ENDBRANCH  19  23
ENDBRANCH   9  19
BRANCH  18  26
ATOM     26  C   UNL A   1      33.679  22.332  27.376  1.00  0.00     0.430 C 
ATOM     27  F   UNL A   1      32.703  22.716  28.233  1.00  0.00    -0.167 F 
ATOM     28  F   UNL A   1      34.031  21.072  27.721  1.00  0.00    -0.167 F 
ATOM     29  F   UNL A   1      34.752  23.126  27.599  1.00  0.00    -0.167 F 
ENDBRANCH  18  26
ENDBRANCH   6   8
ENDBRANCH   5   6
ENDBRANCH   4   5
ENDBRANCH   3   4
ENDBRANCH   2   3
ENDBRANCH   1   2
BRANCH   1  30
ATOM     30  C   UNL A   1      42.283  20.693  26.108  1.00  0.00     0.261 C 
BRANCH  30  31
ATOM     31  O   UNL A   1      42.265  21.957  25.429  1.00  0.00    -0.460 OA
BRANCH  31  32
ATOM     32  C   UNL A   1      43.484  22.404  25.027  1.00  0.00     0.338 C 
ATOM     33  O   UNL A   1      44.201  21.910  24.172  1.00  0.00    -0.246 OA
BRANCH  32  34
ATOM     34  C   UNL A   1      43.737  23.724  25.636  1.00  0.00     0.060 A 
ATOM     35  C   UNL A   1      43.606  24.896  24.892  1.00  0.00     0.016 A 
ATOM     36  C   UNL A   1      44.082  23.775  26.993  1.00  0.00     0.016 A 
ATOM     37  C   UNL A   1      43.802  26.128  25.520  1.00  0.00     0.010 A 
ATOM     38  C   UNL A   1      44.275  25.007  27.618  1.00  0.00     0.010 A 
ATOM     39  C   UNL A   1      44.118  26.194  26.891  1.00  0.00    -0.014 A 
BRANCH  39  40
ATOM     40  C   UNL A   1      44.123  27.506  27.585  1.00  0.00     0.031 A 
ATOM     41  C   UNL A   1      45.379  28.298  27.779  1.00  0.00     0.074 A 
ATOM     42  C   UNL A   1      42.955  27.969  28.070  1.00  0.00     0.049 A 
ATOM     43  N   UNL A   1      45.516  29.503  28.270  1.00  0.00    -0.248 NA
ATOM     44  C   UNL A   1      46.643  27.660  27.385  1.00  0.00     0.031 C 
ATOM     45  C   UNL A   1      41.686  27.246  27.999  1.00  0.00     0.029 A 
ATOM     46  N   UNL A   1      42.639  29.142  28.708  1.00  0.00    -0.354 N 
ATOM     47  C   UNL A   1      46.878  29.776  28.239  1.00  0.00     0.074 A 
ATOM     48  C   UNL A   1      47.529  28.591  27.723  1.00  0.00     0.031 C 
ATOM     49  C   UNL A   1      40.722  28.002  28.539  1.00  0.00     0.029 A 
ATOM     50  C   UNL A   1      41.306  29.249  29.032  1.00  0.00     0.049 A 
ATOM     51  H   UNL A   1      43.302  29.840  28.914  1.00  0.00     0.167 HD
ATOM     52  C   UNL A   1      47.512  30.918  28.597  1.00  0.00     0.034 A 
ATOM     53  C   UNL A   1      40.624  30.233  29.652  1.00  0.00     0.034 A 
ATOM     54  C   UNL A   1      46.838  32.085  29.116  1.00  0.00     0.049 A 
ATOM     55  C   UNL A   1      41.349  31.497  30.032  1.00  0.00     0.074 A 
ATOM     56  C   UNL A   1      47.386  33.319  29.419  1.00  0.00     0.029 A 
ATOM     57  N   UNL A   1      45.488  32.165  29.433  1.00  0.00    -0.354 N 
ATOM     58  N   UNL A   1      42.614  31.802  29.857  1.00  0.00    -0.248 NA
ATOM     59  C   UNL A   1      40.562  32.559  30.673  1.00  0.00     0.031 C 
ATOM     60  C   UNL A   1      46.397  34.107  30.006  1.00  0.00     0.029 A 
ATOM     61  C   UNL A   1      45.201  33.408  29.976  1.00  0.00     0.049 A 
ATOM     62  H   UNL A   1      44.832  31.444  29.293  1.00  0.00     0.167 HD
ATOM     63  C   UNL A   1      42.771  33.094  30.353  1.00  0.00     0.074 A 
ATOM     64  C   UNL A   1      41.463  33.524  30.802  1.00  0.00     0.031 C 
ATOM     65  C   UNL A   1      43.899  33.845  30.431  1.00  0.00     0.034 A 
BRANCH  52  66
ATOM     66  C   UNL A   1      49.012  31.003  28.438  1.00  0.00     0.023 A 
ATOM     67  C   UNL A   1      49.562  31.503  27.241  1.00  0.00     0.031 A 
ATOM     68  C   UNL A   1      49.887  30.441  29.384  1.00  0.00     0.131 A 
ATOM     69  C   UNL A   1      50.938  31.389  27.003  1.00  0.00     0.055 A 
ATOM     70  C   UNL A   1      51.264  30.376  29.165  1.00  0.00     0.041 A 
ATOM     71  F   UNL A   1      49.415  29.940  30.538  1.00  0.00    -0.206 F 
ATOM     72  C   UNL A   1      51.792  30.836  27.962  1.00  0.00     0.022 A 
BRANCH  69  73
ATOM     73  S   UNL A   1      51.656  31.864  25.407  1.00  0.00     0.124 S 
ATOM     74  O   UNL A   1      53.037  32.165  25.779  1.00  0.00    -0.237 OA
ATOM     75  O   UNL A   1      51.474  30.650  24.617  1.00  0.00    -0.237 OA
ATOM     76  O   UNL A   1      50.860  33.014  24.991  1.00  0.00    -0.744 OA
ENDBRANCH  69  73
ENDBRANCH  52  66
BRANCH  53  77
ATOM     77  C   UNL A   1      39.160  30.056  29.871  1.00  0.00     0.023 A 
ATOM     78  C   UNL A   1      38.231  30.703  29.034  1.00  0.00     0.031 A 
ATOM     79  C   UNL A   1      38.673  29.375  30.998  1.00  0.00     0.131 A 
ATOM     80  C   UNL A   1      36.878  30.735  29.391  1.00  0.00     0.055 A 
ATOM     81  C   UNL A   1      37.311  29.338  31.304  1.00  0.00     0.041 A 
ATOM     82  F   UNL A   1      39.521  28.756  31.834  1.00  0.00    -0.206 F 
ATOM     83  C   UNL A   1      36.408  30.041  30.510  1.00  0.00     0.022 A 
BRANCH  80  84
ATOM     84  S   UNL A   1      35.715  31.815  28.511  1.00  0.00     0.124 S 
ATOM     85  O   UNL A   1      35.209  30.930  27.465  1.00  0.00    -0.237 OA
ATOM     86  O   UNL A   1      34.764  32.149  29.569  1.00  0.00    -0.237 OA
ATOM     87  O   UNL A   1      36.548  32.921  28.053  1.00  0.00    -0.744 OA
ENDBRANCH  80  84
ENDBRANCH  53  77
BRANCH  65  88
ATOM     88  C   UNL A   1      43.813  35.230  31.037  1.00  0.00     0.023 A 
ATOM     89  C   UNL A   1      43.756  36.363  30.202  1.00  0.00     0.031 A 
ATOM     90  C   UNL A   1      43.952  35.435  32.421  1.00  0.00     0.131 A 
ATOM     91  C   UNL A   1      43.894  37.645  30.751  1.00  0.00     0.055 A 
ATOM     92  C   UNL A   1      44.027  36.717  32.970  1.00  0.00     0.041 A 
ATOM     93  F   UNL A   1      44.023  34.391  33.262  1.00  0.00    -0.206 F 
ATOM     94  C   UNL A   1      44.016  37.829  32.131  1.00  0.00     0.022 A 
BRANCH  91  95
ATOM     95  S   UNL A   1      44.024  39.111  29.689  1.00  0.00     0.124 S 
ATOM     96  O   UNL A   1      42.714  39.131  29.041  1.00  0.00    -0.237 OA
ATOM     97  O   UNL A   1      44.254  40.175  30.661  1.00  0.00    -0.237 OA
ATOM     98  O   UNL A   1      45.147  38.810  28.808  1.00  0.00    -0.744 OA
ENDBRANCH  91  95
ENDBRANCH  65  88
ENDBRANCH  39  40
ENDBRANCH  32  34
ENDBRANCH  31  32
ENDBRANCH  30  31
ENDBRANCH   1  30
TORSDOF 21
ENDMDL
