MODEL 1
REMARK VINA RESULT:     -11.9      0.000      0.000
REMARK SMILES O=C(OCCOCCOC(=O)c1ccc(N2C(=O)/C(=C/c3ccco3)SC2=S)cc1)c1ccc(-c2c3nc(c(-c4cc(S(=O)(=O)[O-])ccc4F)c4ccc([nH]4)c(-c4cc(S(=O)(=O)[O-])ccc4F)c4nc(c(-c5cc(S(=O)(=O)[O-])ccc5F)c5ccc2[nH]5)C=C4)C=C3)cc1
REMARK SMILES IDX 5 1 4 2 3 3 2 4 1 5 31 6 32 7 93 8 33 9 92 10 34 11 35 12
REMARK SMILES IDX 36 13 86 14 37 15 91 16 85 17 87 18 38 19 90 20 84 21 83 22
REMARK SMILES IDX 39 24 71 25 51 26 70 27 52 28 55 29 69 30 88 31 53 32 54 33
REMARK SMILES IDX 68 35 89 36 56 37 40 38 41 39 49 40 42 41 48 42 50 43 47 44
REMARK SMILES IDX 43 45 44 46 45 47 46 48 72 49 73 50 81 51 74 52 80 53 82 54
REMARK SMILES IDX 79 55 75 56 76 57 77 58 78 59 57 60 58 61 66 62 59 63 65 64
REMARK SMILES IDX 67 65 64 66 60 67 61 68 62 69 63 70 6 71 7 72 8 73 9 74
REMARK SMILES IDX 10 75 11 76 12 77 13 78 30 79 14 80 29 81 15 82 16 83 17 84
REMARK SMILES IDX 27 85 18 86 19 87 26 88 28 89 20 90 21 91 22 92 25 93 23 94
REMARK SMILES IDX 24 95
REMARK H PARENT 87 23 55 34
REMARK Flexibility Score: inf
ROOT
ATOM      1  C   UNL A   1      38.084  21.411  25.672  1.00  0.00     0.202 C 
ENDROOT
BRANCH   1   2
ATOM      2  C   UNL A   1      38.679  20.092  25.166  1.00  0.00     0.261 C 
BRANCH   2   3
ATOM      3  O   UNL A   1      39.672  19.597  26.081  1.00  0.00    -0.460 OA
BRANCH   3   4
ATOM      4  C   UNL A   1      40.964  19.991  26.205  1.00  0.00     0.338 C 
ATOM      5  O   UNL A   1      41.851  19.164  26.000  1.00  0.00    -0.246 OA
BRANCH   4   6
ATOM      6  C   UNL A   1      41.369  21.376  26.595  1.00  0.00     0.060 A 
ATOM      7  C   UNL A   1      41.464  22.444  25.705  1.00  0.00     0.016 A 
ATOM      8  C   UNL A   1      41.582  21.639  27.959  1.00  0.00     0.016 A 
ATOM      9  C   UNL A   1      41.830  23.708  26.121  1.00  0.00     0.010 A 
ATOM     10  C   UNL A   1      41.889  22.932  28.401  1.00  0.00     0.010 A 
ATOM     11  C   UNL A   1      42.022  23.969  27.473  1.00  0.00    -0.014 A 
BRANCH  11  12
ATOM     12  C   UNL A   1      42.437  25.341  27.818  1.00  0.00     0.031 A 
ATOM     13  C   UNL A   1      43.749  25.837  27.301  1.00  0.00     0.074 A 
ATOM     14  C   UNL A   1      41.532  26.163  28.384  1.00  0.00     0.049 A 
ATOM     15  N   UNL A   1      44.291  27.017  27.424  1.00  0.00    -0.248 NA
ATOM     16  C   UNL A   1      44.549  24.882  26.517  1.00  0.00     0.031 C 
ATOM     17  C   UNL A   1      40.172  25.770  28.776  1.00  0.00     0.029 A 
ATOM     18  N   UNL A   1      41.582  27.500  28.669  1.00  0.00    -0.354 N 
ATOM     19  C   UNL A   1      45.497  26.948  26.739  1.00  0.00     0.074 A 
ATOM     20  C   UNL A   1      45.620  25.602  26.224  1.00  0.00     0.031 C 
ATOM     21  C   UNL A   1      39.509  26.852  29.209  1.00  0.00     0.029 A 
ATOM     22  C   UNL A   1      40.417  27.993  29.212  1.00  0.00     0.049 A 
ATOM     23  H   UNL A   1      42.377  28.057  28.503  1.00  0.00     0.167 HD
ATOM     24  C   UNL A   1      46.412  27.929  26.561  1.00  0.00     0.034 A 
ATOM     25  C   UNL A   1      40.137  29.220  29.692  1.00  0.00     0.034 A 
ATOM     26  C   UNL A   1      46.254  29.250  27.116  1.00  0.00     0.049 A 
ATOM     27  C   UNL A   1      41.229  30.256  29.598  1.00  0.00     0.074 A 
ATOM     28  C   UNL A   1      47.149  30.302  27.128  1.00  0.00     0.029 A 
ATOM     29  N   UNL A   1      45.105  29.695  27.767  1.00  0.00    -0.354 N 
ATOM     30  N   UNL A   1      42.419  30.152  29.045  1.00  0.00    -0.248 NA
ATOM     31  C   UNL A   1      40.952  31.565  30.193  1.00  0.00     0.031 C 
ATOM     32  C   UNL A   1      46.564  31.361  27.834  1.00  0.00     0.029 A 
ATOM     33  C   UNL A   1      45.275  30.999  28.199  1.00  0.00     0.049 A 
ATOM     34  H   UNL A   1      44.290  29.160  27.901  1.00  0.00     0.167 HD
ATOM     35  C   UNL A   1      43.028  31.389  29.218  1.00  0.00     0.074 A 
ATOM     36  C   UNL A   1      42.055  32.232  29.887  1.00  0.00     0.031 C 
ATOM     37  C   UNL A   1      44.278  31.797  28.876  1.00  0.00     0.034 A 
BRANCH  24  38
ATOM     38  C   UNL A   1      47.676  27.557  25.828  1.00  0.00     0.023 A 
ATOM     39  C   UNL A   1      47.841  27.814  24.455  1.00  0.00     0.031 A 
ATOM     40  C   UNL A   1      48.692  26.847  26.492  1.00  0.00     0.131 A 
ATOM     41  C   UNL A   1      48.958  27.298  23.776  1.00  0.00     0.055 A 
ATOM     42  C   UNL A   1      49.837  26.405  25.827  1.00  0.00     0.041 A 
ATOM     43  F   UNL A   1      48.573  26.542  27.794  1.00  0.00    -0.206 F 
ATOM     44  C   UNL A   1      49.969  26.617  24.458  1.00  0.00     0.022 A 
BRANCH  41  45
ATOM     45  S   UNL A   1      48.999  27.399  21.964  1.00  0.00     0.124 S 
ATOM     46  O   UNL A   1      47.976  28.409  21.702  1.00  0.00    -0.237 OA
ATOM     47  O   UNL A   1      50.375  27.800  21.699  1.00  0.00    -0.237 OA
ATOM     48  O   UNL A   1      48.651  26.044  21.538  1.00  0.00    -0.744 OA
ENDBRANCH  41  45
ENDBRANCH  24  38
BRANCH  25  49
ATOM     49  C   UNL A   1      38.841  29.505  30.381  1.00  0.00     0.023 A 
ATOM     50  C   UNL A   1      37.864  30.338  29.813  1.00  0.00     0.031 A 
ATOM     51  C   UNL A   1      38.595  29.005  31.677  1.00  0.00     0.131 A 
ATOM     52  C   UNL A   1      36.723  30.692  30.555  1.00  0.00     0.055 A 
ATOM     53  C   UNL A   1      37.428  29.302  32.381  1.00  0.00     0.041 A 
ATOM     54  F   UNL A   1      39.494  28.215  32.286  1.00  0.00    -0.206 F 
ATOM     55  C   UNL A   1      36.491  30.166  31.828  1.00  0.00     0.022 A 
BRANCH  52  56
ATOM     56  S   UNL A   1      35.605  31.956  29.888  1.00  0.00     0.124 S 
ATOM     57  O   UNL A   1      34.709  32.185  31.016  1.00  0.00    -0.237 OA
ATOM     58  O   UNL A   1      36.528  33.040  29.572  1.00  0.00    -0.237 OA
ATOM     59  O   UNL A   1      34.998  31.299  28.732  1.00  0.00    -0.744 OA
ENDBRANCH  52  56
ENDBRANCH  25  49
BRANCH  37  60
ATOM     60  C   UNL A   1      44.624  33.225  29.205  1.00  0.00     0.023 A 
ATOM     61  C   UNL A   1      44.324  34.273  28.318  1.00  0.00     0.031 A 
ATOM     62  C   UNL A   1      45.290  33.536  30.402  1.00  0.00     0.131 A 
ATOM     63  C   UNL A   1      44.758  35.573  28.606  1.00  0.00     0.055 A 
ATOM     64  C   UNL A   1      45.655  34.844  30.718  1.00  0.00     0.041 A 
ATOM     65  F   UNL A   1      45.600  32.570  31.283  1.00  0.00    -0.206 F 
ATOM     66  C   UNL A   1      45.405  35.869  29.809  1.00  0.00     0.022 A 
BRANCH  63  67
ATOM     67  S   UNL A   1      44.574  36.848  27.331  1.00  0.00     0.124 S 
ATOM     68  O   UNL A   1      43.513  36.294  26.498  1.00  0.00    -0.237 OA
ATOM     69  O   UNL A   1      44.219  38.025  28.116  1.00  0.00    -0.237 OA
ATOM     70  O   UNL A   1      45.894  36.897  26.704  1.00  0.00    -0.744 OA
ENDBRANCH  63  67
ENDBRANCH  37  60
ENDBRANCH  11  12
ENDBRANCH   4   6
ENDBRANCH   3   4
ENDBRANCH   2   3
ENDBRANCH   1   2
BRANCH   1  71
ATOM     71  O   UNL A   1      36.802  21.745  25.138  1.00  0.00    -0.374 OA
BRANCH  71  72
ATOM     72  C   UNL A   1      35.674  21.459  25.971  1.00  0.00     0.202 C 
BRANCH  72  73
ATOM     73  C   UNL A   1      34.706  20.540  25.222  1.00  0.00     0.261 C 
BRANCH  73  74
ATOM     74  O   UNL A   1      33.880  21.357  24.379  1.00  0.00    -0.460 OA
BRANCH  74  75
ATOM     75  C   UNL A   1      32.567  21.362  24.721  1.00  0.00     0.338 C 
ATOM     76  O   UNL A   1      31.941  20.495  25.305  1.00  0.00    -0.246 OA
BRANCH  75  77
ATOM     77  C   UNL A   1      32.046  22.715  24.452  1.00  0.00     0.060 A 
ATOM     78  C   UNL A   1      31.229  22.912  23.331  1.00  0.00     0.018 A 
ATOM     79  C   UNL A   1      32.317  23.771  25.323  1.00  0.00     0.018 A 
ATOM     80  C   UNL A   1      30.688  24.171  23.072  1.00  0.00     0.028 A 
ATOM     81  C   UNL A   1      31.818  25.037  25.038  1.00  0.00     0.028 A 
ATOM     82  C   UNL A   1      31.032  25.249  23.895  1.00  0.00     0.051 A 
BRANCH  82  83
ATOM     83  N   UNL A   1      30.707  26.571  23.508  1.00  0.00    -0.261 N 
ATOM     84  C   UNL A   1      29.394  27.027  23.564  1.00  0.00     0.270 C 
ATOM     85  C   UNL A   1      31.660  27.442  23.001  1.00  0.00     0.152 C 
ATOM     86  O   UNL A   1      28.404  26.415  23.943  1.00  0.00    -0.268 OA
ATOM     87  C   UNL A   1      29.341  28.443  23.102  1.00  0.00     0.084 C 
ATOM     88  S   UNL A   1      30.910  28.983  22.640  1.00  0.00    -0.054 SA
ATOM     89  S   UNL A   1      33.276  27.185  22.651  1.00  0.00    -0.051 S 
ATOM     90  C   UNL A   1      28.211  29.166  23.093  1.00  0.00     0.068 C 
BRANCH  90  91
ATOM     91  C   UNL A   1      28.200  30.505  22.614  1.00  0.00     0.127 A 
ATOM     92  C   UNL A   1      28.024  30.968  21.314  1.00  0.00     0.050 A 
ATOM     93  O   UNL A   1      28.433  31.596  23.416  1.00  0.00    -0.465 OA
ATOM     94  C   UNL A   1      28.223  32.366  21.321  1.00  0.00     0.042 A 
ATOM     95  C   UNL A   1      28.469  32.699  22.628  1.00  0.00     0.195 A 
ENDBRANCH  90  91
ENDBRANCH  82  83
ENDBRANCH  75  77
ENDBRANCH  74  75
ENDBRANCH  73  74
ENDBRANCH  72  73
ENDBRANCH  71  72
ENDBRANCH   1  71
TORSDOF 19
ENDMDL
MODEL 2
REMARK VINA RESULT:     -11.5      1.832      2.117
REMARK SMILES O=C(OCCOCCOC(=O)c1ccc(N2C(=O)/C(=C/c3ccco3)SC2=S)cc1)c1ccc(-c2c3nc(c(-c4cc(S(=O)(=O)[O-])ccc4F)c4ccc([nH]4)c(-c4cc(S(=O)(=O)[O-])ccc4F)c4nc(c(-c5cc(S(=O)(=O)[O-])ccc5F)c5ccc2[nH]5)C=C4)C=C3)cc1
REMARK SMILES IDX 5 1 4 2 3 3 2 4 1 5 31 6 32 7 93 8 33 9 92 10 34 11 35 12
REMARK SMILES IDX 36 13 86 14 37 15 91 16 85 17 87 18 38 19 90 20 84 21 83 22
REMARK SMILES IDX 39 24 71 25 51 26 70 27 52 28 55 29 69 30 88 31 53 32 54 33
REMARK SMILES IDX 68 35 89 36 56 37 40 38 41 39 49 40 42 41 48 42 50 43 47 44
REMARK SMILES IDX 43 45 44 46 45 47 46 48 72 49 73 50 81 51 74 52 80 53 82 54
REMARK SMILES IDX 79 55 75 56 76 57 77 58 78 59 57 60 58 61 66 62 59 63 65 64
REMARK SMILES IDX 67 65 64 66 60 67 61 68 62 69 63 70 6 71 7 72 8 73 9 74
REMARK SMILES IDX 10 75 11 76 12 77 13 78 30 79 14 80 29 81 15 82 16 83 17 84
REMARK SMILES IDX 27 85 18 86 19 87 26 88 28 89 20 90 21 91 22 92 25 93 23 94
REMARK SMILES IDX 24 95
REMARK H PARENT 87 23 55 34
REMARK Flexibility Score: inf
ROOT
ATOM      1  C   UNL A   1      38.711  21.299  25.779  1.00  0.00     0.202 C 
ENDROOT
BRANCH   1   2
ATOM      2  C   UNL A   1      39.083  19.841  25.481  1.00  0.00     0.261 C 
BRANCH   2   3
ATOM      3  O   UNL A   1      40.292  19.474  26.169  1.00  0.00    -0.460 OA
BRANCH   3   4
ATOM      4  C   UNL A   1      41.547  19.940  25.956  1.00  0.00     0.338 C 
ATOM      5  O   UNL A   1      42.368  19.191  25.427  1.00  0.00    -0.246 OA
BRANCH   4   6
ATOM      6  C   UNL A   1      41.995  21.311  26.347  1.00  0.00     0.060 A 
ATOM      7  C   UNL A   1      42.091  22.384  25.464  1.00  0.00     0.016 A 
ATOM      8  C   UNL A   1      42.249  21.557  27.707  1.00  0.00     0.016 A 
ATOM      9  C   UNL A   1      42.496  23.636  25.881  1.00  0.00     0.010 A 
ATOM     10  C   UNL A   1      42.598  22.839  28.152  1.00  0.00     0.010 A 
ATOM     11  C   UNL A   1      42.730  23.880  27.229  1.00  0.00    -0.014 A 
BRANCH  11  12
ATOM     12  C   UNL A   1      43.186  25.239  27.574  1.00  0.00     0.031 A 
ATOM     13  C   UNL A   1      44.527  25.684  27.087  1.00  0.00     0.074 A 
ATOM     14  C   UNL A   1      42.298  26.098  28.111  1.00  0.00     0.049 A 
ATOM     15  N   UNL A   1      45.108  26.844  27.215  1.00  0.00    -0.248 NA
ATOM     16  C   UNL A   1      45.312  24.694  26.331  1.00  0.00     0.031 C 
ATOM     17  C   UNL A   1      40.915  25.758  28.472  1.00  0.00     0.029 A 
ATOM     18  N   UNL A   1      42.389  27.434  28.388  1.00  0.00    -0.354 N 
ATOM     19  C   UNL A   1      46.328  26.726  26.561  1.00  0.00     0.074 A 
ATOM     20  C   UNL A   1      46.416  25.372  26.060  1.00  0.00     0.031 C 
ATOM     21  C   UNL A   1      40.281  26.866  28.880  1.00  0.00     0.029 A 
ATOM     22  C   UNL A   1      41.229  27.973  28.897  1.00  0.00     0.049 A 
ATOM     23  H   UNL A   1      43.207  27.961  28.238  1.00  0.00     0.167 HD
ATOM     24  C   UNL A   1      47.282  27.673  26.399  1.00  0.00     0.034 A 
ATOM     25  C   UNL A   1      40.982  29.214  29.361  1.00  0.00     0.034 A 
ATOM     26  C   UNL A   1      47.158  29.002  26.941  1.00  0.00     0.049 A 
ATOM     27  C   UNL A   1      42.113  30.209  29.287  1.00  0.00     0.074 A 
ATOM     28  C   UNL A   1      48.090  30.022  26.967  1.00  0.00     0.029 A 
ATOM     29  N   UNL A   1      46.010  29.494  27.559  1.00  0.00    -0.354 N 
ATOM     30  N   UNL A   1      43.311  30.058  28.765  1.00  0.00    -0.248 NA
ATOM     31  C   UNL A   1      41.868  31.532  29.865  1.00  0.00     0.031 C 
ATOM     32  C   UNL A   1      47.527  31.107  27.651  1.00  0.00     0.029 A 
ATOM     33  C   UNL A   1      46.217  30.795  27.985  1.00  0.00     0.049 A 
ATOM     34  H   UNL A   1      45.173  28.990  27.676  1.00  0.00     0.167 HD
ATOM     35  C   UNL A   1      43.960  31.273  28.945  1.00  0.00     0.074 A 
ATOM     36  C   UNL A   1      43.002  32.156  29.583  1.00  0.00     0.031 C 
ATOM     37  C   UNL A   1      45.233  31.633  28.631  1.00  0.00     0.034 A 
BRANCH  24  38
ATOM     38  C   UNL A   1      48.550  27.249  25.701  1.00  0.00     0.023 A 
ATOM     39  C   UNL A   1      49.672  26.790  26.415  1.00  0.00     0.031 A 
ATOM     40  C   UNL A   1      48.672  27.400  24.309  1.00  0.00     0.131 A 
ATOM     41  C   UNL A   1      50.886  26.570  25.744  1.00  0.00     0.055 A 
ATOM     42  C   UNL A   1      49.860  27.106  23.637  1.00  0.00     0.041 A 
ATOM     43  F   UNL A   1      47.646  27.869  23.580  1.00  0.00    -0.206 F 
ATOM     44  C   UNL A   1      50.980  26.702  24.356  1.00  0.00     0.022 A 
BRANCH  41  45
ATOM     45  S   UNL A   1      52.380  26.257  26.726  1.00  0.00     0.124 S 
ATOM     46  O   UNL A   1      53.353  27.128  26.070  1.00  0.00    -0.237 OA
ATOM     47  O   UNL A   1      51.968  26.656  28.067  1.00  0.00    -0.237 OA
ATOM     48  O   UNL A   1      52.615  24.825  26.546  1.00  0.00    -0.744 OA
ENDBRANCH  41  45
ENDBRANCH  24  38
BRANCH  25  49
ATOM     49  C   UNL A   1      39.680  29.550  30.016  1.00  0.00     0.023 A 
ATOM     50  C   UNL A   1      38.661  30.236  29.335  1.00  0.00     0.031 A 
ATOM     51  C   UNL A   1      39.469  29.259  31.379  1.00  0.00     0.131 A 
ATOM     52  C   UNL A   1      37.512  30.656  30.027  1.00  0.00     0.055 A 
ATOM     53  C   UNL A   1      38.295  29.616  32.044  1.00  0.00     0.041 A 
ATOM     54  F   UNL A   1      40.408  28.620  32.094  1.00  0.00    -0.206 F 
ATOM     55  C   UNL A   1      37.315  30.336  31.373  1.00  0.00     0.022 A 
BRANCH  52  56
ATOM     56  S   UNL A   1      36.331  31.745  29.181  1.00  0.00     0.124 S 
ATOM     57  O   UNL A   1      35.297  31.908  30.196  1.00  0.00    -0.237 OA
ATOM     58  O   UNL A   1      37.149  32.920  28.903  1.00  0.00    -0.237 OA
ATOM     59  O   UNL A   1      35.935  30.970  28.007  1.00  0.00    -0.744 OA
ENDBRANCH  52  56
ENDBRANCH  25  49
BRANCH  37  60
ATOM     60  C   UNL A   1      45.621  33.051  28.959  1.00  0.00     0.023 A 
ATOM     61  C   UNL A   1      45.459  34.088  28.024  1.00  0.00     0.031 A 
ATOM     62  C   UNL A   1      46.190  33.361  30.205  1.00  0.00     0.131 A 
ATOM     63  C   UNL A   1      45.932  35.372  28.322  1.00  0.00     0.055 A 
ATOM     64  C   UNL A   1      46.593  34.657  30.523  1.00  0.00     0.041 A 
ATOM     65  F   UNL A   1      46.368  32.405  31.132  1.00  0.00    -0.206 F 
ATOM     66  C   UNL A   1      46.482  35.668  29.572  1.00  0.00     0.022 A 
BRANCH  63  67
ATOM     67  S   UNL A   1      45.934  36.619  27.006  1.00  0.00     0.124 S 
ATOM     68  O   UNL A   1      46.888  37.598  27.516  1.00  0.00    -0.237 OA
ATOM     69  O   UNL A   1      46.370  35.848  25.847  1.00  0.00    -0.237 OA
ATOM     70  O   UNL A   1      44.544  37.070  26.962  1.00  0.00    -0.744 OA
ENDBRANCH  63  67
ENDBRANCH  37  60
ENDBRANCH  11  12
ENDBRANCH   4   6
ENDBRANCH   3   4
ENDBRANCH   2   3
ENDBRANCH   1   2
BRANCH   1  71
ATOM     71  O   UNL A   1      37.311  21.577  25.800  1.00  0.00    -0.374 OA
BRANCH  71  72
ATOM     72  C   UNL A   1      36.549  21.089  24.691  1.00  0.00     0.202 C 
BRANCH  72  73
ATOM     73  C   UNL A   1      35.351  20.288  25.208  1.00  0.00     0.261 C 
BRANCH  73  74
ATOM     74  O   UNL A   1      34.207  21.154  25.215  1.00  0.00    -0.460 OA
BRANCH  74  75
ATOM     75  C   UNL A   1      34.037  21.842  26.373  1.00  0.00     0.338 C 
ATOM     76  O   UNL A   1      34.398  21.527  27.492  1.00  0.00    -0.246 OA
BRANCH  75  77
ATOM     77  C   UNL A   1      33.511  23.174  26.020  1.00  0.00     0.060 A 
ATOM     78  C   UNL A   1      32.370  23.645  26.685  1.00  0.00     0.018 A 
ATOM     79  C   UNL A   1      34.163  23.974  25.082  1.00  0.00     0.018 A 
ATOM     80  C   UNL A   1      31.872  24.917  26.402  1.00  0.00     0.028 A 
ATOM     81  C   UNL A   1      33.639  25.223  24.767  1.00  0.00     0.028 A 
ATOM     82  C   UNL A   1      32.474  25.683  25.399  1.00  0.00     0.051 A 
BRANCH  82  83
ATOM     83  N   UNL A   1      31.839  26.855  24.922  1.00  0.00    -0.261 N 
ATOM     84  C   UNL A   1      30.809  26.778  23.990  1.00  0.00     0.270 C 
ATOM     85  C   UNL A   1      32.250  28.122  25.310  1.00  0.00     0.152 C 
ATOM     86  O   UNL A   1      30.321  25.770  23.496  1.00  0.00    -0.268 OA
ATOM     87  C   UNL A   1      30.328  28.151  23.668  1.00  0.00     0.084 C 
ATOM     88  S   UNL A   1      31.239  29.325  24.538  1.00  0.00    -0.054 SA
ATOM     89  S   UNL A   1      33.536  28.589  26.275  1.00  0.00    -0.051 S 
ATOM     90  C   UNL A   1      29.305  28.390  22.834  1.00  0.00     0.068 C 
BRANCH  90  91
ATOM     91  C   UNL A   1      28.899  29.718  22.531  1.00  0.00     0.127 A 
ATOM     92  C   UNL A   1      28.357  30.682  23.375  1.00  0.00     0.050 A 
ATOM     93  O   UNL A   1      28.940  30.249  21.264  1.00  0.00    -0.465 OA
ATOM     94  C   UNL A   1      27.998  31.797  22.585  1.00  0.00     0.042 A 
ATOM     95  C   UNL A   1      28.375  31.482  21.305  1.00  0.00     0.195 A 
ENDBRANCH  90  91
ENDBRANCH  82  83
ENDBRANCH  75  77
ENDBRANCH  74  75
ENDBRANCH  73  74
ENDBRANCH  72  73
ENDBRANCH  71  72
ENDBRANCH   1  71
TORSDOF 19
ENDMDL
MODEL 3
REMARK VINA RESULT:     -11.4      1.966      2.323
REMARK SMILES O=C(OCCOCCOC(=O)c1ccc(N2C(=O)/C(=C/c3ccco3)SC2=S)cc1)c1ccc(-c2c3nc(c(-c4cc(S(=O)(=O)[O-])ccc4F)c4ccc([nH]4)c(-c4cc(S(=O)(=O)[O-])ccc4F)c4nc(c(-c5cc(S(=O)(=O)[O-])ccc5F)c5ccc2[nH]5)C=C4)C=C3)cc1
REMARK SMILES IDX 5 1 4 2 3 3 2 4 1 5 31 6 32 7 93 8 33 9 92 10 34 11 35 12
REMARK SMILES IDX 36 13 86 14 37 15 91 16 85 17 87 18 38 19 90 20 84 21 83 22
REMARK SMILES IDX 39 24 71 25 51 26 70 27 52 28 55 29 69 30 88 31 53 32 54 33
REMARK SMILES IDX 68 35 89 36 56 37 40 38 41 39 49 40 42 41 48 42 50 43 47 44
REMARK SMILES IDX 43 45 44 46 45 47 46 48 72 49 73 50 81 51 74 52 80 53 82 54
REMARK SMILES IDX 79 55 75 56 76 57 77 58 78 59 57 60 58 61 66 62 59 63 65 64
REMARK SMILES IDX 67 65 64 66 60 67 61 68 62 69 63 70 6 71 7 72 8 73 9 74
REMARK SMILES IDX 10 75 11 76 12 77 13 78 30 79 14 80 29 81 15 82 16 83 17 84
REMARK SMILES IDX 27 85 18 86 19 87 26 88 28 89 20 90 21 91 22 92 25 93 23 94
REMARK SMILES IDX 24 95
REMARK H PARENT 87 23 55 34
REMARK Flexibility Score: inf
ROOT
ATOM      1  C   UNL A   1      38.112  21.248  25.714  1.00  0.00     0.202 C 
ENDROOT
BRANCH   1   2
ATOM      2  C   UNL A   1      38.523  19.851  25.234  1.00  0.00     0.261 C 
BRANCH   2   3
ATOM      3  O   UNL A   1      39.556  19.308  26.075  1.00  0.00    -0.460 OA
BRANCH   3   4
ATOM      4  C   UNL A   1      40.863  19.664  26.127  1.00  0.00     0.338 C 
ATOM      5  O   UNL A   1      41.714  18.809  25.886  1.00  0.00    -0.246 OA
BRANCH   4   6
ATOM      6  C   UNL A   1      41.329  21.040  26.482  1.00  0.00     0.060 A 
ATOM      7  C   UNL A   1      41.487  21.500  27.787  1.00  0.00     0.016 A 
ATOM      8  C   UNL A   1      41.716  21.893  25.435  1.00  0.00     0.016 A 
ATOM      9  C   UNL A   1      41.936  22.777  28.060  1.00  0.00     0.010 A 
ATOM     10  C   UNL A   1      42.235  23.167  25.701  1.00  0.00     0.010 A 
ATOM     11  C   UNL A   1      42.335  23.612  27.023  1.00  0.00    -0.014 A 
BRANCH  11  12
ATOM     12  C   UNL A   1      42.772  24.965  27.410  1.00  0.00     0.031 A 
ATOM     13  C   UNL A   1      44.110  25.441  26.943  1.00  0.00     0.074 A 
ATOM     14  C   UNL A   1      41.871  25.796  27.968  1.00  0.00     0.049 A 
ATOM     15  N   UNL A   1      44.675  26.605  27.108  1.00  0.00    -0.248 NA
ATOM     16  C   UNL A   1      44.910  24.484  26.162  1.00  0.00     0.031 C 
ATOM     17  C   UNL A   1      40.490  25.428  28.311  1.00  0.00     0.029 A 
ATOM     18  N   UNL A   1      41.943  27.125  28.284  1.00  0.00    -0.354 N 
ATOM     19  C   UNL A   1      45.900  26.521  26.457  1.00  0.00     0.074 A 
ATOM     20  C   UNL A   1      46.007  25.184  25.916  1.00  0.00     0.031 C 
ATOM     21  C   UNL A   1      39.840  26.516  28.748  1.00  0.00     0.029 A 
ATOM     22  C   UNL A   1      40.774  27.634  28.803  1.00  0.00     0.049 A 
ATOM     23  H   UNL A   1      42.755  27.667  28.154  1.00  0.00     0.167 HD
ATOM     24  C   UNL A   1      46.842  27.485  26.328  1.00  0.00     0.034 A 
ATOM     25  C   UNL A   1      40.509  28.857  29.303  1.00  0.00     0.034 A 
ATOM     26  C   UNL A   1      46.699  28.796  26.908  1.00  0.00     0.049 A 
ATOM     27  C   UNL A   1      41.627  29.868  29.264  1.00  0.00     0.074 A 
ATOM     28  C   UNL A   1      47.617  29.826  26.970  1.00  0.00     0.029 A 
ATOM     29  N   UNL A   1      45.541  29.254  27.535  1.00  0.00    -0.354 N 
ATOM     30  N   UNL A   1      42.830  29.747  28.744  1.00  0.00    -0.248 NA
ATOM     31  C   UNL A   1      41.363  31.170  29.880  1.00  0.00     0.031 C 
ATOM     32  C   UNL A   1      47.037  30.883  27.682  1.00  0.00     0.029 A 
ATOM     33  C   UNL A   1      45.729  30.545  28.001  1.00  0.00     0.049 A 
ATOM     34  H   UNL A   1      44.711  28.736  27.633  1.00  0.00     0.167 HD
ATOM     35  C   UNL A   1      43.462  30.965  28.962  1.00  0.00     0.074 A 
ATOM     36  C   UNL A   1      42.490  31.816  29.622  1.00  0.00     0.031 C 
ATOM     37  C   UNL A   1      44.731  31.351  28.666  1.00  0.00     0.034 A 
BRANCH  24  38
ATOM     38  C   UNL A   1      48.119  27.098  25.624  1.00  0.00     0.023 A 
ATOM     39  C   UNL A   1      49.215  26.558  26.321  1.00  0.00     0.031 A 
ATOM     40  C   UNL A   1      48.276  27.365  24.253  1.00  0.00     0.131 A 
ATOM     41  C   UNL A   1      50.441  26.373  25.659  1.00  0.00     0.055 A 
ATOM     42  C   UNL A   1      49.474  27.107  23.584  1.00  0.00     0.041 A 
ATOM     43  F   UNL A   1      47.275  27.914  23.545  1.00  0.00    -0.206 F 
ATOM     44  C   UNL A   1      50.570  26.621  24.291  1.00  0.00     0.022 A 
BRANCH  41  45
ATOM     45  S   UNL A   1      51.906  25.949  26.644  1.00  0.00     0.124 S 
ATOM     46  O   UNL A   1      51.365  25.970  28.001  1.00  0.00    -0.237 OA
ATOM     47  O   UNL A   1      52.270  24.637  26.122  1.00  0.00    -0.237 OA
ATOM     48  O   UNL A   1      52.848  27.025  26.338  1.00  0.00    -0.744 OA
ENDBRANCH  41  45
ENDBRANCH  24  38
BRANCH  25  49
ATOM     49  C   UNL A   1      39.200  29.157  29.960  1.00  0.00     0.023 A 
ATOM     50  C   UNL A   1      38.206  29.920  29.325  1.00  0.00     0.031 A 
ATOM     51  C   UNL A   1      38.955  28.748  31.288  1.00  0.00     0.131 A 
ATOM     52  C   UNL A   1      37.051  30.298  30.031  1.00  0.00     0.055 A 
ATOM     53  C   UNL A   1      37.775  29.066  31.960  1.00  0.00     0.041 A 
ATOM     54  F   UNL A   1      39.869  28.029  31.959  1.00  0.00    -0.206 F 
ATOM     55  C   UNL A   1      36.821  29.862  31.338  1.00  0.00     0.022 A 
BRANCH  52  56
ATOM     56  S   UNL A   1      35.906  31.481  29.265  1.00  0.00     0.124 S 
ATOM     57  O   UNL A   1      36.821  32.503  28.771  1.00  0.00    -0.237 OA
ATOM     58  O   UNL A   1      35.254  30.658  28.253  1.00  0.00    -0.237 OA
ATOM     59  O   UNL A   1      35.051  31.895  30.376  1.00  0.00    -0.744 OA
ENDBRANCH  52  56
ENDBRANCH  25  49
BRANCH  37  60
ATOM     60  C   UNL A   1      45.100  32.763  29.037  1.00  0.00     0.023 A 
ATOM     61  C   UNL A   1      45.673  33.065  30.285  1.00  0.00     0.031 A 
ATOM     62  C   UNL A   1      44.846  33.820  28.148  1.00  0.00     0.131 A 
ATOM     63  C   UNL A   1      45.902  34.400  30.639  1.00  0.00     0.055 A 
ATOM     64  C   UNL A   1      45.143  35.141  28.478  1.00  0.00     0.041 A 
ATOM     65  F   UNL A   1      44.299  33.584  26.944  1.00  0.00    -0.206 F 
ATOM     66  C   UNL A   1      45.658  35.440  29.737  1.00  0.00     0.022 A 
BRANCH  63  67
ATOM     67  S   UNL A   1      46.405  34.769  32.342  1.00  0.00     0.124 S 
ATOM     68  O   UNL A   1      45.748  33.702  33.090  1.00  0.00    -0.237 OA
ATOM     69  O   UNL A   1      47.860  34.688  32.261  1.00  0.00    -0.237 OA
ATOM     70  O   UNL A   1      45.871  36.110  32.573  1.00  0.00    -0.744 OA
ENDBRANCH  63  67
ENDBRANCH  37  60
ENDBRANCH  11  12
ENDBRANCH   4   6
ENDBRANCH   3   4
ENDBRANCH   2   3
ENDBRANCH   1   2
BRANCH   1  71
ATOM     71  O   UNL A   1      36.705  21.489  25.749  1.00  0.00    -0.374 OA
BRANCH  71  72
ATOM     72  C   UNL A   1      35.948  20.998  24.638  1.00  0.00     0.202 C 
BRANCH  72  73
ATOM     73  C   UNL A   1      34.546  20.603  25.109  1.00  0.00     0.261 C 
BRANCH  73  74
ATOM     74  O   UNL A   1      33.592  21.228  24.237  1.00  0.00    -0.460 OA
BRANCH  74  75
ATOM     75  C   UNL A   1      32.343  21.328  24.759  1.00  0.00     0.338 C 
ATOM     76  O   UNL A   1      31.769  20.539  25.489  1.00  0.00    -0.246 OA
BRANCH  75  77
ATOM     77  C   UNL A   1      31.851  22.687  24.464  1.00  0.00     0.060 A 
ATOM     78  C   UNL A   1      31.563  23.024  23.135  1.00  0.00     0.018 A 
ATOM     79  C   UNL A   1      31.625  23.603  25.491  1.00  0.00     0.018 A 
ATOM     80  C   UNL A   1      31.057  24.288  22.828  1.00  0.00     0.028 A 
ATOM     81  C   UNL A   1      31.166  24.879  25.180  1.00  0.00     0.028 A 
ATOM     82  C   UNL A   1      30.914  25.236  23.847  1.00  0.00     0.051 A 
BRANCH  82  83
ATOM     83  N   UNL A   1      30.651  26.589  23.526  1.00  0.00    -0.261 N 
ATOM     84  C   UNL A   1      29.348  27.078  23.515  1.00  0.00     0.270 C 
ATOM     85  C   UNL A   1      31.660  27.464  23.151  1.00  0.00     0.152 C 
ATOM     86  O   UNL A   1      28.319  26.471  23.777  1.00  0.00    -0.268 OA
ATOM     87  C   UNL A   1      29.364  28.522  23.146  1.00  0.00     0.084 C 
ATOM     88  S   UNL A   1      30.976  29.045  22.839  1.00  0.00    -0.054 SA
ATOM     89  S   UNL A   1      33.292  27.184  22.905  1.00  0.00    -0.051 S 
ATOM     90  C   UNL A   1      28.256  29.276  23.101  1.00  0.00     0.068 C 
BRANCH  90  91
ATOM     91  C   UNL A   1      28.313  30.643  22.713  1.00  0.00     0.127 A 
ATOM     92  C   UNL A   1      28.594  31.762  23.491  1.00  0.00     0.050 A 
ATOM     93  O   UNL A   1      28.025  31.080  21.443  1.00  0.00    -0.465 OA
ATOM     94  C   UNL A   1      28.404  32.907  22.686  1.00  0.00     0.042 A 
ATOM     95  C   UNL A   1      28.058  32.436  21.445  1.00  0.00     0.195 A 
ENDBRANCH  90  91
ENDBRANCH  82  83
ENDBRANCH  75  77
ENDBRANCH  74  75
ENDBRANCH  73  74
ENDBRANCH  72  73
ENDBRANCH  71  72
ENDBRANCH   1  71
TORSDOF 19
ENDMDL
