MODEL 1
REMARK VINA RESULT:     -10.7      0.000      0.000
REMARK SMILES CCCCCCOC(=O)Nc1cccc(-c2ccc([C@@H](C)C(=O)OCCOCCOC(=O)c3ccc(-c4c5nc(c(-c6cc(S(=O)(=O)[O-])ccc6F)c6ccc([nH]6)c(-c6cc(S(=O)(=O)[O-])ccc6F)c6nc(c(-c7cc(S(=O)(=O)[O-])ccc7F)c7ccc4[nH]7)C=C6)C=C5)cc3)cc2F)c1
REMARK SMILES IDX 24 1 22 2 23 3 20 4 21 5 19 6 16 7 17 8 97 9 18 10 96 11
REMARK SMILES IDX 98 12 15 13 11 14 12 15 99 16 13 17 14 18 10 19 8 20 9 21
REMARK SMILES IDX 7 23 6 24 5 25 4 26 3 27 2 28 1 29 25 30 26 31 27 32 28 33
REMARK SMILES IDX 29 34 30 35 31 36 32 37 33 38 34 39 95 40 35 41 94 42 36 43
REMARK SMILES IDX 37 44 38 45 88 46 39 47 93 48 87 49 89 50 40 51 92 52 86 53
REMARK SMILES IDX 85 54 41 56 73 57 53 58 72 59 54 60 57 61 71 62 90 63 55 64
REMARK SMILES IDX 56 65 70 67 91 68 58 69 42 70 43 71 51 72 44 73 50 74 52 75
REMARK SMILES IDX 49 76 45 77 46 78 47 79 48 80 74 81 75 82 83 83 76 84 82 85
REMARK SMILES IDX 84 86 81 87 77 88 78 89 79 90 80 91 59 92 60 93 68 94 61 95
REMARK SMILES IDX 67 96 69 97 66 98 62 99 63 100 64 101 65 102
REMARK H PARENT 10 22 89 55 57 66
REMARK Flexibility Score: inf
ROOT
ATOM      1  O   UNL A   1      31.318  29.416  24.024  1.00  0.00    -0.463 OA
ENDROOT
BRANCH   1   2
ATOM      2  C   UNL A   1      30.114  29.447  23.400  1.00  0.00     0.313 C 
ATOM      3  O   UNL A   1      29.451  30.463  23.213  1.00  0.00    -0.252 OA
BRANCH   2   4
ATOM      4  C   UNL A   1      29.615  28.078  22.963  1.00  0.00     0.126 C 
ATOM      5  C   UNL A   1      28.101  28.008  23.149  1.00  0.00     0.025 C 
BRANCH   4   6
ATOM      6  C   UNL A   1      30.310  26.845  23.529  1.00  0.00    -0.031 A 
ATOM      7  C   UNL A   1      31.732  24.707  24.778  1.00  0.00     0.018 A 
ATOM      8  C   UNL A   1      32.074  25.153  23.494  1.00  0.00     0.012 A 
ATOM      9  C   UNL A   1      30.636  25.323  25.399  1.00  0.00     0.131 A 
ATOM     10  C   UNL A   1      31.376  26.205  22.878  1.00  0.00     0.005 A 
ATOM     11  C   UNL A   1      29.935  26.367  24.794  1.00  0.00     0.044 A 
ATOM     12  F   UNL A   1      30.255  24.948  26.630  1.00  0.00    -0.206 F 
BRANCH   7  13
ATOM     13  C   UNL A   1      32.523  23.682  25.478  1.00  0.00    -0.013 A 
ATOM     14  C   UNL A   1      32.893  21.342  26.082  1.00  0.00     0.045 A 
ATOM     15  C   UNL A   1      33.836  21.730  27.033  1.00  0.00     0.026 A 
ATOM     16  C   UNL A   1      32.248  22.315  25.308  1.00  0.00     0.035 A 
ATOM     17  C   UNL A   1      34.170  23.076  27.173  1.00  0.00     0.003 A 
ATOM     18  C   UNL A   1      33.516  24.043  26.404  1.00  0.00     0.009 A 
BRANCH  14  19
ATOM     19  N   UNL A   1      32.537  19.988  26.015  1.00  0.00    -0.291 N 
ATOM     20  C   UNL A   1      32.856  19.085  25.037  1.00  0.00     0.411 C 
ATOM     21  O   UNL A   1      32.181  18.076  24.867  1.00  0.00    -0.224 OA
ATOM     22  H   UNL A   1      31.994  19.645  26.761  1.00  0.00     0.173 HD
BRANCH  20  23
ATOM     23  O   UNL A   1      34.020  19.372  24.404  1.00  0.00    -0.449 OA
BRANCH  23  24
ATOM     24  C   UNL A   1      35.106  18.437  24.514  1.00  0.00     0.235 C 
BRANCH  24  25
ATOM     25  C   UNL A   1      36.436  19.126  24.833  1.00  0.00     0.042 C 
BRANCH  25  26
ATOM     26  C   UNL A   1      36.355  20.623  25.159  1.00  0.00     0.003 C 
BRANCH  26  27
ATOM     27  C   UNL A   1      37.057  21.550  24.157  1.00  0.00    -0.000 C 
BRANCH  27  28
ATOM     28  C   UNL A   1      36.491  22.967  24.077  1.00  0.00    -0.003 C 
ATOM     29  C   UNL A   1      35.292  23.072  23.149  1.00  0.00     0.004 C 
ENDBRANCH  27  28
ENDBRANCH  26  27
ENDBRANCH  25  26
ENDBRANCH  24  25
ENDBRANCH  23  24
ENDBRANCH  20  23
ENDBRANCH  14  19
ENDBRANCH   7  13
ENDBRANCH   4   6
ENDBRANCH   2   4
ENDBRANCH   1   2
BRANCH   1  30
ATOM     30  C   UNL A   1      31.329  29.830  25.404  1.00  0.00     0.261 C 
BRANCH  30  31
ATOM     31  C   UNL A   1      32.762  29.980  25.920  1.00  0.00     0.202 C 
BRANCH  31  32
ATOM     32  O   UNL A   1      32.996  31.090  26.788  1.00  0.00    -0.374 OA
BRANCH  32  33
ATOM     33  C   UNL A   1      31.900  31.973  27.029  1.00  0.00     0.202 C 
BRANCH  33  34
ATOM     34  C   UNL A   1      32.241  33.453  27.236  1.00  0.00     0.261 C 
BRANCH  34  35
ATOM     35  O   UNL A   1      32.467  33.775  28.620  1.00  0.00    -0.460 OA
BRANCH  35  36
ATOM     36  C   UNL A   1      33.508  34.617  28.840  1.00  0.00     0.338 C 
ATOM     37  O   UNL A   1      33.474  35.837  28.847  1.00  0.00    -0.246 OA
BRANCH  36  38
ATOM     38  C   UNL A   1      34.697  33.853  29.268  1.00  0.00     0.060 A 
ATOM     39  C   UNL A   1      34.481  32.719  30.062  1.00  0.00     0.016 A 
ATOM     40  C   UNL A   1      35.995  34.272  28.971  1.00  0.00     0.016 A 
ATOM     41  C   UNL A   1      35.563  32.029  30.606  1.00  0.00     0.010 A 
ATOM     42  C   UNL A   1      37.081  33.583  29.527  1.00  0.00     0.010 A 
ATOM     43  C   UNL A   1      36.869  32.481  30.376  1.00  0.00    -0.014 A 
BRANCH  43  44
ATOM     44  C   UNL A   1      37.989  31.894  31.157  1.00  0.00     0.031 A 
ATOM     45  C   UNL A   1      38.795  30.779  30.545  1.00  0.00     0.074 A 
ATOM     46  C   UNL A   1      38.318  32.379  32.367  1.00  0.00     0.049 A 
ATOM     47  N   UNL A   1      39.798  30.105  31.047  1.00  0.00    -0.248 NA
ATOM     48  C   UNL A   1      38.416  30.371  29.184  1.00  0.00     0.031 C 
ATOM     49  C   UNL A   1      37.651  33.494  33.039  1.00  0.00     0.029 A 
ATOM     50  N   UNL A   1      39.299  31.996  33.247  1.00  0.00    -0.354 N 
ATOM     51  C   UNL A   1      40.172  29.195  30.063  1.00  0.00     0.074 A 
ATOM     52  C   UNL A   1      39.259  29.377  28.955  1.00  0.00     0.031 C 
ATOM     53  C   UNL A   1      38.239  33.700  34.230  1.00  0.00     0.029 A 
ATOM     54  C   UNL A   1      39.298  32.711  34.423  1.00  0.00     0.049 A 
ATOM     55  H   UNL A   1      39.943  31.276  33.056  1.00  0.00     0.167 HD
ATOM     56  C   UNL A   1      41.191  28.299  30.078  1.00  0.00     0.034 A 
ATOM     57  C   UNL A   1      40.050  32.567  35.534  1.00  0.00     0.034 A 
ATOM     58  C   UNL A   1      42.085  28.116  31.196  1.00  0.00     0.049 A 
ATOM     59  C   UNL A   1      41.111  31.492  35.569  1.00  0.00     0.074 A 
ATOM     60  C   UNL A   1      43.149  27.239  31.316  1.00  0.00     0.029 A 
ATOM     61  N   UNL A   1      42.015  28.818  32.393  1.00  0.00    -0.354 N 
ATOM     62  N   UNL A   1      41.452  30.635  34.633  1.00  0.00    -0.248 NA
ATOM     63  C   UNL A   1      41.891  31.370  36.807  1.00  0.00     0.031 C 
ATOM     64  C   UNL A   1      43.675  27.358  32.607  1.00  0.00     0.029 A 
ATOM     65  C   UNL A   1      42.993  28.367  33.268  1.00  0.00     0.049 A 
ATOM     66  H   UNL A   1      41.365  29.530  32.592  1.00  0.00     0.167 HD
ATOM     67  C   UNL A   1      42.510  29.897  35.161  1.00  0.00     0.074 A 
ATOM     68  C   UNL A   1      42.756  30.417  36.490  1.00  0.00     0.031 C 
ATOM     69  C   UNL A   1      43.220  28.887  34.596  1.00  0.00     0.034 A 
BRANCH  56  70
ATOM     70  C   UNL A   1      41.350  27.414  28.865  1.00  0.00     0.023 A 
ATOM     71  C   UNL A   1      42.328  27.669  27.887  1.00  0.00     0.031 A 
ATOM     72  C   UNL A   1      40.491  26.320  28.666  1.00  0.00     0.131 A 
ATOM     73  C   UNL A   1      42.376  26.883  26.725  1.00  0.00     0.055 A 
ATOM     74  C   UNL A   1      40.594  25.494  27.545  1.00  0.00     0.041 A 
ATOM     75  F   UNL A   1      39.523  26.041  29.554  1.00  0.00    -0.206 F 
ATOM     76  C   UNL A   1      41.532  25.783  26.558  1.00  0.00     0.022 A 
BRANCH  73  77
ATOM     77  S   UNL A   1      43.461  27.408  25.368  1.00  0.00     0.124 S 
ATOM     78  O   UNL A   1      42.505  28.009  24.442  1.00  0.00    -0.237 OA
ATOM     79  O   UNL A   1      44.374  28.329  26.034  1.00  0.00    -0.237 OA
ATOM     80  O   UNL A   1      44.062  26.157  24.907  1.00  0.00    -0.744 OA
ENDBRANCH  73  77
ENDBRANCH  56  70
BRANCH  57  81
ATOM     81  C   UNL A   1      39.808  33.427  36.728  1.00  0.00     0.023 A 
ATOM     82  C   UNL A   1      39.107  32.944  37.844  1.00  0.00     0.031 A 
ATOM     83  C   UNL A   1      40.220  34.772  36.741  1.00  0.00     0.131 A 
ATOM     84  C   UNL A   1      38.796  33.810  38.905  1.00  0.00     0.055 A 
ATOM     85  C   UNL A   1      39.956  35.615  37.821  1.00  0.00     0.041 A 
ATOM     86  F   UNL A   1      40.891  35.287  35.698  1.00  0.00    -0.206 F 
ATOM     87  C   UNL A   1      39.228  35.138  38.906  1.00  0.00     0.022 A 
BRANCH  84  88
ATOM     88  S   UNL A   1      37.739  33.199  40.246  1.00  0.00     0.124 S 
ATOM     89  O   UNL A   1      38.518  32.072  40.747  1.00  0.00    -0.237 OA
ATOM     90  O   UNL A   1      37.659  34.363  41.121  1.00  0.00    -0.237 OA
ATOM     91  O   UNL A   1      36.496  32.846  39.565  1.00  0.00    -0.744 OA
ENDBRANCH  84  88
ENDBRANCH  57  81
BRANCH  69  92
ATOM     92  C   UNL A   1      44.361  28.313  35.402  1.00  0.00     0.023 A 
ATOM     93  C   UNL A   1      44.149  27.382  36.433  1.00  0.00     0.031 A 
ATOM     94  C   UNL A   1      45.683  28.715  35.137  1.00  0.00     0.131 A 
ATOM     95  C   UNL A   1      45.233  26.924  37.197  1.00  0.00     0.055 A 
ATOM     96  C   UNL A   1      46.765  28.212  35.861  1.00  0.00     0.041 A 
ATOM     97  F   UNL A   1      45.945  29.603  34.165  1.00  0.00    -0.206 F 
ATOM     98  C   UNL A   1      46.542  27.321  36.906  1.00  0.00     0.022 A 
BRANCH  95  99
ATOM     99  S   UNL A   1      44.905  25.868  38.635  1.00  0.00     0.124 S 
ATOM    100  O   UNL A   1      44.670  24.569  38.010  1.00  0.00    -0.237 OA
ATOM    101  O   UNL A   1      46.139  25.992  39.403  1.00  0.00    -0.237 OA
ATOM    102  O   UNL A   1      43.728  26.481  39.250  1.00  0.00    -0.744 OA
ENDBRANCH  95  99
ENDBRANCH  69  92
ENDBRANCH  43  44
ENDBRANCH  36  38
ENDBRANCH  35  36
ENDBRANCH  34  35
ENDBRANCH  33  34
ENDBRANCH  32  33
ENDBRANCH  31  32
ENDBRANCH  30  31
ENDBRANCH   1  30
TORSDOF 26
ENDMDL
MODEL 2
REMARK VINA RESULT:     -10.0      2.154      7.331
REMARK SMILES CCCCCCOC(=O)Nc1cccc(-c2ccc([C@@H](C)C(=O)OCCOCCOC(=O)c3ccc(-c4c5nc(c(-c6cc(S(=O)(=O)[O-])ccc6F)c6ccc([nH]6)c(-c6cc(S(=O)(=O)[O-])ccc6F)c6nc(c(-c7cc(S(=O)(=O)[O-])ccc7F)c7ccc4[nH]7)C=C6)C=C5)cc3)cc2F)c1
REMARK SMILES IDX 24 1 22 2 23 3 20 4 21 5 19 6 16 7 17 8 97 9 18 10 96 11
REMARK SMILES IDX 98 12 15 13 11 14 12 15 99 16 13 17 14 18 10 19 8 20 9 21
REMARK SMILES IDX 7 23 6 24 5 25 4 26 3 27 2 28 1 29 25 30 26 31 27 32 28 33
REMARK SMILES IDX 29 34 30 35 31 36 32 37 33 38 34 39 95 40 35 41 94 42 36 43
REMARK SMILES IDX 37 44 38 45 88 46 39 47 93 48 87 49 89 50 40 51 92 52 86 53
REMARK SMILES IDX 85 54 41 56 73 57 53 58 72 59 54 60 57 61 71 62 90 63 55 64
REMARK SMILES IDX 56 65 70 67 91 68 58 69 42 70 43 71 51 72 44 73 50 74 52 75
REMARK SMILES IDX 49 76 45 77 46 78 47 79 48 80 74 81 75 82 83 83 76 84 82 85
REMARK SMILES IDX 84 86 81 87 77 88 78 89 79 90 80 91 59 92 60 93 68 94 61 95
REMARK SMILES IDX 67 96 69 97 66 98 62 99 63 100 64 101 65 102
REMARK H PARENT 10 22 89 55 57 66
REMARK Flexibility Score: inf
ROOT
ATOM      1  O   UNL A   1      31.096  29.487  23.939  1.00  0.00    -0.463 OA
ENDROOT
BRANCH   1   2
ATOM      2  C   UNL A   1      29.921  29.531  23.262  1.00  0.00     0.313 C 
ATOM      3  O   UNL A   1      29.310  30.561  22.992  1.00  0.00    -0.252 OA
BRANCH   2   4
ATOM      4  C   UNL A   1      29.382  28.162  22.879  1.00  0.00     0.126 C 
ATOM      5  C   UNL A   1      27.882  28.112  23.155  1.00  0.00     0.025 C 
BRANCH   4   6
ATOM      6  C   UNL A   1      30.097  26.930  23.423  1.00  0.00    -0.031 A 
ATOM      7  C   UNL A   1      31.527  24.787  24.653  1.00  0.00     0.018 A 
ATOM      8  C   UNL A   1      31.953  25.340  23.437  1.00  0.00     0.012 A 
ATOM      9  C   UNL A   1      30.347  25.299  25.210  1.00  0.00     0.131 A 
ATOM     10  C   UNL A   1      31.250  26.395  22.831  1.00  0.00     0.005 A 
ATOM     11  C   UNL A   1      29.642  26.345  24.614  1.00  0.00     0.044 A 
ATOM     12  F   UNL A   1      29.883  24.818  26.374  1.00  0.00    -0.206 F 
BRANCH   7  13
ATOM     13  C   UNL A   1      32.313  23.757  25.353  1.00  0.00    -0.013 A 
ATOM     14  C   UNL A   1      32.688  21.412  25.932  1.00  0.00     0.045 A 
ATOM     15  C   UNL A   1      33.612  21.794  26.904  1.00  0.00     0.026 A 
ATOM     16  C   UNL A   1      32.050  22.391  25.160  1.00  0.00     0.035 A 
ATOM     17  C   UNL A   1      33.935  23.139  27.066  1.00  0.00     0.003 A 
ATOM     18  C   UNL A   1      33.288  24.112  26.299  1.00  0.00     0.009 A 
BRANCH  14  19
ATOM     19  N   UNL A   1      32.342  20.057  25.842  1.00  0.00    -0.291 N 
ATOM     20  C   UNL A   1      32.719  19.158  24.881  1.00  0.00     0.411 C 
ATOM     21  O   UNL A   1      32.060  18.147  24.671  1.00  0.00    -0.224 OA
ATOM     22  H   UNL A   1      31.759  19.709  26.555  1.00  0.00     0.173 HD
BRANCH  20  23
ATOM     23  O   UNL A   1      33.916  19.451  24.316  1.00  0.00    -0.449 OA
BRANCH  23  24
ATOM     24  C   UNL A   1      35.059  18.665  24.689  1.00  0.00     0.235 C 
BRANCH  24  25
ATOM     25  C   UNL A   1      36.283  19.531  25.004  1.00  0.00     0.042 C 
BRANCH  25  26
ATOM     26  C   UNL A   1      36.251  20.963  24.454  1.00  0.00     0.003 C 
BRANCH  26  27
ATOM     27  C   UNL A   1      36.980  22.009  25.308  1.00  0.00    -0.000 C 
BRANCH  27  28
ATOM     28  C   UNL A   1      37.074  23.402  24.686  1.00  0.00    -0.003 C 
ATOM     29  C   UNL A   1      35.803  23.811  23.959  1.00  0.00     0.004 C 
ENDBRANCH  27  28
ENDBRANCH  26  27
ENDBRANCH  25  26
ENDBRANCH  24  25
ENDBRANCH  23  24
ENDBRANCH  20  23
ENDBRANCH  14  19
ENDBRANCH   7  13
ENDBRANCH   4   6
ENDBRANCH   2   4
ENDBRANCH   1   2
BRANCH   1  30
ATOM     30  C   UNL A   1      31.062  29.949  25.302  1.00  0.00     0.261 C 
BRANCH  30  31
ATOM     31  C   UNL A   1      32.456  29.905  25.933  1.00  0.00     0.202 C 
BRANCH  31  32
ATOM     32  O   UNL A   1      32.791  31.008  26.776  1.00  0.00    -0.374 OA
BRANCH  32  33
ATOM     33  C   UNL A   1      31.740  31.913  27.116  1.00  0.00     0.202 C 
BRANCH  33  34
ATOM     34  C   UNL A   1      32.114  33.397  27.210  1.00  0.00     0.261 C 
BRANCH  34  35
ATOM     35  O   UNL A   1      32.883  33.694  28.390  1.00  0.00    -0.460 OA
BRANCH  35  36
ATOM     36  C   UNL A   1      34.050  34.343  28.155  1.00  0.00     0.338 C 
ATOM     37  O   UNL A   1      34.186  35.516  27.847  1.00  0.00    -0.246 OA
BRANCH  36  38
ATOM     38  C   UNL A   1      35.193  33.477  28.507  1.00  0.00     0.060 A 
ATOM     39  C   UNL A   1      34.906  32.254  29.127  1.00  0.00     0.016 A 
ATOM     40  C   UNL A   1      36.516  33.877  28.311  1.00  0.00     0.016 A 
ATOM     41  C   UNL A   1      35.940  31.450  29.602  1.00  0.00     0.010 A 
ATOM     42  C   UNL A   1      37.554  33.072  28.797  1.00  0.00     0.010 A 
ATOM     43  C   UNL A   1      37.270  31.873  29.477  1.00  0.00    -0.014 A 
BRANCH  43  44
ATOM     44  C   UNL A   1      38.338  31.136  30.201  1.00  0.00     0.031 A 
ATOM     45  C   UNL A   1      38.582  31.451  31.653  1.00  0.00     0.074 A 
ATOM     46  C   UNL A   1      39.043  30.165  29.593  1.00  0.00     0.049 A 
ATOM     47  N   UNL A   1      39.469  30.952  32.475  1.00  0.00    -0.248 NA
ATOM     48  C   UNL A   1      37.706  32.467  32.255  1.00  0.00     0.031 C 
ATOM     49  C   UNL A   1      38.859  29.728  28.210  1.00  0.00     0.029 A 
ATOM     50  N   UNL A   1      40.057  29.369  30.064  1.00  0.00    -0.354 N 
ATOM     51  C   UNL A   1      39.257  31.591  33.693  1.00  0.00     0.074 A 
ATOM     52  C   UNL A   1      38.187  32.542  33.487  1.00  0.00     0.031 C 
ATOM     53  C   UNL A   1      39.737  28.746  27.942  1.00  0.00     0.029 A 
ATOM     54  C   UNL A   1      40.570  28.509  29.120  1.00  0.00     0.049 A 
ATOM     55  H   UNL A   1      40.388  29.409  30.990  1.00  0.00     0.167 HD
ATOM     56  C   UNL A   1      39.889  31.393  34.877  1.00  0.00     0.034 A 
ATOM     57  C   UNL A   1      41.606  27.648  29.192  1.00  0.00     0.034 A 
ATOM     58  C   UNL A   1      40.966  30.451  35.067  1.00  0.00     0.049 A 
ATOM     59  C   UNL A   1      42.365  27.520  30.492  1.00  0.00     0.074 A 
ATOM     60  C   UNL A   1      41.675  30.171  36.222  1.00  0.00     0.029 A 
ATOM     61  N   UNL A   1      41.499  29.641  34.071  1.00  0.00    -0.354 N 
ATOM     62  N   UNL A   1      42.157  28.132  31.636  1.00  0.00    -0.248 NA
ATOM     63  C   UNL A   1      43.492  26.579  30.513  1.00  0.00     0.031 C 
ATOM     64  C   UNL A   1      42.680  29.248  35.910  1.00  0.00     0.029 A 
ATOM     65  C   UNL A   1      42.548  28.889  34.578  1.00  0.00     0.049 A 
ATOM     66  H   UNL A   1      41.178  29.607  33.141  1.00  0.00     0.167 HD
ATOM     67  C   UNL A   1      43.107  27.622  32.518  1.00  0.00     0.074 A 
ATOM     68  C   UNL A   1      43.880  26.647  31.778  1.00  0.00     0.031 C 
ATOM     69  C   UNL A   1      43.318  27.926  33.825  1.00  0.00     0.034 A 
BRANCH  56  70
ATOM     70  C   UNL A   1      39.462  32.254  36.041  1.00  0.00     0.023 A 
ATOM     71  C   UNL A   1      40.091  33.478  36.326  1.00  0.00     0.031 A 
ATOM     72  C   UNL A   1      38.432  31.829  36.898  1.00  0.00     0.131 A 
ATOM     73  C   UNL A   1      39.733  34.199  37.476  1.00  0.00     0.055 A 
ATOM     74  C   UNL A   1      38.026  32.589  37.998  1.00  0.00     0.041 A 
ATOM     75  F   UNL A   1      37.810  30.658  36.691  1.00  0.00    -0.206 F 
ATOM     76  C   UNL A   1      38.689  33.775  38.300  1.00  0.00     0.022 A 
BRANCH  73  77
ATOM     77  S   UNL A   1      40.748  35.623  37.958  1.00  0.00     0.124 S 
ATOM     78  O   UNL A   1      40.695  35.543  39.416  1.00  0.00    -0.237 OA
ATOM     79  O   UNL A   1      42.035  35.314  37.347  1.00  0.00    -0.237 OA
ATOM     80  O   UNL A   1      40.038  36.762  37.379  1.00  0.00    -0.744 OA
ENDBRANCH  73  77
ENDBRANCH  56  70
BRANCH  57  81
ATOM     81  C   UNL A   1      42.027  26.868  27.993  1.00  0.00     0.023 A 
ATOM     82  C   UNL A   1      41.727  25.502  27.871  1.00  0.00     0.031 A 
ATOM     83  C   UNL A   1      42.797  27.466  26.979  1.00  0.00     0.131 A 
ATOM     84  C   UNL A   1      42.233  24.768  26.786  1.00  0.00     0.055 A 
ATOM     85  C   UNL A   1      43.253  26.745  25.875  1.00  0.00     0.041 A 
ATOM     86  F   UNL A   1      43.117  28.768  27.047  1.00  0.00    -0.206 F 
ATOM     87  C   UNL A   1      42.983  25.383  25.781  1.00  0.00     0.022 A 
BRANCH  84  88
ATOM     88  S   UNL A   1      41.973  22.973  26.753  1.00  0.00     0.124 S 
ATOM     89  O   UNL A   1      40.668  22.875  26.110  1.00  0.00    -0.237 OA
ATOM     90  O   UNL A   1      43.113  22.518  25.965  1.00  0.00    -0.237 OA
ATOM     91  O   UNL A   1      42.004  22.600  28.165  1.00  0.00    -0.744 OA
ENDBRANCH  84  88
ENDBRANCH  57  81
BRANCH  69  92
ATOM     92  C   UNL A   1      44.400  27.157  34.545  1.00  0.00     0.023 A 
ATOM     93  C   UNL A   1      45.719  27.635  34.633  1.00  0.00     0.031 A 
ATOM     94  C   UNL A   1      44.105  25.920  35.145  1.00  0.00     0.131 A 
ATOM     95  C   UNL A   1      46.705  26.855  35.257  1.00  0.00     0.055 A 
ATOM     96  C   UNL A   1      45.076  25.175  35.815  1.00  0.00     0.041 A 
ATOM     97  F   UNL A   1      42.862  25.414  35.091  1.00  0.00    -0.206 F 
ATOM     98  C   UNL A   1      46.388  25.637  35.863  1.00  0.00     0.022 A 
BRANCH  95  99
ATOM     99  S   UNL A   1      48.430  27.414  35.192  1.00  0.00     0.124 S 
ATOM    100  O   UNL A   1      49.147  26.243  35.688  1.00  0.00    -0.237 OA
ATOM    101  O   UNL A   1      48.608  27.716  33.775  1.00  0.00    -0.237 OA
ATOM    102  O   UNL A   1      48.450  28.575  36.079  1.00  0.00    -0.744 OA
ENDBRANCH  95  99
ENDBRANCH  69  92
ENDBRANCH  43  44
ENDBRANCH  36  38
ENDBRANCH  35  36
ENDBRANCH  34  35
ENDBRANCH  33  34
ENDBRANCH  32  33
ENDBRANCH  31  32
ENDBRANCH  30  31
ENDBRANCH   1  30
TORSDOF 26
ENDMDL
MODEL 3
REMARK VINA RESULT:      -9.7      2.306      7.992
REMARK SMILES CCCCCCOC(=O)Nc1cccc(-c2ccc([C@@H](C)C(=O)OCCOCCOC(=O)c3ccc(-c4c5nc(c(-c6cc(S(=O)(=O)[O-])ccc6F)c6ccc([nH]6)c(-c6cc(S(=O)(=O)[O-])ccc6F)c6nc(c(-c7cc(S(=O)(=O)[O-])ccc7F)c7ccc4[nH]7)C=C6)C=C5)cc3)cc2F)c1
REMARK SMILES IDX 24 1 22 2 23 3 20 4 21 5 19 6 16 7 17 8 97 9 18 10 96 11
REMARK SMILES IDX 98 12 15 13 11 14 12 15 99 16 13 17 14 18 10 19 8 20 9 21
REMARK SMILES IDX 7 23 6 24 5 25 4 26 3 27 2 28 1 29 25 30 26 31 27 32 28 33
REMARK SMILES IDX 29 34 30 35 31 36 32 37 33 38 34 39 95 40 35 41 94 42 36 43
REMARK SMILES IDX 37 44 38 45 88 46 39 47 93 48 87 49 89 50 40 51 92 52 86 53
REMARK SMILES IDX 85 54 41 56 73 57 53 58 72 59 54 60 57 61 71 62 90 63 55 64
REMARK SMILES IDX 56 65 70 67 91 68 58 69 42 70 43 71 51 72 44 73 50 74 52 75
REMARK SMILES IDX 49 76 45 77 46 78 47 79 48 80 74 81 75 82 83 83 76 84 82 85
REMARK SMILES IDX 84 86 81 87 77 88 78 89 79 90 80 91 59 92 60 93 68 94 61 95
REMARK SMILES IDX 67 96 69 97 66 98 62 99 63 100 64 101 65 102
REMARK H PARENT 10 22 89 55 57 66
REMARK Flexibility Score: inf
ROOT
ATOM      1  O   UNL A   1      32.727  28.132  24.311  1.00  0.00    -0.463 OA
ENDROOT
BRANCH   1   2
ATOM      2  C   UNL A   1      31.516  27.522  24.306  1.00  0.00     0.313 C 
ATOM      3  O   UNL A   1      30.575  27.844  23.585  1.00  0.00    -0.252 OA
BRANCH   2   4
ATOM      4  C   UNL A   1      31.394  26.391  25.316  1.00  0.00     0.126 C 
ATOM      5  C   UNL A   1      31.309  26.976  26.723  1.00  0.00     0.025 C 
BRANCH   4   6
ATOM      6  C   UNL A   1      32.400  25.248  25.239  1.00  0.00    -0.031 A 
ATOM      7  C   UNL A   1      34.459  23.271  25.244  1.00  0.00     0.018 A 
ATOM      8  C   UNL A   1      34.106  23.947  24.068  1.00  0.00     0.012 A 
ATOM      9  C   UNL A   1      33.727  23.573  26.401  1.00  0.00     0.131 A 
ATOM     10  C   UNL A   1      33.093  24.921  24.064  1.00  0.00     0.005 A 
ATOM     11  C   UNL A   1      32.718  24.537  26.406  1.00  0.00     0.044 A 
ATOM     12  F   UNL A   1      34.014  22.965  27.563  1.00  0.00    -0.206 F 
BRANCH   7  13
ATOM     13  C   UNL A   1      35.590  22.329  25.285  1.00  0.00    -0.013 A 
ATOM     14  C   UNL A   1      37.990  21.913  25.496  1.00  0.00     0.045 A 
ATOM     15  C   UNL A   1      37.803  20.595  25.082  1.00  0.00     0.026 A 
ATOM     16  C   UNL A   1      36.886  22.769  25.602  1.00  0.00     0.035 A 
ATOM     17  C   UNL A   1      36.519  20.121  24.825  1.00  0.00     0.003 A 
ATOM     18  C   UNL A   1      35.422  20.983  24.923  1.00  0.00     0.009 A 
BRANCH  14  19
ATOM     19  N   UNL A   1      39.302  22.370  25.683  1.00  0.00    -0.291 N 
ATOM     20  C   UNL A   1      40.214  21.943  26.609  1.00  0.00     0.411 C 
ATOM     21  O   UNL A   1      41.150  22.658  26.949  1.00  0.00    -0.224 OA
ATOM     22  H   UNL A   1      39.603  23.083  25.075  1.00  0.00     0.173 HD
BRANCH  20  23
ATOM     23  O   UNL A   1      40.031  20.652  26.983  1.00  0.00    -0.449 OA
BRANCH  23  24
ATOM     24  C   UNL A   1      40.771  19.630  26.296  1.00  0.00     0.235 C 
BRANCH  24  25
ATOM     25  C   UNL A   1      42.115  19.334  26.969  1.00  0.00     0.042 C 
BRANCH  25  26
ATOM     26  C   UNL A   1      43.076  18.435  26.180  1.00  0.00     0.003 C 
BRANCH  26  27
ATOM     27  C   UNL A   1      43.894  19.146  25.093  1.00  0.00    -0.000 C 
BRANCH  27  28
ATOM     28  C   UNL A   1      45.380  18.793  25.063  1.00  0.00    -0.003 C 
ATOM     29  C   UNL A   1      46.279  20.017  25.128  1.00  0.00     0.004 C 
ENDBRANCH  27  28
ENDBRANCH  26  27
ENDBRANCH  25  26
ENDBRANCH  24  25
ENDBRANCH  23  24
ENDBRANCH  20  23
ENDBRANCH  14  19
ENDBRANCH   7  13
ENDBRANCH   4   6
ENDBRANCH   2   4
ENDBRANCH   1   2
BRANCH   1  30
ATOM     30  C   UNL A   1      32.812  29.369  25.045  1.00  0.00     0.261 C 
BRANCH  30  31
ATOM     31  C   UNL A   1      33.983  29.343  26.030  1.00  0.00     0.202 C 
BRANCH  31  32
ATOM     32  O   UNL A   1      33.836  30.164  27.190  1.00  0.00    -0.374 OA
BRANCH  32  33
ATOM     33  C   UNL A   1      33.149  31.405  27.029  1.00  0.00     0.202 C 
BRANCH  33  34
ATOM     34  C   UNL A   1      33.293  32.423  28.167  1.00  0.00     0.261 C 
BRANCH  34  35
ATOM     35  O   UNL A   1      32.849  33.737  27.785  1.00  0.00    -0.460 OA
BRANCH  35  36
ATOM     36  C   UNL A   1      33.198  34.724  28.648  1.00  0.00     0.338 C 
ATOM     37  O   UNL A   1      32.609  35.776  28.835  1.00  0.00    -0.246 OA
BRANCH  36  38
ATOM     38  C   UNL A   1      34.318  34.279  29.502  1.00  0.00     0.060 A 
ATOM     39  C   UNL A   1      35.614  34.426  28.989  1.00  0.00     0.016 A 
ATOM     40  C   UNL A   1      34.112  33.662  30.737  1.00  0.00     0.016 A 
ATOM     41  C   UNL A   1      36.705  33.909  29.686  1.00  0.00     0.010 A 
ATOM     42  C   UNL A   1      35.209  33.136  31.431  1.00  0.00     0.010 A 
ATOM     43  C   UNL A   1      36.506  33.224  30.892  1.00  0.00    -0.014 A 
BRANCH  43  44
ATOM     44  C   UNL A   1      37.634  32.468  31.493  1.00  0.00     0.031 A 
ATOM     45  C   UNL A   1      38.139  32.875  32.852  1.00  0.00     0.074 A 
ATOM     46  C   UNL A   1      38.168  31.404  30.865  1.00  0.00     0.049 A 
ATOM     47  N   UNL A   1      39.121  32.376  33.558  1.00  0.00    -0.248 NA
ATOM     48  C   UNL A   1      37.440  33.996  33.498  1.00  0.00     0.031 C 
ATOM     49  C   UNL A   1      37.726  30.878  29.575  1.00  0.00     0.029 A 
ATOM     50  N   UNL A   1      39.197  30.574  31.232  1.00  0.00    -0.354 N 
ATOM     51  C   UNL A   1      39.158  33.120  34.734  1.00  0.00     0.074 A 
ATOM     52  C   UNL A   1      38.127  34.130  34.623  1.00  0.00     0.031 C 
ATOM     53  C   UNL A   1      38.486  29.816  29.254  1.00  0.00     0.029 A 
ATOM     54  C   UNL A   1      39.490  29.609  30.296  1.00  0.00     0.049 A 
ATOM     55  H   UNL A   1      39.682  30.661  32.084  1.00  0.00     0.167 HD
ATOM     56  C   UNL A   1      39.968  32.967  35.811  1.00  0.00     0.034 A 
ATOM     57  C   UNL A   1      40.470  28.683  30.272  1.00  0.00     0.034 A 
ATOM     58  C   UNL A   1      41.004  31.966  35.903  1.00  0.00     0.049 A 
ATOM     59  C   UNL A   1      41.429  28.598  31.437  1.00  0.00     0.074 A 
ATOM     60  C   UNL A   1      41.880  31.724  36.947  1.00  0.00     0.029 A 
ATOM     61  N   UNL A   1      41.310  31.045  34.909  1.00  0.00    -0.354 N 
ATOM     62  N   UNL A   1      41.455  29.310  32.541  1.00  0.00    -0.248 NA
ATOM     63  C   UNL A   1      42.485  27.581  31.355  1.00  0.00     0.031 C 
ATOM     64  C   UNL A   1      42.760  30.708  36.557  1.00  0.00     0.029 A 
ATOM     65  C   UNL A   1      42.384  30.259  35.301  1.00  0.00     0.049 A 
ATOM     66  H   UNL A   1      40.835  30.964  34.050  1.00  0.00     0.167 HD
ATOM     67  C   UNL A   1      42.509  28.801  33.297  1.00  0.00     0.074 A 
ATOM     68  C   UNL A   1      43.085  27.717  32.529  1.00  0.00     0.031 C 
ATOM     69  C   UNL A   1      42.956  29.188  34.520  1.00  0.00     0.034 A 
BRANCH  56  70
ATOM     70  C   UNL A   1      39.796  33.944  36.949  1.00  0.00     0.023 A 
ATOM     71  C   UNL A   1      39.246  33.554  38.183  1.00  0.00     0.031 A 
ATOM     72  C   UNL A   1      40.156  35.294  36.787  1.00  0.00     0.131 A 
ATOM     73  C   UNL A   1      39.009  34.514  39.178  1.00  0.00     0.055 A 
ATOM     74  C   UNL A   1      39.989  36.230  37.810  1.00  0.00     0.041 A 
ATOM     75  F   UNL A   1      40.664  35.731  35.624  1.00  0.00    -0.206 F 
ATOM     76  C   UNL A   1      39.398  35.844  39.010  1.00  0.00     0.022 A 
BRANCH  73  77
ATOM     77  S   UNL A   1      38.052  34.028  40.641  1.00  0.00     0.124 S 
ATOM     78  O   UNL A   1      39.012  33.192  41.358  1.00  0.00    -0.237 OA
ATOM     79  O   UNL A   1      37.739  35.313  41.254  1.00  0.00    -0.237 OA
ATOM     80  O   UNL A   1      36.909  33.309  40.080  1.00  0.00    -0.744 OA
ENDBRANCH  73  77
ENDBRANCH  56  70
BRANCH  57  81
ATOM     81  C   UNL A   1      40.634  27.784  29.094  1.00  0.00     0.023 A 
ATOM     82  C   UNL A   1      41.566  28.068  28.084  1.00  0.00     0.031 A 
ATOM     83  C   UNL A   1      39.809  26.656  28.929  1.00  0.00     0.131 A 
ATOM     84  C   UNL A   1      41.619  27.267  26.932  1.00  0.00     0.055 A 
ATOM     85  C   UNL A   1      39.902  25.830  27.808  1.00  0.00     0.041 A 
ATOM     86  F   UNL A   1      38.898  26.339  29.863  1.00  0.00    -0.206 F 
ATOM     87  C   UNL A   1      40.802  26.142  26.795  1.00  0.00     0.022 A 
BRANCH  84  88
ATOM     88  S   UNL A   1      42.710  27.766  25.573  1.00  0.00     0.124 S 
ATOM     89  O   UNL A   1      42.004  28.924  25.036  1.00  0.00    -0.237 OA
ATOM     90  O   UNL A   1      43.958  28.045  26.275  1.00  0.00    -0.237 OA
ATOM     91  O   UNL A   1      42.734  26.591  24.707  1.00  0.00    -0.744 OA
ENDBRANCH  84  88
ENDBRANCH  57  81
BRANCH  69  92
ATOM     92  C   UNL A   1      44.096  28.398  35.117  1.00  0.00     0.023 A 
ATOM     93  C   UNL A   1      43.896  27.144  35.719  1.00  0.00     0.031 A 
ATOM     94  C   UNL A   1      45.403  28.917  35.091  1.00  0.00     0.131 A 
ATOM     95  C   UNL A   1      44.975  26.475  36.318  1.00  0.00     0.055 A 
ATOM     96  C   UNL A   1      46.483  28.221  35.636  1.00  0.00     0.041 A 
ATOM     97  F   UNL A   1      45.653  30.111  34.530  1.00  0.00    -0.206 F 
ATOM     98  C   UNL A   1      46.270  26.998  36.265  1.00  0.00     0.022 A 
BRANCH  95  99
ATOM     99  S   UNL A   1      44.651  24.950  37.246  1.00  0.00     0.124 S 
ATOM    100  O   UNL A   1      43.392  24.500  36.659  1.00  0.00    -0.237 OA
ATOM    101  O   UNL A   1      45.824  24.140  36.936  1.00  0.00    -0.237 OA
ATOM    102  O   UNL A   1      44.561  25.403  38.633  1.00  0.00    -0.744 OA
ENDBRANCH  95  99
ENDBRANCH  69  92
ENDBRANCH  43  44
ENDBRANCH  36  38
ENDBRANCH  35  36
ENDBRANCH  34  35
ENDBRANCH  33  34
ENDBRANCH  32  33
ENDBRANCH  31  32
ENDBRANCH  30  31
ENDBRANCH   1  30
TORSDOF 26
ENDMDL
