MODEL 1
REMARK VINA RESULT:     -10.6      0.000      0.000
REMARK SMILES CN(Cc1ccc(Cl)cc1Cl)S(=O)(=O)CCCC(=O)OCCOCCOC(=O)c1ccc(-c2c3nc(c(-c4cc(S(=O)(=O)[O-])ccc4F)c4ccc([nH]4)c(-c4cc(S(=O)(=O)[O-])ccc4F)c4nc(c(-c5cc(S(=O)(=O)[O-])ccc5F)c5ccc2[nH]5)C=C4)C=C3)cc1
REMARK SMILES IDX 21 1 20 2 18 3 19 4 17 5 16 6 15 7 12 8 13 9 14 10 2 11 1 12
REMARK SMILES IDX 3 13 4 14 5 15 10 16 6 17 9 18 11 19 7 20 8 21 22 22 23 23
REMARK SMILES IDX 24 24 25 25 26 26 27 27 28 28 29 29 30 30 91 31 31 32 90 33
REMARK SMILES IDX 32 34 33 35 34 36 84 37 35 38 89 39 83 40 85 41 36 42 88 43
REMARK SMILES IDX 82 44 81 45 37 47 69 48 49 49 68 50 50 51 53 52 67 53 86 54
REMARK SMILES IDX 51 55 52 56 66 58 87 59 54 60 38 61 39 62 47 63 40 64 46 65
REMARK SMILES IDX 48 66 45 67 41 68 42 69 43 70 44 71 70 72 71 73 79 74 72 75
REMARK SMILES IDX 78 76 80 77 77 78 73 79 74 80 75 81 76 82 55 83 56 84 64 85
REMARK SMILES IDX 57 86 63 87 65 88 62 89 58 90 59 91 60 92 61 93
REMARK H PARENT 85 46 53 57
REMARK Flexibility Score: inf
ROOT
ATOM      1  C   UNL A   1      32.646  21.132  25.489  1.00  0.00     0.261 C 
ENDROOT
BRANCH   1   2
ATOM      2  O   UNL A   1      33.134  22.030  26.505  1.00  0.00    -0.463 OA
BRANCH   2   3
ATOM      3  C   UNL A   1      32.298  23.039  26.854  1.00  0.00     0.305 C 
ATOM      4  O   UNL A   1      31.255  22.892  27.480  1.00  0.00    -0.252 OA
BRANCH   3   5
ATOM      5  C   UNL A   1      32.767  24.407  26.403  1.00  0.00     0.124 C 
BRANCH   5   6
ATOM      6  C   UNL A   1      34.045  24.555  25.577  1.00  0.00     0.029 C 
BRANCH   6   7
ATOM      7  C   UNL A   1      34.062  25.563  24.432  1.00  0.00     0.155 C 
BRANCH   7   8
ATOM      8  S   UNL A   1      33.290  25.007  22.911  1.00  0.00     0.214 S 
ATOM      9  O   UNL A   1      33.459  23.577  22.776  1.00  0.00    -0.212 OA
ATOM     10  O   UNL A   1      33.748  25.877  21.849  1.00  0.00    -0.212 OA
BRANCH   8  11
ATOM     11  N   UNL A   1      31.644  25.315  23.143  1.00  0.00    -0.201 NA
ATOM     12  C   UNL A   1      30.812  24.092  23.230  1.00  0.00     0.124 C 
BRANCH  11  13
ATOM     13  C   UNL A   1      31.202  26.408  24.056  1.00  0.00     0.138 C 
BRANCH  13  14
ATOM     14  C   UNL A   1      30.345  27.511  23.498  1.00  0.00    -0.014 A 
ATOM     15  C   UNL A   1      28.952  27.326  23.472  1.00  0.00     0.008 A 
ATOM     16  C   UNL A   1      30.873  28.720  23.015  1.00  0.00     0.047 A 
ATOM     17  C   UNL A   1      28.111  28.378  23.129  1.00  0.00     0.021 A 
ATOM     18  C   UNL A   1      30.031  29.786  22.715  1.00  0.00     0.041 A 
ATOM     19  Cl  UNL A   1      32.555  28.947  22.709  1.00  0.00    -0.084 Cl
ATOM     20  C   UNL A   1      28.658  29.621  22.834  1.00  0.00     0.042 A 
ATOM     21  Cl  UNL A   1      27.626  30.979  22.709  1.00  0.00    -0.084 Cl
ENDBRANCH  13  14
ENDBRANCH  11  13
ENDBRANCH   8  11
ENDBRANCH   7   8
ENDBRANCH   6   7
ENDBRANCH   5   6
ENDBRANCH   3   5
ENDBRANCH   2   3
ENDBRANCH   1   2
BRANCH   1  22
ATOM     22  C   UNL A   1      33.772  20.369  24.793  1.00  0.00     0.202 C 
BRANCH  22  23
ATOM     23  O   UNL A   1      35.052  20.388  25.416  1.00  0.00    -0.374 OA
BRANCH  23  24
ATOM     24  C   UNL A   1      36.165  20.832  24.648  1.00  0.00     0.202 C 
BRANCH  24  25
ATOM     25  C   UNL A   1      37.573  20.335  25.019  1.00  0.00     0.261 C 
BRANCH  25  26
ATOM     26  O   UNL A   1      38.586  21.352  25.127  1.00  0.00    -0.460 OA
BRANCH  26  27
ATOM     27  C   UNL A   1      39.492  21.116  26.115  1.00  0.00     0.338 C 
ATOM     28  O   UNL A   1      40.037  20.052  26.360  1.00  0.00    -0.246 OA
BRANCH  27  29
ATOM     29  C   UNL A   1      39.882  22.360  26.806  1.00  0.00     0.060 A 
ATOM     30  C   UNL A   1      39.274  23.549  26.388  1.00  0.00     0.016 A 
ATOM     31  C   UNL A   1      40.936  22.393  27.720  1.00  0.00     0.016 A 
ATOM     32  C   UNL A   1      39.749  24.777  26.849  1.00  0.00     0.010 A 
ATOM     33  C   UNL A   1      41.405  23.630  28.189  1.00  0.00     0.010 A 
ATOM     34  C   UNL A   1      40.840  24.834  27.730  1.00  0.00    -0.014 A 
BRANCH  34  35
ATOM     35  C   UNL A   1      41.445  26.160  28.047  1.00  0.00     0.031 A 
ATOM     36  C   UNL A   1      42.837  26.482  27.558  1.00  0.00     0.074 A 
ATOM     37  C   UNL A   1      40.730  27.104  28.689  1.00  0.00     0.049 A 
ATOM     38  N   UNL A   1      43.537  27.580  27.707  1.00  0.00    -0.248 NA
ATOM     39  C   UNL A   1      43.534  25.428  26.804  1.00  0.00     0.031 C 
ATOM     40  C   UNL A   1      39.365  26.937  29.190  1.00  0.00     0.029 A 
ATOM     41  N   UNL A   1      41.048  28.400  29.020  1.00  0.00    -0.354 N 
ATOM     42  C   UNL A   1      44.749  27.352  27.062  1.00  0.00     0.074 A 
ATOM     43  C   UNL A   1      44.709  25.992  26.566  1.00  0.00     0.031 C 
ATOM     44  C   UNL A   1      38.962  28.087  29.759  1.00  0.00     0.029 A 
ATOM     45  C   UNL A   1      40.047  29.064  29.693  1.00  0.00     0.049 A 
ATOM     46  H   UNL A   1      41.912  28.814  28.797  1.00  0.00     0.167 HD
ATOM     47  C   UNL A   1      45.792  28.202  26.881  1.00  0.00     0.034 A 
ATOM     48  C   UNL A   1      40.017  30.306  30.218  1.00  0.00     0.034 A 
ATOM     49  C   UNL A   1      45.831  29.556  27.383  1.00  0.00     0.049 A 
ATOM     50  C   UNL A   1      41.224  31.194  30.084  1.00  0.00     0.074 A 
ATOM     51  C   UNL A   1      46.838  30.497  27.247  1.00  0.00     0.029 A 
ATOM     52  N   UNL A   1      44.824  30.164  28.120  1.00  0.00    -0.354 N 
ATOM     53  N   UNL A   1      42.365  30.957  29.479  1.00  0.00    -0.248 NA
ATOM     54  C   UNL A   1      41.133  32.521  30.705  1.00  0.00     0.031 C 
ATOM     55  C   UNL A   1      46.475  31.642  27.963  1.00  0.00     0.029 A 
ATOM     56  C   UNL A   1      45.201  31.454  28.471  1.00  0.00     0.049 A 
ATOM     57  H   UNL A   1      43.966  29.743  28.358  1.00  0.00     0.167 HD
ATOM     58  C   UNL A   1      43.116  32.119  29.631  1.00  0.00     0.074 A 
ATOM     59  C   UNL A   1      42.288  33.061  30.353  1.00  0.00     0.031 C 
ATOM     60  C   UNL A   1      44.381  32.382  29.213  1.00  0.00     0.034 A 
BRANCH  47  61
ATOM     61  C   UNL A   1      46.999  27.682  26.134  1.00  0.00     0.023 A 
ATOM     62  C   UNL A   1      47.217  27.984  24.778  1.00  0.00     0.031 A 
ATOM     63  C   UNL A   1      47.954  26.887  26.791  1.00  0.00     0.131 A 
ATOM     64  C   UNL A   1      48.332  27.452  24.112  1.00  0.00     0.055 A 
ATOM     65  C   UNL A   1      49.101  26.423  26.143  1.00  0.00     0.041 A 
ATOM     66  F   UNL A   1      47.790  26.546  28.079  1.00  0.00    -0.206 F 
ATOM     67  C   UNL A   1      49.290  26.697  24.792  1.00  0.00     0.022 A 
BRANCH  64  68
ATOM     68  S   UNL A   1      48.452  27.663  22.314  1.00  0.00     0.124 S 
ATOM     69  O   UNL A   1      48.611  26.283  21.866  1.00  0.00    -0.237 OA
ATOM     70  O   UNL A   1      47.183  28.301  21.984  1.00  0.00    -0.237 OA
ATOM     71  O   UNL A   1      49.636  28.505  22.147  1.00  0.00    -0.744 OA
ENDBRANCH  64  68
ENDBRANCH  47  61
BRANCH  48  72
ATOM     72  C   UNL A   1      38.849  30.767  31.020  1.00  0.00     0.023 A 
ATOM     73  C   UNL A   1      37.826  31.559  30.478  1.00  0.00     0.031 A 
ATOM     74  C   UNL A   1      38.828  30.514  32.399  1.00  0.00     0.131 A 
ATOM     75  C   UNL A   1      36.838  32.089  31.326  1.00  0.00     0.055 A 
ATOM     76  C   UNL A   1      37.794  30.962  33.221  1.00  0.00     0.041 A 
ATOM     77  F   UNL A   1      39.849  29.855  32.965  1.00  0.00    -0.206 F 
ATOM     78  C   UNL A   1      36.793  31.764  32.685  1.00  0.00     0.022 A 
BRANCH  75  79
ATOM     79  S   UNL A   1      35.701  33.338  30.664  1.00  0.00     0.124 S 
ATOM     80  O   UNL A   1      35.627  34.285  31.771  1.00  0.00    -0.237 OA
ATOM     81  O   UNL A   1      36.413  33.796  29.475  1.00  0.00    -0.237 OA
ATOM     82  O   UNL A   1      34.479  32.583  30.403  1.00  0.00    -0.744 OA
ENDBRANCH  75  79
ENDBRANCH  48  72
BRANCH  60  83
ATOM     83  C   UNL A   1      44.914  33.766  29.495  1.00  0.00     0.023 A 
ATOM     84  C   UNL A   1      44.614  34.857  28.660  1.00  0.00     0.031 A 
ATOM     85  C   UNL A   1      45.788  33.983  30.575  1.00  0.00     0.131 A 
ATOM     86  C   UNL A   1      45.252  36.089  28.863  1.00  0.00     0.055 A 
ATOM     87  C   UNL A   1      46.356  35.234  30.821  1.00  0.00     0.041 A 
ATOM     88  F   UNL A   1      46.117  32.979  31.402  1.00  0.00    -0.206 F 
ATOM     89  C   UNL A   1      46.106  36.290  29.950  1.00  0.00     0.022 A 
BRANCH  86  90
ATOM     90  S   UNL A   1      45.066  37.380  27.602  1.00  0.00     0.124 S 
ATOM     91  O   UNL A   1      45.115  38.597  28.408  1.00  0.00    -0.237 OA
ATOM     92  O   UNL A   1      46.217  37.141  26.738  1.00  0.00    -0.237 OA
ATOM     93  O   UNL A   1      43.767  37.087  27.000  1.00  0.00    -0.744 OA
ENDBRANCH  86  90
ENDBRANCH  60  83
ENDBRANCH  34  35
ENDBRANCH  27  29
ENDBRANCH  26  27
ENDBRANCH  25  26
ENDBRANCH  24  25
ENDBRANCH  23  24
ENDBRANCH  22  23
ENDBRANCH   1  22
TORSDOF 23
ENDMDL
MODEL 2
REMARK VINA RESULT:     -10.5      1.805      2.258
REMARK SMILES CN(Cc1ccc(Cl)cc1Cl)S(=O)(=O)CCCC(=O)OCCOCCOC(=O)c1ccc(-c2c3nc(c(-c4cc(S(=O)(=O)[O-])ccc4F)c4ccc([nH]4)c(-c4cc(S(=O)(=O)[O-])ccc4F)c4nc(c(-c5cc(S(=O)(=O)[O-])ccc5F)c5ccc2[nH]5)C=C4)C=C3)cc1
REMARK SMILES IDX 21 1 20 2 18 3 19 4 17 5 16 6 15 7 12 8 13 9 14 10 2 11 1 12
REMARK SMILES IDX 3 13 4 14 5 15 10 16 6 17 9 18 11 19 7 20 8 21 22 22 23 23
REMARK SMILES IDX 24 24 25 25 26 26 27 27 28 28 29 29 30 30 91 31 31 32 90 33
REMARK SMILES IDX 32 34 33 35 34 36 84 37 35 38 89 39 83 40 85 41 36 42 88 43
REMARK SMILES IDX 82 44 81 45 37 47 69 48 49 49 68 50 50 51 53 52 67 53 86 54
REMARK SMILES IDX 51 55 52 56 66 58 87 59 54 60 38 61 39 62 47 63 40 64 46 65
REMARK SMILES IDX 48 66 45 67 41 68 42 69 43 70 44 71 70 72 71 73 79 74 72 75
REMARK SMILES IDX 78 76 80 77 77 78 73 79 74 80 75 81 76 82 55 83 56 84 64 85
REMARK SMILES IDX 57 86 63 87 65 88 62 89 58 90 59 91 60 92 61 93
REMARK H PARENT 85 46 53 57
REMARK Flexibility Score: inf
ROOT
ATOM      1  C   UNL A   1      32.029  21.670  25.712  1.00  0.00     0.261 C 
ENDROOT
BRANCH   1   2
ATOM      2  O   UNL A   1      32.439  22.459  26.846  1.00  0.00    -0.463 OA
BRANCH   2   3
ATOM      3  C   UNL A   1      31.959  23.727  26.889  1.00  0.00     0.305 C 
ATOM      4  O   UNL A   1      30.797  24.023  27.140  1.00  0.00    -0.252 OA
BRANCH   3   5
ATOM      5  C   UNL A   1      33.002  24.786  26.599  1.00  0.00     0.124 C 
BRANCH   5   6
ATOM      6  C   UNL A   1      34.024  24.583  25.479  1.00  0.00     0.029 C 
BRANCH   6   7
ATOM      7  C   UNL A   1      34.157  25.660  24.407  1.00  0.00     0.155 C 
BRANCH   7   8
ATOM      8  S   UNL A   1      33.013  25.518  23.032  1.00  0.00     0.214 S 
ATOM      9  O   UNL A   1      32.239  24.304  23.169  1.00  0.00    -0.212 OA
ATOM     10  O   UNL A   1      33.766  25.744  21.817  1.00  0.00    -0.212 OA
BRANCH   8  11
ATOM     11  N   UNL A   1      31.962  26.828  23.228  1.00  0.00    -0.201 NA
ATOM     12  C   UNL A   1      31.163  27.140  22.020  1.00  0.00     0.124 C 
BRANCH  11  13
ATOM     13  C   UNL A   1      31.217  27.013  24.506  1.00  0.00     0.138 C 
BRANCH  13  14
ATOM     14  C   UNL A   1      31.583  28.171  25.392  1.00  0.00    -0.014 A 
ATOM     15  C   UNL A   1      32.289  27.907  26.579  1.00  0.00     0.008 A 
ATOM     16  C   UNL A   1      31.264  29.504  25.083  1.00  0.00     0.047 A 
ATOM     17  C   UNL A   1      32.799  28.952  27.340  1.00  0.00     0.021 A 
ATOM     18  C   UNL A   1      31.811  30.549  25.819  1.00  0.00     0.041 A 
ATOM     19  Cl  UNL A   1      30.151  29.930  23.836  1.00  0.00    -0.084 Cl
ATOM     20  C   UNL A   1      32.624  30.261  26.906  1.00  0.00     0.042 A 
ATOM     21  Cl  UNL A   1      33.499  31.516  27.670  1.00  0.00    -0.084 Cl
ENDBRANCH  13  14
ENDBRANCH  11  13
ENDBRANCH   8  11
ENDBRANCH   7   8
ENDBRANCH   6   7
ENDBRANCH   5   6
ENDBRANCH   3   5
ENDBRANCH   2   3
ENDBRANCH   1   2
BRANCH   1  22
ATOM     22  C   UNL A   1      33.210  21.002  25.008  1.00  0.00     0.202 C 
BRANCH  22  23
ATOM     23  O   UNL A   1      34.504  21.220  25.561  1.00  0.00    -0.374 OA
BRANCH  23  24
ATOM     24  C   UNL A   1      35.629  21.108  24.696  1.00  0.00     0.202 C 
BRANCH  24  25
ATOM     25  C   UNL A   1      36.938  20.515  25.248  1.00  0.00     0.261 C 
BRANCH  25  26
ATOM     26  O   UNL A   1      38.128  21.281  24.989  1.00  0.00    -0.460 OA
BRANCH  26  27
ATOM     27  C   UNL A   1      39.143  21.022  25.859  1.00  0.00     0.338 C 
ATOM     28  O   UNL A   1      39.740  19.965  25.982  1.00  0.00    -0.246 OA
BRANCH  27  29
ATOM     29  C   UNL A   1      39.572  22.239  26.574  1.00  0.00     0.060 A 
ATOM     30  C   UNL A   1      38.985  23.452  26.196  1.00  0.00     0.016 A 
ATOM     31  C   UNL A   1      40.641  22.224  27.471  1.00  0.00     0.016 A 
ATOM     32  C   UNL A   1      39.494  24.656  26.680  1.00  0.00     0.010 A 
ATOM     33  C   UNL A   1      41.144  23.439  27.964  1.00  0.00     0.010 A 
ATOM     34  C   UNL A   1      40.600  24.667  27.544  1.00  0.00    -0.014 A 
BRANCH  34  35
ATOM     35  C   UNL A   1      41.240  25.970  27.885  1.00  0.00     0.031 A 
ATOM     36  C   UNL A   1      42.627  26.277  27.374  1.00  0.00     0.074 A 
ATOM     37  C   UNL A   1      40.560  26.909  28.570  1.00  0.00     0.049 A 
ATOM     38  N   UNL A   1      43.353  27.356  27.537  1.00  0.00    -0.248 NA
ATOM     39  C   UNL A   1      43.284  25.232  26.574  1.00  0.00     0.031 C 
ATOM     40  C   UNL A   1      39.203  26.756  29.098  1.00  0.00     0.029 A 
ATOM     41  N   UNL A   1      40.912  28.188  28.930  1.00  0.00    -0.354 N 
ATOM     42  C   UNL A   1      44.545  27.123  26.858  1.00  0.00     0.074 A 
ATOM     43  C   UNL A   1      44.465  25.779  26.324  1.00  0.00     0.031 C 
ATOM     44  C   UNL A   1      38.837  27.897  29.709  1.00  0.00     0.029 A 
ATOM     45  C   UNL A   1      39.941  28.853  29.645  1.00  0.00     0.049 A 
ATOM     46  H   UNL A   1      41.780  28.591  28.700  1.00  0.00     0.167 HD
ATOM     47  C   UNL A   1      45.601  27.956  26.677  1.00  0.00     0.034 A 
ATOM     48  C   UNL A   1      39.949  30.079  30.206  1.00  0.00     0.034 A 
ATOM     49  C   UNL A   1      45.680  29.294  27.216  1.00  0.00     0.049 A 
ATOM     50  C   UNL A   1      41.172  30.947  30.070  1.00  0.00     0.074 A 
ATOM     51  C   UNL A   1      46.704  30.217  27.084  1.00  0.00     0.029 A 
ATOM     52  N   UNL A   1      44.703  29.901  27.993  1.00  0.00    -0.354 N 
ATOM     53  N   UNL A   1      42.293  30.704  29.431  1.00  0.00    -0.248 NA
ATOM     54  C   UNL A   1      41.122  32.257  30.730  1.00  0.00     0.031 C 
ATOM     55  C   UNL A   1      46.380  31.349  27.840  1.00  0.00     0.029 A 
ATOM     56  C   UNL A   1      45.115  31.171  28.372  1.00  0.00     0.049 A 
ATOM     57  H   UNL A   1      43.842  29.491  28.239  1.00  0.00     0.167 HD
ATOM     58  C   UNL A   1      43.072  31.845  29.598  1.00  0.00     0.074 A 
ATOM     59  C   UNL A   1      42.280  32.783  30.366  1.00  0.00     0.031 C 
ATOM     60  C   UNL A   1      44.332  32.094  29.159  1.00  0.00     0.034 A 
BRANCH  47  61
ATOM     61  C   UNL A   1      46.779  27.433  25.887  1.00  0.00     0.023 A 
ATOM     62  C   UNL A   1      47.018  27.833  24.561  1.00  0.00     0.031 A 
ATOM     63  C   UNL A   1      47.688  26.535  26.475  1.00  0.00     0.131 A 
ATOM     64  C   UNL A   1      48.103  27.297  23.850  1.00  0.00     0.055 A 
ATOM     65  C   UNL A   1      48.809  26.063  25.789  1.00  0.00     0.041 A 
ATOM     66  F   UNL A   1      47.501  26.099  27.731  1.00  0.00    -0.206 F 
ATOM     67  C   UNL A   1      49.017  26.436  24.465  1.00  0.00     0.022 A 
BRANCH  64  68
ATOM     68  S   UNL A   1      48.240  27.649  22.076  1.00  0.00     0.124 S 
ATOM     69  O   UNL A   1      49.420  28.509  22.038  1.00  0.00    -0.237 OA
ATOM     70  O   UNL A   1      48.400  26.319  21.501  1.00  0.00    -0.237 OA
ATOM     71  O   UNL A   1      46.980  28.318  21.762  1.00  0.00    -0.744 OA
ENDBRANCH  64  68
ENDBRANCH  47  61
BRANCH  48  72
ATOM     72  C   UNL A   1      38.810  30.541  31.048  1.00  0.00     0.023 A 
ATOM     73  C   UNL A   1      37.785  31.360  30.550  1.00  0.00     0.031 A 
ATOM     74  C   UNL A   1      38.820  30.259  32.421  1.00  0.00     0.131 A 
ATOM     75  C   UNL A   1      36.828  31.886  31.434  1.00  0.00     0.055 A 
ATOM     76  C   UNL A   1      37.815  30.705  33.279  1.00  0.00     0.041 A 
ATOM     77  F   UNL A   1      39.845  29.573  32.947  1.00  0.00    -0.206 F 
ATOM     78  C   UNL A   1      36.813  31.533  32.786  1.00  0.00     0.022 A 
BRANCH  75  79
ATOM     79  S   UNL A   1      35.694  33.166  30.828  1.00  0.00     0.124 S 
ATOM     80  O   UNL A   1      36.047  33.226  29.414  1.00  0.00    -0.237 OA
ATOM     81  O   UNL A   1      34.390  32.589  31.139  1.00  0.00    -0.237 OA
ATOM     82  O   UNL A   1      36.056  34.342  31.615  1.00  0.00    -0.744 OA
ENDBRANCH  75  79
ENDBRANCH  48  72
BRANCH  60  83
ATOM     83  C   UNL A   1      44.900  33.458  29.468  1.00  0.00     0.023 A 
ATOM     84  C   UNL A   1      45.636  33.703  30.642  1.00  0.00     0.031 A 
ATOM     85  C   UNL A   1      44.648  34.544  28.610  1.00  0.00     0.131 A 
ATOM     86  C   UNL A   1      46.012  35.013  30.971  1.00  0.00     0.055 A 
ATOM     87  C   UNL A   1      45.097  35.832  28.904  1.00  0.00     0.041 A 
ATOM     88  F   UNL A   1      43.946  34.374  27.479  1.00  0.00    -0.206 F 
ATOM     89  C   UNL A   1      45.764  36.076  30.100  1.00  0.00     0.022 A 
BRANCH  86  90
ATOM     90  S   UNL A   1      46.696  35.330  32.621  1.00  0.00     0.124 S 
ATOM     91  O   UNL A   1      47.020  36.751  32.544  1.00  0.00    -0.237 OA
ATOM     92  O   UNL A   1      45.582  34.977  33.495  1.00  0.00    -0.237 OA
ATOM     93  O   UNL A   1      47.848  34.433  32.693  1.00  0.00    -0.744 OA
ENDBRANCH  86  90
ENDBRANCH  60  83
ENDBRANCH  34  35
ENDBRANCH  27  29
ENDBRANCH  26  27
ENDBRANCH  25  26
ENDBRANCH  24  25
ENDBRANCH  23  24
ENDBRANCH  22  23
ENDBRANCH   1  22
TORSDOF 23
ENDMDL
MODEL 3
REMARK VINA RESULT:      -9.8      5.483     10.744
REMARK SMILES CN(Cc1ccc(Cl)cc1Cl)S(=O)(=O)CCCC(=O)OCCOCCOC(=O)c1ccc(-c2c3nc(c(-c4cc(S(=O)(=O)[O-])ccc4F)c4ccc([nH]4)c(-c4cc(S(=O)(=O)[O-])ccc4F)c4nc(c(-c5cc(S(=O)(=O)[O-])ccc5F)c5ccc2[nH]5)C=C4)C=C3)cc1
REMARK SMILES IDX 21 1 20 2 18 3 19 4 17 5 16 6 15 7 12 8 13 9 14 10 2 11 1 12
REMARK SMILES IDX 3 13 4 14 5 15 10 16 6 17 9 18 11 19 7 20 8 21 22 22 23 23
REMARK SMILES IDX 24 24 25 25 26 26 27 27 28 28 29 29 30 30 91 31 31 32 90 33
REMARK SMILES IDX 32 34 33 35 34 36 84 37 35 38 89 39 83 40 85 41 36 42 88 43
REMARK SMILES IDX 82 44 81 45 37 47 69 48 49 49 68 50 50 51 53 52 67 53 86 54
REMARK SMILES IDX 51 55 52 56 66 58 87 59 54 60 38 61 39 62 47 63 40 64 46 65
REMARK SMILES IDX 48 66 45 67 41 68 42 69 43 70 44 71 70 72 71 73 79 74 72 75
REMARK SMILES IDX 78 76 80 77 77 78 73 79 74 80 75 81 76 82 55 83 56 84 64 85
REMARK SMILES IDX 57 86 63 87 65 88 62 89 58 90 59 91 60 92 61 93
REMARK H PARENT 85 46 53 57
REMARK Flexibility Score: inf
ROOT
ATOM      1  C   UNL A   1      31.790  29.674  24.944  1.00  0.00     0.261 C 
ENDROOT
BRANCH   1   2
ATOM      2  O   UNL A   1      30.506  29.928  24.339  1.00  0.00    -0.463 OA
BRANCH   2   3
ATOM      3  C   UNL A   1      30.279  29.310  23.153  1.00  0.00     0.305 C 
ATOM      4  O   UNL A   1      30.694  29.708  22.071  1.00  0.00    -0.252 OA
BRANCH   3   5
ATOM      5  C   UNL A   1      29.452  28.046  23.270  1.00  0.00     0.124 C 
BRANCH   5   6
ATOM      6  C   UNL A   1      30.114  26.672  23.152  1.00  0.00     0.029 C 
BRANCH   6   7
ATOM      7  C   UNL A   1      31.115  26.249  24.222  1.00  0.00     0.155 C 
BRANCH   7   8
ATOM      8  S   UNL A   1      30.395  25.698  25.771  1.00  0.00     0.214 S 
ATOM      9  O   UNL A   1      28.958  25.604  25.630  1.00  0.00    -0.212 OA
ATOM     10  O   UNL A   1      30.951  26.520  26.824  1.00  0.00    -0.212 OA
BRANCH   8  11
ATOM     11  N   UNL A   1      31.000  24.132  25.976  1.00  0.00    -0.201 NA
ATOM     12  C   UNL A   1      31.064  23.346  24.722  1.00  0.00     0.124 C 
BRANCH  11  13
ATOM     13  C   UNL A   1      32.139  23.879  26.904  1.00  0.00     0.138 C 
BRANCH  13  14
ATOM     14  C   UNL A   1      33.478  23.524  26.320  1.00  0.00    -0.014 A 
ATOM     15  C   UNL A   1      33.908  22.188  26.399  1.00  0.00     0.008 A 
ATOM     16  C   UNL A   1      34.312  24.461  25.688  1.00  0.00     0.047 A 
ATOM     17  C   UNL A   1      35.053  21.777  25.726  1.00  0.00     0.021 A 
ATOM     18  C   UNL A   1      35.433  24.043  24.978  1.00  0.00     0.041 A 
ATOM     19  Cl  UNL A   1      34.049  26.163  25.795  1.00  0.00    -0.084 Cl
ATOM     20  C   UNL A   1      35.756  22.694  24.954  1.00  0.00     0.042 A 
ATOM     21  Cl  UNL A   1      36.975  22.131  23.895  1.00  0.00    -0.084 Cl
ENDBRANCH  13  14
ENDBRANCH  11  13
ENDBRANCH   8  11
ENDBRANCH   7   8
ENDBRANCH   6   7
ENDBRANCH   5   6
ENDBRANCH   3   5
ENDBRANCH   2   3
ENDBRANCH   1   2
BRANCH   1  22
ATOM     22  C   UNL A   1      31.853  30.145  26.397  1.00  0.00     0.202 C 
BRANCH  22  23
ATOM     23  O   UNL A   1      33.117  30.076  27.049  1.00  0.00    -0.374 OA
BRANCH  23  24
ATOM     24  C   UNL A   1      33.678  31.283  27.553  1.00  0.00     0.202 C 
BRANCH  24  25
ATOM     25  C   UNL A   1      32.836  32.571  27.511  1.00  0.00     0.261 C 
BRANCH  25  26
ATOM     26  O   UNL A   1      33.578  33.803  27.545  1.00  0.00    -0.460 OA
BRANCH  26  27
ATOM     27  C   UNL A   1      33.536  34.432  28.752  1.00  0.00     0.338 C 
ATOM     28  O   UNL A   1      32.653  35.172  29.153  1.00  0.00    -0.246 OA
BRANCH  27  29
ATOM     29  C   UNL A   1      34.639  33.999  29.632  1.00  0.00     0.060 A 
ATOM     30  C   UNL A   1      35.941  34.344  29.253  1.00  0.00     0.016 A 
ATOM     31  C   UNL A   1      34.424  33.135  30.707  1.00  0.00     0.016 A 
ATOM     32  C   UNL A   1      37.033  33.790  29.919  1.00  0.00     0.010 A 
ATOM     33  C   UNL A   1      35.527  32.587  31.382  1.00  0.00     0.010 A 
ATOM     34  C   UNL A   1      36.840  32.881  30.971  1.00  0.00    -0.014 A 
BRANCH  34  35
ATOM     35  C   UNL A   1      38.020  32.159  31.530  1.00  0.00     0.031 A 
ATOM     36  C   UNL A   1      38.538  32.523  32.900  1.00  0.00     0.074 A 
ATOM     37  C   UNL A   1      38.573  31.128  30.862  1.00  0.00     0.049 A 
ATOM     38  N   UNL A   1      39.535  32.008  33.577  1.00  0.00    -0.248 NA
ATOM     39  C   UNL A   1      37.843  33.614  33.602  1.00  0.00     0.031 C 
ATOM     40  C   UNL A   1      38.153  30.652  29.542  1.00  0.00     0.029 A 
ATOM     41  N   UNL A   1      39.602  30.284  31.206  1.00  0.00    -0.354 N 
ATOM     42  C   UNL A   1      39.583  32.703  34.781  1.00  0.00     0.074 A 
ATOM     43  C   UNL A   1      38.546  33.713  34.720  1.00  0.00     0.031 C 
ATOM     44  C   UNL A   1      38.913  29.599  29.193  1.00  0.00     0.029 A 
ATOM     45  C   UNL A   1      39.895  29.343  30.246  1.00  0.00     0.049 A 
ATOM     46  H   UNL A   1      40.085  30.348  32.061  1.00  0.00     0.167 HD
ATOM     47  C   UNL A   1      40.399  32.507  35.847  1.00  0.00     0.034 A 
ATOM     48  C   UNL A   1      40.858  28.400  30.206  1.00  0.00     0.034 A 
ATOM     49  C   UNL A   1      41.435  31.502  35.901  1.00  0.00     0.049 A 
ATOM     50  C   UNL A   1      41.810  28.267  31.364  1.00  0.00     0.074 A 
ATOM     51  C   UNL A   1      42.311  31.221  36.938  1.00  0.00     0.029 A 
ATOM     52  N   UNL A   1      41.743  30.616  34.878  1.00  0.00    -0.354 N 
ATOM     53  N   UNL A   1      41.844  28.940  32.490  1.00  0.00    -0.248 NA
ATOM     54  C   UNL A   1      42.852  27.240  31.241  1.00  0.00     0.031 C 
ATOM     55  C   UNL A   1      43.192  30.222  36.515  1.00  0.00     0.029 A 
ATOM     56  C   UNL A   1      42.813  29.812  35.248  1.00  0.00     0.049 A 
ATOM     57  H   UNL A   1      41.271  30.564  34.015  1.00  0.00     0.167 HD
ATOM     58  C   UNL A   1      42.901  28.399  33.216  1.00  0.00     0.074 A 
ATOM     59  C   UNL A   1      43.452  27.326  32.416  1.00  0.00     0.031 C 
ATOM     60  C   UNL A   1      43.376  28.760  34.436  1.00  0.00     0.034 A 
BRANCH  47  61
ATOM     61  C   UNL A   1      40.228  33.422  37.038  1.00  0.00     0.023 A 
ATOM     62  C   UNL A   1      41.042  34.553  37.226  1.00  0.00     0.031 A 
ATOM     63  C   UNL A   1      39.225  33.170  37.992  1.00  0.00     0.131 A 
ATOM     64  C   UNL A   1      40.875  35.357  38.365  1.00  0.00     0.055 A 
ATOM     65  C   UNL A   1      39.013  34.015  39.082  1.00  0.00     0.041 A 
ATOM     66  F   UNL A   1      38.431  32.093  37.879  1.00  0.00    -0.206 F 
ATOM     67  C   UNL A   1      39.847  35.112  39.279  1.00  0.00     0.022 A 
BRANCH  64  68
ATOM     68  S   UNL A   1      42.092  36.660  38.696  1.00  0.00     0.124 S 
ATOM     69  O   UNL A   1      42.914  36.038  39.730  1.00  0.00    -0.237 OA
ATOM     70  O   UNL A   1      42.726  36.838  37.395  1.00  0.00    -0.237 OA
ATOM     71  O   UNL A   1      41.275  37.783  39.152  1.00  0.00    -0.744 OA
ENDBRANCH  64  68
ENDBRANCH  47  61
BRANCH  48  72
ATOM     72  C   UNL A   1      41.059  27.564  28.989  1.00  0.00     0.023 A 
ATOM     73  C   UNL A   1      42.051  27.841  28.037  1.00  0.00     0.031 A 
ATOM     74  C   UNL A   1      40.145  26.537  28.710  1.00  0.00     0.131 A 
ATOM     75  C   UNL A   1      42.084  27.108  26.838  1.00  0.00     0.055 A 
ATOM     76  C   UNL A   1      40.239  25.750  27.562  1.00  0.00     0.041 A 
ATOM     77  F   UNL A   1      39.119  26.321  29.546  1.00  0.00    -0.206 F 
ATOM     78  C   UNL A   1      41.211  26.040  26.612  1.00  0.00     0.022 A 
BRANCH  75  79
ATOM     79  S   UNL A   1      43.180  27.669  25.505  1.00  0.00     0.124 S 
ATOM     80  O   UNL A   1      43.722  26.406  25.018  1.00  0.00    -0.237 OA
ATOM     81  O   UNL A   1      42.248  28.354  24.615  1.00  0.00    -0.237 OA
ATOM     82  O   UNL A   1      44.134  28.537  26.191  1.00  0.00    -0.744 OA
ENDBRANCH  75  79
ENDBRANCH  48  72
BRANCH  60  83
ATOM     83  C   UNL A   1      44.522  27.945  34.985  1.00  0.00     0.023 A 
ATOM     84  C   UNL A   1      44.305  26.812  35.789  1.00  0.00     0.031 A 
ATOM     85  C   UNL A   1      45.851  28.346  34.756  1.00  0.00     0.131 A 
ATOM     86  C   UNL A   1      45.390  26.175  36.408  1.00  0.00     0.055 A 
ATOM     87  C   UNL A   1      46.932  27.657  35.309  1.00  0.00     0.041 A 
ATOM     88  F   UNL A   1      46.121  29.423  34.003  1.00  0.00    -0.206 F 
ATOM     89  C   UNL A   1      46.703  26.579  36.159  1.00  0.00     0.022 A 
BRANCH  86  90
ATOM     90  S   UNL A   1      45.051  24.908  37.662  1.00  0.00     0.124 S 
ATOM     91  O   UNL A   1      43.633  25.123  37.932  1.00  0.00    -0.237 OA
ATOM     92  O   UNL A   1      45.386  23.675  36.958  1.00  0.00    -0.237 OA
ATOM     93  O   UNL A   1      45.952  25.261  38.758  1.00  0.00    -0.744 OA
ENDBRANCH  86  90
ENDBRANCH  60  83
ENDBRANCH  34  35
ENDBRANCH  27  29
ENDBRANCH  26  27
ENDBRANCH  25  26
ENDBRANCH  24  25
ENDBRANCH  23  24
ENDBRANCH  22  23
ENDBRANCH   1  22
TORSDOF 23
ENDMDL
