MODEL 1
REMARK VINA RESULT:     -11.8      0.000      0.000
REMARK SMILES O=C(CNC(=O)N1CC(OCCOCCOC(=O)c2ccc(-c3c4nc(c(-c5cc(S(=O)(=O)[O-])ccc5F)c5ccc([nH]5)c(-c5cc(S(=O)(=O)[O-])ccc5F)c5nc(c(-c6cc(S(=O)(=O)[O-])ccc6F)c6ccc3[nH]6)C=C5)C=C4)cc2)=Nc2ccccc21)N[C@H](C(=O)[O-])c1ccccc1
REMARK SMILES IDX 12 1 11 2 10 3 9 4 7 5 8 6 88 7 83 8 87 9 82 10 84 11 86 12
REMARK SMILES IDX 85 13 5 14 4 15 6 17 3 18 2 19 1 20 89 21 90 23 94 24 95 25
REMARK SMILES IDX 99 26 96 27 98 28 97 29 91 30 92 31 93 32 13 33 14 34 15 35
REMARK SMILES IDX 16 36 17 37 18 38 19 39 20 40 81 41 21 42 80 43 22 44 23 45
REMARK SMILES IDX 24 46 74 47 25 48 79 49 73 50 75 51 26 52 78 53 72 54 71 55
REMARK SMILES IDX 27 57 59 58 39 59 58 60 40 61 43 62 57 63 76 64 41 65 42 66
REMARK SMILES IDX 56 68 77 69 44 70 28 71 29 72 37 73 30 74 36 75 38 76 35 77
REMARK SMILES IDX 31 78 32 79 33 80 34 81 60 82 61 83 69 84 62 85 68 86 70 87
REMARK SMILES IDX 67 88 63 89 64 90 65 91 66 92 45 93 46 94 54 95 47 96 53 97
REMARK SMILES IDX 55 98 52 99 48 100 49 101 50 102 51 103
REMARK H PARENT 4 16 89 22 75 56 43 67
REMARK Flexibility Score: inf
ROOT
ATOM      1  C   UNL A   1      33.224  29.282  26.247  1.00  0.00     0.202 C 
ENDROOT
BRANCH   1   2
ATOM      2  C   UNL A   1      33.040  27.876  26.849  1.00  0.00     0.259 C 
BRANCH   2   3
ATOM      3  O   UNL A   1      32.554  26.890  25.908  1.00  0.00    -0.477 OA
BRANCH   3   4
ATOM      4  C   UNL A   1      33.494  26.207  25.213  1.00  0.00     0.209 C 
ATOM      5  N   UNL A   1      33.594  24.753  23.236  1.00  0.00    -0.283 N 
ATOM      6  C   UNL A   1      33.184  26.070  23.739  1.00  0.00     0.224 C 
ATOM      7  C   UNL A   1      34.791  24.216  23.816  1.00  0.00     0.072 A 
ATOM      8  C   UNL A   1      35.212  24.700  25.077  1.00  0.00     0.091 A 
ATOM      9  C   UNL A   1      35.537  23.199  23.210  1.00  0.00     0.029 A 
ATOM     10  N   UNL A   1      34.510  25.670  25.801  1.00  0.00    -0.214 NA
ATOM     11  C   UNL A   1      36.255  24.064  25.759  1.00  0.00     0.030 A 
ATOM     12  C   UNL A   1      36.578  22.572  23.904  1.00  0.00     0.002 A 
ATOM     13  C   UNL A   1      36.919  22.986  25.189  1.00  0.00     0.002 A 
BRANCH   5  14
ATOM     14  C   UNL A   1      32.871  24.257  22.176  1.00  0.00     0.322 C 
ATOM     15  N   UNL A   1      31.697  23.604  22.364  1.00  0.00    -0.329 N 
ATOM     16  H   UNL A   1      31.380  23.093  21.583  1.00  0.00     0.165 HD
ATOM     17  O   UNL A   1      33.218  24.460  21.009  1.00  0.00    -0.248 OA
BRANCH  15  18
ATOM     18  C   UNL A   1      30.825  23.531  23.532  1.00  0.00     0.218 C 
BRANCH  18  19
ATOM     19  C   UNL A   1      31.239  22.635  24.705  1.00  0.00     0.240 C 
ATOM     20  O   UNL A   1      30.696  22.792  25.798  1.00  0.00    -0.273 OA
ATOM     21  N   UNL A   1      32.081  21.593  24.407  1.00  0.00    -0.342 N 
ATOM     22  H   UNL A   1      32.428  21.497  23.492  1.00  0.00     0.164 HD
BRANCH  21  23
ATOM     23  C   UNL A   1      32.477  20.613  25.446  1.00  0.00     0.158 C 
BRANCH  23  24
ATOM     24  C   UNL A   1      32.680  19.195  24.894  1.00  0.00    -0.020 A 
ATOM     25  C   UNL A   1      32.825  18.903  23.527  1.00  0.00     0.006 A 
ATOM     26  C   UNL A   1      32.700  18.110  25.794  1.00  0.00     0.006 A 
ATOM     27  C   UNL A   1      33.049  17.591  23.087  1.00  0.00     0.000 A 
ATOM     28  C   UNL A   1      32.918  16.800  25.356  1.00  0.00     0.000 A 
ATOM     29  C   UNL A   1      33.109  16.542  24.002  1.00  0.00     0.000 A 
ENDBRANCH  23  24
BRANCH  23  30
ATOM     30  C   UNL A   1      33.771  21.078  26.219  1.00  0.00     0.068 C 
ATOM     31  O   UNL A   1      33.592  21.909  27.157  1.00  0.00    -0.548 OA
ATOM     32  O   UNL A   1      34.861  20.586  25.781  1.00  0.00    -0.548 OA
ENDBRANCH  23  30
ENDBRANCH  21  23
ENDBRANCH  18  19
ENDBRANCH  15  18
ENDBRANCH   5  14
ENDBRANCH   3   4
ENDBRANCH   2   3
ENDBRANCH   1   2
BRANCH   1  33
ATOM     33  O   UNL A   1      32.917  30.413  27.064  1.00  0.00    -0.374 OA
BRANCH  33  34
ATOM     34  C   UNL A   1      31.798  31.212  26.703  1.00  0.00     0.202 C 
BRANCH  34  35
ATOM     35  C   UNL A   1      31.831  32.722  26.910  1.00  0.00     0.261 C 
BRANCH  35  36
ATOM     36  O   UNL A   1      33.123  33.292  26.947  1.00  0.00    -0.460 OA
BRANCH  36  37
ATOM     37  C   UNL A   1      33.437  33.865  28.127  1.00  0.00     0.338 C 
ATOM     38  O   UNL A   1      32.804  34.702  28.755  1.00  0.00    -0.246 OA
BRANCH  37  39
ATOM     39  C   UNL A   1      34.617  33.156  28.624  1.00  0.00     0.060 A 
ATOM     40  C   UNL A   1      34.441  32.004  29.385  1.00  0.00     0.016 A 
ATOM     41  C   UNL A   1      35.892  33.621  28.300  1.00  0.00     0.016 A 
ATOM     42  C   UNL A   1      35.562  31.338  29.869  1.00  0.00     0.010 A 
ATOM     43  C   UNL A   1      37.011  32.936  28.750  1.00  0.00     0.010 A 
ATOM     44  C   UNL A   1      36.850  31.815  29.575  1.00  0.00    -0.014 A 
BRANCH  44  45
ATOM     45  C   UNL A   1      38.033  31.196  30.209  1.00  0.00     0.031 A 
ATOM     46  C   UNL A   1      38.400  31.584  31.614  1.00  0.00     0.074 A 
ATOM     47  C   UNL A   1      38.758  30.297  29.521  1.00  0.00     0.049 A 
ATOM     48  N   UNL A   1      39.376  31.141  32.366  1.00  0.00    -0.248 NA
ATOM     49  C   UNL A   1      37.575  32.622  32.253  1.00  0.00     0.031 C 
ATOM     50  C   UNL A   1      38.500  29.889  28.139  1.00  0.00     0.029 A 
ATOM     51  N   UNL A   1      39.855  29.562  29.887  1.00  0.00    -0.354 N 
ATOM     52  C   UNL A   1      39.283  31.850  33.560  1.00  0.00     0.074 A 
ATOM     53  C   UNL A   1      38.199  32.796  33.407  1.00  0.00     0.031 C 
ATOM     54  C   UNL A   1      39.397  28.956  27.784  1.00  0.00     0.029 A 
ATOM     55  C   UNL A   1      40.313  28.726  28.897  1.00  0.00     0.049 A 
ATOM     56  H   UNL A   1      40.274  29.626  30.775  1.00  0.00     0.167 HD
ATOM     57  C   UNL A   1      40.022  31.703  34.685  1.00  0.00     0.034 A 
ATOM     58  C   UNL A   1      41.358  27.877  28.894  1.00  0.00     0.034 A 
ATOM     59  C   UNL A   1      41.097  30.749  34.806  1.00  0.00     0.049 A 
ATOM     60  C   UNL A   1      42.181  27.749  30.151  1.00  0.00     0.074 A 
ATOM     61  C   UNL A   1      41.880  30.468  35.911  1.00  0.00     0.029 A 
ATOM     62  N   UNL A   1      41.548  29.929  33.778  1.00  0.00    -0.354 N 
ATOM     63  N   UNL A   1      42.042  28.374  31.299  1.00  0.00    -0.248 NA
ATOM     64  C   UNL A   1      43.290  26.789  30.119  1.00  0.00     0.031 C 
ATOM     65  C   UNL A   1      42.852  29.535  35.531  1.00  0.00     0.029 A 
ATOM     66  C   UNL A   1      42.623  29.167  34.212  1.00  0.00     0.049 A 
ATOM     67  H   UNL A   1      41.161  29.893  32.874  1.00  0.00     0.167 HD
ATOM     68  C   UNL A   1      43.032  27.863  32.133  1.00  0.00     0.074 A 
ATOM     69  C   UNL A   1      43.742  26.862  31.362  1.00  0.00     0.031 C 
ATOM     70  C   UNL A   1      43.328  28.187  33.419  1.00  0.00     0.034 A 
BRANCH  57  71
ATOM     71  C   UNL A   1      39.709  32.613  35.852  1.00  0.00     0.023 A 
ATOM     72  C   UNL A   1      38.852  32.214  36.895  1.00  0.00     0.031 A 
ATOM     73  C   UNL A   1      40.263  33.903  35.918  1.00  0.00     0.131 A 
ATOM     74  C   UNL A   1      38.523  33.116  37.920  1.00  0.00     0.055 A 
ATOM     75  C   UNL A   1      39.990  34.770  36.978  1.00  0.00     0.041 A 
ATOM     76  F   UNL A   1      41.076  34.348  34.947  1.00  0.00    -0.206 F 
ATOM     77  C   UNL A   1      39.105  34.384  37.980  1.00  0.00     0.022 A 
BRANCH  74  78
ATOM     78  S   UNL A   1      37.235  32.651  39.110  1.00  0.00     0.124 S 
ATOM     79  O   UNL A   1      36.018  32.922  38.349  1.00  0.00    -0.237 OA
ATOM     80  O   UNL A   1      37.532  31.247  39.362  1.00  0.00    -0.237 OA
ATOM     81  O   UNL A   1      37.472  33.549  40.238  1.00  0.00    -0.744 OA
ENDBRANCH  74  78
ENDBRANCH  57  71
BRANCH  58  82
ATOM     82  C   UNL A   1      41.686  27.087  27.672  1.00  0.00     0.023 A 
ATOM     83  C   UNL A   1      41.442  25.705  27.613  1.00  0.00     0.031 A 
ATOM     84  C   UNL A   1      42.277  27.700  26.552  1.00  0.00     0.131 A 
ATOM     85  C   UNL A   1      41.831  24.974  26.480  1.00  0.00     0.055 A 
ATOM     86  C   UNL A   1      42.608  26.978  25.404  1.00  0.00     0.041 A 
ATOM     87  F   UNL A   1      42.531  29.018  26.555  1.00  0.00    -0.206 F 
ATOM     88  C   UNL A   1      42.397  25.603  25.369  1.00  0.00     0.022 A 
BRANCH  85  89
ATOM     89  S   UNL A   1      41.672  23.167  26.514  1.00  0.00     0.124 S 
ATOM     90  O   UNL A   1      40.243  22.988  26.278  1.00  0.00    -0.237 OA
ATOM     91  O   UNL A   1      42.557  22.761  25.427  1.00  0.00    -0.237 OA
ATOM     92  O   UNL A   1      42.130  22.809  27.855  1.00  0.00    -0.744 OA
ENDBRANCH  85  89
ENDBRANCH  58  82
BRANCH  70  93
ATOM     93  C   UNL A   1      44.449  27.417  34.075  1.00  0.00     0.023 A 
ATOM     94  C   UNL A   1      44.210  26.232  34.793  1.00  0.00     0.031 A 
ATOM     95  C   UNL A   1      45.772  27.885  33.990  1.00  0.00     0.131 A 
ATOM     96  C   UNL A   1      45.270  25.590  35.454  1.00  0.00     0.055 A 
ATOM     97  C   UNL A   1      46.832  27.203  34.589  1.00  0.00     0.041 A 
ATOM     98  F   UNL A   1      46.059  29.013  33.321  1.00  0.00    -0.206 F 
ATOM     99  C   UNL A   1      46.582  26.058  35.338  1.00  0.00     0.022 A 
BRANCH  96 100
ATOM    100  S   UNL A   1      44.896  24.200  36.555  1.00  0.00     0.124 S 
ATOM    101  O   UNL A   1      44.042  23.367  35.714  1.00  0.00    -0.237 OA
ATOM    102  O   UNL A   1      46.221  23.664  36.847  1.00  0.00    -0.237 OA
ATOM    103  O   UNL A   1      44.221  24.831  37.688  1.00  0.00    -0.744 OA
ENDBRANCH  96 100
ENDBRANCH  70  93
ENDBRANCH  44  45
ENDBRANCH  37  39
ENDBRANCH  36  37
ENDBRANCH  35  36
ENDBRANCH  34  35
ENDBRANCH  33  34
ENDBRANCH   1  33
TORSDOF 22
ENDMDL
MODEL 2
REMARK VINA RESULT:     -11.5      1.815      2.642
REMARK SMILES O=C(CNC(=O)N1CC(OCCOCCOC(=O)c2ccc(-c3c4nc(c(-c5cc(S(=O)(=O)[O-])ccc5F)c5ccc([nH]5)c(-c5cc(S(=O)(=O)[O-])ccc5F)c5nc(c(-c6cc(S(=O)(=O)[O-])ccc6F)c6ccc3[nH]6)C=C5)C=C4)cc2)=Nc2ccccc21)N[C@H](C(=O)[O-])c1ccccc1
REMARK SMILES IDX 12 1 11 2 10 3 9 4 7 5 8 6 88 7 83 8 87 9 82 10 84 11 86 12
REMARK SMILES IDX 85 13 5 14 4 15 6 17 3 18 2 19 1 20 89 21 90 23 94 24 95 25
REMARK SMILES IDX 99 26 96 27 98 28 97 29 91 30 92 31 93 32 13 33 14 34 15 35
REMARK SMILES IDX 16 36 17 37 18 38 19 39 20 40 81 41 21 42 80 43 22 44 23 45
REMARK SMILES IDX 24 46 74 47 25 48 79 49 73 50 75 51 26 52 78 53 72 54 71 55
REMARK SMILES IDX 27 57 59 58 39 59 58 60 40 61 43 62 57 63 76 64 41 65 42 66
REMARK SMILES IDX 56 68 77 69 44 70 28 71 29 72 37 73 30 74 36 75 38 76 35 77
REMARK SMILES IDX 31 78 32 79 33 80 34 81 60 82 61 83 69 84 62 85 68 86 70 87
REMARK SMILES IDX 67 88 63 89 64 90 65 91 66 92 45 93 46 94 54 95 47 96 53 97
REMARK SMILES IDX 55 98 52 99 48 100 49 101 50 102 51 103
REMARK H PARENT 4 16 89 22 75 56 43 67
REMARK Flexibility Score: inf
ROOT
ATOM      1  C   UNL A   1      29.813  30.404  23.394  1.00  0.00     0.202 C 
ENDROOT
BRANCH   1   2
ATOM      2  C   UNL A   1      29.144  29.486  22.354  1.00  0.00     0.259 C 
BRANCH   2   3
ATOM      3  O   UNL A   1      28.670  28.229  22.895  1.00  0.00    -0.477 OA
BRANCH   3   4
ATOM      4  C   UNL A   1      29.599  27.258  23.063  1.00  0.00     0.209 C 
ATOM      5  N   UNL A   1      30.687  26.086  24.928  1.00  0.00    -0.283 N 
ATOM      6  C   UNL A   1      29.398  26.431  24.313  1.00  0.00     0.224 C 
ATOM      7  C   UNL A   1      31.760  25.833  24.011  1.00  0.00     0.072 A 
ATOM      8  C   UNL A   1      31.673  26.358  22.700  1.00  0.00     0.091 A 
ATOM      9  C   UNL A   1      32.914  25.128  24.370  1.00  0.00     0.029 A 
ATOM     10  N   UNL A   1      30.595  27.130  22.252  1.00  0.00    -0.214 NA
ATOM     11  C   UNL A   1      32.779  26.301  21.847  1.00  0.00     0.030 A 
ATOM     12  C   UNL A   1      34.014  25.078  23.507  1.00  0.00     0.002 A 
ATOM     13  C   UNL A   1      33.957  25.688  22.257  1.00  0.00     0.002 A 
BRANCH   5  14
ATOM     14  C   UNL A   1      30.679  25.908  26.292  1.00  0.00     0.322 C 
ATOM     15  N   UNL A   1      30.485  24.684  26.845  1.00  0.00    -0.329 N 
ATOM     16  H   UNL A   1      30.267  24.697  27.806  1.00  0.00     0.165 HD
ATOM     17  O   UNL A   1      30.933  26.837  27.064  1.00  0.00    -0.248 OA
BRANCH  15  18
ATOM     18  C   UNL A   1      30.543  23.352  26.252  1.00  0.00     0.218 C 
BRANCH  18  19
ATOM     19  C   UNL A   1      31.804  22.506  26.465  1.00  0.00     0.240 C 
ATOM     20  O   UNL A   1      32.307  22.456  27.587  1.00  0.00    -0.273 OA
ATOM     21  N   UNL A   1      32.195  21.720  25.411  1.00  0.00    -0.342 N 
ATOM     22  H   UNL A   1      31.705  21.771  24.560  1.00  0.00     0.164 HD
BRANCH  21  23
ATOM     23  C   UNL A   1      33.349  20.798  25.536  1.00  0.00     0.158 C 
BRANCH  23  24
ATOM     24  C   UNL A   1      33.283  19.611  24.564  1.00  0.00    -0.020 A 
ATOM     25  C   UNL A   1      32.344  19.505  23.524  1.00  0.00     0.006 A 
ATOM     26  C   UNL A   1      34.192  18.547  24.727  1.00  0.00     0.006 A 
ATOM     27  C   UNL A   1      32.359  18.416  22.643  1.00  0.00     0.000 A 
ATOM     28  C   UNL A   1      34.206  17.456  23.852  1.00  0.00     0.000 A 
ATOM     29  C   UNL A   1      33.299  17.398  22.798  1.00  0.00     0.000 A 
ENDBRANCH  23  24
BRANCH  23  30
ATOM     30  C   UNL A   1      34.721  21.557  25.362  1.00  0.00     0.068 C 
ATOM     31  O   UNL A   1      35.078  21.798  24.171  1.00  0.00    -0.548 OA
ATOM     32  O   UNL A   1      35.334  21.809  26.449  1.00  0.00    -0.548 OA
ENDBRANCH  23  30
ENDBRANCH  21  23
ENDBRANCH  18  19
ENDBRANCH  15  18
ENDBRANCH   5  14
ENDBRANCH   3   4
ENDBRANCH   2   3
ENDBRANCH   1   2
BRANCH   1  33
ATOM     33  O   UNL A   1      30.227  29.831  24.636  1.00  0.00    -0.374 OA
BRANCH  33  34
ATOM     34  C   UNL A   1      31.611  29.871  24.958  1.00  0.00     0.202 C 
BRANCH  34  35
ATOM     35  C   UNL A   1      32.062  30.196  26.378  1.00  0.00     0.261 C 
BRANCH  35  36
ATOM     36  O   UNL A   1      33.461  30.263  26.560  1.00  0.00    -0.460 OA
BRANCH  36  37
ATOM     37  C   UNL A   1      33.876  31.360  27.227  1.00  0.00     0.338 C 
ATOM     38  O   UNL A   1      33.306  32.434  27.348  1.00  0.00    -0.246 OA
BRANCH  37  39
ATOM     39  C   UNL A   1      35.084  30.964  27.952  1.00  0.00     0.060 A 
ATOM     40  C   UNL A   1      36.136  31.869  28.058  1.00  0.00     0.016 A 
ATOM     41  C   UNL A   1      35.150  29.706  28.553  1.00  0.00     0.016 A 
ATOM     42  C   UNL A   1      37.289  31.488  28.734  1.00  0.00     0.010 A 
ATOM     43  C   UNL A   1      36.286  29.338  29.260  1.00  0.00     0.010 A 
ATOM     44  C   UNL A   1      37.379  30.212  29.316  1.00  0.00    -0.014 A 
BRANCH  44  45
ATOM     45  C   UNL A   1      38.655  29.753  29.905  1.00  0.00     0.031 A 
ATOM     46  C   UNL A   1      39.072  30.276  31.251  1.00  0.00     0.074 A 
ATOM     47  C   UNL A   1      39.418  28.877  29.229  1.00  0.00     0.049 A 
ATOM     48  N   UNL A   1      40.132  29.982  31.960  1.00  0.00    -0.248 NA
ATOM     49  C   UNL A   1      38.192  31.278  31.876  1.00  0.00     0.031 C 
ATOM     50  C   UNL A   1      39.113  28.347  27.899  1.00  0.00     0.029 A 
ATOM     51  N   UNL A   1      40.602  28.276  29.565  1.00  0.00    -0.354 N 
ATOM     52  C   UNL A   1      40.047  30.765  33.107  1.00  0.00     0.074 A 
ATOM     53  C   UNL A   1      38.869  31.592  32.969  1.00  0.00     0.031 C 
ATOM     54  C   UNL A   1      40.072  27.476  27.545  1.00  0.00     0.029 A 
ATOM     55  C   UNL A   1      41.076  27.415  28.604  1.00  0.00     0.049 A 
ATOM     56  H   UNL A   1      41.070  28.444  30.415  1.00  0.00     0.167 HD
ATOM     57  C   UNL A   1      40.867  30.770  34.185  1.00  0.00     0.034 A 
ATOM     58  C   UNL A   1      42.196  26.668  28.583  1.00  0.00     0.034 A 
ATOM     59  C   UNL A   1      42.036  29.931  34.293  1.00  0.00     0.049 A 
ATOM     60  C   UNL A   1      43.106  26.710  29.785  1.00  0.00     0.074 A 
ATOM     61  C   UNL A   1      42.912  29.806  35.356  1.00  0.00     0.029 A 
ATOM     62  N   UNL A   1      42.497  29.083  33.293  1.00  0.00    -0.354 N 
ATOM     63  N   UNL A   1      42.980  27.403  30.895  1.00  0.00    -0.248 NA
ATOM     64  C   UNL A   1      44.299  25.858  29.738  1.00  0.00     0.031 C 
ATOM     65  C   UNL A   1      43.943  28.942  34.971  1.00  0.00     0.029 A 
ATOM     66  C   UNL A   1      43.667  28.458  33.700  1.00  0.00     0.049 A 
ATOM     67  H   UNL A   1      42.059  28.945  32.423  1.00  0.00     0.167 HD
ATOM     68  C   UNL A   1      44.067  27.048  31.689  1.00  0.00     0.074 A 
ATOM     69  C   UNL A   1      44.821  26.063  30.939  1.00  0.00     0.031 C 
ATOM     70  C   UNL A   1      44.412  27.492  32.926  1.00  0.00     0.034 A 
BRANCH  57  71
ATOM     71  C   UNL A   1      40.543  31.730  35.307  1.00  0.00     0.023 A 
ATOM     72  C   UNL A   1      39.519  31.467  36.237  1.00  0.00     0.031 A 
ATOM     73  C   UNL A   1      41.257  32.933  35.444  1.00  0.00     0.131 A 
ATOM     74  C   UNL A   1      39.195  32.419  37.216  1.00  0.00     0.055 A 
ATOM     75  C   UNL A   1      40.979  33.844  36.466  1.00  0.00     0.041 A 
ATOM     76  F   UNL A   1      42.235  33.250  34.581  1.00  0.00    -0.206 F 
ATOM     77  C   UNL A   1      39.934  33.597  37.350  1.00  0.00     0.022 A 
BRANCH  74  78
ATOM     78  S   UNL A   1      37.720  32.152  38.238  1.00  0.00     0.124 S 
ATOM     79  O   UNL A   1      38.254  32.343  39.584  1.00  0.00    -0.237 OA
ATOM     80  O   UNL A   1      36.814  33.187  37.757  1.00  0.00    -0.237 OA
ATOM     81  O   UNL A   1      37.326  30.781  37.918  1.00  0.00    -0.744 OA
ENDBRANCH  74  78
ENDBRANCH  57  71
BRANCH  58  82
ATOM     82  C   UNL A   1      42.519  25.825  27.397  1.00  0.00     0.023 A 
ATOM     83  C   UNL A   1      42.120  24.480  27.331  1.00  0.00     0.031 A 
ATOM     84  C   UNL A   1      43.263  26.345  26.322  1.00  0.00     0.131 A 
ATOM     85  C   UNL A   1      42.505  23.689  26.237  1.00  0.00     0.055 A 
ATOM     86  C   UNL A   1      43.592  25.570  25.209  1.00  0.00     0.041 A 
ATOM     87  F   UNL A   1      43.670  27.624  26.333  1.00  0.00    -0.206 F 
ATOM     88  C   UNL A   1      43.223  24.229  25.168  1.00  0.00     0.022 A 
BRANCH  85  89
ATOM     89  S   UNL A   1      42.131  21.914  26.273  1.00  0.00     0.124 S 
ATOM     90  O   UNL A   1      42.439  21.571  27.658  1.00  0.00    -0.237 OA
ATOM     91  O   UNL A   1      40.719  21.891  25.907  1.00  0.00    -0.237 OA
ATOM     92  O   UNL A   1      43.040  21.353  25.276  1.00  0.00    -0.744 OA
ENDBRANCH  85  89
ENDBRANCH  58  82
BRANCH  70  93
ATOM     93  C   UNL A   1      45.642  26.879  33.551  1.00  0.00     0.023 A 
ATOM     94  C   UNL A   1      45.573  25.707  34.325  1.00  0.00     0.031 A 
ATOM     95  C   UNL A   1      46.899  27.486  33.380  1.00  0.00     0.131 A 
ATOM     96  C   UNL A   1      46.728  25.216  34.953  1.00  0.00     0.055 A 
ATOM     97  C   UNL A   1      48.057  26.952  33.948  1.00  0.00     0.041 A 
ATOM     98  F   UNL A   1      47.025  28.609  32.656  1.00  0.00    -0.206 F 
ATOM     99  C   UNL A   1      47.973  25.820  34.751  1.00  0.00     0.022 A 
BRANCH  96 100
ATOM    100  S   UNL A   1      46.566  23.841  36.124  1.00  0.00     0.124 S 
ATOM    101  O   UNL A   1      45.385  24.231  36.889  1.00  0.00    -0.237 OA
ATOM    102  O   UNL A   1      46.402  22.691  35.240  1.00  0.00    -0.237 OA
ATOM    103  O   UNL A   1      47.824  23.874  36.868  1.00  0.00    -0.744 OA
ENDBRANCH  96 100
ENDBRANCH  70  93
ENDBRANCH  44  45
ENDBRANCH  37  39
ENDBRANCH  36  37
ENDBRANCH  35  36
ENDBRANCH  34  35
ENDBRANCH  33  34
ENDBRANCH   1  33
TORSDOF 22
ENDMDL
MODEL 3
REMARK VINA RESULT:     -11.4      2.660      8.593
REMARK SMILES O=C(CNC(=O)N1CC(OCCOCCOC(=O)c2ccc(-c3c4nc(c(-c5cc(S(=O)(=O)[O-])ccc5F)c5ccc([nH]5)c(-c5cc(S(=O)(=O)[O-])ccc5F)c5nc(c(-c6cc(S(=O)(=O)[O-])ccc6F)c6ccc3[nH]6)C=C5)C=C4)cc2)=Nc2ccccc21)N[C@H](C(=O)[O-])c1ccccc1
REMARK SMILES IDX 12 1 11 2 10 3 9 4 7 5 8 6 88 7 83 8 87 9 82 10 84 11 86 12
REMARK SMILES IDX 85 13 5 14 4 15 6 17 3 18 2 19 1 20 89 21 90 23 94 24 95 25
REMARK SMILES IDX 99 26 96 27 98 28 97 29 91 30 92 31 93 32 13 33 14 34 15 35
REMARK SMILES IDX 16 36 17 37 18 38 19 39 20 40 81 41 21 42 80 43 22 44 23 45
REMARK SMILES IDX 24 46 74 47 25 48 79 49 73 50 75 51 26 52 78 53 72 54 71 55
REMARK SMILES IDX 27 57 59 58 39 59 58 60 40 61 43 62 57 63 76 64 41 65 42 66
REMARK SMILES IDX 56 68 77 69 44 70 28 71 29 72 37 73 30 74 36 75 38 76 35 77
REMARK SMILES IDX 31 78 32 79 33 80 34 81 60 82 61 83 69 84 62 85 68 86 70 87
REMARK SMILES IDX 67 88 63 89 64 90 65 91 66 92 45 93 46 94 54 95 47 96 53 97
REMARK SMILES IDX 55 98 52 99 48 100 49 101 50 102 51 103
REMARK H PARENT 4 16 89 22 75 56 43 67
REMARK Flexibility Score: inf
ROOT
ATOM      1  C   UNL A   1      34.137  30.452  27.295  1.00  0.00     0.202 C 
ENDROOT
BRANCH   1   2
ATOM      2  C   UNL A   1      33.252  29.810  26.210  1.00  0.00     0.259 C 
BRANCH   2   3
ATOM      3  O   UNL A   1      32.833  28.459  26.514  1.00  0.00    -0.477 OA
BRANCH   3   4
ATOM      4  C   UNL A   1      33.472  27.467  25.850  1.00  0.00     0.209 C 
ATOM      5  N   UNL A   1      33.807  26.760  23.521  1.00  0.00    -0.283 N 
ATOM      6  C   UNL A   1      33.958  27.867  24.475  1.00  0.00     0.224 C 
ATOM      7  C   UNL A   1      34.033  25.449  24.057  1.00  0.00     0.072 A 
ATOM      8  C   UNL A   1      33.915  25.255  25.454  1.00  0.00     0.091 A 
ATOM      9  C   UNL A   1      34.320  24.341  23.253  1.00  0.00     0.029 A 
ATOM     10  N   UNL A   1      33.571  26.279  26.345  1.00  0.00    -0.214 NA
ATOM     11  C   UNL A   1      33.932  23.963  25.986  1.00  0.00     0.030 A 
ATOM     12  C   UNL A   1      34.334  23.052  23.799  1.00  0.00     0.002 A 
ATOM     13  C   UNL A   1      34.114  22.860  25.160  1.00  0.00     0.002 A 
BRANCH   5  14
ATOM     14  C   UNL A   1      33.611  27.115  22.206  1.00  0.00     0.322 C 
ATOM     15  N   UNL A   1      32.531  26.679  21.510  1.00  0.00    -0.329 N 
ATOM     16  H   UNL A   1      32.599  26.791  20.533  1.00  0.00     0.165 HD
ATOM     17  O   UNL A   1      34.362  27.911  21.635  1.00  0.00    -0.248 OA
BRANCH  15  18
ATOM     18  C   UNL A   1      31.285  26.071  21.967  1.00  0.00     0.218 C 
BRANCH  18  19
ATOM     19  C   UNL A   1      30.405  26.847  22.952  1.00  0.00     0.240 C 
ATOM     20  O   UNL A   1      30.530  26.638  24.158  1.00  0.00    -0.273 OA
ATOM     21  N   UNL A   1      29.643  27.857  22.422  1.00  0.00    -0.342 N 
ATOM     22  H   UNL A   1      29.640  28.004  21.449  1.00  0.00     0.164 HD
BRANCH  21  23
ATOM     23  C   UNL A   1      28.820  28.730  23.295  1.00  0.00     0.158 C 
BRANCH  23  24
ATOM     24  C   UNL A   1      28.666  30.157  22.751  1.00  0.00    -0.020 A 
ATOM     25  C   UNL A   1      28.388  30.454  21.406  1.00  0.00     0.006 A 
ATOM     26  C   UNL A   1      28.833  31.243  23.633  1.00  0.00     0.006 A 
ATOM     27  C   UNL A   1      28.218  31.777  20.977  1.00  0.00     0.000 A 
ATOM     28  C   UNL A   1      28.669  32.564  23.206  1.00  0.00     0.000 A 
ATOM     29  C   UNL A   1      28.345  32.831  21.879  1.00  0.00     0.000 A 
ENDBRANCH  23  24
BRANCH  23  30
ATOM     30  C   UNL A   1      27.398  28.102  23.567  1.00  0.00     0.068 C 
ATOM     31  O   UNL A   1      27.384  26.892  23.940  1.00  0.00    -0.548 OA
ATOM     32  O   UNL A   1      26.418  28.883  23.340  1.00  0.00    -0.548 OA
ENDBRANCH  23  30
ENDBRANCH  21  23
ENDBRANCH  18  19
ENDBRANCH  15  18
ENDBRANCH   5  14
ENDBRANCH   3   4
ENDBRANCH   2   3
ENDBRANCH   1   2
BRANCH   1  33
ATOM     33  O   UNL A   1      33.597  31.534  28.056  1.00  0.00    -0.374 OA
BRANCH  33  34
ATOM     34  C   UNL A   1      32.544  32.294  27.479  1.00  0.00     0.202 C 
BRANCH  34  35
ATOM     35  C   UNL A   1      32.598  33.818  27.491  1.00  0.00     0.261 C 
BRANCH  35  36
ATOM     36  O   UNL A   1      32.446  34.411  28.765  1.00  0.00    -0.460 OA
BRANCH  36  37
ATOM     37  C   UNL A   1      33.424  35.282  29.086  1.00  0.00     0.338 C 
ATOM     38  O   UNL A   1      33.399  36.503  29.033  1.00  0.00    -0.246 OA
BRANCH  37  39
ATOM     39  C   UNL A   1      34.492  34.489  29.696  1.00  0.00     0.060 A 
ATOM     40  C   UNL A   1      34.173  33.598  30.717  1.00  0.00     0.016 A 
ATOM     41  C   UNL A   1      35.800  34.610  29.226  1.00  0.00     0.016 A 
ATOM     42  C   UNL A   1      35.189  32.855  31.306  1.00  0.00     0.010 A 
ATOM     43  C   UNL A   1      36.810  33.842  29.787  1.00  0.00     0.010 A 
ATOM     44  C   UNL A   1      36.515  32.992  30.861  1.00  0.00    -0.014 A 
BRANCH  44  45
ATOM     45  C   UNL A   1      37.614  32.315  31.582  1.00  0.00     0.031 A 
ATOM     46  C   UNL A   1      38.339  31.179  30.916  1.00  0.00     0.074 A 
ATOM     47  C   UNL A   1      37.946  32.727  32.818  1.00  0.00     0.049 A 
ATOM     48  N   UNL A   1      39.348  30.471  31.357  1.00  0.00    -0.248 NA
ATOM     49  C   UNL A   1      37.854  30.769  29.588  1.00  0.00     0.031 C 
ATOM     50  C   UNL A   1      37.272  33.795  33.558  1.00  0.00     0.029 A 
ATOM     51  N   UNL A   1      38.933  32.303  33.668  1.00  0.00    -0.354 N 
ATOM     52  C   UNL A   1      39.611  29.533  30.363  1.00  0.00     0.074 A 
ATOM     53  C   UNL A   1      38.617  29.720  29.330  1.00  0.00     0.031 C 
ATOM     54  C   UNL A   1      37.884  33.961  34.742  1.00  0.00     0.029 A 
ATOM     55  C   UNL A   1      38.968  32.989  34.858  1.00  0.00     0.049 A 
ATOM     56  H   UNL A   1      39.558  31.576  33.447  1.00  0.00     0.167 HD
ATOM     57  C   UNL A   1      40.609  28.618  30.314  1.00  0.00     0.034 A 
ATOM     58  C   UNL A   1      39.782  32.843  35.921  1.00  0.00     0.034 A 
ATOM     59  C   UNL A   1      41.588  28.457  31.362  1.00  0.00     0.049 A 
ATOM     60  C   UNL A   1      40.870  31.801  35.851  1.00  0.00     0.074 A 
ATOM     61  C   UNL A   1      42.677  27.606  31.402  1.00  0.00     0.029 A 
ATOM     62  N   UNL A   1      41.584  29.157  32.563  1.00  0.00    -0.354 N 
ATOM     63  N   UNL A   1      41.154  30.965  34.878  1.00  0.00    -0.248 NA
ATOM     64  C   UNL A   1      41.757  31.694  37.015  1.00  0.00     0.031 C 
ATOM     65  C   UNL A   1      43.286  27.736  32.655  1.00  0.00     0.029 A 
ATOM     66  C   UNL A   1      42.631  28.731  33.367  1.00  0.00     0.049 A 
ATOM     67  H   UNL A   1      40.934  29.854  32.808  1.00  0.00     0.167 HD
ATOM     68  C   UNL A   1      42.270  30.250  35.304  1.00  0.00     0.074 A 
ATOM     69  C   UNL A   1      42.619  30.773  36.611  1.00  0.00     0.031 C 
ATOM     70  C   UNL A   1      42.948  29.255  34.676  1.00  0.00     0.034 A 
BRANCH  57  71
ATOM     71  C   UNL A   1      40.668  27.711  29.106  1.00  0.00     0.023 A 
ATOM     72  C   UNL A   1      41.609  27.903  28.077  1.00  0.00     0.031 A 
ATOM     73  C   UNL A   1      39.761  26.646  28.971  1.00  0.00     0.131 A 
ATOM     74  C   UNL A   1      41.580  27.089  26.934  1.00  0.00     0.055 A 
ATOM     75  C   UNL A   1      39.784  25.792  27.866  1.00  0.00     0.041 A 
ATOM     76  F   UNL A   1      38.829  26.418  29.910  1.00  0.00    -0.206 F 
ATOM     77  C   UNL A   1      40.687  26.020  26.832  1.00  0.00     0.022 A 
BRANCH  74  78
ATOM     78  S   UNL A   1      42.647  27.517  25.530  1.00  0.00     0.124 S 
ATOM     79  O   UNL A   1      42.633  26.278  24.758  1.00  0.00    -0.237 OA
ATOM     80  O   UNL A   1      41.943  28.648  24.937  1.00  0.00    -0.237 OA
ATOM     81  O   UNL A   1      43.926  27.841  26.159  1.00  0.00    -0.744 OA
ENDBRANCH  74  78
ENDBRANCH  57  71
BRANCH  58  82
ATOM     82  C   UNL A   1      39.604  33.694  37.132  1.00  0.00     0.023 A 
ATOM     83  C   UNL A   1      38.941  33.209  38.270  1.00  0.00     0.031 A 
ATOM     84  C   UNL A   1      40.070  35.022  37.156  1.00  0.00     0.131 A 
ATOM     85  C   UNL A   1      38.720  34.059  39.367  1.00  0.00     0.055 A 
ATOM     86  C   UNL A   1      39.900  35.843  38.272  1.00  0.00     0.041 A 
ATOM     87  F   UNL A   1      40.711  35.536  36.095  1.00  0.00    -0.206 F 
ATOM     88  C   UNL A   1      39.210  35.366  39.381  1.00  0.00     0.022 A 
BRANCH  85  89
ATOM     89  S   UNL A   1      37.701  33.457  40.741  1.00  0.00     0.124 S 
ATOM     90  O   UNL A   1      36.807  32.522  40.065  1.00  0.00    -0.237 OA
ATOM     91  O   UNL A   1      38.698  32.864  41.625  1.00  0.00    -0.237 OA
ATOM     92  O   UNL A   1      37.063  34.670  41.250  1.00  0.00    -0.744 OA
ENDBRANCH  85  89
ENDBRANCH  58  82
BRANCH  70  93
ATOM     93  C   UNL A   1      44.158  28.699  35.388  1.00  0.00     0.023 A 
ATOM     94  C   UNL A   1      44.054  27.635  36.301  1.00  0.00     0.031 A 
ATOM     95  C   UNL A   1      45.430  29.253  35.159  1.00  0.00     0.131 A 
ATOM     96  C   UNL A   1      45.191  27.201  37.000  1.00  0.00     0.055 A 
ATOM     97  C   UNL A   1      46.569  28.770  35.804  1.00  0.00     0.041 A 
ATOM     98  F   UNL A   1      45.588  30.274  34.301  1.00  0.00    -0.206 F 
ATOM     99  C   UNL A   1      46.451  27.749  36.741  1.00  0.00     0.022 A 
BRANCH  96 100
ATOM    100  S   UNL A   1      44.986  25.988  38.331  1.00  0.00     0.124 S 
ATOM    101  O   UNL A   1      44.101  26.694  39.253  1.00  0.00    -0.237 OA
ATOM    102  O   UNL A   1      44.401  24.849  37.632  1.00  0.00    -0.237 OA
ATOM    103  O   UNL A   1      46.348  25.781  38.820  1.00  0.00    -0.744 OA
ENDBRANCH  96 100
ENDBRANCH  70  93
ENDBRANCH  44  45
ENDBRANCH  37  39
ENDBRANCH  36  37
ENDBRANCH  35  36
ENDBRANCH  34  35
ENDBRANCH  33  34
ENDBRANCH   1  33
TORSDOF 22
ENDMDL
