MODEL 1
REMARK VINA RESULT:     -11.5      0.000      0.000
REMARK SMILES CC[C@H](C(=O)OCCOCCOC(=O)c1ccc(-c2c3nc(c(-c4cc(S(=O)(=O)[O-])ccc4F)c4ccc([nH]4)c(-c4cc(S(=O)(=O)[O-])ccc4F)c4nc(c(-c5cc(S(=O)(=O)[O-])ccc5F)c5ccc2[nH]5)C=C4)C=C3)cc1)N1C(=O)c2ccc([N+](=O)[O-])cc2C1=O
REMARK SMILES IDX 10 1 9 2 8 3 7 4 6 5 4 6 5 7 3 8 2 9 1 10 78 11 79 12 90 13
REMARK SMILES IDX 80 14 81 15 89 16 91 17 82 18 88 19 83 20 84 21 85 22 86 23
REMARK SMILES IDX 87 24 11 25 12 26 13 27 14 28 15 29 16 30 77 31 17 32 76 33
REMARK SMILES IDX 18 34 19 35 20 36 70 37 21 38 75 39 69 40 71 41 22 42 74 43
REMARK SMILES IDX 68 44 67 45 23 47 55 48 35 49 54 50 36 51 39 52 53 53 72 54
REMARK SMILES IDX 37 55 38 56 52 58 73 59 40 60 24 61 25 62 33 63 26 64 32 65
REMARK SMILES IDX 34 66 31 67 27 68 28 69 29 70 30 71 56 72 57 73 65 74 58 75
REMARK SMILES IDX 64 76 66 77 63 78 59 79 60 80 61 81 62 82 41 83 42 84 50 85
REMARK SMILES IDX 43 86 49 87 51 88 48 89 44 90 45 91 46 92 47 93
REMARK H PARENT 71 46 39 57
REMARK Flexibility Score: inf
ROOT
ATOM      1  C   UNL A   1      31.380  29.532  25.047  1.00  0.00     0.202 C 
ENDROOT
BRANCH   1   2
ATOM      2  O   UNL A   1      30.517  29.452  23.917  1.00  0.00    -0.374 OA
BRANCH   2   3
ATOM      3  C   UNL A   1      30.986  28.832  22.726  1.00  0.00     0.202 C 
BRANCH   3   4
ATOM      4  C   UNL A   1      32.288  28.029  22.770  1.00  0.00     0.261 C 
BRANCH   4   5
ATOM      5  O   UNL A   1      32.091  26.610  22.842  1.00  0.00    -0.462 OA
BRANCH   5   6
ATOM      6  C   UNL A   1      33.242  25.900  22.751  1.00  0.00     0.329 C 
ATOM      7  O   UNL A   1      33.842  25.722  21.689  1.00  0.00    -0.250 OA
BRANCH   6   8
ATOM      8  C   UNL A   1      33.832  25.470  24.114  1.00  0.00     0.203 C 
BRANCH   8   9
ATOM      9  C   UNL A   1      33.230  25.883  25.464  1.00  0.00     0.034 C 
ATOM     10  C   UNL A   1      33.747  27.141  26.134  1.00  0.00     0.007 C 
ENDBRANCH   8   9
BRANCH   8  11
ATOM     11  N   UNL A   1      33.863  24.009  23.991  1.00  0.00    -0.260 N 
ATOM     12  C   UNL A   1      35.028  23.311  24.152  1.00  0.00     0.262 C 
ATOM     13  C   UNL A   1      32.785  23.180  23.871  1.00  0.00     0.262 C 
ATOM     14  O   UNL A   1      36.177  23.715  24.153  1.00  0.00    -0.269 OA
ATOM     15  C   UNL A   1      34.645  21.928  24.365  1.00  0.00     0.053 A 
ATOM     16  C   UNL A   1      33.296  21.819  24.075  1.00  0.00     0.060 A 
ATOM     17  O   UNL A   1      31.619  23.452  23.675  1.00  0.00    -0.269 OA
ATOM     18  C   UNL A   1      35.405  20.871  24.821  1.00  0.00     0.022 A 
ATOM     19  C   UNL A   1      32.660  20.593  24.067  1.00  0.00     0.100 A 
ATOM     20  C   UNL A   1      34.784  19.624  24.868  1.00  0.00     0.086 A 
ATOM     21  C   UNL A   1      33.441  19.483  24.437  1.00  0.00     0.270 A 
BRANCH  21  22
ATOM     22  N   UNL A   1      32.874  18.136  24.329  1.00  0.00     0.062 N 
ATOM     23  O   UNL A   1      33.376  17.366  23.499  1.00  0.00    -0.258 OA
ATOM     24  O   UNL A   1      31.906  17.864  25.051  1.00  0.00    -0.258 OA
ENDBRANCH  21  22
ENDBRANCH   8  11
ENDBRANCH   6   8
ENDBRANCH   5   6
ENDBRANCH   4   5
ENDBRANCH   3   4
ENDBRANCH   2   3
ENDBRANCH   1   2
BRANCH   1  25
ATOM     25  C   UNL A   1      31.484  30.852  25.820  1.00  0.00     0.261 C 
BRANCH  25  26
ATOM     26  O   UNL A   1      32.286  30.759  27.006  1.00  0.00    -0.460 OA
BRANCH  26  27
ATOM     27  C   UNL A   1      32.955  31.902  27.308  1.00  0.00     0.338 C 
ATOM     28  O   UNL A   1      32.485  33.024  27.393  1.00  0.00    -0.246 OA
BRANCH  27  29
ATOM     29  C   UNL A   1      34.332  31.586  27.724  1.00  0.00     0.060 A 
ATOM     30  C   UNL A   1      34.659  30.239  27.929  1.00  0.00     0.016 A 
ATOM     31  C   UNL A   1      35.252  32.595  28.005  1.00  0.00     0.016 A 
ATOM     32  C   UNL A   1      35.895  29.898  28.470  1.00  0.00     0.010 A 
ATOM     33  C   UNL A   1      36.490  32.251  28.555  1.00  0.00     0.010 A 
ATOM     34  C   UNL A   1      36.802  30.905  28.825  1.00  0.00    -0.014 A 
BRANCH  34  35
ATOM     35  C   UNL A   1      38.011  30.558  29.611  1.00  0.00     0.031 A 
ATOM     36  C   UNL A   1      39.035  29.639  29.005  1.00  0.00     0.074 A 
ATOM     37  C   UNL A   1      38.202  31.079  30.835  1.00  0.00     0.049 A 
ATOM     38  N   UNL A   1      40.129  29.152  29.531  1.00  0.00    -0.248 NA
ATOM     39  C   UNL A   1      38.786  29.204  27.622  1.00  0.00     0.031 C 
ATOM     40  C   UNL A   1      37.302  32.022  31.499  1.00  0.00     0.029 A 
ATOM     41  N   UNL A   1      39.213  30.885  31.741  1.00  0.00    -0.354 N 
ATOM     42  C   UNL A   1      40.694  28.345  28.549  1.00  0.00     0.074 A 
ATOM     43  C   UNL A   1      39.799  28.378  27.412  1.00  0.00     0.031 C 
ATOM     44  C   UNL A   1      37.799  32.317  32.711  1.00  0.00     0.029 A 
ATOM     45  C   UNL A   1      39.023  31.549  32.930  1.00  0.00     0.049 A 
ATOM     46  H   UNL A   1      40.001  30.323  31.558  1.00  0.00     0.167 HD
ATOM     47  C   UNL A   1      41.857  27.647  28.594  1.00  0.00     0.034 A 
ATOM     48  C   UNL A   1      39.735  31.513  34.074  1.00  0.00     0.034 A 
ATOM     49  C   UNL A   1      42.730  27.622  29.743  1.00  0.00     0.049 A 
ATOM     50  C   UNL A   1      40.977  30.656  34.133  1.00  0.00     0.074 A 
ATOM     51  C   UNL A   1      43.941  26.968  29.891  1.00  0.00     0.029 A 
ATOM     52  N   UNL A   1      42.481  28.269  30.948  1.00  0.00    -0.354 N 
ATOM     53  N   UNL A   1      41.506  29.900  33.198  1.00  0.00    -0.248 NA
ATOM     54  C   UNL A   1      41.721  30.653  35.399  1.00  0.00     0.031 C 
ATOM     55  C   UNL A   1      44.376  27.143  31.209  1.00  0.00     0.029 A 
ATOM     56  C   UNL A   1      43.492  27.992  31.856  1.00  0.00     0.049 A 
ATOM     57  H   UNL A   1      41.700  28.840  31.131  1.00  0.00     0.167 HD
ATOM     58  C   UNL A   1      42.666  29.363  33.755  1.00  0.00     0.074 A 
ATOM     59  C   UNL A   1      42.761  29.891  35.099  1.00  0.00     0.031 C 
ATOM     60  C   UNL A   1      43.573  28.517  33.200  1.00  0.00     0.034 A 
BRANCH  47  61
ATOM     61  C   UNL A   1      42.216  26.809  27.389  1.00  0.00     0.023 A 
ATOM     62  C   UNL A   1      41.930  25.434  27.325  1.00  0.00     0.031 A 
ATOM     63  C   UNL A   1      42.875  27.393  26.292  1.00  0.00     0.131 A 
ATOM     64  C   UNL A   1      42.365  24.679  26.225  1.00  0.00     0.055 A 
ATOM     65  C   UNL A   1      43.228  26.653  25.163  1.00  0.00     0.041 A 
ATOM     66  F   UNL A   1      43.199  28.696  26.305  1.00  0.00    -0.206 F 
ATOM     67  C   UNL A   1      42.987  25.283  25.131  1.00  0.00     0.022 A 
BRANCH  64  68
ATOM     68  S   UNL A   1      42.246  22.870  26.314  1.00  0.00     0.124 S 
ATOM     69  O   UNL A   1      43.172  22.566  27.402  1.00  0.00    -0.237 OA
ATOM     70  O   UNL A   1      40.832  22.661  26.600  1.00  0.00    -0.237 OA
ATOM     71  O   UNL A   1      42.687  22.433  24.991  1.00  0.00    -0.744 OA
ENDBRANCH  64  68
ENDBRANCH  47  61
BRANCH  48  72
ATOM     72  C   UNL A   1      39.276  32.275  35.271  1.00  0.00     0.023 A 
ATOM     73  C   UNL A   1      39.690  33.597  35.494  1.00  0.00     0.031 A 
ATOM     74  C   UNL A   1      38.453  31.670  36.239  1.00  0.00     0.131 A 
ATOM     75  C   UNL A   1      39.319  34.254  36.679  1.00  0.00     0.055 A 
ATOM     76  C   UNL A   1      38.036  32.350  37.384  1.00  0.00     0.041 A 
ATOM     77  F   UNL A   1      38.031  30.405  36.078  1.00  0.00    -0.206 F 
ATOM     78  C   UNL A   1      38.482  33.646  37.616  1.00  0.00     0.022 A 
BRANCH  75  79
ATOM     79  S   UNL A   1      40.032  35.887  37.023  1.00  0.00     0.124 S 
ATOM     80  O   UNL A   1      41.442  35.562  37.201  1.00  0.00    -0.237 OA
ATOM     81  O   UNL A   1      39.691  36.627  35.812  1.00  0.00    -0.237 OA
ATOM     82  O   UNL A   1      39.331  36.315  38.231  1.00  0.00    -0.744 OA
ENDBRANCH  75  79
ENDBRANCH  48  72
BRANCH  60  83
ATOM     83  C   UNL A   1      44.781  28.155  34.034  1.00  0.00     0.023 A 
ATOM     84  C   UNL A   1      44.848  26.960  34.771  1.00  0.00     0.031 A 
ATOM     85  C   UNL A   1      45.884  29.028  34.091  1.00  0.00     0.131 A 
ATOM     86  C   UNL A   1      45.966  26.700  35.580  1.00  0.00     0.055 A 
ATOM     87  C   UNL A   1      47.022  28.729  34.839  1.00  0.00     0.041 A 
ATOM     88  F   UNL A   1      45.874  30.186  33.412  1.00  0.00    -0.206 F 
ATOM     89  C   UNL A   1      47.062  27.566  35.601  1.00  0.00     0.022 A 
BRANCH  86  90
ATOM     90  S   UNL A   1      45.925  25.263  36.687  1.00  0.00     0.124 S 
ATOM     91  O   UNL A   1      47.101  25.491  37.520  1.00  0.00    -0.237 OA
ATOM     92  O   UNL A   1      44.634  25.416  37.350  1.00  0.00    -0.237 OA
ATOM     93  O   UNL A   1      46.021  24.124  35.776  1.00  0.00    -0.744 OA
ENDBRANCH  86  90
ENDBRANCH  60  83
ENDBRANCH  34  35
ENDBRANCH  27  29
ENDBRANCH  26  27
ENDBRANCH  25  26
ENDBRANCH   1  25
TORSDOF 20
ENDMDL
MODEL 2
REMARK VINA RESULT:     -11.3      4.904     10.463
REMARK SMILES CC[C@H](C(=O)OCCOCCOC(=O)c1ccc(-c2c3nc(c(-c4cc(S(=O)(=O)[O-])ccc4F)c4ccc([nH]4)c(-c4cc(S(=O)(=O)[O-])ccc4F)c4nc(c(-c5cc(S(=O)(=O)[O-])ccc5F)c5ccc2[nH]5)C=C4)C=C3)cc1)N1C(=O)c2ccc([N+](=O)[O-])cc2C1=O
REMARK SMILES IDX 10 1 9 2 8 3 7 4 6 5 4 6 5 7 3 8 2 9 1 10 78 11 79 12 90 13
REMARK SMILES IDX 80 14 81 15 89 16 91 17 82 18 88 19 83 20 84 21 85 22 86 23
REMARK SMILES IDX 87 24 11 25 12 26 13 27 14 28 15 29 16 30 77 31 17 32 76 33
REMARK SMILES IDX 18 34 19 35 20 36 70 37 21 38 75 39 69 40 71 41 22 42 74 43
REMARK SMILES IDX 68 44 67 45 23 47 55 48 35 49 54 50 36 51 39 52 53 53 72 54
REMARK SMILES IDX 37 55 38 56 52 58 73 59 40 60 24 61 25 62 33 63 26 64 32 65
REMARK SMILES IDX 34 66 31 67 27 68 28 69 29 70 30 71 56 72 57 73 65 74 58 75
REMARK SMILES IDX 64 76 66 77 63 78 59 79 60 80 61 81 62 82 41 83 42 84 50 85
REMARK SMILES IDX 43 86 49 87 51 88 48 89 44 90 45 91 46 92 47 93
REMARK H PARENT 71 46 39 57
REMARK Flexibility Score: inf
ROOT
ATOM      1  C   UNL A   1      36.566  22.372  24.161  1.00  0.00     0.202 C 
ENDROOT
BRANCH   1   2
ATOM      2  O   UNL A   1      35.381  22.103  23.418  1.00  0.00    -0.374 OA
BRANCH   2   3
ATOM      3  C   UNL A   1      34.116  22.420  23.987  1.00  0.00     0.202 C 
BRANCH   3   4
ATOM      4  C   UNL A   1      33.535  23.819  23.773  1.00  0.00     0.261 C 
BRANCH   4   5
ATOM      5  O   UNL A   1      34.136  24.537  22.687  1.00  0.00    -0.462 OA
BRANCH   5   6
ATOM      6  C   UNL A   1      33.586  25.756  22.474  1.00  0.00     0.329 C 
ATOM      7  O   UNL A   1      33.448  26.248  21.352  1.00  0.00    -0.250 OA
BRANCH   6   8
ATOM      8  C   UNL A   1      32.990  26.413  23.741  1.00  0.00     0.203 C 
BRANCH   8   9
ATOM      9  C   UNL A   1      33.807  27.279  24.709  1.00  0.00     0.034 C 
ATOM     10  C   UNL A   1      33.210  27.617  26.060  1.00  0.00     0.007 C 
ENDBRANCH   8   9
BRANCH   8  11
ATOM     11  N   UNL A   1      31.866  27.179  23.192  1.00  0.00    -0.260 N 
ATOM     12  C   UNL A   1      30.583  26.712  23.280  1.00  0.00     0.262 C 
ATOM     13  C   UNL A   1      31.912  28.452  22.699  1.00  0.00     0.262 C 
ATOM     14  O   UNL A   1      30.185  25.592  23.542  1.00  0.00    -0.269 OA
ATOM     15  C   UNL A   1      29.720  27.849  23.021  1.00  0.00     0.053 A 
ATOM     16  C   UNL A   1      30.516  28.879  22.548  1.00  0.00     0.060 A 
ATOM     17  O   UNL A   1      32.873  29.150  22.451  1.00  0.00    -0.269 OA
ATOM     18  C   UNL A   1      28.363  27.982  23.231  1.00  0.00     0.022 A 
ATOM     19  C   UNL A   1      29.966  30.063  22.097  1.00  0.00     0.100 A 
ATOM     20  C   UNL A   1      27.779  29.181  22.827  1.00  0.00     0.086 A 
ATOM     21  C   UNL A   1      28.569  30.185  22.211  1.00  0.00     0.270 A 
BRANCH  21  22
ATOM     22  N   UNL A   1      27.899  31.355  21.637  1.00  0.00     0.062 N 
ATOM     23  O   UNL A   1      27.593  31.312  20.438  1.00  0.00    -0.258 OA
ATOM     24  O   UNL A   1      27.712  32.327  22.380  1.00  0.00    -0.258 OA
ENDBRANCH  21  22
ENDBRANCH   8  11
ENDBRANCH   6   8
ENDBRANCH   5   6
ENDBRANCH   4   5
ENDBRANCH   3   4
ENDBRANCH   2   3
ENDBRANCH   1   2
BRANCH   1  25
ATOM     25  C   UNL A   1      37.403  21.201  24.687  1.00  0.00     0.261 C 
BRANCH  25  26
ATOM     26  O   UNL A   1      37.822  21.364  26.050  1.00  0.00    -0.460 OA
BRANCH  26  27
ATOM     27  C   UNL A   1      39.164  21.260  26.228  1.00  0.00     0.338 C 
ATOM     28  O   UNL A   1      39.886  20.359  25.838  1.00  0.00    -0.246 OA
BRANCH  27  29
ATOM     29  C   UNL A   1      39.694  22.508  26.805  1.00  0.00     0.060 A 
ATOM     30  C   UNL A   1      39.167  23.719  26.337  1.00  0.00     0.016 A 
ATOM     31  C   UNL A   1      40.756  22.493  27.709  1.00  0.00     0.016 A 
ATOM     32  C   UNL A   1      39.737  24.925  26.734  1.00  0.00     0.010 A 
ATOM     33  C   UNL A   1      41.332  23.705  28.099  1.00  0.00     0.010 A 
ATOM     34  C   UNL A   1      40.850  24.923  27.584  1.00  0.00    -0.014 A 
BRANCH  34  35
ATOM     35  C   UNL A   1      41.597  26.184  27.816  1.00  0.00     0.031 A 
ATOM     36  C   UNL A   1      40.937  27.289  28.593  1.00  0.00     0.074 A 
ATOM     37  C   UNL A   1      42.854  26.325  27.362  1.00  0.00     0.049 A 
ATOM     38  N   UNL A   1      41.374  28.493  28.860  1.00  0.00    -0.248 NA
ATOM     39  C   UNL A   1      39.601  26.999  29.136  1.00  0.00     0.031 C 
ATOM     40  C   UNL A   1      43.611  25.301  26.643  1.00  0.00     0.029 A 
ATOM     41  N   UNL A   1      43.715  27.391  27.433  1.00  0.00    -0.354 N 
ATOM     42  C   UNL A   1      40.364  29.109  29.591  1.00  0.00     0.074 A 
ATOM     43  C   UNL A   1      39.278  28.158  29.690  1.00  0.00     0.031 C 
ATOM     44  C   UNL A   1      44.822  25.791  26.332  1.00  0.00     0.029 A 
ATOM     45  C   UNL A   1      44.909  27.179  26.785  1.00  0.00     0.049 A 
ATOM     46  H   UNL A   1      43.499  28.228  27.904  1.00  0.00     0.167 HD
ATOM     47  C   UNL A   1      40.351  30.353  30.133  1.00  0.00     0.034 A 
ATOM     48  C   UNL A   1      45.938  28.018  26.553  1.00  0.00     0.034 A 
ATOM     49  C   UNL A   1      41.444  31.288  30.014  1.00  0.00     0.049 A 
ATOM     50  C   UNL A   1      45.863  29.428  27.086  1.00  0.00     0.074 A 
ATOM     51  C   UNL A   1      41.547  32.564  30.541  1.00  0.00     0.029 A 
ATOM     52  N   UNL A   1      42.619  31.056  29.308  1.00  0.00    -0.354 N 
ATOM     53  N   UNL A   1      44.905  30.001  27.781  1.00  0.00    -0.248 NA
ATOM     54  C   UNL A   1      47.009  30.304  26.812  1.00  0.00     0.031 C 
ATOM     55  C   UNL A   1      42.738  33.134  30.079  1.00  0.00     0.029 A 
ATOM     56  C   UNL A   1      43.430  32.179  29.349  1.00  0.00     0.049 A 
ATOM     57  H   UNL A   1      42.843  30.216  28.846  1.00  0.00     0.167 HD
ATOM     58  C   UNL A   1      45.355  31.292  28.057  1.00  0.00     0.074 A 
ATOM     59  C   UNL A   1      46.670  31.406  27.463  1.00  0.00     0.031 C 
ATOM     60  C   UNL A   1      44.738  32.287  28.745  1.00  0.00     0.034 A 
BRANCH  47  61
ATOM     61  C   UNL A   1      39.095  30.788  30.849  1.00  0.00     0.023 A 
ATOM     62  C   UNL A   1      38.082  31.518  30.201  1.00  0.00     0.031 A 
ATOM     63  C   UNL A   1      38.916  30.487  32.212  1.00  0.00     0.131 A 
ATOM     64  C   UNL A   1      36.976  31.981  30.932  1.00  0.00     0.055 A 
ATOM     65  C   UNL A   1      37.772  30.876  32.911  1.00  0.00     0.041 A 
ATOM     66  F   UNL A   1      39.859  29.816  32.892  1.00  0.00    -0.206 F 
ATOM     67  C   UNL A   1      36.800  31.641  32.274  1.00  0.00     0.022 A 
BRANCH  64  68
ATOM     68  S   UNL A   1      35.850  33.164  30.141  1.00  0.00     0.124 S 
ATOM     69  O   UNL A   1      36.646  33.614  29.002  1.00  0.00    -0.237 OA
ATOM     70  O   UNL A   1      34.692  32.335  29.825  1.00  0.00    -0.237 OA
ATOM     71  O   UNL A   1      35.631  34.172  31.176  1.00  0.00    -0.744 OA
ENDBRANCH  64  68
ENDBRANCH  47  61
BRANCH  48  72
ATOM     72  C   UNL A   1      47.109  27.570  25.745  1.00  0.00     0.023 A 
ATOM     73  C   UNL A   1      47.237  27.920  24.393  1.00  0.00     0.031 A 
ATOM     74  C   UNL A   1      48.096  26.738  26.307  1.00  0.00     0.131 A 
ATOM     75  C   UNL A   1      48.300  27.402  23.635  1.00  0.00     0.055 A 
ATOM     76  C   UNL A   1      49.184  26.277  25.565  1.00  0.00     0.041 A 
ATOM     77  F   UNL A   1      48.020  26.368  27.596  1.00  0.00    -0.206 F 
ATOM     78  C   UNL A   1      49.283  26.598  24.215  1.00  0.00     0.022 A 
BRANCH  75  79
ATOM     79  S   UNL A   1      48.324  27.718  21.849  1.00  0.00     0.124 S 
ATOM     80  O   UNL A   1      47.015  28.325  21.639  1.00  0.00    -0.237 OA
ATOM     81  O   UNL A   1      49.474  28.606  21.714  1.00  0.00    -0.237 OA
ATOM     82  O   UNL A   1      48.496  26.386  21.272  1.00  0.00    -0.744 OA
ENDBRANCH  75  79
ENDBRANCH  48  72
BRANCH  60  83
ATOM     83  C   UNL A   1      45.509  33.573  28.941  1.00  0.00     0.023 A 
ATOM     84  C   UNL A   1      45.302  34.699  28.127  1.00  0.00     0.031 A 
ATOM     85  C   UNL A   1      46.473  33.666  29.963  1.00  0.00     0.131 A 
ATOM     86  C   UNL A   1      46.087  35.848  28.309  1.00  0.00     0.055 A 
ATOM     87  C   UNL A   1      47.200  34.836  30.185  1.00  0.00     0.041 A 
ATOM     88  F   UNL A   1      46.719  32.621  30.768  1.00  0.00    -0.206 F 
ATOM     89  C   UNL A   1      47.020  35.931  29.347  1.00  0.00     0.022 A 
BRANCH  86  90
ATOM     90  S   UNL A   1      45.950  37.198  27.106  1.00  0.00     0.124 S 
ATOM     91  O   UNL A   1      44.509  37.261  26.884  1.00  0.00    -0.237 OA
ATOM     92  O   UNL A   1      46.533  38.323  27.830  1.00  0.00    -0.237 OA
ATOM     93  O   UNL A   1      46.733  36.725  25.966  1.00  0.00    -0.744 OA
ENDBRANCH  86  90
ENDBRANCH  60  83
ENDBRANCH  34  35
ENDBRANCH  27  29
ENDBRANCH  26  27
ENDBRANCH  25  26
ENDBRANCH   1  25
TORSDOF 20
ENDMDL
MODEL 3
REMARK VINA RESULT:     -11.3      2.347      4.600
REMARK SMILES CC[C@H](C(=O)OCCOCCOC(=O)c1ccc(-c2c3nc(c(-c4cc(S(=O)(=O)[O-])ccc4F)c4ccc([nH]4)c(-c4cc(S(=O)(=O)[O-])ccc4F)c4nc(c(-c5cc(S(=O)(=O)[O-])ccc5F)c5ccc2[nH]5)C=C4)C=C3)cc1)N1C(=O)c2ccc([N+](=O)[O-])cc2C1=O
REMARK SMILES IDX 10 1 9 2 8 3 7 4 6 5 4 6 5 7 3 8 2 9 1 10 78 11 79 12 90 13
REMARK SMILES IDX 80 14 81 15 89 16 91 17 82 18 88 19 83 20 84 21 85 22 86 23
REMARK SMILES IDX 87 24 11 25 12 26 13 27 14 28 15 29 16 30 77 31 17 32 76 33
REMARK SMILES IDX 18 34 19 35 20 36 70 37 21 38 75 39 69 40 71 41 22 42 74 43
REMARK SMILES IDX 68 44 67 45 23 47 55 48 35 49 54 50 36 51 39 52 53 53 72 54
REMARK SMILES IDX 37 55 38 56 52 58 73 59 40 60 24 61 25 62 33 63 26 64 32 65
REMARK SMILES IDX 34 66 31 67 27 68 28 69 29 70 30 71 56 72 57 73 65 74 58 75
REMARK SMILES IDX 64 76 66 77 63 78 59 79 60 80 61 81 62 82 41 83 42 84 50 85
REMARK SMILES IDX 43 86 49 87 51 88 48 89 44 90 45 91 46 92 47 93
REMARK H PARENT 71 46 39 57
REMARK Flexibility Score: inf
ROOT
ATOM      1  C   UNL A   1      31.512  30.621  25.753  1.00  0.00     0.202 C 
ENDROOT
BRANCH   1   2
ATOM      2  O   UNL A   1      32.699  29.838  25.846  1.00  0.00    -0.374 OA
BRANCH   2   3
ATOM      3  C   UNL A   1      32.760  28.777  26.791  1.00  0.00     0.202 C 
BRANCH   3   4
ATOM      4  C   UNL A   1      32.299  27.379  26.371  1.00  0.00     0.261 C 
BRANCH   4   5
ATOM      5  O   UNL A   1      30.877  27.257  26.231  1.00  0.00    -0.462 OA
BRANCH   5   6
ATOM      6  C   UNL A   1      30.486  26.071  25.706  1.00  0.00     0.329 C 
ATOM      7  O   UNL A   1      29.751  25.279  26.301  1.00  0.00    -0.250 OA
BRANCH   6   8
ATOM      8  C   UNL A   1      30.900  25.863  24.231  1.00  0.00     0.203 C 
BRANCH   8   9
ATOM      9  C   UNL A   1      30.683  24.548  23.469  1.00  0.00     0.034 C 
ATOM     10  C   UNL A   1      31.847  23.957  22.698  1.00  0.00     0.007 C 
ENDBRANCH   8   9
BRANCH   8  11
ATOM     11  N   UNL A   1      30.208  26.966  23.557  1.00  0.00    -0.260 N 
ATOM     12  C   UNL A   1      28.844  27.069  23.587  1.00  0.00     0.262 C 
ATOM     13  C   UNL A   1      30.789  28.061  22.984  1.00  0.00     0.262 C 
ATOM     14  O   UNL A   1      28.014  26.234  23.895  1.00  0.00    -0.269 OA
ATOM     15  C   UNL A   1      28.532  28.430  23.195  1.00  0.00     0.053 A 
ATOM     16  C   UNL A   1      29.696  29.003  22.710  1.00  0.00     0.060 A 
ATOM     17  O   UNL A   1      31.959  28.286  22.758  1.00  0.00    -0.269 OA
ATOM     18  C   UNL A   1      27.341  29.119  23.301  1.00  0.00     0.022 A 
ATOM     19  C   UNL A   1      29.695  30.262  22.145  1.00  0.00     0.100 A 
ATOM     20  C   UNL A   1      27.314  30.411  22.779  1.00  0.00     0.086 A 
ATOM     21  C   UNL A   1      28.467  30.950  22.154  1.00  0.00     0.270 A 
BRANCH  21  22
ATOM     22  N   UNL A   1      28.356  32.235  21.459  1.00  0.00     0.062 N 
ATOM     23  O   UNL A   1      28.271  33.258  22.152  1.00  0.00    -0.258 OA
ATOM     24  O   UNL A   1      28.319  32.214  20.222  1.00  0.00    -0.258 OA
ENDBRANCH  21  22
ENDBRANCH   8  11
ENDBRANCH   6   8
ENDBRANCH   5   6
ENDBRANCH   4   5
ENDBRANCH   3   4
ENDBRANCH   2   3
ENDBRANCH   1   2
BRANCH   1  25
ATOM     25  C   UNL A   1      31.494  32.028  26.361  1.00  0.00     0.261 C 
BRANCH  25  26
ATOM     26  O   UNL A   1      32.209  32.124  27.602  1.00  0.00    -0.460 OA
BRANCH  26  27
ATOM     27  C   UNL A   1      33.159  33.095  27.614  1.00  0.00     0.338 C 
ATOM     28  O   UNL A   1      32.983  34.292  27.467  1.00  0.00    -0.246 OA
BRANCH  27  29
ATOM     29  C   UNL A   1      34.453  32.529  28.031  1.00  0.00     0.060 A 
ATOM     30  C   UNL A   1      34.469  31.204  28.489  1.00  0.00     0.016 A 
ATOM     31  C   UNL A   1      35.607  33.311  28.069  1.00  0.00     0.016 A 
ATOM     32  C   UNL A   1      35.632  30.673  29.038  1.00  0.00     0.010 A 
ATOM     33  C   UNL A   1      36.771  32.778  28.629  1.00  0.00     0.010 A 
ATOM     34  C   UNL A   1      36.778  31.470  29.150  1.00  0.00    -0.014 A 
BRANCH  34  35
ATOM     35  C   UNL A   1      37.934  30.985  29.942  1.00  0.00     0.031 A 
ATOM     36  C   UNL A   1      38.851  29.958  29.338  1.00  0.00     0.074 A 
ATOM     37  C   UNL A   1      38.174  31.475  31.170  1.00  0.00     0.049 A 
ATOM     38  N   UNL A   1      39.879  29.347  29.869  1.00  0.00    -0.248 NA
ATOM     39  C   UNL A   1      38.565  29.560  27.951  1.00  0.00     0.031 C 
ATOM     40  C   UNL A   1      37.382  32.511  31.834  1.00  0.00     0.029 A 
ATOM     41  N   UNL A   1      39.150  31.163  32.082  1.00  0.00    -0.354 N 
ATOM     42  C   UNL A   1      40.356  28.485  28.887  1.00  0.00     0.074 A 
ATOM     43  C   UNL A   1      39.479  28.625  27.744  1.00  0.00     0.031 C 
ATOM     44  C   UNL A   1      37.900  32.743  33.051  1.00  0.00     0.029 A 
ATOM     45  C   UNL A   1      39.027  31.839  33.273  1.00  0.00     0.049 A 
ATOM     46  H   UNL A   1      39.870  30.516  31.901  1.00  0.00     0.167 HD
ATOM     47  C   UNL A   1      41.432  27.660  28.936  1.00  0.00     0.034 A 
ATOM     48  C   UNL A   1      39.723  31.717  34.422  1.00  0.00     0.034 A 
ATOM     49  C   UNL A   1      42.288  27.531  30.091  1.00  0.00     0.049 A 
ATOM     50  C   UNL A   1      40.858  30.724  34.485  1.00  0.00     0.074 A 
ATOM     51  C   UNL A   1      43.415  26.743  30.243  1.00  0.00     0.029 A 
ATOM     52  N   UNL A   1      42.105  28.196  31.297  1.00  0.00    -0.354 N 
ATOM     53  N   UNL A   1      41.306  29.918  33.549  1.00  0.00    -0.248 NA
ATOM     54  C   UNL A   1      41.588  30.631  35.756  1.00  0.00     0.031 C 
ATOM     55  C   UNL A   1      43.858  26.861  31.564  1.00  0.00     0.029 A 
ATOM     56  C   UNL A   1      43.071  27.803  32.211  1.00  0.00     0.049 A 
ATOM     57  H   UNL A   1      41.393  28.852  31.478  1.00  0.00     0.167 HD
ATOM     58  C   UNL A   1      42.393  29.249  34.111  1.00  0.00     0.074 A 
ATOM     59  C   UNL A   1      42.537  29.757  35.459  1.00  0.00     0.031 C 
ATOM     60  C   UNL A   1      43.202  28.308  33.558  1.00  0.00     0.034 A 
BRANCH  47  61
ATOM     61  C   UNL A   1      41.702  26.793  27.729  1.00  0.00     0.023 A 
ATOM     62  C   UNL A   1      41.359  25.429  27.699  1.00  0.00     0.031 A 
ATOM     63  C   UNL A   1      42.334  27.334  26.595  1.00  0.00     0.131 A 
ATOM     64  C   UNL A   1      41.714  24.642  26.591  1.00  0.00     0.055 A 
ATOM     65  C   UNL A   1      42.605  26.566  25.462  1.00  0.00     0.041 A 
ATOM     66  F   UNL A   1      42.710  28.623  26.573  1.00  0.00    -0.206 F 
ATOM     67  C   UNL A   1      42.308  25.207  25.462  1.00  0.00     0.022 A 
BRANCH  64  68
ATOM     68  S   UNL A   1      41.527  22.842  26.713  1.00  0.00     0.124 S 
ATOM     69  O   UNL A   1      40.146  22.657  26.272  1.00  0.00    -0.237 OA
ATOM     70  O   UNL A   1      42.558  22.355  25.803  1.00  0.00    -0.237 OA
ATOM     71  O   UNL A   1      41.764  22.568  28.128  1.00  0.00    -0.744 OA
ENDBRANCH  64  68
ENDBRANCH  47  61
BRANCH  48  72
ATOM     72  C   UNL A   1      39.345  32.521  35.620  1.00  0.00     0.023 A 
ATOM     73  C   UNL A   1      39.751  33.857  35.757  1.00  0.00     0.031 A 
ATOM     74  C   UNL A   1      38.610  31.944  36.673  1.00  0.00     0.131 A 
ATOM     75  C   UNL A   1      39.462  34.557  36.940  1.00  0.00     0.055 A 
ATOM     76  C   UNL A   1      38.272  32.664  37.819  1.00  0.00     0.041 A 
ATOM     77  F   UNL A   1      38.200  30.668  36.596  1.00  0.00    -0.206 F 
ATOM     78  C   UNL A   1      38.711  33.976  37.964  1.00  0.00     0.022 A 
BRANCH  75  79
ATOM     79  S   UNL A   1      40.170  36.212  37.162  1.00  0.00     0.124 S 
ATOM     80  O   UNL A   1      39.836  36.848  35.892  1.00  0.00    -0.237 OA
ATOM     81  O   UNL A   1      39.446  36.696  38.333  1.00  0.00    -0.237 OA
ATOM     82  O   UNL A   1      41.590  35.947  37.375  1.00  0.00    -0.744 OA
ENDBRANCH  75  79
ENDBRANCH  48  72
BRANCH  60  83
ATOM     83  C   UNL A   1      44.354  27.807  34.398  1.00  0.00     0.023 A 
ATOM     84  C   UNL A   1      44.249  26.660  35.202  1.00  0.00     0.031 A 
ATOM     85  C   UNL A   1      45.581  28.498  34.392  1.00  0.00     0.131 A 
ATOM     86  C   UNL A   1      45.328  26.272  36.012  1.00  0.00     0.055 A 
ATOM     87  C   UNL A   1      46.674  28.066  35.144  1.00  0.00     0.041 A 
ATOM     88  F   UNL A   1      45.740  29.604  33.647  1.00  0.00    -0.206 F 
ATOM     89  C   UNL A   1      46.546  26.955  35.972  1.00  0.00     0.022 A 
BRANCH  86  90
ATOM     90  S   UNL A   1      45.085  24.923  37.200  1.00  0.00     0.124 S 
ATOM     91  O   UNL A   1      44.071  25.481  38.089  1.00  0.00    -0.237 OA
ATOM     92  O   UNL A   1      44.648  23.826  36.343  1.00  0.00    -0.237 OA
ATOM     93  O   UNL A   1      46.407  24.750  37.800  1.00  0.00    -0.744 OA
ENDBRANCH  86  90
ENDBRANCH  60  83
ENDBRANCH  34  35
ENDBRANCH  27  29
ENDBRANCH  26  27
ENDBRANCH  25  26
ENDBRANCH   1  25
TORSDOF 20
ENDMDL
