MODEL 1
REMARK VINA RESULT:     -12.4      0.000      0.000
REMARK SMILES C[C@@H](C(=O)OCCOCCOC(=O)c1ccc(-c2c3nc(c(-c4cc(S(=O)(=O)[O-])ccc4F)c4ccc([nH]4)c(-c4cc(S(=O)(=O)[O-])ccc4F)c4nc(c(-c5cc(S(=O)(=O)[O-])ccc5F)c5ccc2[nH]5)C=C4)C=C3)cc1)[N@@H+]1CCc2n[nH]c(C(c3ccccc3)c3ccccc3)c2C1
REMARK SMILES IDX 8 1 7 2 6 3 5 4 3 5 4 6 2 7 1 8 77 9 78 10 98 11 79 13 97 14
REMARK SMILES IDX 80 15 83 16 81 17 82 18 84 20 85 21 86 22 90 23 87 24 89 25
REMARK SMILES IDX 88 26 91 27 92 28 96 29 93 30 95 31 94 32 9 33 10 34 11 35
REMARK SMILES IDX 12 36 13 37 14 38 15 39 76 40 16 41 75 42 17 43 18 44 19 45
REMARK SMILES IDX 69 46 20 47 74 48 68 49 70 50 21 51 73 52 67 53 66 54 22 56
REMARK SMILES IDX 54 57 34 58 53 59 35 60 38 61 52 62 71 63 36 64 37 65 51 67
REMARK SMILES IDX 72 68 39 69 23 70 24 71 32 72 25 73 31 74 33 75 30 76 26 77
REMARK SMILES IDX 27 78 28 79 29 80 55 81 56 82 64 83 57 84 63 85 65 86 62 87
REMARK SMILES IDX 58 88 59 89 60 90 61 91 40 92 41 93 49 94 42 95 48 96 50 97
REMARK SMILES IDX 47 98 43 99 44 100 45 101 46 102
REMARK H PARENT 77 12 82 19 70 55 38 66
REMARK Flexibility Score: inf
ROOT
ATOM      1  O   UNL A   1      38.003  21.479  25.016  1.00  0.00    -0.374 OA
ENDROOT
BRANCH   1   2
ATOM      2  C   UNL A   1      36.653  21.965  24.896  1.00  0.00     0.202 C 
BRANCH   2   3
ATOM      3  C   UNL A   1      36.159  23.302  25.742  1.00  0.00     0.261 C 
BRANCH   3   4
ATOM      4  O   UNL A   1      34.671  23.396  25.927  1.00  0.00    -0.459 OA
BRANCH   4   5
ATOM      5  C   UNL A   1      33.793  24.336  25.436  1.00  0.00     0.364 C 
ATOM      6  O   UNL A   1      34.168  25.482  25.186  1.00  0.00    -0.245 OA
BRANCH   5   7
ATOM      7  C   UNL A   1      32.215  23.970  25.434  1.00  0.00     0.292 C 
ATOM      8  C   UNL A   1      31.638  23.559  26.803  1.00  0.00     0.088 C 
BRANCH   7   9
ATOM      9  N   UNL A   1      31.765  23.144  24.273  1.00  0.00    -0.319 N 
ATOM     10  C   UNL A   1      32.759  22.434  23.438  1.00  0.00     0.269 C 
ATOM     11  C   UNL A   1      30.938  23.936  23.375  1.00  0.00     0.303 C 
ATOM     12  H   UNL A   1      31.275  22.396  24.763  1.00  0.00     0.349 HD
ATOM     13  C   UNL A   1      33.125  23.141  22.078  1.00  0.00     0.120 C 
ATOM     14  C   UNL A   1      31.741  25.133  22.858  1.00  0.00     0.052 A 
ATOM     15  C   UNL A   1      32.880  24.628  22.167  1.00  0.00     0.077 A 
ATOM     16  C   UNL A   1      31.870  26.569  22.849  1.00  0.00     0.056 A 
ATOM     17  N   UNL A   1      33.681  25.583  21.736  1.00  0.00    -0.180 NA
ATOM     18  N   UNL A   1      33.086  26.706  22.182  1.00  0.00    -0.281 N 
ATOM     19  H   UNL A   1      33.495  27.590  22.044  1.00  0.00     0.190 HD
BRANCH  16  20
ATOM     20  C   UNL A   1      31.241  28.040  23.387  1.00  0.00     0.098 C 
BRANCH  20  21
ATOM     21  C   UNL A   1      29.972  28.762  22.761  1.00  0.00    -0.035 A 
ATOM     22  C   UNL A   1      30.147  29.888  21.941  1.00  0.00     0.005 A 
ATOM     23  C   UNL A   1      28.637  28.603  23.180  1.00  0.00     0.005 A 
ATOM     24  C   UNL A   1      29.068  30.612  21.387  1.00  0.00     0.000 A 
ATOM     25  C   UNL A   1      27.541  29.279  22.614  1.00  0.00     0.000 A 
ATOM     26  C   UNL A   1      27.758  30.266  21.675  1.00  0.00     0.000 A 
ENDBRANCH  20  21
BRANCH  20  27
ATOM     27  C   UNL A   1      31.515  28.470  24.849  1.00  0.00    -0.035 A 
ATOM     28  C   UNL A   1      31.392  27.576  25.938  1.00  0.00     0.005 A 
ATOM     29  C   UNL A   1      31.744  29.815  25.165  1.00  0.00     0.005 A 
ATOM     30  C   UNL A   1      31.572  27.985  27.260  1.00  0.00     0.000 A 
ATOM     31  C   UNL A   1      31.937  30.227  26.489  1.00  0.00     0.000 A 
ATOM     32  C   UNL A   1      31.865  29.311  27.535  1.00  0.00     0.000 A 
ENDBRANCH  20  27
ENDBRANCH  16  20
ENDBRANCH   7   9
ENDBRANCH   5   7
ENDBRANCH   4   5
ENDBRANCH   3   4
ENDBRANCH   2   3
ENDBRANCH   1   2
BRANCH   1  33
ATOM     33  C   UNL A   1      38.173  20.036  25.028  1.00  0.00     0.202 C 
BRANCH  33  34
ATOM     34  C   UNL A   1      39.440  19.329  25.634  1.00  0.00     0.261 C 
BRANCH  34  35
ATOM     35  O   UNL A   1      40.755  19.813  25.246  1.00  0.00    -0.460 OA
BRANCH  35  36
ATOM     36  C   UNL A   1      41.674  19.934  26.258  1.00  0.00     0.338 C 
ATOM     37  O   UNL A   1      42.398  19.043  26.670  1.00  0.00    -0.246 OA
BRANCH  36  38
ATOM     38  C   UNL A   1      41.743  21.310  26.840  1.00  0.00     0.060 A 
ATOM     39  C   UNL A   1      41.696  22.402  25.979  1.00  0.00     0.016 A 
ATOM     40  C   UNL A   1      42.015  21.553  28.195  1.00  0.00     0.016 A 
ATOM     41  C   UNL A   1      41.786  23.718  26.471  1.00  0.00     0.010 A 
ATOM     42  C   UNL A   1      42.115  22.878  28.695  1.00  0.00     0.010 A 
ATOM     43  C   UNL A   1      41.984  23.981  27.833  1.00  0.00    -0.014 A 
BRANCH  43  44
ATOM     44  C   UNL A   1      42.291  25.397  28.223  1.00  0.00     0.031 A 
ATOM     45  C   UNL A   1      43.646  25.943  27.839  1.00  0.00     0.074 A 
ATOM     46  C   UNL A   1      41.369  26.248  28.724  1.00  0.00     0.049 A 
ATOM     47  N   UNL A   1      44.099  27.171  27.886  1.00  0.00    -0.248 NA
ATOM     48  C   UNL A   1      44.599  24.966  27.297  1.00  0.00     0.031 C 
ATOM     49  C   UNL A   1      39.991  25.905  29.066  1.00  0.00     0.029 A 
ATOM     50  N   UNL A   1      41.449  27.600  29.001  1.00  0.00    -0.354 N 
ATOM     51  C   UNL A   1      45.377  27.120  27.340  1.00  0.00     0.074 A 
ATOM     52  C   UNL A   1      45.638  25.734  27.014  1.00  0.00     0.031 C 
ATOM     53  C   UNL A   1      39.354  27.013  29.493  1.00  0.00     0.029 A 
ATOM     54  C   UNL A   1      40.278  28.149  29.484  1.00  0.00     0.049 A 
ATOM     55  H   UNL A   1      42.269  28.126  28.865  1.00  0.00     0.167 HD
ATOM     56  C   UNL A   1      46.255  28.131  27.112  1.00  0.00     0.034 A 
ATOM     57  C   UNL A   1      39.984  29.411  29.880  1.00  0.00     0.034 A 
ATOM     58  C   UNL A   1      46.029  29.504  27.483  1.00  0.00     0.049 A 
ATOM     59  C   UNL A   1      41.039  30.496  29.769  1.00  0.00     0.074 A 
ATOM     60  C   UNL A   1      46.882  30.585  27.341  1.00  0.00     0.029 A 
ATOM     61  N   UNL A   1      44.879  29.988  28.092  1.00  0.00    -0.354 N 
ATOM     62  N   UNL A   1      42.248  30.427  29.259  1.00  0.00    -0.248 NA
ATOM     63  C   UNL A   1      40.687  31.831  30.282  1.00  0.00     0.031 C 
ATOM     64  C   UNL A   1      46.283  31.701  27.936  1.00  0.00     0.029 A 
ATOM     65  C   UNL A   1      45.018  31.341  28.368  1.00  0.00     0.049 A 
ATOM     66  H   UNL A   1      44.080  29.449  28.299  1.00  0.00     0.167 HD
ATOM     67  C   UNL A   1      42.782  31.714  29.362  1.00  0.00     0.074 A 
ATOM     68  C   UNL A   1      41.762  32.541  29.967  1.00  0.00     0.031 C 
ATOM     69  C   UNL A   1      44.004  32.168  28.983  1.00  0.00     0.034 A 
BRANCH  56  70
ATOM     70  C   UNL A   1      47.578  27.750  26.495  1.00  0.00     0.023 A 
ATOM     71  C   UNL A   1      47.785  27.796  25.105  1.00  0.00     0.031 A 
ATOM     72  C   UNL A   1      48.626  27.278  27.303  1.00  0.00     0.131 A 
ATOM     73  C   UNL A   1      48.979  27.303  24.560  1.00  0.00     0.055 A 
ATOM     74  C   UNL A   1      49.844  26.867  26.761  1.00  0.00     0.041 A 
ATOM     75  F   UNL A   1      48.475  27.188  28.634  1.00  0.00    -0.206 F 
ATOM     76  C   UNL A   1      50.019  26.861  25.380  1.00  0.00     0.022 A 
BRANCH  73  77
ATOM     77  S   UNL A   1      49.089  27.090  22.761  1.00  0.00     0.124 S 
ATOM     78  O   UNL A   1      48.406  25.812  22.573  1.00  0.00    -0.237 OA
ATOM     79  O   UNL A   1      48.390  28.268  22.261  1.00  0.00    -0.237 OA
ATOM     80  O   UNL A   1      50.528  27.062  22.508  1.00  0.00    -0.744 OA
ENDBRANCH  73  77
ENDBRANCH  56  70
BRANCH  57  81
ATOM     81  C   UNL A   1      38.655  29.737  30.496  1.00  0.00     0.023 A 
ATOM     82  C   UNL A   1      37.679  30.493  29.819  1.00  0.00     0.031 A 
ATOM     83  C   UNL A   1      38.391  29.383  31.832  1.00  0.00     0.131 A 
ATOM     84  C   UNL A   1      36.516  30.908  30.494  1.00  0.00     0.055 A 
ATOM     85  C   UNL A   1      37.209  29.747  32.479  1.00  0.00     0.041 A 
ATOM     86  F   UNL A   1      39.292  28.683  32.538  1.00  0.00    -0.206 F 
ATOM     87  C   UNL A   1      36.268  30.527  31.815  1.00  0.00     0.022 A 
BRANCH  84  88
ATOM     88  S   UNL A   1      35.370  32.047  29.661  1.00  0.00     0.124 S 
ATOM     89  O   UNL A   1      34.817  31.197  28.613  1.00  0.00    -0.237 OA
ATOM     90  O   UNL A   1      34.461  32.407  30.744  1.00  0.00    -0.237 OA
ATOM     91  O   UNL A   1      36.239  33.126  29.196  1.00  0.00    -0.744 OA
ENDBRANCH  84  88
ENDBRANCH  57  81
BRANCH  69  92
ATOM     92  C   UNL A   1      44.299  33.641  29.167  1.00  0.00     0.023 A 
ATOM     93  C   UNL A   1      43.769  34.623  28.310  1.00  0.00     0.031 A 
ATOM     94  C   UNL A   1      45.117  34.070  30.228  1.00  0.00     0.131 A 
ATOM     95  C   UNL A   1      44.100  35.975  28.501  1.00  0.00     0.055 A 
ATOM     96  C   UNL A   1      45.394  35.421  30.450  1.00  0.00     0.041 A 
ATOM     97  F   UNL A   1      45.656  33.181  31.079  1.00  0.00    -0.206 F 
ATOM     98  C   UNL A   1      44.893  36.381  29.577  1.00  0.00     0.022 A 
BRANCH  95  99
ATOM     99  S   UNL A   1      43.547  37.195  27.276  1.00  0.00     0.124 S 
ATOM    100  O   UNL A   1      42.694  38.066  28.078  1.00  0.00    -0.237 OA
ATOM    101  O   UNL A   1      44.807  37.776  26.824  1.00  0.00    -0.237 OA
ATOM    102  O   UNL A   1      42.845  36.387  26.279  1.00  0.00    -0.744 OA
ENDBRANCH  95  99
ENDBRANCH  69  92
ENDBRANCH  43  44
ENDBRANCH  36  38
ENDBRANCH  35  36
ENDBRANCH  34  35
ENDBRANCH  33  34
ENDBRANCH   1  33
TORSDOF 21
ENDMDL
MODEL 2
REMARK VINA RESULT:     -12.4      4.743     10.777
REMARK SMILES C[C@@H](C(=O)OCCOCCOC(=O)c1ccc(-c2c3nc(c(-c4cc(S(=O)(=O)[O-])ccc4F)c4ccc([nH]4)c(-c4cc(S(=O)(=O)[O-])ccc4F)c4nc(c(-c5cc(S(=O)(=O)[O-])ccc5F)c5ccc2[nH]5)C=C4)C=C3)cc1)[N@@H+]1CCc2n[nH]c(C(c3ccccc3)c3ccccc3)c2C1
REMARK SMILES IDX 8 1 7 2 6 3 5 4 3 5 4 6 2 7 1 8 77 9 78 10 98 11 79 13 97 14
REMARK SMILES IDX 80 15 83 16 81 17 82 18 84 20 85 21 86 22 90 23 87 24 89 25
REMARK SMILES IDX 88 26 91 27 92 28 96 29 93 30 95 31 94 32 9 33 10 34 11 35
REMARK SMILES IDX 12 36 13 37 14 38 15 39 76 40 16 41 75 42 17 43 18 44 19 45
REMARK SMILES IDX 69 46 20 47 74 48 68 49 70 50 21 51 73 52 67 53 66 54 22 56
REMARK SMILES IDX 54 57 34 58 53 59 35 60 38 61 52 62 71 63 36 64 37 65 51 67
REMARK SMILES IDX 72 68 39 69 23 70 24 71 32 72 25 73 31 74 33 75 30 76 26 77
REMARK SMILES IDX 27 78 28 79 29 80 55 81 56 82 64 83 57 84 63 85 65 86 62 87
REMARK SMILES IDX 58 88 59 89 60 90 61 91 40 92 41 93 49 94 42 95 48 96 50 97
REMARK SMILES IDX 47 98 43 99 44 100 45 101 46 102
REMARK H PARENT 77 12 82 19 70 55 38 66
REMARK Flexibility Score: inf
ROOT
ATOM      1  O   UNL A   1      31.923  30.069  27.291  1.00  0.00    -0.374 OA
ENDROOT
BRANCH   1   2
ATOM      2  C   UNL A   1      32.406  28.803  26.803  1.00  0.00     0.202 C 
BRANCH   2   3
ATOM      3  C   UNL A   1      33.570  28.740  25.624  1.00  0.00     0.261 C 
BRANCH   3   4
ATOM      4  O   UNL A   1      33.299  27.727  24.549  1.00  0.00    -0.459 OA
BRANCH   4   5
ATOM      5  C   UNL A   1      33.263  26.354  24.639  1.00  0.00     0.364 C 
ATOM      6  O   UNL A   1      33.905  25.760  25.506  1.00  0.00    -0.245 OA
BRANCH   5   7
ATOM      7  C   UNL A   1      32.560  25.534  23.432  1.00  0.00     0.292 C 
ATOM      8  C   UNL A   1      33.136  25.814  22.030  1.00  0.00     0.088 C 
BRANCH   7   9
ATOM      9  N   UNL A   1      31.070  25.457  23.511  1.00  0.00    -0.319 N 
ATOM     10  C   UNL A   1      30.336  26.268  24.508  1.00  0.00     0.269 C 
ATOM     11  C   UNL A   1      30.639  24.077  23.680  1.00  0.00     0.303 C 
ATOM     12  H   UNL A   1      30.820  25.880  22.618  1.00  0.00     0.349 HD
ATOM     13  C   UNL A   1      29.888  25.496  25.807  1.00  0.00     0.120 C 
ATOM     14  C   UNL A   1      31.240  23.505  24.968  1.00  0.00     0.052 A 
ATOM     15  C   UNL A   1      30.782  24.304  26.054  1.00  0.00     0.077 A 
ATOM     16  C   UNL A   1      32.147  22.539  25.534  1.00  0.00     0.056 A 
ATOM     17  N   UNL A   1      31.297  23.936  27.212  1.00  0.00    -0.180 NA
ATOM     18  N   UNL A   1      32.122  22.927  26.872  1.00  0.00    -0.281 N 
ATOM     19  H   UNL A   1      32.686  22.480  27.544  1.00  0.00     0.190 HD
BRANCH  16  20
ATOM     20  C   UNL A   1      33.240  21.289  25.228  1.00  0.00     0.098 C 
BRANCH  20  21
ATOM     21  C   UNL A   1      32.830  19.823  24.774  1.00  0.00    -0.035 A 
ATOM     22  C   UNL A   1      32.885  18.768  25.699  1.00  0.00     0.005 A 
ATOM     23  C   UNL A   1      32.710  19.370  23.447  1.00  0.00     0.005 A 
ATOM     24  C   UNL A   1      32.584  17.430  25.360  1.00  0.00     0.000 A 
ATOM     25  C   UNL A   1      32.366  18.054  23.085  1.00  0.00     0.000 A 
ATOM     26  C   UNL A   1      32.261  17.084  24.058  1.00  0.00     0.000 A 
ENDBRANCH  20  21
BRANCH  20  27
ATOM     27  C   UNL A   1      34.690  21.657  24.830  1.00  0.00    -0.035 A 
ATOM     28  C   UNL A   1      34.986  22.708  23.930  1.00  0.00     0.005 A 
ATOM     29  C   UNL A   1      35.765  20.852  25.227  1.00  0.00     0.005 A 
ATOM     30  C   UNL A   1      36.290  22.991  23.520  1.00  0.00     0.000 A 
ATOM     31  C   UNL A   1      37.075  21.140  24.828  1.00  0.00     0.000 A 
ATOM     32  C   UNL A   1      37.340  22.217  23.986  1.00  0.00     0.000 A 
ENDBRANCH  20  27
ENDBRANCH  16  20
ENDBRANCH   7   9
ENDBRANCH   5   7
ENDBRANCH   4   5
ENDBRANCH   3   4
ENDBRANCH   2   3
ENDBRANCH   1   2
BRANCH   1  33
ATOM     33  C   UNL A   1      32.641  31.251  26.847  1.00  0.00     0.202 C 
BRANCH  33  34
ATOM     34  C   UNL A   1      32.146  32.715  27.143  1.00  0.00     0.261 C 
BRANCH  34  35
ATOM     35  O   UNL A   1      32.408  33.281  28.456  1.00  0.00    -0.460 OA
BRANCH  35  36
ATOM     36  C   UNL A   1      33.502  34.106  28.546  1.00  0.00     0.338 C 
ATOM     37  O   UNL A   1      33.482  35.323  28.470  1.00  0.00    -0.246 OA
BRANCH  36  38
ATOM     38  C   UNL A   1      34.785  33.372  28.776  1.00  0.00     0.060 A 
ATOM     39  C   UNL A   1      34.781  32.272  29.628  1.00  0.00     0.016 A 
ATOM     40  C   UNL A   1      36.024  33.834  28.304  1.00  0.00     0.016 A 
ATOM     41  C   UNL A   1      35.967  31.563  29.902  1.00  0.00     0.010 A 
ATOM     42  C   UNL A   1      37.222  33.127  28.584  1.00  0.00     0.010 A 
ATOM     43  C   UNL A   1      37.202  31.967  29.378  1.00  0.00    -0.014 A 
BRANCH  43  44
ATOM     44  C   UNL A   1      38.429  31.285  29.907  1.00  0.00     0.031 A 
ATOM     45  C   UNL A   1      38.839  31.598  31.326  1.00  0.00     0.074 A 
ATOM     46  C   UNL A   1      39.066  30.287  29.255  1.00  0.00     0.049 A 
ATOM     47  N   UNL A   1      39.736  31.022  32.087  1.00  0.00    -0.248 NA
ATOM     48  C   UNL A   1      38.104  32.691  31.978  1.00  0.00     0.031 C 
ATOM     49  C   UNL A   1      38.741  29.801  27.917  1.00  0.00     0.029 A 
ATOM     50  N   UNL A   1      40.108  29.472  29.655  1.00  0.00    -0.354 N 
ATOM     51  C   UNL A   1      39.643  31.655  33.322  1.00  0.00     0.074 A 
ATOM     52  C   UNL A   1      38.636  32.686  33.189  1.00  0.00     0.031 C 
ATOM     53  C   UNL A   1      39.554  28.771  27.612  1.00  0.00     0.029 A 
ATOM     54  C   UNL A   1      40.482  28.529  28.720  1.00  0.00     0.049 A 
ATOM     55  H   UNL A   1      40.546  29.557  30.533  1.00  0.00     0.167 HD
ATOM     56  C   UNL A   1      40.318  31.399  34.471  1.00  0.00     0.034 A 
ATOM     57  C   UNL A   1      41.457  27.589  28.743  1.00  0.00     0.034 A 
ATOM     58  C   UNL A   1      41.361  30.413  34.601  1.00  0.00     0.049 A 
ATOM     59  C   UNL A   1      42.314  27.430  29.986  1.00  0.00     0.074 A 
ATOM     60  C   UNL A   1      42.137  30.121  35.709  1.00  0.00     0.029 A 
ATOM     61  N   UNL A   1      41.796  29.573  33.584  1.00  0.00    -0.354 N 
ATOM     62  N   UNL A   1      42.219  28.046  31.142  1.00  0.00    -0.248 NA
ATOM     63  C   UNL A   1      43.405  26.443  29.927  1.00  0.00     0.031 C 
ATOM     64  C   UNL A   1      43.091  29.166  35.342  1.00  0.00     0.029 A 
ATOM     65  C   UNL A   1      42.854  28.793  34.029  1.00  0.00     0.049 A 
ATOM     66  H   UNL A   1      41.410  29.535  32.679  1.00  0.00     0.167 HD
ATOM     67  C   UNL A   1      43.215  27.497  31.952  1.00  0.00     0.074 A 
ATOM     68  C   UNL A   1      43.889  26.492  31.161  1.00  0.00     0.031 C 
ATOM     69  C   UNL A   1      43.536  27.795  33.238  1.00  0.00     0.034 A 
BRANCH  56  70
ATOM     70  C   UNL A   1      39.987  32.269  35.659  1.00  0.00     0.023 A 
ATOM     71  C   UNL A   1      39.029  31.883  36.612  1.00  0.00     0.031 A 
ATOM     72  C   UNL A   1      40.594  33.528  35.804  1.00  0.00     0.131 A 
ATOM     73  C   UNL A   1      38.648  32.779  37.622  1.00  0.00     0.055 A 
ATOM     74  C   UNL A   1      40.271  34.382  36.859  1.00  0.00     0.041 A 
ATOM     75  F   UNL A   1      41.496  33.959  34.908  1.00  0.00    -0.206 F 
ATOM     76  C   UNL A   1      39.280  34.016  37.766  1.00  0.00     0.022 A 
BRANCH  73  77
ATOM     77  S   UNL A   1      37.201  32.375  38.640  1.00  0.00     0.124 S 
ATOM     78  O   UNL A   1      37.592  32.921  39.937  1.00  0.00    -0.237 OA
ATOM     79  O   UNL A   1      36.125  33.076  37.949  1.00  0.00    -0.237 OA
ATOM     80  O   UNL A   1      37.138  30.917  38.580  1.00  0.00    -0.744 OA
ENDBRANCH  73  77
ENDBRANCH  56  70
BRANCH  57  81
ATOM     81  C   UNL A   1      41.754  26.754  27.532  1.00  0.00     0.023 A 
ATOM     82  C   UNL A   1      41.465  25.377  27.482  1.00  0.00     0.031 A 
ATOM     83  C   UNL A   1      42.443  27.313  26.440  1.00  0.00     0.131 A 
ATOM     84  C   UNL A   1      41.905  24.604  26.391  1.00  0.00     0.055 A 
ATOM     85  C   UNL A   1      42.825  26.554  25.333  1.00  0.00     0.041 A 
ATOM     86  F   UNL A   1      42.767  28.616  26.439  1.00  0.00    -0.206 F 
ATOM     87  C   UNL A   1      42.570  25.188  25.309  1.00  0.00     0.022 A 
BRANCH  84  88
ATOM     88  S   UNL A   1      41.695  22.800  26.445  1.00  0.00     0.124 S 
ATOM     89  O   UNL A   1      40.245  22.673  26.535  1.00  0.00    -0.237 OA
ATOM     90  O   UNL A   1      42.299  22.387  25.183  1.00  0.00    -0.237 OA
ATOM     91  O   UNL A   1      42.431  22.406  27.644  1.00  0.00    -0.744 OA
ENDBRANCH  84  88
ENDBRANCH  57  81
BRANCH  69  92
ATOM     92  C   UNL A   1      44.640  26.994  33.894  1.00  0.00     0.023 A 
ATOM     93  C   UNL A   1      44.391  25.777  34.554  1.00  0.00     0.031 A 
ATOM     94  C   UNL A   1      45.970  27.454  33.847  1.00  0.00     0.131 A 
ATOM     95  C   UNL A   1      45.444  25.087  35.178  1.00  0.00     0.055 A 
ATOM     96  C   UNL A   1      47.023  26.734  34.417  1.00  0.00     0.041 A 
ATOM     97  F   UNL A   1      46.272  28.610  33.234  1.00  0.00    -0.206 F 
ATOM     98  C   UNL A   1      46.760  25.549  35.097  1.00  0.00     0.022 A 
BRANCH  95  99
ATOM     99  S   UNL A   1      45.062  23.618  36.172  1.00  0.00     0.124 S 
ATOM    100  O   UNL A   1      43.931  23.047  35.448  1.00  0.00    -0.237 OA
ATOM    101  O   UNL A   1      46.309  22.863  36.105  1.00  0.00    -0.237 OA
ATOM    102  O   UNL A   1      44.742  24.166  37.489  1.00  0.00    -0.744 OA
ENDBRANCH  95  99
ENDBRANCH  69  92
ENDBRANCH  43  44
ENDBRANCH  36  38
ENDBRANCH  35  36
ENDBRANCH  34  35
ENDBRANCH  33  34
ENDBRANCH   1  33
TORSDOF 21
ENDMDL
MODEL 3
REMARK VINA RESULT:     -11.8      5.533      9.642
REMARK SMILES C[C@@H](C(=O)OCCOCCOC(=O)c1ccc(-c2c3nc(c(-c4cc(S(=O)(=O)[O-])ccc4F)c4ccc([nH]4)c(-c4cc(S(=O)(=O)[O-])ccc4F)c4nc(c(-c5cc(S(=O)(=O)[O-])ccc5F)c5ccc2[nH]5)C=C4)C=C3)cc1)[N@@H+]1CCc2n[nH]c(C(c3ccccc3)c3ccccc3)c2C1
REMARK SMILES IDX 8 1 7 2 6 3 5 4 3 5 4 6 2 7 1 8 77 9 78 10 98 11 79 13 97 14
REMARK SMILES IDX 80 15 83 16 81 17 82 18 84 20 85 21 86 22 90 23 87 24 89 25
REMARK SMILES IDX 88 26 91 27 92 28 96 29 93 30 95 31 94 32 9 33 10 34 11 35
REMARK SMILES IDX 12 36 13 37 14 38 15 39 76 40 16 41 75 42 17 43 18 44 19 45
REMARK SMILES IDX 69 46 20 47 74 48 68 49 70 50 21 51 73 52 67 53 66 54 22 56
REMARK SMILES IDX 54 57 34 58 53 59 35 60 38 61 52 62 71 63 36 64 37 65 51 67
REMARK SMILES IDX 72 68 39 69 23 70 24 71 32 72 25 73 31 74 33 75 30 76 26 77
REMARK SMILES IDX 27 78 28 79 29 80 55 81 56 82 64 83 57 84 63 85 65 86 62 87
REMARK SMILES IDX 58 88 59 89 60 90 61 91 40 92 41 93 49 94 42 95 48 96 50 97
REMARK SMILES IDX 47 98 43 99 44 100 45 101 46 102
REMARK H PARENT 77 12 82 19 70 55 38 66
REMARK Flexibility Score: inf
ROOT
ATOM      1  O   UNL A   1      33.144  30.933  27.622  1.00  0.00    -0.374 OA
ENDROOT
BRANCH   1   2
ATOM      2  C   UNL A   1      33.730  30.052  26.646  1.00  0.00     0.202 C 
BRANCH   2   3
ATOM      3  C   UNL A   1      32.864  29.564  25.320  1.00  0.00     0.261 C 
BRANCH   3   4
ATOM      4  O   UNL A   1      33.414  28.341  24.644  1.00  0.00    -0.459 OA
BRANCH   4   5
ATOM      5  C   UNL A   1      33.137  27.014  24.888  1.00  0.00     0.364 C 
ATOM      6  O   UNL A   1      33.523  26.468  25.922  1.00  0.00    -0.245 OA
BRANCH   5   7
ATOM      7  C   UNL A   1      32.512  26.136  23.680  1.00  0.00     0.292 C 
ATOM      8  C   UNL A   1      33.142  26.389  22.295  1.00  0.00     0.088 C 
BRANCH   7   9
ATOM      9  N   UNL A   1      31.023  26.017  23.695  1.00  0.00    -0.319 N 
ATOM     10  C   UNL A   1      30.244  26.598  24.812  1.00  0.00     0.269 C 
ATOM     11  C   UNL A   1      30.621  24.624  23.572  1.00  0.00     0.303 C 
ATOM     12  H   UNL A   1      30.787  26.607  22.898  1.00  0.00     0.349 HD
ATOM     13  C   UNL A   1      29.780  25.573  25.915  1.00  0.00     0.120 C 
ATOM     14  C   UNL A   1      31.201  23.817  24.737  1.00  0.00     0.052 A 
ATOM     15  C   UNL A   1      30.695  24.373  25.947  1.00  0.00     0.077 A 
ATOM     16  C   UNL A   1      32.117  22.773  25.126  1.00  0.00     0.056 A 
ATOM     17  N   UNL A   1      31.189  23.790  27.022  1.00  0.00    -0.180 NA
ATOM     18  N   UNL A   1      32.046  22.884  26.513  1.00  0.00    -0.281 N 
ATOM     19  H   UNL A   1      32.603  22.323  27.099  1.00  0.00     0.190 HD
BRANCH  16  20
ATOM     20  C   UNL A   1      33.247  21.631  24.610  1.00  0.00     0.098 C 
BRANCH  20  21
ATOM     21  C   UNL A   1      34.821  21.841  24.639  1.00  0.00    -0.035 A 
ATOM     22  C   UNL A   1      35.418  22.744  23.746  1.00  0.00     0.005 A 
ATOM     23  C   UNL A   1      35.760  20.990  25.253  1.00  0.00     0.005 A 
ATOM     24  C   UNL A   1      36.814  22.951  23.677  1.00  0.00     0.000 A 
ATOM     25  C   UNL A   1      37.151  21.199  25.237  1.00  0.00     0.000 A 
ATOM     26  C   UNL A   1      37.680  22.218  24.474  1.00  0.00     0.000 A 
ENDBRANCH  20  21
BRANCH  20  27
ATOM     27  C   UNL A   1      32.841  20.137  24.615  1.00  0.00    -0.035 A 
ATOM     28  C   UNL A   1      32.901  19.338  25.781  1.00  0.00     0.005 A 
ATOM     29  C   UNL A   1      32.548  19.474  23.416  1.00  0.00     0.005 A 
ATOM     30  C   UNL A   1      32.600  17.975  25.765  1.00  0.00     0.000 A 
ATOM     31  C   UNL A   1      32.234  18.109  23.398  1.00  0.00     0.000 A 
ATOM     32  C   UNL A   1      32.247  17.363  24.574  1.00  0.00     0.000 A 
ENDBRANCH  20  27
ENDBRANCH  16  20
ENDBRANCH   7   9
ENDBRANCH   5   7
ENDBRANCH   4   5
ENDBRANCH   3   4
ENDBRANCH   2   3
ENDBRANCH   1   2
BRANCH   1  33
ATOM     33  C   UNL A   1      32.186  31.906  27.125  1.00  0.00     0.202 C 
BRANCH  33  34
ATOM     34  C   UNL A   1      32.478  33.451  27.086  1.00  0.00     0.261 C 
BRANCH  34  35
ATOM     35  O   UNL A   1      32.312  34.217  28.310  1.00  0.00    -0.460 OA
BRANCH  35  36
ATOM     36  C   UNL A   1      33.383  34.990  28.684  1.00  0.00     0.338 C 
ATOM     37  O   UNL A   1      33.457  36.203  28.574  1.00  0.00    -0.246 OA
BRANCH  36  38
ATOM     38  C   UNL A   1      34.504  34.205  29.286  1.00  0.00     0.060 A 
ATOM     39  C   UNL A   1      34.211  33.276  30.279  1.00  0.00     0.016 A 
ATOM     40  C   UNL A   1      35.855  34.472  29.013  1.00  0.00     0.016 A 
ATOM     41  C   UNL A   1      35.232  32.531  30.899  1.00  0.00     0.010 A 
ATOM     42  C   UNL A   1      36.889  33.728  29.641  1.00  0.00     0.010 A 
ATOM     43  C   UNL A   1      36.583  32.733  30.585  1.00  0.00    -0.014 A 
BRANCH  43  44
ATOM     44  C   UNL A   1      37.600  32.055  31.456  1.00  0.00     0.031 A 
ATOM     45  C   UNL A   1      38.372  30.905  30.854  1.00  0.00     0.074 A 
ATOM     46  C   UNL A   1      37.980  32.528  32.663  1.00  0.00     0.049 A 
ATOM     47  N   UNL A   1      39.422  30.269  31.311  1.00  0.00    -0.248 NA
ATOM     48  C   UNL A   1      37.909  30.442  29.539  1.00  0.00     0.031 C 
ATOM     49  C   UNL A   1      37.400  33.680  33.347  1.00  0.00     0.029 A 
ATOM     50  N   UNL A   1      38.983  32.111  33.518  1.00  0.00    -0.354 N 
ATOM     51  C   UNL A   1      39.770  29.358  30.320  1.00  0.00     0.074 A 
ATOM     52  C   UNL A   1      38.791  29.497  29.262  1.00  0.00     0.031 C 
ATOM     53  C   UNL A   1      38.059  33.885  34.504  1.00  0.00     0.029 A 
ATOM     54  C   UNL A   1      39.099  32.866  34.667  1.00  0.00     0.049 A 
ATOM     55  H   UNL A   1      39.565  31.341  33.323  1.00  0.00     0.167 HD
ATOM     56  C   UNL A   1      40.815  28.492  30.277  1.00  0.00     0.034 A 
ATOM     57  C   UNL A   1      39.933  32.751  35.728  1.00  0.00     0.034 A 
ATOM     58  C   UNL A   1      41.762  28.306  31.346  1.00  0.00     0.049 A 
ATOM     59  C   UNL A   1      40.994  31.664  35.732  1.00  0.00     0.074 A 
ATOM     60  C   UNL A   1      42.819  27.415  31.414  1.00  0.00     0.029 A 
ATOM     61  N   UNL A   1      41.757  29.003  32.548  1.00  0.00    -0.354 N 
ATOM     62  N   UNL A   1      41.301  30.803  34.789  1.00  0.00    -0.248 NA
ATOM     63  C   UNL A   1      41.823  31.540  36.942  1.00  0.00     0.031 C 
ATOM     64  C   UNL A   1      43.401  27.516  32.682  1.00  0.00     0.029 A 
ATOM     65  C   UNL A   1      42.766  28.533  33.376  1.00  0.00     0.049 A 
ATOM     66  H   UNL A   1      41.128  29.725  32.779  1.00  0.00     0.167 HD
ATOM     67  C   UNL A   1      42.377  30.062  35.282  1.00  0.00     0.074 A 
ATOM     68  C   UNL A   1      42.675  30.585  36.597  1.00  0.00     0.031 C 
ATOM     69  C   UNL A   1      43.060  29.046  34.695  1.00  0.00     0.034 A 
BRANCH  56  70
ATOM     70  C   UNL A   1      40.925  27.626  29.046  1.00  0.00     0.023 A 
ATOM     71  C   UNL A   1      41.856  27.904  28.030  1.00  0.00     0.031 A 
ATOM     72  C   UNL A   1      40.047  26.545  28.860  1.00  0.00     0.131 A 
ATOM     73  C   UNL A   1      41.833  27.161  26.840  1.00  0.00     0.055 A 
ATOM     74  C   UNL A   1      40.085  25.756  27.711  1.00  0.00     0.041 A 
ATOM     75  F   UNL A   1      39.121  26.251  29.787  1.00  0.00    -0.206 F 
ATOM     76  C   UNL A   1      40.970  26.074  26.684  1.00  0.00     0.022 A 
BRANCH  73  77
ATOM     77  S   UNL A   1      42.828  27.739  25.437  1.00  0.00     0.124 S 
ATOM     78  O   UNL A   1      43.001  26.507  24.671  1.00  0.00    -0.237 OA
ATOM     79  O   UNL A   1      41.967  28.750  24.836  1.00  0.00    -0.237 OA
ATOM     80  O   UNL A   1      44.045  28.247  26.067  1.00  0.00    -0.744 OA
ENDBRANCH  73  77
ENDBRANCH  56  70
BRANCH  57  81
ATOM     81  C   UNL A   1      39.777  33.631  36.933  1.00  0.00     0.023 A 
ATOM     82  C   UNL A   1      40.622  34.730  37.173  1.00  0.00     0.031 A 
ATOM     83  C   UNL A   1      38.835  33.306  37.927  1.00  0.00     0.131 A 
ATOM     84  C   UNL A   1      40.540  35.429  38.392  1.00  0.00     0.055 A 
ATOM     85  C   UNL A   1      38.718  34.039  39.110  1.00  0.00     0.041 A 
ATOM     86  F   UNL A   1      38.017  32.254  37.767  1.00  0.00    -0.206 F 
ATOM     87  C   UNL A   1      39.583  35.099  39.355  1.00  0.00     0.022 A 
BRANCH  84  88
ATOM     88  S   UNL A   1      41.772  36.714  38.759  1.00  0.00     0.124 S 
ATOM     89  O   UNL A   1      40.924  37.844  39.118  1.00  0.00    -0.237 OA
ATOM     90  O   UNL A   1      42.529  36.107  39.848  1.00  0.00    -0.237 OA
ATOM     91  O   UNL A   1      42.501  36.857  37.501  1.00  0.00    -0.744 OA
ENDBRANCH  84  88
ENDBRANCH  57  81
BRANCH  69  92
ATOM     92  C   UNL A   1      44.232  28.453  35.447  1.00  0.00     0.023 A 
ATOM     93  C   UNL A   1      44.075  27.404  36.370  1.00  0.00     0.031 A 
ATOM     94  C   UNL A   1      45.533  28.941  35.226  1.00  0.00     0.131 A 
ATOM     95  C   UNL A   1      45.188  26.909  37.070  1.00  0.00     0.055 A 
ATOM     96  C   UNL A   1      46.646  28.406  35.879  1.00  0.00     0.041 A 
ATOM     97  F   UNL A   1      45.749  29.944  34.358  1.00  0.00    -0.206 F 
ATOM     98  C   UNL A   1      46.475  27.391  36.815  1.00  0.00     0.022 A 
BRANCH  95  99
ATOM     99  S   UNL A   1      44.927  25.682  38.381  1.00  0.00     0.124 S 
ATOM    100  O   UNL A   1      43.954  24.784  37.766  1.00  0.00    -0.237 OA
ATOM    101  O   UNL A   1      46.267  25.138  38.571  1.00  0.00    -0.237 OA
ATOM    102  O   UNL A   1      44.418  26.476  39.498  1.00  0.00    -0.744 OA
ENDBRANCH  95  99
ENDBRANCH  69  92
ENDBRANCH  43  44
ENDBRANCH  36  38
ENDBRANCH  35  36
ENDBRANCH  34  35
ENDBRANCH  33  34
ENDBRANCH   1  33
TORSDOF 21
ENDMDL
