MODEL 1
REMARK VINA RESULT:     -10.2      0.000      0.000
REMARK SMILES O=C(OCCOCCOC(=O)c1cncc(OCCCc2ccccc2)n1)c1ccc(-c2c3nc(c(-c4cc(S(=O)(=O)[O-])ccc4F)c4ccc([nH]4)c(-c4cc(S(=O)(=O)[O-])ccc4F)c4nc(c(-c5cc(S(=O)(=O)[O-])ccc5F)c5ccc2[nH]5)C=C4)C=C3)cc1
REMARK SMILES IDX 7 1 6 2 5 3 4 4 3 5 2 6 1 7 28 8 29 9 90 10 30 11 89 12
REMARK SMILES IDX 31 13 32 14 33 15 83 16 34 17 88 18 82 19 84 20 35 21 87 22
REMARK SMILES IDX 81 23 80 24 36 26 68 27 48 28 67 29 49 30 52 31 66 32 85 33
REMARK SMILES IDX 50 34 51 35 65 37 86 38 53 39 37 40 38 41 46 42 39 43 45 44
REMARK SMILES IDX 47 45 44 46 40 47 41 48 42 49 43 50 69 51 70 52 78 53 71 54
REMARK SMILES IDX 77 55 79 56 76 57 72 58 73 59 74 60 75 61 54 62 55 63 63 64
REMARK SMILES IDX 56 65 62 66 64 67 61 68 57 69 58 70 59 71 60 72 8 73 9 74
REMARK SMILES IDX 10 75 11 76 12 77 13 78 27 79 14 80 16 81 15 82 17 83 18 84
REMARK SMILES IDX 19 85 20 86 21 87 22 88 26 89 23 90 25 91 24 92
REMARK H PARENT 84 25 52 36
REMARK Flexibility Score: inf
ROOT
ATOM      1  C   UNL A   1      37.248  21.920  25.482  1.00  0.00     0.202 C 
ENDROOT
BRANCH   1   2
ATOM      2  O   UNL A   1      37.076  20.719  24.733  1.00  0.00    -0.374 OA
BRANCH   2   3
ATOM      3  C   UNL A   1      38.087  19.729  24.932  1.00  0.00     0.202 C 
BRANCH   3   4
ATOM      4  C   UNL A   1      39.220  20.208  25.839  1.00  0.00     0.261 C 
BRANCH   4   5
ATOM      5  O   UNL A   1      40.333  19.304  25.757  1.00  0.00    -0.460 OA
BRANCH   5   6
ATOM      6  C   UNL A   1      41.637  19.584  25.990  1.00  0.00     0.338 C 
ATOM      7  O   UNL A   1      42.445  18.656  25.926  1.00  0.00    -0.246 OA
BRANCH   6   8
ATOM      8  C   UNL A   1      42.163  20.944  26.336  1.00  0.00     0.060 A 
ATOM      9  C   UNL A   1      42.595  21.349  27.601  1.00  0.00     0.016 A 
ATOM     10  C   UNL A   1      42.327  21.849  25.274  1.00  0.00     0.016 A 
ATOM     11  C   UNL A   1      43.144  22.605  27.822  1.00  0.00     0.010 A 
ATOM     12  C   UNL A   1      42.920  23.100  25.478  1.00  0.00     0.010 A 
ATOM     13  C   UNL A   1      43.327  23.483  26.761  1.00  0.00    -0.014 A 
BRANCH  13  14
ATOM     14  C   UNL A   1      43.857  24.832  27.045  1.00  0.00     0.031 A 
ATOM     15  C   UNL A   1      42.944  25.840  27.669  1.00  0.00     0.074 A 
ATOM     16  C   UNL A   1      45.159  25.100  26.830  1.00  0.00     0.049 A 
ATOM     17  N   UNL A   1      43.158  27.096  27.946  1.00  0.00    -0.248 NA
ATOM     18  C   UNL A   1      41.602  25.359  28.031  1.00  0.00     0.031 C 
ATOM     19  C   UNL A   1      46.148  24.138  26.336  1.00  0.00     0.029 A 
ATOM     20  N   UNL A   1      45.883  26.247  27.023  1.00  0.00    -0.354 N 
ATOM     21  C   UNL A   1      41.965  27.570  28.478  1.00  0.00     0.074 A 
ATOM     22  C   UNL A   1      41.028  26.468  28.467  1.00  0.00     0.031 C 
ATOM     23  C   UNL A   1      47.353  24.728  26.296  1.00  0.00     0.029 A 
ATOM     24  C   UNL A   1      47.210  26.126  26.682  1.00  0.00     0.049 A 
ATOM     25  H   UNL A   1      45.489  27.079  27.373  1.00  0.00     0.167 HD
ATOM     26  C   UNL A   1      41.686  28.819  28.925  1.00  0.00     0.034 A 
ATOM     27  C   UNL A   1      48.186  27.056  26.657  1.00  0.00     0.034 A 
ATOM     28  C   UNL A   1      42.654  29.889  28.911  1.00  0.00     0.049 A 
ATOM     29  C   UNL A   1      47.822  28.463  27.062  1.00  0.00     0.074 A 
ATOM     30  C   UNL A   1      42.493  31.208  29.293  1.00  0.00     0.029 A 
ATOM     31  N   UNL A   1      43.972  29.758  28.481  1.00  0.00    -0.354 N 
ATOM     32  N   UNL A   1      46.672  28.928  27.497  1.00  0.00    -0.248 NA
ATOM     33  C   UNL A   1      48.884  29.470  26.970  1.00  0.00     0.031 C 
ATOM     34  C   UNL A   1      43.685  31.888  29.019  1.00  0.00     0.029 A 
ATOM     35  C   UNL A   1      44.625  30.977  28.561  1.00  0.00     0.049 A 
ATOM     36  H   UNL A   1      44.381  28.919  28.166  1.00  0.00     0.167 HD
ATOM     37  C   UNL A   1      46.884  30.276  27.770  1.00  0.00     0.074 A 
ATOM     38  C   UNL A   1      48.276  30.541  27.457  1.00  0.00     0.031 C 
ATOM     39  C   UNL A   1      46.016  31.210  28.240  1.00  0.00     0.034 A 
BRANCH  26  40
ATOM     40  C   UNL A   1      40.261  29.091  29.348  1.00  0.00     0.023 A 
ATOM     41  C   UNL A   1      39.872  29.113  30.699  1.00  0.00     0.031 A 
ATOM     42  C   UNL A   1      39.256  29.223  28.373  1.00  0.00     0.131 A 
ATOM     43  C   UNL A   1      38.508  29.152  31.034  1.00  0.00     0.055 A 
ATOM     44  C   UNL A   1      37.909  29.364  28.717  1.00  0.00     0.041 A 
ATOM     45  F   UNL A   1      39.558  29.178  27.067  1.00  0.00    -0.206 F 
ATOM     46  C   UNL A   1      37.526  29.305  30.053  1.00  0.00     0.022 A 
BRANCH  43  47
ATOM     47  S   UNL A   1      38.026  28.794  32.746  1.00  0.00     0.124 S 
ATOM     48  O   UNL A   1      38.130  27.336  32.784  1.00  0.00    -0.237 OA
ATOM     49  O   UNL A   1      39.027  29.525  33.517  1.00  0.00    -0.237 OA
ATOM     50  O   UNL A   1      36.664  29.316  32.837  1.00  0.00    -0.744 OA
ENDBRANCH  43  47
ENDBRANCH  26  40
BRANCH  27  51
ATOM     51  C   UNL A   1      49.564  26.713  26.194  1.00  0.00     0.023 A 
ATOM     52  C   UNL A   1      50.111  27.294  25.039  1.00  0.00     0.031 A 
ATOM     53  C   UNL A   1      50.339  25.754  26.872  1.00  0.00     0.131 A 
ATOM     54  C   UNL A   1      51.370  26.881  24.573  1.00  0.00     0.055 A 
ATOM     55  C   UNL A   1      51.617  25.390  26.439  1.00  0.00     0.041 A 
ATOM     56  F   UNL A   1      49.869  25.155  27.978  1.00  0.00    -0.206 F 
ATOM     57  C   UNL A   1      52.134  25.945  25.274  1.00  0.00     0.022 A 
BRANCH  54  58
ATOM     58  S   UNL A   1      51.960  27.513  22.976  1.00  0.00     0.124 S 
ATOM     59  O   UNL A   1      53.380  27.708  23.241  1.00  0.00    -0.237 OA
ATOM     60  O   UNL A   1      51.619  26.420  22.073  1.00  0.00    -0.237 OA
ATOM     61  O   UNL A   1      51.186  28.739  22.789  1.00  0.00    -0.744 OA
ENDBRANCH  54  58
ENDBRANCH  27  51
BRANCH  39  62
ATOM     62  C   UNL A   1      46.578  32.584  28.512  1.00  0.00     0.023 A 
ATOM     63  C   UNL A   1      46.624  33.582  27.523  1.00  0.00     0.031 A 
ATOM     64  C   UNL A   1      47.090  32.889  29.786  1.00  0.00     0.131 A 
ATOM     65  C   UNL A   1      47.233  34.813  27.805  1.00  0.00     0.055 A 
ATOM     66  C   UNL A   1      47.625  34.142  30.082  1.00  0.00     0.041 A 
ATOM     67  F   UNL A   1      47.077  31.972  30.767  1.00  0.00    -0.206 F 
ATOM     68  C   UNL A   1      47.714  35.107  29.084  1.00  0.00     0.022 A 
BRANCH  65  69
ATOM     69  S   UNL A   1      47.501  35.982  26.444  1.00  0.00     0.124 S 
ATOM     70  O   UNL A   1      48.604  36.790  26.953  1.00  0.00    -0.237 OA
ATOM     71  O   UNL A   1      47.822  35.095  25.331  1.00  0.00    -0.237 OA
ATOM     72  O   UNL A   1      46.221  36.678  26.334  1.00  0.00    -0.744 OA
ENDBRANCH  65  69
ENDBRANCH  39  62
ENDBRANCH  13  14
ENDBRANCH   6   8
ENDBRANCH   5   6
ENDBRANCH   4   5
ENDBRANCH   3   4
ENDBRANCH   2   3
ENDBRANCH   1   2
BRANCH   1  73
ATOM     73  C   UNL A   1      35.907  22.638  25.649  1.00  0.00     0.261 C 
BRANCH  73  74
ATOM     74  O   UNL A   1      35.073  21.915  26.575  1.00  0.00    -0.458 OA
BRANCH  74  75
ATOM     75  C   UNL A   1      33.980  21.320  26.012  1.00  0.00     0.358 C 
ATOM     76  O   UNL A   1      33.902  20.160  25.639  1.00  0.00    -0.244 OA
BRANCH  75  77
ATOM     77  C   UNL A   1      32.840  22.273  26.012  1.00  0.00     0.170 A 
ATOM     78  C   UNL A   1      32.462  22.948  27.164  1.00  0.00     0.147 A 
ATOM     79  N   UNL A   1      32.185  22.447  24.831  1.00  0.00    -0.203 NA
ATOM     80  N   UNL A   1      31.418  23.817  27.190  1.00  0.00    -0.257 NA
ATOM     81  C   UNL A   1      31.152  23.304  24.847  1.00  0.00     0.233 A 
ATOM     82  C   UNL A   1      30.788  23.990  25.999  1.00  0.00     0.179 A 
BRANCH  81  83
ATOM     83  O   UNL A   1      30.625  23.676  23.638  1.00  0.00    -0.477 OA
BRANCH  83  84
ATOM     84  C   UNL A   1      30.875  25.046  23.307  1.00  0.00     0.232 C 
BRANCH  84  85
ATOM     85  C   UNL A   1      31.918  25.249  22.200  1.00  0.00     0.046 C 
BRANCH  85  86
ATOM     86  C   UNL A   1      33.354  25.623  22.606  1.00  0.00     0.039 C 
BRANCH  86  87
ATOM     87  C   UNL A   1      33.544  26.523  23.812  1.00  0.00    -0.048 A 
ATOM     88  C   UNL A   1      33.411  27.913  23.648  1.00  0.00     0.004 A 
ATOM     89  C   UNL A   1      33.762  26.043  25.109  1.00  0.00     0.004 A 
ATOM     90  C   UNL A   1      33.543  28.787  24.730  1.00  0.00     0.000 A 
ATOM     91  C   UNL A   1      33.906  26.915  26.193  1.00  0.00     0.000 A 
ATOM     92  C   UNL A   1      33.800  28.288  26.004  1.00  0.00     0.000 A 
ENDBRANCH  86  87
ENDBRANCH  85  86
ENDBRANCH  84  85
ENDBRANCH  83  84
ENDBRANCH  81  83
ENDBRANCH  75  77
ENDBRANCH  74  75
ENDBRANCH  73  74
ENDBRANCH   1  73
TORSDOF 22
ENDMDL
MODEL 2
REMARK VINA RESULT:     -10.0      1.259      7.931
REMARK SMILES O=C(OCCOCCOC(=O)c1cncc(OCCCc2ccccc2)n1)c1ccc(-c2c3nc(c(-c4cc(S(=O)(=O)[O-])ccc4F)c4ccc([nH]4)c(-c4cc(S(=O)(=O)[O-])ccc4F)c4nc(c(-c5cc(S(=O)(=O)[O-])ccc5F)c5ccc2[nH]5)C=C4)C=C3)cc1
REMARK SMILES IDX 7 1 6 2 5 3 4 4 3 5 2 6 1 7 28 8 29 9 90 10 30 11 89 12
REMARK SMILES IDX 31 13 32 14 33 15 83 16 34 17 88 18 82 19 84 20 35 21 87 22
REMARK SMILES IDX 81 23 80 24 36 26 68 27 48 28 67 29 49 30 52 31 66 32 85 33
REMARK SMILES IDX 50 34 51 35 65 37 86 38 53 39 37 40 38 41 46 42 39 43 45 44
REMARK SMILES IDX 47 45 44 46 40 47 41 48 42 49 43 50 69 51 70 52 78 53 71 54
REMARK SMILES IDX 77 55 79 56 76 57 72 58 73 59 74 60 75 61 54 62 55 63 63 64
REMARK SMILES IDX 56 65 62 66 64 67 61 68 57 69 58 70 59 71 60 72 8 73 9 74
REMARK SMILES IDX 10 75 11 76 12 77 13 78 27 79 14 80 16 81 15 82 17 83 18 84
REMARK SMILES IDX 19 85 20 86 21 87 22 88 26 89 23 90 25 91 24 92
REMARK H PARENT 84 25 52 36
REMARK Flexibility Score: inf
ROOT
ATOM      1  C   UNL A   1      38.210  21.835  25.767  1.00  0.00     0.202 C 
ENDROOT
BRANCH   1   2
ATOM      2  O   UNL A   1      37.945  20.721  24.916  1.00  0.00    -0.374 OA
BRANCH   2   3
ATOM      3  C   UNL A   1      38.728  19.556  25.179  1.00  0.00     0.202 C 
BRANCH   3   4
ATOM      4  C   UNL A   1      39.850  19.806  26.186  1.00  0.00     0.261 C 
BRANCH   4   5
ATOM      5  O   UNL A   1      41.078  19.233  25.709  1.00  0.00    -0.460 OA
BRANCH   5   6
ATOM      6  C   UNL A   1      42.328  19.730  25.857  1.00  0.00     0.338 C 
ATOM      7  O   UNL A   1      43.276  18.966  25.674  1.00  0.00    -0.246 OA
BRANCH   6   8
ATOM      8  C   UNL A   1      42.636  21.145  26.245  1.00  0.00     0.060 A 
ATOM      9  C   UNL A   1      42.943  21.584  27.534  1.00  0.00     0.016 A 
ATOM     10  C   UNL A   1      42.722  22.083  25.203  1.00  0.00     0.016 A 
ATOM     11  C   UNL A   1      43.295  22.901  27.797  1.00  0.00     0.010 A 
ATOM     12  C   UNL A   1      43.118  23.402  25.450  1.00  0.00     0.010 A 
ATOM     13  C   UNL A   1      43.403  23.816  26.757  1.00  0.00    -0.014 A 
BRANCH  13  14
ATOM     14  C   UNL A   1      43.721  25.221  27.082  1.00  0.00     0.031 A 
ATOM     15  C   UNL A   1      45.102  25.723  26.800  1.00  0.00     0.074 A 
ATOM     16  C   UNL A   1      42.752  26.041  27.530  1.00  0.00     0.049 A 
ATOM     17  N   UNL A   1      45.632  26.885  27.059  1.00  0.00    -0.248 NA
ATOM     18  C   UNL A   1      46.009  24.777  26.130  1.00  0.00     0.031 C 
ATOM     19  C   UNL A   1      41.348  25.664  27.720  1.00  0.00     0.029 A 
ATOM     20  N   UNL A   1      42.788  27.364  27.881  1.00  0.00    -0.354 N 
ATOM     21  C   UNL A   1      46.949  26.801  26.622  1.00  0.00     0.074 A 
ATOM     22  C   UNL A   1      47.138  25.466  26.098  1.00  0.00     0.031 C 
ATOM     23  C   UNL A   1      40.655  26.741  28.121  1.00  0.00     0.029 A 
ATOM     24  C   UNL A   1      41.573  27.859  28.296  1.00  0.00     0.049 A 
ATOM     25  H   UNL A   1      43.607  27.910  27.840  1.00  0.00     0.167 HD
ATOM     26  C   UNL A   1      47.908  27.758  26.667  1.00  0.00     0.034 A 
ATOM     27  C   UNL A   1      41.255  29.072  28.791  1.00  0.00     0.034 A 
ATOM     28  C   UNL A   1      47.673  29.076  27.206  1.00  0.00     0.049 A 
ATOM     29  C   UNL A   1      42.365  30.086  28.926  1.00  0.00     0.074 A 
ATOM     30  C   UNL A   1      48.564  30.124  27.350  1.00  0.00     0.029 A 
ATOM     31  N   UNL A   1      46.450  29.524  27.696  1.00  0.00    -0.354 N 
ATOM     32  N   UNL A   1      43.629  29.980  28.579  1.00  0.00    -0.248 NA
ATOM     33  C   UNL A   1      42.009  31.377  29.522  1.00  0.00     0.031 C 
ATOM     34  C   UNL A   1      47.900  31.171  28.000  1.00  0.00     0.029 A 
ATOM     35  C   UNL A   1      46.569  30.820  28.171  1.00  0.00     0.049 A 
ATOM     36  H   UNL A   1      45.619  28.995  27.704  1.00  0.00     0.167 HD
ATOM     37  C   UNL A   1      44.209  31.209  28.877  1.00  0.00     0.074 A 
ATOM     38  C   UNL A   1      43.152  32.038  29.424  1.00  0.00     0.031 C 
ATOM     39  C   UNL A   1      45.494  31.621  28.713  1.00  0.00     0.034 A 
BRANCH  26  40
ATOM     40  C   UNL A   1      49.296  27.356  26.225  1.00  0.00     0.023 A 
ATOM     41  C   UNL A   1      49.865  27.822  25.026  1.00  0.00     0.031 A 
ATOM     42  C   UNL A   1      50.017  26.402  26.966  1.00  0.00     0.131 A 
ATOM     43  C   UNL A   1      51.059  27.254  24.552  1.00  0.00     0.055 A 
ATOM     44  C   UNL A   1      51.255  25.916  26.538  1.00  0.00     0.041 A 
ATOM     45  F   UNL A   1      49.514  25.895  28.101  1.00  0.00    -0.206 F 
ATOM     46  C   UNL A   1      51.771  26.325  25.313  1.00  0.00     0.022 A 
BRANCH  43  47
ATOM     47  S   UNL A   1      51.559  27.594  22.841  1.00  0.00     0.124 S 
ATOM     48  O   UNL A   1      51.198  29.004  22.702  1.00  0.00    -0.237 OA
ATOM     49  O   UNL A   1      52.988  27.300  22.864  1.00  0.00    -0.237 OA
ATOM     50  O   UNL A   1      50.743  26.671  22.054  1.00  0.00    -0.744 OA
ENDBRANCH  43  47
ENDBRANCH  26  40
BRANCH  27  51
ATOM     51  C   UNL A   1      39.863  29.381  29.236  1.00  0.00     0.023 A 
ATOM     52  C   UNL A   1      39.526  29.420  30.599  1.00  0.00     0.031 A 
ATOM     53  C   UNL A   1      38.832  29.590  28.301  1.00  0.00     0.131 A 
ATOM     54  C   UNL A   1      38.190  29.616  30.987  1.00  0.00     0.055 A 
ATOM     55  C   UNL A   1      37.516  29.845  28.693  1.00  0.00     0.041 A 
ATOM     56  F   UNL A   1      39.089  29.556  26.984  1.00  0.00    -0.206 F 
ATOM     57  C   UNL A   1      37.185  29.846  30.043  1.00  0.00     0.022 A 
BRANCH  54  58
ATOM     58  S   UNL A   1      37.761  29.470  32.745  1.00  0.00     0.124 S 
ATOM     59  O   UNL A   1      36.522  30.235  32.812  1.00  0.00    -0.237 OA
ATOM     60  O   UNL A   1      37.634  28.026  32.906  1.00  0.00    -0.237 OA
ATOM     61  O   UNL A   1      38.905  30.073  33.425  1.00  0.00    -0.744 OA
ENDBRANCH  54  58
ENDBRANCH  27  51
BRANCH  39  62
ATOM     62  C   UNL A   1      45.797  33.058  29.061  1.00  0.00     0.023 A 
ATOM     63  C   UNL A   1      45.571  34.110  28.157  1.00  0.00     0.031 A 
ATOM     64  C   UNL A   1      46.340  33.372  30.321  1.00  0.00     0.131 A 
ATOM     65  C   UNL A   1      45.949  35.416  28.501  1.00  0.00     0.055 A 
ATOM     66  C   UNL A   1      46.642  34.682  30.685  1.00  0.00     0.041 A 
ATOM     67  F   UNL A   1      46.582  32.405  31.221  1.00  0.00    -0.206 F 
ATOM     68  C   UNL A   1      46.463  35.712  29.766  1.00  0.00     0.022 A 
BRANCH  65  69
ATOM     69  S   UNL A   1      45.876  36.705  27.227  1.00  0.00     0.124 S 
ATOM     70  O   UNL A   1      46.075  35.933  26.005  1.00  0.00    -0.237 OA
ATOM     71  O   UNL A   1      44.540  37.258  27.420  1.00  0.00    -0.237 OA
ATOM     72  O   UNL A   1      46.976  37.599  27.582  1.00  0.00    -0.744 OA
ENDBRANCH  65  69
ENDBRANCH  39  62
ENDBRANCH  13  14
ENDBRANCH   6   8
ENDBRANCH   5   6
ENDBRANCH   4   5
ENDBRANCH   3   4
ENDBRANCH   2   3
ENDBRANCH   1   2
BRANCH   1  73
ATOM     73  C   UNL A   1      37.421  23.060  25.301  1.00  0.00     0.261 C 
BRANCH  73  74
ATOM     74  O   UNL A   1      36.118  22.658  24.834  1.00  0.00    -0.458 OA
BRANCH  74  75
ATOM     75  C   UNL A   1      35.867  22.954  23.525  1.00  0.00     0.358 C 
ATOM     76  O   UNL A   1      36.678  22.935  22.612  1.00  0.00    -0.244 OA
BRANCH  75  77
ATOM     77  C   UNL A   1      34.414  23.207  23.342  1.00  0.00     0.170 A 
ATOM     78  C   UNL A   1      33.459  22.417  23.966  1.00  0.00     0.147 A 
ATOM     79  N   UNL A   1      34.069  24.246  22.533  1.00  0.00    -0.203 NA
ATOM     80  N   UNL A   1      32.125  22.624  23.806  1.00  0.00    -0.257 NA
ATOM     81  C   UNL A   1      32.754  24.458  22.370  1.00  0.00     0.233 A 
ATOM     82  C   UNL A   1      31.801  23.675  23.009  1.00  0.00     0.179 A 
BRANCH  81  83
ATOM     83  O   UNL A   1      32.376  25.625  21.759  1.00  0.00    -0.477 OA
BRANCH  83  84
ATOM     84  C   UNL A   1      33.268  26.716  22.017  1.00  0.00     0.232 C 
BRANCH  84  85
ATOM     85  C   UNL A   1      32.777  27.692  23.093  1.00  0.00     0.046 C 
BRANCH  85  86
ATOM     86  C   UNL A   1      33.098  27.383  24.566  1.00  0.00     0.039 C 
BRANCH  86  87
ATOM     87  C   UNL A   1      33.097  28.534  25.554  1.00  0.00    -0.048 A 
ATOM     88  C   UNL A   1      34.216  28.713  26.385  1.00  0.00     0.004 A 
ATOM     89  C   UNL A   1      32.077  29.490  25.628  1.00  0.00     0.004 A 
ATOM     90  C   UNL A   1      34.285  29.776  27.291  1.00  0.00     0.000 A 
ATOM     91  C   UNL A   1      32.136  30.547  26.541  1.00  0.00     0.000 A 
ATOM     92  C   UNL A   1      33.238  30.689  27.376  1.00  0.00     0.000 A 
ENDBRANCH  86  87
ENDBRANCH  85  86
ENDBRANCH  84  85
ENDBRANCH  83  84
ENDBRANCH  81  83
ENDBRANCH  75  77
ENDBRANCH  74  75
ENDBRANCH  73  74
ENDBRANCH   1  73
TORSDOF 22
ENDMDL
MODEL 3
REMARK VINA RESULT:     -10.0      1.716      7.844
REMARK SMILES O=C(OCCOCCOC(=O)c1cncc(OCCCc2ccccc2)n1)c1ccc(-c2c3nc(c(-c4cc(S(=O)(=O)[O-])ccc4F)c4ccc([nH]4)c(-c4cc(S(=O)(=O)[O-])ccc4F)c4nc(c(-c5cc(S(=O)(=O)[O-])ccc5F)c5ccc2[nH]5)C=C4)C=C3)cc1
REMARK SMILES IDX 7 1 6 2 5 3 4 4 3 5 2 6 1 7 28 8 29 9 90 10 30 11 89 12
REMARK SMILES IDX 31 13 32 14 33 15 83 16 34 17 88 18 82 19 84 20 35 21 87 22
REMARK SMILES IDX 81 23 80 24 36 26 68 27 48 28 67 29 49 30 52 31 66 32 85 33
REMARK SMILES IDX 50 34 51 35 65 37 86 38 53 39 37 40 38 41 46 42 39 43 45 44
REMARK SMILES IDX 47 45 44 46 40 47 41 48 42 49 43 50 69 51 70 52 78 53 71 54
REMARK SMILES IDX 77 55 79 56 76 57 72 58 73 59 74 60 75 61 54 62 55 63 63 64
REMARK SMILES IDX 56 65 62 66 64 67 61 68 57 69 58 70 59 71 60 72 8 73 9 74
REMARK SMILES IDX 10 75 11 76 12 77 13 78 27 79 14 80 16 81 15 82 17 83 18 84
REMARK SMILES IDX 19 85 20 86 21 87 22 88 26 89 23 90 25 91 24 92
REMARK H PARENT 84 25 52 36
REMARK Flexibility Score: inf
ROOT
ATOM      1  C   UNL A   1      37.953  21.837  25.720  1.00  0.00     0.202 C 
ENDROOT
BRANCH   1   2
ATOM      2  O   UNL A   1      38.004  20.869  24.674  1.00  0.00    -0.374 OA
BRANCH   2   3
ATOM      3  C   UNL A   1      38.611  19.625  25.027  1.00  0.00     0.202 C 
BRANCH   3   4
ATOM      4  C   UNL A   1      39.648  19.763  26.141  1.00  0.00     0.261 C 
BRANCH   4   5
ATOM      5  O   UNL A   1      40.888  19.160  25.738  1.00  0.00    -0.460 OA
BRANCH   5   6
ATOM      6  C   UNL A   1      42.139  19.627  25.961  1.00  0.00     0.338 C 
ATOM      7  O   UNL A   1      43.074  18.830  25.875  1.00  0.00    -0.246 OA
BRANCH   6   8
ATOM      8  C   UNL A   1      42.462  21.045  26.320  1.00  0.00     0.060 A 
ATOM      9  C   UNL A   1      42.716  21.518  27.609  1.00  0.00     0.016 A 
ATOM     10  C   UNL A   1      42.620  21.949  25.256  1.00  0.00     0.016 A 
ATOM     11  C   UNL A   1      43.087  22.835  27.849  1.00  0.00     0.010 A 
ATOM     12  C   UNL A   1      43.035  23.266  25.482  1.00  0.00     0.010 A 
ATOM     13  C   UNL A   1      43.267  23.714  26.788  1.00  0.00    -0.014 A 
BRANCH  13  14
ATOM     14  C   UNL A   1      43.601  25.121  27.086  1.00  0.00     0.031 A 
ATOM     15  C   UNL A   1      44.985  25.603  26.784  1.00  0.00     0.074 A 
ATOM     16  C   UNL A   1      42.645  25.959  27.527  1.00  0.00     0.049 A 
ATOM     17  N   UNL A   1      45.530  26.765  27.019  1.00  0.00    -0.248 NA
ATOM     18  C   UNL A   1      45.877  24.637  26.124  1.00  0.00     0.031 C 
ATOM     19  C   UNL A   1      41.239  25.600  27.734  1.00  0.00     0.029 A 
ATOM     20  N   UNL A   1      42.697  27.288  27.854  1.00  0.00    -0.354 N 
ATOM     21  C   UNL A   1      46.842  26.659  26.573  1.00  0.00     0.074 A 
ATOM     22  C   UNL A   1      47.012  25.313  26.071  1.00  0.00     0.031 C 
ATOM     23  C   UNL A   1      40.559  26.691  28.122  1.00  0.00     0.029 A 
ATOM     24  C   UNL A   1      41.491  27.803  28.270  1.00  0.00     0.049 A 
ATOM     25  H   UNL A   1      43.521  27.824  27.797  1.00  0.00     0.167 HD
ATOM     26  C   UNL A   1      47.811  27.606  26.594  1.00  0.00     0.034 A 
ATOM     27  C   UNL A   1      41.190  29.027  28.746  1.00  0.00     0.034 A 
ATOM     28  C   UNL A   1      47.595  28.936  27.110  1.00  0.00     0.049 A 
ATOM     29  C   UNL A   1      42.311  30.031  28.855  1.00  0.00     0.074 A 
ATOM     30  C   UNL A   1      48.497  29.977  27.230  1.00  0.00     0.029 A 
ATOM     31  N   UNL A   1      46.380  29.405  27.602  1.00  0.00    -0.354 N 
ATOM     32  N   UNL A   1      43.571  29.907  28.499  1.00  0.00    -0.248 NA
ATOM     33  C   UNL A   1      41.973  31.337  29.430  1.00  0.00     0.031 C 
ATOM     34  C   UNL A   1      47.850  31.042  27.866  1.00  0.00     0.029 A 
ATOM     35  C   UNL A   1      46.517  30.707  28.054  1.00  0.00     0.049 A 
ATOM     36  H   UNL A   1      45.543  28.885  27.627  1.00  0.00     0.167 HD
ATOM     37  C   UNL A   1      44.166  31.134  28.771  1.00  0.00     0.074 A 
ATOM     38  C   UNL A   1      43.122  31.984  29.311  1.00  0.00     0.031 C 
ATOM     39  C   UNL A   1      45.454  31.529  28.589  1.00  0.00     0.034 A 
BRANCH  26  40
ATOM     40  C   UNL A   1      49.191  27.181  26.148  1.00  0.00     0.023 A 
ATOM     41  C   UNL A   1      50.200  26.831  27.063  1.00  0.00     0.031 A 
ATOM     42  C   UNL A   1      49.532  27.234  24.784  1.00  0.00     0.131 A 
ATOM     43  C   UNL A   1      51.520  26.656  26.616  1.00  0.00     0.055 A 
ATOM     44  C   UNL A   1      50.826  26.959  24.336  1.00  0.00     0.041 A 
ATOM     45  F   UNL A   1      48.624  27.592  23.865  1.00  0.00    -0.206 F 
ATOM     46  C   UNL A   1      51.834  26.691  25.256  1.00  0.00     0.022 A 
BRANCH  43  47
ATOM     47  S   UNL A   1      52.850  26.587  27.849  1.00  0.00     0.124 S 
ATOM     48  O   UNL A   1      52.114  26.219  29.057  1.00  0.00    -0.237 OA
ATOM     49  O   UNL A   1      53.735  25.564  27.304  1.00  0.00    -0.237 OA
ATOM     50  O   UNL A   1      53.390  27.945  27.849  1.00  0.00    -0.744 OA
ENDBRANCH  43  47
ENDBRANCH  26  40
BRANCH  27  51
ATOM     51  C   UNL A   1      39.805  29.359  29.196  1.00  0.00     0.023 A 
ATOM     52  C   UNL A   1      39.469  29.388  30.559  1.00  0.00     0.031 A 
ATOM     53  C   UNL A   1      38.777  29.600  28.265  1.00  0.00     0.131 A 
ATOM     54  C   UNL A   1      38.138  29.606  30.951  1.00  0.00     0.055 A 
ATOM     55  C   UNL A   1      37.466  29.877  28.661  1.00  0.00     0.041 A 
ATOM     56  F   UNL A   1      39.032  29.577  26.948  1.00  0.00    -0.206 F 
ATOM     57  C   UNL A   1      37.137  29.868  30.012  1.00  0.00     0.022 A 
BRANCH  54  58
ATOM     58  S   UNL A   1      37.708  29.447  32.708  1.00  0.00     0.124 S 
ATOM     59  O   UNL A   1      37.648  27.999  32.867  1.00  0.00    -0.237 OA
ATOM     60  O   UNL A   1      38.829  30.119  33.356  1.00  0.00    -0.237 OA
ATOM     61  O   UNL A   1      36.425  30.139  32.809  1.00  0.00    -0.744 OA
ENDBRANCH  54  58
ENDBRANCH  27  51
BRANCH  39  62
ATOM     62  C   UNL A   1      45.775  32.969  28.910  1.00  0.00     0.023 A 
ATOM     63  C   UNL A   1      45.543  34.009  27.993  1.00  0.00     0.031 A 
ATOM     64  C   UNL A   1      46.341  33.298  30.156  1.00  0.00     0.131 A 
ATOM     65  C   UNL A   1      45.938  35.317  28.310  1.00  0.00     0.055 A 
ATOM     66  C   UNL A   1      46.660  34.611  30.494  1.00  0.00     0.041 A 
ATOM     67  F   UNL A   1      46.590  32.343  31.068  1.00  0.00    -0.206 F 
ATOM     68  C   UNL A   1      46.475  35.628  29.562  1.00  0.00     0.022 A 
BRANCH  65  69
ATOM     69  S   UNL A   1      45.855  36.586  27.017  1.00  0.00     0.124 S 
ATOM     70  O   UNL A   1      46.415  35.882  25.867  1.00  0.00    -0.237 OA
ATOM     71  O   UNL A   1      44.426  36.873  26.953  1.00  0.00    -0.237 OA
ATOM     72  O   UNL A   1      46.683  37.667  27.546  1.00  0.00    -0.744 OA
ENDBRANCH  65  69
ENDBRANCH  39  62
ENDBRANCH  13  14
ENDBRANCH   6   8
ENDBRANCH   5   6
ENDBRANCH   4   5
ENDBRANCH   3   4
ENDBRANCH   2   3
ENDBRANCH   1   2
BRANCH   1  73
ATOM     73  C   UNL A   1      37.223  23.095  25.244  1.00  0.00     0.261 C 
BRANCH  73  74
ATOM     74  O   UNL A   1      35.932  22.743  24.710  1.00  0.00    -0.458 OA
BRANCH  74  75
ATOM     75  C   UNL A   1      35.758  23.049  23.392  1.00  0.00     0.358 C 
ATOM     76  O   UNL A   1      36.600  22.952  22.511  1.00  0.00    -0.244 OA
BRANCH  75  77
ATOM     77  C   UNL A   1      34.342  23.426  23.150  1.00  0.00     0.170 A 
ATOM     78  C   UNL A   1      33.317  22.498  23.264  1.00  0.00     0.147 A 
ATOM     79  N   UNL A   1      34.101  24.723  22.810  1.00  0.00    -0.203 NA
ATOM     80  N   UNL A   1      32.016  22.818  23.039  1.00  0.00    -0.257 NA
ATOM     81  C   UNL A   1      32.818  25.048  22.586  1.00  0.00     0.233 A 
ATOM     82  C   UNL A   1      31.794  24.119  22.717  1.00  0.00     0.179 A 
BRANCH  81  83
ATOM     83  O   UNL A   1      32.518  26.381  22.473  1.00  0.00    -0.477 OA
BRANCH  83  84
ATOM     84  C   UNL A   1      33.017  27.169  23.559  1.00  0.00     0.232 C 
BRANCH  84  85
ATOM     85  C   UNL A   1      31.947  27.993  24.286  1.00  0.00     0.046 C 
BRANCH  85  86
ATOM     86  C   UNL A   1      31.470  27.518  25.669  1.00  0.00     0.039 C 
BRANCH  86  87
ATOM     87  C   UNL A   1      31.654  26.055  26.024  1.00  0.00    -0.048 A 
ATOM     88  C   UNL A   1      30.527  25.216  26.042  1.00  0.00     0.004 A 
ATOM     89  C   UNL A   1      32.904  25.466  26.254  1.00  0.00     0.004 A 
ATOM     90  C   UNL A   1      30.643  23.853  26.330  1.00  0.00     0.000 A 
ATOM     91  C   UNL A   1      33.022  24.105  26.554  1.00  0.00     0.000 A 
ATOM     92  C   UNL A   1      31.891  23.298  26.596  1.00  0.00     0.000 A 
ENDBRANCH  86  87
ENDBRANCH  85  86
ENDBRANCH  84  85
ENDBRANCH  83  84
ENDBRANCH  81  83
ENDBRANCH  75  77
ENDBRANCH  74  75
ENDBRANCH  73  74
ENDBRANCH   1  73
TORSDOF 22
ENDMDL
