MODEL 1
REMARK VINA RESULT:      -9.6      0.000      0.000
REMARK SMILES O=C(OCCOCCOC(=O)c1ccc(-c2ccc(Cl)cc2)cc1F)c1ccc(-c2c3nc(c(-c4cc(S(=O)(=O)[O-])ccc4F)c4ccc([nH]4)c(-c4cc(S(=O)(=O)[O-])ccc4F)c4nc(c(-c5cc(S(=O)(=O)[O-])ccc5F)c5ccc2[nH]5)C=C4)C=C3)cc1
REMARK SMILES IDX 5 1 4 2 3 3 2 4 1 5 26 6 27 7 88 8 28 9 87 10 29 11 30 12
REMARK SMILES IDX 31 13 81 14 32 15 86 16 80 17 82 18 33 19 85 20 79 21 78 22
REMARK SMILES IDX 34 24 66 25 46 26 65 27 47 28 50 29 64 30 83 31 48 32 49 33
REMARK SMILES IDX 63 35 84 36 51 37 35 38 36 39 44 40 37 41 43 42 45 43 42 44
REMARK SMILES IDX 38 45 39 46 40 47 41 48 67 49 68 50 76 51 69 52 75 53 77 54
REMARK SMILES IDX 74 55 70 56 71 57 72 58 73 59 52 60 53 61 61 62 54 63 60 64
REMARK SMILES IDX 62 65 59 66 55 67 56 68 57 69 58 70 6 71 7 72 8 73 9 74
REMARK SMILES IDX 10 75 11 76 12 77 13 78 24 79 14 80 23 81 25 82 15 83 16 84
REMARK SMILES IDX 17 85 22 86 18 87 21 88 19 89 20 90
REMARK H PARENT 82 23 50 34
REMARK Flexibility Score: inf
ROOT
ATOM      1  C   UNL A   1      42.189  19.615  26.437  1.00  0.00     0.202 C 
ENDROOT
BRANCH   1   2
ATOM      2  C   UNL A   1      40.735  19.473  25.972  1.00  0.00     0.261 C 
BRANCH   2   3
ATOM      3  O   UNL A   1      39.876  20.348  26.722  1.00  0.00    -0.460 OA
BRANCH   3   4
ATOM      4  C   UNL A   1      39.268  21.487  26.313  1.00  0.00     0.338 C 
ATOM      5  O   UNL A   1      38.234  21.385  25.651  1.00  0.00    -0.246 OA
BRANCH   4   6
ATOM      6  C   UNL A   1      39.767  22.863  26.621  1.00  0.00     0.060 A 
ATOM      7  C   UNL A   1      39.322  24.036  26.011  1.00  0.00     0.016 A 
ATOM      8  C   UNL A   1      40.707  22.983  27.660  1.00  0.00     0.016 A 
ATOM      9  C   UNL A   1      39.836  25.275  26.351  1.00  0.00     0.010 A 
ATOM     10  C   UNL A   1      41.212  24.233  28.035  1.00  0.00     0.010 A 
ATOM     11  C   UNL A   1      40.794  25.378  27.353  1.00  0.00    -0.014 A 
BRANCH  11  12
ATOM     12  C   UNL A   1      41.442  26.690  27.511  1.00  0.00     0.031 A 
ATOM     13  C   UNL A   1      40.791  27.676  28.434  1.00  0.00     0.074 A 
ATOM     14  C   UNL A   1      42.678  26.879  27.016  1.00  0.00     0.049 A 
ATOM     15  N   UNL A   1      41.183  28.872  28.772  1.00  0.00    -0.248 NA
ATOM     16  C   UNL A   1      39.541  27.244  29.088  1.00  0.00     0.031 C 
ATOM     17  C   UNL A   1      43.436  25.888  26.246  1.00  0.00     0.029 A 
ATOM     18  N   UNL A   1      43.539  27.937  27.133  1.00  0.00    -0.354 N 
ATOM     19  C   UNL A   1      40.225  29.340  29.663  1.00  0.00     0.074 A 
ATOM     20  C   UNL A   1      39.226  28.308  29.809  1.00  0.00     0.031 C 
ATOM     21  C   UNL A   1      44.663  26.372  25.994  1.00  0.00     0.029 A 
ATOM     22  C   UNL A   1      44.753  27.730  26.518  1.00  0.00     0.049 A 
ATOM     23  H   UNL A   1      43.312  28.767  27.610  1.00  0.00     0.167 HD
ATOM     24  C   UNL A   1      40.197  30.531  30.299  1.00  0.00     0.034 A 
ATOM     25  C   UNL A   1      45.801  28.565  26.374  1.00  0.00     0.034 A 
ATOM     26  C   UNL A   1      41.217  31.528  30.130  1.00  0.00     0.049 A 
ATOM     27  C   UNL A   1      45.677  29.942  26.976  1.00  0.00     0.074 A 
ATOM     28  C   UNL A   1      41.271  32.806  30.648  1.00  0.00     0.029 A 
ATOM     29  N   UNL A   1      42.372  31.344  29.378  1.00  0.00    -0.354 N 
ATOM     30  N   UNL A   1      44.711  30.424  27.728  1.00  0.00    -0.248 NA
ATOM     31  C   UNL A   1      46.755  30.895  26.692  1.00  0.00     0.031 C 
ATOM     32  C   UNL A   1      42.432  33.416  30.163  1.00  0.00     0.029 A 
ATOM     33  C   UNL A   1      43.132  32.497  29.393  1.00  0.00     0.049 A 
ATOM     34  H   UNL A   1      42.612  30.516  28.905  1.00  0.00     0.167 HD
ATOM     35  C   UNL A   1      45.065  31.737  28.005  1.00  0.00     0.074 A 
ATOM     36  C   UNL A   1      46.343  31.966  27.357  1.00  0.00     0.031 C 
ATOM     37  C   UNL A   1      44.398  32.676  28.722  1.00  0.00     0.034 A 
BRANCH  24  38
ATOM     38  C   UNL A   1      38.995  30.833  31.150  1.00  0.00     0.023 A 
ATOM     39  C   UNL A   1      37.860  31.477  30.632  1.00  0.00     0.031 A 
ATOM     40  C   UNL A   1      39.004  30.498  32.515  1.00  0.00     0.131 A 
ATOM     41  C   UNL A   1      36.794  31.802  31.485  1.00  0.00     0.055 A 
ATOM     42  C   UNL A   1      37.918  30.771  33.346  1.00  0.00     0.041 A 
ATOM     43  F   UNL A   1      40.080  29.911  33.066  1.00  0.00    -0.206 F 
ATOM     44  C   UNL A   1      36.805  31.432  32.834  1.00  0.00     0.022 A 
BRANCH  41  45
ATOM     45  S   UNL A   1      35.416  32.783  30.831  1.00  0.00     0.124 S 
ATOM     46  O   UNL A   1      34.307  32.322  31.663  1.00  0.00    -0.237 OA
ATOM     47  O   UNL A   1      35.858  34.152  31.063  1.00  0.00    -0.237 OA
ATOM     48  O   UNL A   1      35.344  32.382  29.428  1.00  0.00    -0.744 OA
ENDBRANCH  41  45
ENDBRANCH  24  38
BRANCH  25  49
ATOM     49  C   UNL A   1      46.990  28.163  25.567  1.00  0.00     0.023 A 
ATOM     50  C   UNL A   1      47.020  28.312  24.172  1.00  0.00     0.031 A 
ATOM     51  C   UNL A   1      48.120  27.598  26.192  1.00  0.00     0.131 A 
ATOM     52  C   UNL A   1      48.148  27.886  23.447  1.00  0.00     0.055 A 
ATOM     53  C   UNL A   1      49.254  27.218  25.473  1.00  0.00     0.041 A 
ATOM     54  F   UNL A   1      48.144  27.424  27.522  1.00  0.00    -0.206 F 
ATOM     55  C   UNL A   1      49.270  27.354  24.090  1.00  0.00     0.022 A 
BRANCH  52  56
ATOM     56  S   UNL A   1      48.116  27.987  21.635  1.00  0.00     0.124 S 
ATOM     57  O   UNL A   1      46.741  28.407  21.386  1.00  0.00    -0.237 OA
ATOM     58  O   UNL A   1      49.151  28.979  21.366  1.00  0.00    -0.237 OA
ATOM     59  O   UNL A   1      48.437  26.625  21.212  1.00  0.00    -0.744 OA
ENDBRANCH  52  56
ENDBRANCH  25  49
BRANCH  37  60
ATOM     60  C   UNL A   1      45.035  34.028  28.843  1.00  0.00     0.023 A 
ATOM     61  C   UNL A   1      45.976  34.292  29.849  1.00  0.00     0.031 A 
ATOM     62  C   UNL A   1      44.770  35.023  27.887  1.00  0.00     0.131 A 
ATOM     63  C   UNL A   1      46.619  35.536  29.882  1.00  0.00     0.055 A 
ATOM     64  C   UNL A   1      45.445  36.241  27.900  1.00  0.00     0.041 A 
ATOM     65  F   UNL A   1      43.883  34.804  26.903  1.00  0.00    -0.206 F 
ATOM     66  C   UNL A   1      46.375  36.503  28.903  1.00  0.00     0.022 A 
BRANCH  63  67
ATOM     67  S   UNL A   1      47.783  35.874  31.229  1.00  0.00     0.124 S 
ATOM     68  O   UNL A   1      48.390  34.563  31.439  1.00  0.00    -0.237 OA
ATOM     69  O   UNL A   1      48.654  36.892  30.649  1.00  0.00    -0.237 OA
ATOM     70  O   UNL A   1      46.924  36.342  32.314  1.00  0.00    -0.744 OA
ENDBRANCH  63  67
ENDBRANCH  37  60
ENDBRANCH  11  12
ENDBRANCH   4   6
ENDBRANCH   3   4
ENDBRANCH   2   3
ENDBRANCH   1   2
BRANCH   1  71
ATOM     71  O   UNL A   1      43.056  20.259  25.500  1.00  0.00    -0.374 OA
BRANCH  71  72
ATOM     72  C   UNL A   1      44.252  19.549  25.159  1.00  0.00     0.202 C 
BRANCH  72  73
ATOM     73  C   UNL A   1      45.248  20.498  24.496  1.00  0.00     0.261 C 
BRANCH  73  74
ATOM     74  O   UNL A   1      45.960  21.178  25.539  1.00  0.00    -0.460 OA
BRANCH  74  75
ATOM     75  C   UNL A   1      45.961  22.526  25.430  1.00  0.00     0.341 C 
ATOM     76  O   UNL A   1      45.978  23.195  24.410  1.00  0.00    -0.246 OA
BRANCH  75  77
ATOM     77  C   UNL A   1      45.726  23.103  26.759  1.00  0.00     0.095 A 
ATOM     78  C   UNL A   1      44.592  22.692  27.474  1.00  0.00     0.019 A 
ATOM     79  C   UNL A   1      46.589  24.042  27.306  1.00  0.00     0.138 A 
ATOM     80  C   UNL A   1      44.306  23.264  28.714  1.00  0.00     0.010 A 
ATOM     81  C   UNL A   1      46.300  24.623  28.533  1.00  0.00     0.049 A 
ATOM     82  F   UNL A   1      47.675  24.467  26.644  1.00  0.00    -0.206 F 
ATOM     83  C   UNL A   1      45.129  24.277  29.227  1.00  0.00    -0.015 A 
BRANCH  83  84
ATOM     84  C   UNL A   1      44.683  25.109  30.343  1.00  0.00    -0.018 A 
ATOM     85  C   UNL A   1      44.814  24.587  31.643  1.00  0.00     0.010 A 
ATOM     86  C   UNL A   1      44.149  26.393  30.180  1.00  0.00     0.010 A 
ATOM     87  C   UNL A   1      44.412  25.319  32.756  1.00  0.00     0.021 A 
ATOM     88  C   UNL A   1      43.743  27.129  31.299  1.00  0.00     0.021 A 
ATOM     89  C   UNL A   1      43.873  26.588  32.578  1.00  0.00     0.041 A 
ATOM     90  Cl  UNL A   1      43.367  27.490  33.953  1.00  0.00    -0.084 Cl
ENDBRANCH  83  84
ENDBRANCH  75  77
ENDBRANCH  74  75
ENDBRANCH  73  74
ENDBRANCH  72  73
ENDBRANCH  71  72
ENDBRANCH   1  71
TORSDOF 18
ENDMDL
MODEL 2
REMARK VINA RESULT:      -9.5      2.001      2.309
REMARK SMILES O=C(OCCOCCOC(=O)c1ccc(-c2ccc(Cl)cc2)cc1F)c1ccc(-c2c3nc(c(-c4cc(S(=O)(=O)[O-])ccc4F)c4ccc([nH]4)c(-c4cc(S(=O)(=O)[O-])ccc4F)c4nc(c(-c5cc(S(=O)(=O)[O-])ccc5F)c5ccc2[nH]5)C=C4)C=C3)cc1
REMARK SMILES IDX 5 1 4 2 3 3 2 4 1 5 26 6 27 7 88 8 28 9 87 10 29 11 30 12
REMARK SMILES IDX 31 13 81 14 32 15 86 16 80 17 82 18 33 19 85 20 79 21 78 22
REMARK SMILES IDX 34 24 66 25 46 26 65 27 47 28 50 29 64 30 83 31 48 32 49 33
REMARK SMILES IDX 63 35 84 36 51 37 35 38 36 39 44 40 37 41 43 42 45 43 42 44
REMARK SMILES IDX 38 45 39 46 40 47 41 48 67 49 68 50 76 51 69 52 75 53 77 54
REMARK SMILES IDX 74 55 70 56 71 57 72 58 73 59 52 60 53 61 61 62 54 63 60 64
REMARK SMILES IDX 62 65 59 66 55 67 56 68 57 69 58 70 6 71 7 72 8 73 9 74
REMARK SMILES IDX 10 75 11 76 12 77 13 78 24 79 14 80 23 81 25 82 15 83 16 84
REMARK SMILES IDX 17 85 22 86 18 87 21 88 19 89 20 90
REMARK H PARENT 82 23 50 34
REMARK Flexibility Score: inf
ROOT
ATOM      1  C   UNL A   1      41.669  19.421  26.311  1.00  0.00     0.202 C 
ENDROOT
BRANCH   1   2
ATOM      2  C   UNL A   1      40.218  19.843  26.050  1.00  0.00     0.261 C 
BRANCH   2   3
ATOM      3  O   UNL A   1      39.848  20.938  26.904  1.00  0.00    -0.460 OA
BRANCH   3   4
ATOM      4  C   UNL A   1      39.249  22.105  26.568  1.00  0.00     0.338 C 
ATOM      5  O   UNL A   1      38.144  22.054  26.027  1.00  0.00    -0.246 OA
BRANCH   4   6
ATOM      6  C   UNL A   1      39.842  23.455  26.819  1.00  0.00     0.060 A 
ATOM      7  C   UNL A   1      39.627  24.588  26.033  1.00  0.00     0.016 A 
ATOM      8  C   UNL A   1      40.618  23.606  27.982  1.00  0.00     0.016 A 
ATOM      9  C   UNL A   1      40.214  25.804  26.331  1.00  0.00     0.010 A 
ATOM     10  C   UNL A   1      41.192  24.839  28.312  1.00  0.00     0.010 A 
ATOM     11  C   UNL A   1      41.011  25.933  27.462  1.00  0.00    -0.014 A 
BRANCH  11  12
ATOM     12  C   UNL A   1      41.765  27.189  27.596  1.00  0.00     0.031 A 
ATOM     13  C   UNL A   1      41.207  28.236  28.511  1.00  0.00     0.074 A 
ATOM     14  C   UNL A   1      43.008  27.270  27.087  1.00  0.00     0.049 A 
ATOM     15  N   UNL A   1      41.699  29.401  28.829  1.00  0.00    -0.248 NA
ATOM     16  C   UNL A   1      39.933  27.917  29.182  1.00  0.00     0.031 C 
ATOM     17  C   UNL A   1      43.674  26.210  26.324  1.00  0.00     0.029 A 
ATOM     18  N   UNL A   1      43.953  28.255  27.181  1.00  0.00    -0.354 N 
ATOM     19  C   UNL A   1      40.792  29.957  29.722  1.00  0.00     0.074 A 
ATOM     20  C   UNL A   1      39.713  29.013  29.891  1.00  0.00     0.031 C 
ATOM     21  C   UNL A   1      44.934  26.589  26.054  1.00  0.00     0.029 A 
ATOM     22  C   UNL A   1      45.140  27.941  26.558  1.00  0.00     0.049 A 
ATOM     23  H   UNL A   1      43.800  29.107  27.649  1.00  0.00     0.167 HD
ATOM     24  C   UNL A   1      40.867  31.155  30.342  1.00  0.00     0.034 A 
ATOM     25  C   UNL A   1      46.252  28.686  26.393  1.00  0.00     0.034 A 
ATOM     26  C   UNL A   1      41.964  32.062  30.150  1.00  0.00     0.049 A 
ATOM     27  C   UNL A   1      46.246  30.076  26.977  1.00  0.00     0.074 A 
ATOM     28  C   UNL A   1      42.128  33.339  30.651  1.00  0.00     0.029 A 
ATOM     29  N   UNL A   1      43.092  31.775  29.390  1.00  0.00    -0.354 N 
ATOM     30  N   UNL A   1      45.332  30.645  27.731  1.00  0.00    -0.248 NA
ATOM     31  C   UNL A   1      47.396  30.934  26.671  1.00  0.00     0.031 C 
ATOM     32  C   UNL A   1      43.330  33.845  30.146  1.00  0.00     0.029 A 
ATOM     33  C   UNL A   1      43.944  32.862  29.383  1.00  0.00     0.049 A 
ATOM     34  H   UNL A   1      43.259  30.923  28.926  1.00  0.00     0.167 HD
ATOM     35  C   UNL A   1      45.795  31.929  27.987  1.00  0.00     0.074 A 
ATOM     36  C   UNL A   1      47.080  32.044  27.324  1.00  0.00     0.031 C 
ATOM     37  C   UNL A   1      45.213  32.927  28.698  1.00  0.00     0.034 A 
BRANCH  24  38
ATOM     38  C   UNL A   1      39.703  31.566  31.200  1.00  0.00     0.023 A 
ATOM     39  C   UNL A   1      39.733  31.448  32.599  1.00  0.00     0.031 A 
ATOM     40  C   UNL A   1      38.530  32.052  30.598  1.00  0.00     0.131 A 
ATOM     41  C   UNL A   1      38.593  31.777  33.349  1.00  0.00     0.055 A 
ATOM     42  C   UNL A   1      37.420  32.432  31.353  1.00  0.00     0.041 A 
ATOM     43  F   UNL A   1      38.439  32.151  29.261  1.00  0.00    -0.206 F 
ATOM     44  C   UNL A   1      37.445  32.291  32.737  1.00  0.00     0.022 A 
BRANCH  41  45
ATOM     45  S   UNL A   1      38.597  31.457  35.134  1.00  0.00     0.124 S 
ATOM     46  O   UNL A   1      37.271  31.936  35.521  1.00  0.00    -0.237 OA
ATOM     47  O   UNL A   1      38.796  30.014  35.201  1.00  0.00    -0.237 OA
ATOM     48  O   UNL A   1      39.712  32.263  35.626  1.00  0.00    -0.744 OA
ENDBRANCH  41  45
ENDBRANCH  24  38
BRANCH  25  49
ATOM     49  C   UNL A   1      47.395  28.177  25.581  1.00  0.00     0.023 A 
ATOM     50  C   UNL A   1      47.406  28.272  24.181  1.00  0.00     0.031 A 
ATOM     51  C   UNL A   1      48.499  27.563  26.207  1.00  0.00     0.131 A 
ATOM     52  C   UNL A   1      48.490  27.747  23.453  1.00  0.00     0.055 A 
ATOM     53  C   UNL A   1      49.591  27.084  25.482  1.00  0.00     0.041 A 
ATOM     54  F   UNL A   1      48.539  27.438  27.542  1.00  0.00    -0.206 F 
ATOM     55  C   UNL A   1      49.588  27.167  24.095  1.00  0.00     0.022 A 
BRANCH  52  56
ATOM     56  S   UNL A   1      48.427  27.783  21.639  1.00  0.00     0.124 S 
ATOM     57  O   UNL A   1      47.059  28.227  21.399  1.00  0.00    -0.237 OA
ATOM     58  O   UNL A   1      49.480  28.739  21.316  1.00  0.00    -0.237 OA
ATOM     59  O   UNL A   1      48.708  26.398  21.261  1.00  0.00    -0.744 OA
ENDBRANCH  52  56
ENDBRANCH  25  49
BRANCH  37  60
ATOM     60  C   UNL A   1      45.960  34.225  28.794  1.00  0.00     0.023 A 
ATOM     61  C   UNL A   1      45.619  35.313  27.978  1.00  0.00     0.031 A 
ATOM     62  C   UNL A   1      46.950  34.400  29.776  1.00  0.00     0.131 A 
ATOM     63  C   UNL A   1      46.275  36.538  28.151  1.00  0.00     0.055 A 
ATOM     64  C   UNL A   1      47.568  35.633  29.972  1.00  0.00     0.041 A 
ATOM     65  F   UNL A   1      47.297  33.385  30.583  1.00  0.00    -0.206 F 
ATOM     66  C   UNL A   1      47.232  36.710  29.156  1.00  0.00     0.022 A 
BRANCH  63  67
ATOM     67  S   UNL A   1      45.861  37.909  27.041  1.00  0.00     0.124 S 
ATOM     68  O   UNL A   1      44.431  37.706  26.832  1.00  0.00    -0.237 OA
ATOM     69  O   UNL A   1      46.229  39.080  27.830  1.00  0.00    -0.237 OA
ATOM     70  O   UNL A   1      46.700  37.665  25.870  1.00  0.00    -0.744 OA
ENDBRANCH  63  67
ENDBRANCH  37  60
ENDBRANCH  11  12
ENDBRANCH   4   6
ENDBRANCH   3   4
ENDBRANCH   2   3
ENDBRANCH   1   2
BRANCH   1  71
ATOM     71  O   UNL A   1      42.475  19.294  25.137  1.00  0.00    -0.374 OA
BRANCH  71  72
ATOM     72  C   UNL A   1      43.847  18.946  25.351  1.00  0.00     0.202 C 
BRANCH  72  73
ATOM     73  C   UNL A   1      44.713  19.545  24.244  1.00  0.00     0.261 C 
BRANCH  73  74
ATOM     74  O   UNL A   1      45.443  20.642  24.809  1.00  0.00    -0.460 OA
BRANCH  74  75
ATOM     75  C   UNL A   1      44.789  21.825  24.778  1.00  0.00     0.341 C 
ATOM     76  O   UNL A   1      43.971  22.207  23.958  1.00  0.00    -0.246 OA
BRANCH  75  77
ATOM     77  C   UNL A   1      45.056  22.541  26.031  1.00  0.00     0.095 A 
ATOM     78  C   UNL A   1      44.120  22.442  27.070  1.00  0.00     0.019 A 
ATOM     79  C   UNL A   1      46.200  23.311  26.197  1.00  0.00     0.138 A 
ATOM     80  C   UNL A   1      44.314  23.157  28.252  1.00  0.00     0.010 A 
ATOM     81  C   UNL A   1      46.388  24.034  27.367  1.00  0.00     0.049 A 
ATOM     82  F   UNL A   1      47.109  23.437  25.220  1.00  0.00    -0.206 F 
ATOM     83  C   UNL A   1      45.423  24.005  28.387  1.00  0.00    -0.015 A 
BRANCH  83  84
ATOM     84  C   UNL A   1      45.478  24.997  29.458  1.00  0.00    -0.018 A 
ATOM     85  C   UNL A   1      44.299  25.245  30.186  1.00  0.00     0.010 A 
ATOM     86  C   UNL A   1      46.643  25.695  29.800  1.00  0.00     0.010 A 
ATOM     87  C   UNL A   1      44.274  26.174  31.221  1.00  0.00     0.021 A 
ATOM     88  C   UNL A   1      46.617  26.631  30.841  1.00  0.00     0.021 A 
ATOM     89  C   UNL A   1      45.435  26.868  31.542  1.00  0.00     0.041 A 
ATOM     90  Cl  UNL A   1      45.403  28.024  32.815  1.00  0.00    -0.084 Cl
ENDBRANCH  83  84
ENDBRANCH  75  77
ENDBRANCH  74  75
ENDBRANCH  73  74
ENDBRANCH  72  73
ENDBRANCH  71  72
ENDBRANCH   1  71
TORSDOF 18
ENDMDL
MODEL 3
REMARK VINA RESULT:      -9.3      5.778     10.412
REMARK SMILES O=C(OCCOCCOC(=O)c1ccc(-c2ccc(Cl)cc2)cc1F)c1ccc(-c2c3nc(c(-c4cc(S(=O)(=O)[O-])ccc4F)c4ccc([nH]4)c(-c4cc(S(=O)(=O)[O-])ccc4F)c4nc(c(-c5cc(S(=O)(=O)[O-])ccc5F)c5ccc2[nH]5)C=C4)C=C3)cc1
REMARK SMILES IDX 5 1 4 2 3 3 2 4 1 5 26 6 27 7 88 8 28 9 87 10 29 11 30 12
REMARK SMILES IDX 31 13 81 14 32 15 86 16 80 17 82 18 33 19 85 20 79 21 78 22
REMARK SMILES IDX 34 24 66 25 46 26 65 27 47 28 50 29 64 30 83 31 48 32 49 33
REMARK SMILES IDX 63 35 84 36 51 37 35 38 36 39 44 40 37 41 43 42 45 43 42 44
REMARK SMILES IDX 38 45 39 46 40 47 41 48 67 49 68 50 76 51 69 52 75 53 77 54
REMARK SMILES IDX 74 55 70 56 71 57 72 58 73 59 52 60 53 61 61 62 54 63 60 64
REMARK SMILES IDX 62 65 59 66 55 67 56 68 57 69 58 70 6 71 7 72 8 73 9 74
REMARK SMILES IDX 10 75 11 76 12 77 13 78 24 79 14 80 23 81 25 82 15 83 16 84
REMARK SMILES IDX 17 85 22 86 18 87 21 88 19 89 20 90
REMARK H PARENT 82 23 50 34
REMARK Flexibility Score: inf
ROOT
ATOM      1  C   UNL A   1      32.032  31.169  26.617  1.00  0.00     0.202 C 
ENDROOT
BRANCH   1   2
ATOM      2  C   UNL A   1      31.644  32.651  26.688  1.00  0.00     0.261 C 
BRANCH   2   3
ATOM      3  O   UNL A   1      32.241  33.276  27.836  1.00  0.00    -0.460 OA
BRANCH   3   4
ATOM      4  C   UNL A   1      33.471  33.831  27.950  1.00  0.00     0.338 C 
ATOM      5  O   UNL A   1      33.604  35.015  27.637  1.00  0.00    -0.246 OA
BRANCH   4   6
ATOM      6  C   UNL A   1      34.680  33.099  28.442  1.00  0.00     0.060 A 
ATOM      7  C   UNL A   1      34.679  31.809  28.971  1.00  0.00     0.016 A 
ATOM      8  C   UNL A   1      35.922  33.742  28.288  1.00  0.00     0.016 A 
ATOM      9  C   UNL A   1      35.842  31.199  29.407  1.00  0.00     0.010 A 
ATOM     10  C   UNL A   1      37.109  33.123  28.696  1.00  0.00     0.010 A 
ATOM     11  C   UNL A   1      37.060  31.858  29.286  1.00  0.00    -0.014 A 
BRANCH  11  12
ATOM     12  C   UNL A   1      38.213  31.239  29.959  1.00  0.00     0.031 A 
ATOM     13  C   UNL A   1      38.437  31.581  31.400  1.00  0.00     0.074 A 
ATOM     14  C   UNL A   1      38.878  30.242  29.346  1.00  0.00     0.049 A 
ATOM     15  N   UNL A   1      39.350  31.139  32.220  1.00  0.00    -0.248 NA
ATOM     16  C   UNL A   1      37.487  32.529  32.011  1.00  0.00     0.031 C 
ATOM     17  C   UNL A   1      38.593  29.749  27.995  1.00  0.00     0.029 A 
ATOM     18  N   UNL A   1      39.882  29.428  29.792  1.00  0.00    -0.354 N 
ATOM     19  C   UNL A   1      39.093  31.764  33.434  1.00  0.00     0.074 A 
ATOM     20  C   UNL A   1      37.949  32.624  33.248  1.00  0.00     0.031 C 
ATOM     21  C   UNL A   1      39.380  28.691  27.739  1.00  0.00     0.029 A 
ATOM     22  C   UNL A   1      40.271  28.479  28.873  1.00  0.00     0.049 A 
ATOM     23  H   UNL A   1      40.289  29.512  30.684  1.00  0.00     0.167 HD
ATOM     24  C   UNL A   1      39.764  31.620  34.599  1.00  0.00     0.034 A 
ATOM     25  C   UNL A   1      41.260  27.565  28.942  1.00  0.00     0.034 A 
ATOM     26  C   UNL A   1      40.895  30.747  34.741  1.00  0.00     0.049 A 
ATOM     27  C   UNL A   1      42.084  27.530  30.204  1.00  0.00     0.074 A 
ATOM     28  C   UNL A   1      41.715  30.568  35.838  1.00  0.00     0.029 A 
ATOM     29  N   UNL A   1      41.360  29.900  33.742  1.00  0.00    -0.354 N 
ATOM     30  N   UNL A   1      41.908  28.208  31.317  1.00  0.00    -0.248 NA
ATOM     31  C   UNL A   1      43.249  26.639  30.217  1.00  0.00     0.031 C 
ATOM     32  C   UNL A   1      42.711  29.653  35.481  1.00  0.00     0.029 A 
ATOM     33  C   UNL A   1      42.476  29.217  34.185  1.00  0.00     0.049 A 
ATOM     34  H   UNL A   1      40.955  29.802  32.850  1.00  0.00     0.167 HD
ATOM     35  C   UNL A   1      42.941  27.827  32.162  1.00  0.00     0.074 A 
ATOM     36  C   UNL A   1      43.725  26.843  31.438  1.00  0.00     0.031 C 
ATOM     37  C   UNL A   1      43.226  28.251  33.419  1.00  0.00     0.034 A 
BRANCH  24  38
ATOM     38  C   UNL A   1      39.338  32.483  35.754  1.00  0.00     0.023 A 
ATOM     39  C   UNL A   1      39.765  33.813  35.884  1.00  0.00     0.031 A 
ATOM     40  C   UNL A   1      38.515  31.946  36.759  1.00  0.00     0.131 A 
ATOM     41  C   UNL A   1      39.398  34.554  37.019  1.00  0.00     0.055 A 
ATOM     42  C   UNL A   1      38.106  32.704  37.856  1.00  0.00     0.041 A 
ATOM     43  F   UNL A   1      38.107  30.667  36.697  1.00  0.00    -0.206 F 
ATOM     44  C   UNL A   1      38.552  34.015  37.994  1.00  0.00     0.022 A 
BRANCH  41  45
ATOM     45  S   UNL A   1      40.100  36.210  37.250  1.00  0.00     0.124 S 
ATOM     46  O   UNL A   1      39.932  36.788  35.918  1.00  0.00    -0.237 OA
ATOM     47  O   UNL A   1      39.259  36.772  38.299  1.00  0.00    -0.237 OA
ATOM     48  O   UNL A   1      41.484  35.945  37.638  1.00  0.00    -0.744 OA
ENDBRANCH  41  45
ENDBRANCH  24  38
BRANCH  25  49
ATOM     49  C   UNL A   1      41.577  26.697  27.770  1.00  0.00     0.023 A 
ATOM     50  C   UNL A   1      41.177  25.353  27.717  1.00  0.00     0.031 A 
ATOM     51  C   UNL A   1      42.311  27.208  26.681  1.00  0.00     0.131 A 
ATOM     52  C   UNL A   1      41.528  24.562  26.608  1.00  0.00     0.055 A 
ATOM     53  C   UNL A   1      42.618  26.431  25.563  1.00  0.00     0.041 A 
ATOM     54  F   UNL A   1      42.727  28.484  26.681  1.00  0.00    -0.206 F 
ATOM     55  C   UNL A   1      42.232  25.096  25.525  1.00  0.00     0.022 A 
BRANCH  52  56
ATOM     56  S   UNL A   1      41.094  22.800  26.615  1.00  0.00     0.124 S 
ATOM     57  O   UNL A   1      41.915  22.288  25.523  1.00  0.00    -0.237 OA
ATOM     58  O   UNL A   1      41.487  22.394  27.959  1.00  0.00    -0.237 OA
ATOM     59  O   UNL A   1      39.653  22.802  26.363  1.00  0.00    -0.744 OA
ENDBRANCH  52  56
ENDBRANCH  25  49
BRANCH  37  60
ATOM     60  C   UNL A   1      44.430  27.655  34.087  1.00  0.00     0.023 A 
ATOM     61  C   UNL A   1      44.327  26.470  34.829  1.00  0.00     0.031 A 
ATOM     62  C   UNL A   1      45.700  28.226  33.895  1.00  0.00     0.131 A 
ATOM     63  C   UNL A   1      45.483  25.890  35.367  1.00  0.00     0.055 A 
ATOM     64  C   UNL A   1      46.851  27.621  34.396  1.00  0.00     0.041 A 
ATOM     65  F   UNL A   1      45.840  29.355  33.183  1.00  0.00    -0.206 F 
ATOM     66  C   UNL A   1      46.745  26.447  35.137  1.00  0.00     0.022 A 
BRANCH  63  67
ATOM     67  S   UNL A   1      45.315  24.395  36.375  1.00  0.00     0.124 S 
ATOM     68  O   UNL A   1      46.624  24.315  37.017  1.00  0.00    -0.237 OA
ATOM     69  O   UNL A   1      44.196  24.725  37.251  1.00  0.00    -0.237 OA
ATOM     70  O   UNL A   1      45.042  23.349  35.392  1.00  0.00    -0.744 OA
ENDBRANCH  63  67
ENDBRANCH  37  60
ENDBRANCH  11  12
ENDBRANCH   4   6
ENDBRANCH   3   4
ENDBRANCH   2   3
ENDBRANCH   1   2
BRANCH   1  71
ATOM     71  O   UNL A   1      31.404  30.437  25.563  1.00  0.00    -0.374 OA
BRANCH  71  72
ATOM     72  C   UNL A   1      32.136  29.317  25.051  1.00  0.00     0.202 C 
BRANCH  72  73
ATOM     73  C   UNL A   1      31.191  28.140  24.822  1.00  0.00     0.261 C 
BRANCH  73  74
ATOM     74  O   UNL A   1      31.957  26.935  24.960  1.00  0.00    -0.460 OA
BRANCH  74  75
ATOM     75  C   UNL A   1      31.803  26.306  26.147  1.00  0.00     0.341 C 
ATOM     76  O   UNL A   1      31.272  26.734  27.158  1.00  0.00    -0.246 OA
BRANCH  75  77
ATOM     77  C   UNL A   1      32.199  24.902  25.987  1.00  0.00     0.095 A 
ATOM     78  C   UNL A   1      33.518  24.620  25.606  1.00  0.00     0.019 A 
ATOM     79  C   UNL A   1      31.299  23.866  26.196  1.00  0.00     0.138 A 
ATOM     80  C   UNL A   1      33.912  23.299  25.388  1.00  0.00     0.010 A 
ATOM     81  C   UNL A   1      31.685  22.552  25.966  1.00  0.00     0.049 A 
ATOM     82  F   UNL A   1      30.028  24.101  26.550  1.00  0.00    -0.206 F 
ATOM     83  C   UNL A   1      32.980  22.258  25.511  1.00  0.00    -0.015 A 
BRANCH  83  84
ATOM     84  C   UNL A   1      33.272  20.928  24.980  1.00  0.00    -0.018 A 
ATOM     85  C   UNL A   1      32.308  20.327  24.149  1.00  0.00     0.010 A 
ATOM     86  C   UNL A   1      34.460  20.237  25.247  1.00  0.00     0.010 A 
ATOM     87  C   UNL A   1      32.514  19.063  23.605  1.00  0.00     0.021 A 
ATOM     88  C   UNL A   1      34.667  18.965  24.702  1.00  0.00     0.021 A 
ATOM     89  C   UNL A   1      33.694  18.384  23.888  1.00  0.00     0.041 A 
ATOM     90  Cl  UNL A   1      33.946  16.818  23.224  1.00  0.00    -0.084 Cl
ENDBRANCH  83  84
ENDBRANCH  75  77
ENDBRANCH  74  75
ENDBRANCH  73  74
ENDBRANCH  72  73
ENDBRANCH  71  72
ENDBRANCH   1  71
TORSDOF 18
ENDMDL
