MODEL 1
REMARK VINA RESULT:     -10.6      0.000      0.000
REMARK SMILES CC1(CNS(=O)(=O)Cc2ccc(C(=O)OCCOCCOC(=O)c3ccc(-c4c5nc(c(-c6cc(S(=O)(=O)[O-])ccc6F)c6ccc([nH]6)c(-c6cc(S(=O)(=O)[O-])ccc6F)c6nc(c(-c7cc(S(=O)(=O)[O-])ccc7F)c7ccc4[nH]7)C=C6)C=C5)cc3)cc2)COC1
REMARK SMILES IDX 17 1 16 2 15 3 13 4 14 5 12 6 9 7 10 8 88 9 11 10 87 11 8 12
REMARK SMILES IDX 5 13 6 14 7 15 4 16 3 18 2 19 1 20 89 21 91 22 90 23 18 24
REMARK SMILES IDX 19 25 20 26 21 27 22 28 23 29 24 30 25 31 86 32 26 33 85 34
REMARK SMILES IDX 27 35 28 36 29 37 79 38 30 39 84 40 78 41 80 42 31 43 83 44
REMARK SMILES IDX 77 45 76 46 32 48 64 49 44 50 63 51 45 52 48 53 62 54 81 55
REMARK SMILES IDX 46 56 47 57 61 59 82 60 49 61 33 62 34 63 42 64 35 65 41 66
REMARK SMILES IDX 43 67 40 68 36 69 37 70 38 71 39 72 65 73 66 74 74 75 67 76
REMARK SMILES IDX 73 77 75 78 72 79 68 80 69 81 70 82 71 83 50 84 51 85 59 86
REMARK SMILES IDX 52 87 58 88 60 89 57 90 53 91 54 92 55 93 56 94
REMARK H PARENT 4 17 80 47 48 58
REMARK Flexibility Score: inf
ROOT
ATOM      1  C   UNL A   1      31.512  30.068  25.539  1.00  0.00     0.202 C 
ENDROOT
BRANCH   1   2
ATOM      2  C   UNL A   1      31.396  28.875  24.585  1.00  0.00     0.261 C 
BRANCH   2   3
ATOM      3  O   UNL A   1      32.221  27.773  24.995  1.00  0.00    -0.460 OA
BRANCH   3   4
ATOM      4  C   UNL A   1      33.166  27.415  24.095  1.00  0.00     0.338 C 
ATOM      5  O   UNL A   1      33.652  28.119  23.222  1.00  0.00    -0.246 OA
BRANCH   4   6
ATOM      6  C   UNL A   1      33.688  26.059  24.391  1.00  0.00     0.060 A 
ATOM      7  C   UNL A   1      34.577  23.416  24.766  1.00  0.00    -0.032 A 
ATOM      8  C   UNL A   1      34.464  23.955  23.479  1.00  0.00     0.006 A 
ATOM      9  C   UNL A   1      34.288  24.238  25.869  1.00  0.00     0.006 A 
ATOM     10  C   UNL A   1      34.030  25.264  23.292  1.00  0.00     0.016 A 
ATOM     11  C   UNL A   1      33.844  25.554  25.685  1.00  0.00     0.016 A 
BRANCH   7  12
ATOM     12  C   UNL A   1      34.903  21.957  24.944  1.00  0.00     0.189 C 
BRANCH  12  13
ATOM     13  S   UNL A   1      33.657  21.055  25.867  1.00  0.00     0.215 S 
ATOM     14  O   UNL A   1      32.362  21.374  25.311  1.00  0.00    -0.212 OA
ATOM     15  O   UNL A   1      33.903  21.205  27.288  1.00  0.00    -0.212 OA
BRANCH  13  16
ATOM     16  N   UNL A   1      33.937  19.428  25.531  1.00  0.00    -0.214 NA
ATOM     17  H   UNL A   1      34.377  19.382  24.611  1.00  0.00     0.141 HD
BRANCH  16  18
ATOM     18  C   UNL A   1      32.784  18.509  25.509  1.00  0.00     0.110 C 
BRANCH  18  19
ATOM     19  C   UNL A   1      33.152  17.145  24.911  1.00  0.00     0.028 C 
ATOM     20  C   UNL A   1      32.564  15.948  25.646  1.00  0.00     0.018 C 
ATOM     21  C   UNL A   1      34.666  17.011  24.650  1.00  0.00     0.170 C 
ATOM     22  C   UNL A   1      33.055  17.097  23.373  1.00  0.00     0.170 C 
ATOM     23  O   UNL A   1      34.482  17.334  23.250  1.00  0.00    -0.380 OA
ENDBRANCH  18  19
ENDBRANCH  16  18
ENDBRANCH  13  16
ENDBRANCH  12  13
ENDBRANCH   7  12
ENDBRANCH   4   6
ENDBRANCH   3   4
ENDBRANCH   2   3
ENDBRANCH   1   2
BRANCH   1  24
ATOM     24  O   UNL A   1      32.368  29.926  26.670  1.00  0.00    -0.374 OA
BRANCH  24  25
ATOM     25  C   UNL A   1      33.466  30.830  26.792  1.00  0.00     0.202 C 
BRANCH  25  26
ATOM     26  C   UNL A   1      33.465  31.822  27.965  1.00  0.00     0.261 C 
BRANCH  26  27
ATOM     27  O   UNL A   1      33.363  33.193  27.545  1.00  0.00    -0.460 OA
BRANCH  27  28
ATOM     28  C   UNL A   1      33.463  34.097  28.551  1.00  0.00     0.338 C 
ATOM     29  O   UNL A   1      32.680  34.997  28.807  1.00  0.00    -0.246 OA
BRANCH  28  30
ATOM     30  C   UNL A   1      34.574  33.727  29.447  1.00  0.00     0.060 A 
ATOM     31  C   UNL A   1      35.872  34.086  29.056  1.00  0.00     0.016 A 
ATOM     32  C   UNL A   1      34.363  32.987  30.611  1.00  0.00     0.016 A 
ATOM     33  C   UNL A   1      36.968  33.668  29.807  1.00  0.00     0.010 A 
ATOM     34  C   UNL A   1      35.466  32.561  31.358  1.00  0.00     0.010 A 
ATOM     35  C   UNL A   1      36.775  32.872  30.943  1.00  0.00    -0.014 A 
BRANCH  35  36
ATOM     36  C   UNL A   1      37.945  32.253  31.615  1.00  0.00     0.031 A 
ATOM     37  C   UNL A   1      38.660  31.118  30.936  1.00  0.00     0.074 A 
ATOM     38  C   UNL A   1      38.378  32.714  32.803  1.00  0.00     0.049 A 
ATOM     39  N   UNL A   1      39.663  30.393  31.361  1.00  0.00    -0.248 NA
ATOM     40  C   UNL A   1      38.174  30.748  29.598  1.00  0.00     0.031 C 
ATOM     41  C   UNL A   1      37.796  33.840  33.532  1.00  0.00     0.029 A 
ATOM     42  N   UNL A   1      39.405  32.288  33.607  1.00  0.00    -0.354 N 
ATOM     43  C   UNL A   1      39.924  29.475  30.349  1.00  0.00     0.074 A 
ATOM     44  C   UNL A   1      38.946  29.712  29.307  1.00  0.00     0.031 C 
ATOM     45  C   UNL A   1      38.472  34.011  34.681  1.00  0.00     0.029 A 
ATOM     46  C   UNL A   1      39.502  32.980  34.791  1.00  0.00     0.049 A 
ATOM     47  H   UNL A   1      40.014  31.554  33.360  1.00  0.00     0.167 HD
ATOM     48  C   UNL A   1      40.895  28.531  30.291  1.00  0.00     0.034 A 
ATOM     49  C   UNL A   1      40.308  32.784  35.855  1.00  0.00     0.034 A 
ATOM     50  C   UNL A   1      41.856  28.303  31.345  1.00  0.00     0.049 A 
ATOM     51  C   UNL A   1      41.319  31.663  35.809  1.00  0.00     0.074 A 
ATOM     52  C   UNL A   1      42.890  27.385  31.384  1.00  0.00     0.029 A 
ATOM     53  N   UNL A   1      41.891  28.989  32.553  1.00  0.00    -0.354 N 
ATOM     54  N   UNL A   1      41.561  30.804  34.845  1.00  0.00    -0.248 NA
ATOM     55  C   UNL A   1      42.171  31.489  36.993  1.00  0.00     0.031 C 
ATOM     56  C   UNL A   1      43.495  27.458  32.644  1.00  0.00     0.029 A 
ATOM     57  C   UNL A   1      42.903  28.488  33.358  1.00  0.00     0.049 A 
ATOM     58  H   UNL A   1      41.286  29.726  32.800  1.00  0.00     0.167 HD
ATOM     59  C   UNL A   1      42.617  30.014  35.294  1.00  0.00     0.074 A 
ATOM     60  C   UNL A   1      42.972  30.507  36.609  1.00  0.00     0.031 C 
ATOM     61  C   UNL A   1      43.242  28.980  34.673  1.00  0.00     0.034 A 
BRANCH  48  62
ATOM     62  C   UNL A   1      40.928  27.638  29.072  1.00  0.00     0.023 A 
ATOM     63  C   UNL A   1      41.861  27.826  28.038  1.00  0.00     0.031 A 
ATOM     64  C   UNL A   1      39.993  26.596  28.931  1.00  0.00     0.131 A 
ATOM     65  C   UNL A   1      41.794  27.034  26.881  1.00  0.00     0.055 A 
ATOM     66  C   UNL A   1      39.986  25.757  27.816  1.00  0.00     0.041 A 
ATOM     67  F   UNL A   1      39.060  26.384  29.873  1.00  0.00    -0.206 F 
ATOM     68  C   UNL A   1      40.880  25.983  26.774  1.00  0.00     0.022 A 
BRANCH  65  69
ATOM     69  S   UNL A   1      42.817  27.494  25.455  1.00  0.00     0.124 S 
ATOM     70  O   UNL A   1      42.843  26.245  24.696  1.00  0.00    -0.237 OA
ATOM     71  O   UNL A   1      42.055  28.586  24.860  1.00  0.00    -0.237 OA
ATOM     72  O   UNL A   1      44.092  27.876  26.057  1.00  0.00    -0.744 OA
ENDBRANCH  65  69
ENDBRANCH  48  62
BRANCH  49  73
ATOM     73  C   UNL A   1      40.172  33.635  37.072  1.00  0.00     0.023 A 
ATOM     74  C   UNL A   1      39.622  33.124  38.259  1.00  0.00     0.031 A 
ATOM     75  C   UNL A   1      40.539  34.993  37.049  1.00  0.00     0.131 A 
ATOM     76  C   UNL A   1      39.408  33.977  39.354  1.00  0.00     0.055 A 
ATOM     77  C   UNL A   1      40.381  35.821  38.161  1.00  0.00     0.041 A 
ATOM     78  F   UNL A   1      41.066  35.535  35.939  1.00  0.00    -0.206 F 
ATOM     79  C   UNL A   1      39.799  35.317  39.319  1.00  0.00     0.022 A 
BRANCH  76  80
ATOM     80  S   UNL A   1      38.520  33.329  40.798  1.00  0.00     0.124 S 
ATOM     81  O   UNL A   1      37.131  33.517  40.398  1.00  0.00    -0.237 OA
ATOM     82  O   UNL A   1      38.994  31.950  40.849  1.00  0.00    -0.237 OA
ATOM     83  O   UNL A   1      38.977  34.185  41.890  1.00  0.00    -0.744 OA
ENDBRANCH  76  80
ENDBRANCH  49  73
BRANCH  61  84
ATOM     84  C   UNL A   1      44.413  28.348  35.391  1.00  0.00     0.023 A 
ATOM     85  C   UNL A   1      44.239  27.355  36.372  1.00  0.00     0.031 A 
ATOM     86  C   UNL A   1      45.726  28.754  35.091  1.00  0.00     0.131 A 
ATOM     87  C   UNL A   1      45.353  26.847  37.057  1.00  0.00     0.055 A 
ATOM     88  C   UNL A   1      46.835  28.193  35.727  1.00  0.00     0.041 A 
ATOM     89  F   UNL A   1      45.955  29.701  34.167  1.00  0.00    -0.206 F 
ATOM     90  C   UNL A   1      46.651  27.243  36.727  1.00  0.00     0.022 A 
BRANCH  87  91
ATOM     91  S   UNL A   1      45.078  25.730  38.461  1.00  0.00     0.124 S 
ATOM     92  O   UNL A   1      46.435  25.534  38.962  1.00  0.00    -0.237 OA
ATOM     93  O   UNL A   1      44.191  26.514  39.315  1.00  0.00    -0.237 OA
ATOM     94  O   UNL A   1      44.466  24.552  37.849  1.00  0.00    -0.744 OA
ENDBRANCH  87  91
ENDBRANCH  61  84
ENDBRANCH  35  36
ENDBRANCH  28  30
ENDBRANCH  27  28
ENDBRANCH  26  27
ENDBRANCH  25  26
ENDBRANCH  24  25
ENDBRANCH   1  24
TORSDOF 22
ENDMDL
MODEL 2
REMARK VINA RESULT:     -10.3      2.202      2.754
REMARK SMILES CC1(CNS(=O)(=O)Cc2ccc(C(=O)OCCOCCOC(=O)c3ccc(-c4c5nc(c(-c6cc(S(=O)(=O)[O-])ccc6F)c6ccc([nH]6)c(-c6cc(S(=O)(=O)[O-])ccc6F)c6nc(c(-c7cc(S(=O)(=O)[O-])ccc7F)c7ccc4[nH]7)C=C6)C=C5)cc3)cc2)COC1
REMARK SMILES IDX 17 1 16 2 15 3 13 4 14 5 12 6 9 7 10 8 88 9 11 10 87 11 8 12
REMARK SMILES IDX 5 13 6 14 7 15 4 16 3 18 2 19 1 20 89 21 91 22 90 23 18 24
REMARK SMILES IDX 19 25 20 26 21 27 22 28 23 29 24 30 25 31 86 32 26 33 85 34
REMARK SMILES IDX 27 35 28 36 29 37 79 38 30 39 84 40 78 41 80 42 31 43 83 44
REMARK SMILES IDX 77 45 76 46 32 48 64 49 44 50 63 51 45 52 48 53 62 54 81 55
REMARK SMILES IDX 46 56 47 57 61 59 82 60 49 61 33 62 34 63 42 64 35 65 41 66
REMARK SMILES IDX 43 67 40 68 36 69 37 70 38 71 39 72 65 73 66 74 74 75 67 76
REMARK SMILES IDX 73 77 75 78 72 79 68 80 69 81 70 82 71 83 50 84 51 85 59 86
REMARK SMILES IDX 52 87 58 88 60 89 57 90 53 91 54 92 55 93 56 94
REMARK H PARENT 4 17 80 47 48 58
REMARK Flexibility Score: inf
ROOT
ATOM      1  C   UNL A   1      31.141  31.226  26.069  1.00  0.00     0.202 C 
ENDROOT
BRANCH   1   2
ATOM      2  C   UNL A   1      30.762  30.599  24.724  1.00  0.00     0.261 C 
BRANCH   2   3
ATOM      3  O   UNL A   1      31.705  29.599  24.309  1.00  0.00    -0.460 OA
BRANCH   3   4
ATOM      4  C   UNL A   1      31.145  28.445  23.876  1.00  0.00     0.338 C 
ATOM      5  O   UNL A   1      30.003  28.292  23.469  1.00  0.00    -0.246 OA
BRANCH   4   6
ATOM      6  C   UNL A   1      32.157  27.364  23.799  1.00  0.00     0.060 A 
ATOM      7  C   UNL A   1      33.929  25.195  23.538  1.00  0.00    -0.032 A 
ATOM      8  C   UNL A   1      33.033  25.512  22.510  1.00  0.00     0.006 A 
ATOM      9  C   UNL A   1      33.962  26.013  24.681  1.00  0.00     0.006 A 
ATOM     10  C   UNL A   1      32.160  26.589  22.635  1.00  0.00     0.016 A 
ATOM     11  C   UNL A   1      33.080  27.094  24.814  1.00  0.00     0.016 A 
BRANCH   7  12
ATOM     12  C   UNL A   1      34.760  23.942  23.451  1.00  0.00     0.189 C 
BRANCH  12  13
ATOM     13  S   UNL A   1      33.805  22.438  23.659  1.00  0.00     0.215 S 
ATOM     14  O   UNL A   1      34.697  21.392  24.104  1.00  0.00    -0.212 OA
ATOM     15  O   UNL A   1      32.958  22.236  22.499  1.00  0.00    -0.212 OA
BRANCH  13  16
ATOM     16  N   UNL A   1      32.751  22.746  24.937  1.00  0.00    -0.214 NA
ATOM     17  H   UNL A   1      32.691  21.892  25.492  1.00  0.00     0.141 HD
BRANCH  16  18
ATOM     18  C   UNL A   1      31.370  23.159  24.622  1.00  0.00     0.110 C 
BRANCH  18  19
ATOM     19  C   UNL A   1      30.726  23.929  25.783  1.00  0.00     0.028 C 
ATOM     20  C   UNL A   1      29.920  25.152  25.365  1.00  0.00     0.018 C 
ATOM     21  C   UNL A   1      31.729  24.224  26.916  1.00  0.00     0.170 C 
ATOM     22  C   UNL A   1      30.062  23.021  26.836  1.00  0.00     0.170 C 
ATOM     23  O   UNL A   1      31.241  23.094  27.680  1.00  0.00    -0.380 OA
ENDBRANCH  18  19
ENDBRANCH  16  18
ENDBRANCH  13  16
ENDBRANCH  12  13
ENDBRANCH   7  12
ENDBRANCH   4   6
ENDBRANCH   3   4
ENDBRANCH   2   3
ENDBRANCH   1   2
BRANCH   1  24
ATOM     24  O   UNL A   1      31.982  30.467  26.936  1.00  0.00    -0.374 OA
BRANCH  24  25
ATOM     25  C   UNL A   1      33.354  30.847  27.032  1.00  0.00     0.202 C 
BRANCH  25  26
ATOM     26  C   UNL A   1      33.735  31.954  28.026  1.00  0.00     0.261 C 
BRANCH  26  27
ATOM     27  O   UNL A   1      33.349  33.266  27.585  1.00  0.00    -0.460 OA
BRANCH  27  28
ATOM     28  C   UNL A   1      33.493  34.238  28.520  1.00  0.00     0.338 C 
ATOM     29  O   UNL A   1      32.748  35.186  28.713  1.00  0.00    -0.246 OA
BRANCH  28  30
ATOM     30  C   UNL A   1      34.595  33.891  29.436  1.00  0.00     0.060 A 
ATOM     31  C   UNL A   1      35.900  34.199  29.029  1.00  0.00     0.016 A 
ATOM     32  C   UNL A   1      34.367  33.218  30.637  1.00  0.00     0.016 A 
ATOM     33  C   UNL A   1      36.987  33.796  29.802  1.00  0.00     0.010 A 
ATOM     34  C   UNL A   1      35.459  32.807  31.407  1.00  0.00     0.010 A 
ATOM     35  C   UNL A   1      36.775  33.066  30.978  1.00  0.00    -0.014 A 
BRANCH  35  36
ATOM     36  C   UNL A   1      37.930  32.457  31.685  1.00  0.00     0.031 A 
ATOM     37  C   UNL A   1      38.685  31.338  31.019  1.00  0.00     0.074 A 
ATOM     38  C   UNL A   1      38.317  32.913  32.890  1.00  0.00     0.049 A 
ATOM     39  N   UNL A   1      39.682  30.624  31.472  1.00  0.00    -0.248 NA
ATOM     40  C   UNL A   1      38.248  30.974  29.663  1.00  0.00     0.031 C 
ATOM     41  C   UNL A   1      37.695  34.024  33.610  1.00  0.00     0.029 A 
ATOM     42  N   UNL A   1      39.322  32.493  33.725  1.00  0.00    -0.354 N 
ATOM     43  C   UNL A   1      39.990  29.719  30.461  1.00  0.00     0.074 A 
ATOM     44  C   UNL A   1      39.044  29.952  29.389  1.00  0.00     0.031 C 
ATOM     45  C   UNL A   1      38.329  34.193  34.782  1.00  0.00     0.029 A 
ATOM     46  C   UNL A   1      39.369  33.176  34.918  1.00  0.00     0.049 A 
ATOM     47  H   UNL A   1      39.950  31.771  33.492  1.00  0.00     0.167 HD
ATOM     48  C   UNL A   1      40.976  28.789  30.427  1.00  0.00     0.034 A 
ATOM     49  C   UNL A   1      40.142  32.981  36.006  1.00  0.00     0.034 A 
ATOM     50  C   UNL A   1      41.904  28.565  31.511  1.00  0.00     0.049 A 
ATOM     51  C   UNL A   1      41.170  31.875  35.984  1.00  0.00     0.074 A 
ATOM     52  C   UNL A   1      42.949  27.660  31.577  1.00  0.00     0.029 A 
ATOM     53  N   UNL A   1      41.888  29.240  32.725  1.00  0.00    -0.354 N 
ATOM     54  N   UNL A   1      41.456  31.028  35.021  1.00  0.00    -0.248 NA
ATOM     55  C   UNL A   1      41.984  31.701  37.195  1.00  0.00     0.031 C 
ATOM     56  C   UNL A   1      43.510  27.730  32.857  1.00  0.00     0.029 A 
ATOM     57  C   UNL A   1      42.880  28.745  33.560  1.00  0.00     0.049 A 
ATOM     58  H   UNL A   1      41.265  29.966  32.959  1.00  0.00     0.167 HD
ATOM     59  C   UNL A   1      42.508  30.248  35.499  1.00  0.00     0.074 A 
ATOM     60  C   UNL A   1      42.811  30.735  36.829  1.00  0.00     0.031 C 
ATOM     61  C   UNL A   1      43.168  29.229  34.890  1.00  0.00     0.034 A 
BRANCH  48  62
ATOM     62  C   UNL A   1      41.062  27.908  29.203  1.00  0.00     0.023 A 
ATOM     63  C   UNL A   1      42.032  28.114  28.206  1.00  0.00     0.031 A 
ATOM     64  C   UNL A   1      40.143  26.859  29.017  1.00  0.00     0.131 A 
ATOM     65  C   UNL A   1      42.014  27.333  27.039  1.00  0.00     0.055 A 
ATOM     66  C   UNL A   1      40.185  26.031  27.895  1.00  0.00     0.041 A 
ATOM     67  F   UNL A   1      39.177  26.629  29.922  1.00  0.00    -0.206 F 
ATOM     68  C   UNL A   1      41.115  26.275  26.889  1.00  0.00     0.022 A 
BRANCH  65  69
ATOM     69  S   UNL A   1      43.085  27.815  25.657  1.00  0.00     0.124 S 
ATOM     70  O   UNL A   1      42.118  28.379  24.718  1.00  0.00    -0.237 OA
ATOM     71  O   UNL A   1      43.997  28.766  26.281  1.00  0.00    -0.237 OA
ATOM     72  O   UNL A   1      43.689  26.553  25.235  1.00  0.00    -0.744 OA
ENDBRANCH  65  69
ENDBRANCH  48  62
BRANCH  49  73
ATOM     73  C   UNL A   1      39.954  33.818  37.226  1.00  0.00     0.023 A 
ATOM     74  C   UNL A   1      40.765  34.938  37.473  1.00  0.00     0.031 A 
ATOM     75  C   UNL A   1      38.994  33.476  38.196  1.00  0.00     0.131 A 
ATOM     76  C   UNL A   1      40.635  35.643  38.680  1.00  0.00     0.055 A 
ATOM     77  C   UNL A   1      38.828  34.217  39.367  1.00  0.00     0.041 A 
ATOM     78  F   UNL A   1      38.194  32.412  38.014  1.00  0.00    -0.206 F 
ATOM     79  C   UNL A   1      39.662  35.301  39.621  1.00  0.00     0.022 A 
BRANCH  76  80
ATOM     80  S   UNL A   1      41.827  36.961  39.047  1.00  0.00     0.124 S 
ATOM     81  O   UNL A   1      42.535  37.080  37.778  1.00  0.00    -0.237 OA
ATOM     82  O   UNL A   1      40.950  38.071  39.402  1.00  0.00    -0.237 OA
ATOM     83  O   UNL A   1      42.611  36.410  40.151  1.00  0.00    -0.744 OA
ENDBRANCH  76  80
ENDBRANCH  49  73
BRANCH  61  84
ATOM     84  C   UNL A   1      44.323  28.607  35.641  1.00  0.00     0.023 A 
ATOM     85  C   UNL A   1      44.136  27.564  36.567  1.00  0.00     0.031 A 
ATOM     86  C   UNL A   1      45.634  29.073  35.430  1.00  0.00     0.131 A 
ATOM     87  C   UNL A   1      45.231  27.065  37.288  1.00  0.00     0.055 A 
ATOM     88  C   UNL A   1      46.729  28.523  36.100  1.00  0.00     0.041 A 
ATOM     89  F   UNL A   1      45.874  30.069  34.563  1.00  0.00    -0.206 F 
ATOM     90  C   UNL A   1      46.528  27.522  37.045  1.00  0.00     0.022 A 
BRANCH  87  91
ATOM     91  S   UNL A   1      44.926  25.876  38.624  1.00  0.00     0.124 S 
ATOM     92  O   UNL A   1      44.432  24.715  37.891  1.00  0.00    -0.237 OA
ATOM     93  O   UNL A   1      46.248  25.735  39.225  1.00  0.00    -0.237 OA
ATOM     94  O   UNL A   1      43.934  26.548  39.463  1.00  0.00    -0.744 OA
ENDBRANCH  87  91
ENDBRANCH  61  84
ENDBRANCH  35  36
ENDBRANCH  28  30
ENDBRANCH  27  28
ENDBRANCH  26  27
ENDBRANCH  25  26
ENDBRANCH  24  25
ENDBRANCH   1  24
TORSDOF 22
ENDMDL
MODEL 3
REMARK VINA RESULT:     -10.0      4.987      9.817
REMARK SMILES CC1(CNS(=O)(=O)Cc2ccc(C(=O)OCCOCCOC(=O)c3ccc(-c4c5nc(c(-c6cc(S(=O)(=O)[O-])ccc6F)c6ccc([nH]6)c(-c6cc(S(=O)(=O)[O-])ccc6F)c6nc(c(-c7cc(S(=O)(=O)[O-])ccc7F)c7ccc4[nH]7)C=C6)C=C5)cc3)cc2)COC1
REMARK SMILES IDX 17 1 16 2 15 3 13 4 14 5 12 6 9 7 10 8 88 9 11 10 87 11 8 12
REMARK SMILES IDX 5 13 6 14 7 15 4 16 3 18 2 19 1 20 89 21 91 22 90 23 18 24
REMARK SMILES IDX 19 25 20 26 21 27 22 28 23 29 24 30 25 31 86 32 26 33 85 34
REMARK SMILES IDX 27 35 28 36 29 37 79 38 30 39 84 40 78 41 80 42 31 43 83 44
REMARK SMILES IDX 77 45 76 46 32 48 64 49 44 50 63 51 45 52 48 53 62 54 81 55
REMARK SMILES IDX 46 56 47 57 61 59 82 60 49 61 33 62 34 63 42 64 35 65 41 66
REMARK SMILES IDX 43 67 40 68 36 69 37 70 38 71 39 72 65 73 66 74 74 75 67 76
REMARK SMILES IDX 73 77 75 78 72 79 68 80 69 81 70 82 71 83 50 84 51 85 59 86
REMARK SMILES IDX 52 87 58 88 60 89 57 90 53 91 54 92 55 93 56 94
REMARK H PARENT 4 17 80 47 48 58
REMARK Flexibility Score: inf
ROOT
ATOM      1  C   UNL A   1      36.012  20.591  25.156  1.00  0.00     0.202 C 
ENDROOT
BRANCH   1   2
ATOM      2  C   UNL A   1      34.969  19.489  24.941  1.00  0.00     0.261 C 
BRANCH   2   3
ATOM      3  O   UNL A   1      33.770  19.727  25.694  1.00  0.00    -0.460 OA
BRANCH   3   4
ATOM      4  C   UNL A   1      32.633  19.703  24.959  1.00  0.00     0.338 C 
ATOM      5  O   UNL A   1      31.900  18.744  24.772  1.00  0.00    -0.246 OA
BRANCH   4   6
ATOM      6  C   UNL A   1      32.269  21.068  24.507  1.00  0.00     0.060 A 
ATOM      7  C   UNL A   1      31.762  23.655  23.525  1.00  0.00    -0.032 A 
ATOM      8  C   UNL A   1      32.353  22.684  22.707  1.00  0.00     0.006 A 
ATOM      9  C   UNL A   1      31.380  23.297  24.829  1.00  0.00     0.006 A 
ATOM     10  C   UNL A   1      32.598  21.402  23.190  1.00  0.00     0.016 A 
ATOM     11  C   UNL A   1      31.632  22.009  25.321  1.00  0.00     0.016 A 
BRANCH   7  12
ATOM     12  C   UNL A   1      31.640  25.075  23.038  1.00  0.00     0.189 C 
BRANCH  12  13
ATOM     13  S   UNL A   1      33.208  25.945  22.977  1.00  0.00     0.215 S 
ATOM     14  O   UNL A   1      33.582  26.110  21.590  1.00  0.00    -0.212 OA
ATOM     15  O   UNL A   1      34.133  25.346  23.920  1.00  0.00    -0.212 OA
BRANCH  13  16
ATOM     16  N   UNL A   1      32.891  27.487  23.576  1.00  0.00    -0.214 NA
ATOM     17  H   UNL A   1      32.726  28.095  22.772  1.00  0.00     0.141 HD
BRANCH  16  18
ATOM     18  C   UNL A   1      33.917  28.139  24.411  1.00  0.00     0.110 C 
BRANCH  18  19
ATOM     19  C   UNL A   1      33.390  28.460  25.816  1.00  0.00     0.028 C 
ATOM     20  C   UNL A   1      34.440  28.988  26.785  1.00  0.00     0.018 C 
ATOM     21  C   UNL A   1      32.550  27.307  26.402  1.00  0.00     0.170 C 
ATOM     22  C   UNL A   1      32.045  29.213  25.815  1.00  0.00     0.170 C 
ATOM     23  O   UNL A   1      31.320  27.972  26.024  1.00  0.00    -0.380 OA
ENDBRANCH  18  19
ENDBRANCH  16  18
ENDBRANCH  13  16
ENDBRANCH  12  13
ENDBRANCH   7  12
ENDBRANCH   4   6
ENDBRANCH   3   4
ENDBRANCH   2   3
ENDBRANCH   1   2
BRANCH   1  24
ATOM     24  O   UNL A   1      37.307  20.391  24.593  1.00  0.00    -0.374 OA
BRANCH  24  25
ATOM     25  C   UNL A   1      38.395  20.166  25.490  1.00  0.00     0.202 C 
BRANCH  25  26
ATOM     26  C   UNL A   1      39.406  21.301  25.706  1.00  0.00     0.261 C 
BRANCH  26  27
ATOM     27  O   UNL A   1      39.019  22.211  26.749  1.00  0.00    -0.460 OA
BRANCH  27  28
ATOM     28  C   UNL A   1      38.500  23.384  26.308  1.00  0.00     0.338 C 
ATOM     29  O   UNL A   1      37.456  23.539  25.695  1.00  0.00    -0.246 OA
BRANCH  28  30
ATOM     30  C   UNL A   1      39.284  24.511  26.847  1.00  0.00     0.060 A 
ATOM     31  C   UNL A   1      39.142  24.809  28.209  1.00  0.00     0.016 A 
ATOM     32  C   UNL A   1      40.090  25.302  26.027  1.00  0.00     0.016 A 
ATOM     33  C   UNL A   1      39.772  25.928  28.749  1.00  0.00     0.010 A 
ATOM     34  C   UNL A   1      40.715  26.430  26.570  1.00  0.00     0.010 A 
ATOM     35  C   UNL A   1      40.534  26.766  27.925  1.00  0.00    -0.014 A 
BRANCH  35  36
ATOM     36  C   UNL A   1      41.026  28.065  28.450  1.00  0.00     0.031 A 
ATOM     37  C   UNL A   1      40.033  29.052  29.000  1.00  0.00     0.074 A 
ATOM     38  C   UNL A   1      42.341  28.348  28.461  1.00  0.00     0.049 A 
ATOM     39  N   UNL A   1      40.229  30.263  29.454  1.00  0.00    -0.248 NA
ATOM     40  C   UNL A   1      38.629  28.615  29.035  1.00  0.00     0.031 C 
ATOM     41  C   UNL A   1      43.400  27.450  28.001  1.00  0.00     0.029 A 
ATOM     42  N   UNL A   1      43.010  29.475  28.868  1.00  0.00    -0.354 N 
ATOM     43  C   UNL A   1      38.974  30.738  29.822  1.00  0.00     0.074 A 
ATOM     44  C   UNL A   1      38.021  29.696  29.499  1.00  0.00     0.031 C 
ATOM     45  C   UNL A   1      44.585  28.064  28.147  1.00  0.00     0.029 A 
ATOM     46  C   UNL A   1      44.368  29.414  28.663  1.00  0.00     0.049 A 
ATOM     47  H   UNL A   1      42.559  30.255  29.267  1.00  0.00     0.167 HD
ATOM     48  C   UNL A   1      38.649  31.927  30.386  1.00  0.00     0.034 A 
ATOM     49  C   UNL A   1      45.322  30.351  28.843  1.00  0.00     0.034 A 
ATOM     50  C   UNL A   1      39.613  32.959  30.692  1.00  0.00     0.049 A 
ATOM     51  C   UNL A   1      44.925  31.705  29.382  1.00  0.00     0.074 A 
ATOM     52  C   UNL A   1      39.396  34.193  31.277  1.00  0.00     0.029 A 
ATOM     53  N   UNL A   1      40.974  32.882  30.423  1.00  0.00    -0.354 N 
ATOM     54  N   UNL A   1      43.736  32.141  29.731  1.00  0.00    -0.248 NA
ATOM     55  C   UNL A   1      46.000  32.691  29.556  1.00  0.00     0.031 C 
ATOM     56  C   UNL A   1      40.607  34.894  31.284  1.00  0.00     0.029 A 
ATOM     57  C   UNL A   1      41.602  34.062  30.794  1.00  0.00     0.049 A 
ATOM     58  H   UNL A   1      41.428  32.102  30.028  1.00  0.00     0.167 HD
ATOM     59  C   UNL A   1      43.929  33.439  30.201  1.00  0.00     0.074 A 
ATOM     60  C   UNL A   1      45.349  33.707  30.102  1.00  0.00     0.031 C 
ATOM     61  C   UNL A   1      43.018  34.325  30.680  1.00  0.00     0.034 A 
BRANCH  48  62
ATOM     62  C   UNL A   1      37.187  32.197  30.654  1.00  0.00     0.023 A 
ATOM     63  C   UNL A   1      36.329  32.694  29.658  1.00  0.00     0.031 A 
ATOM     64  C   UNL A   1      36.648  31.975  31.934  1.00  0.00     0.131 A 
ATOM     65  C   UNL A   1      35.001  33.021  29.976  1.00  0.00     0.055 A 
ATOM     66  C   UNL A   1      35.304  32.221  32.221  1.00  0.00     0.041 A 
ATOM     67  F   UNL A   1      37.423  31.526  32.934  1.00  0.00    -0.206 F 
ATOM     68  C   UNL A   1      34.475  32.762  31.243  1.00  0.00     0.022 A 
BRANCH  65  69
ATOM     69  S   UNL A   1      34.014  33.927  28.753  1.00  0.00     0.124 S 
ATOM     70  O   UNL A   1      34.997  34.867  28.219  1.00  0.00    -0.237 OA
ATOM     71  O   UNL A   1      33.585  32.869  27.846  1.00  0.00    -0.237 OA
ATOM     72  O   UNL A   1      32.952  34.535  29.552  1.00  0.00    -0.744 OA
ENDBRANCH  65  69
ENDBRANCH  48  62
BRANCH  49  73
ATOM     73  C   UNL A   1      46.739  30.066  28.475  1.00  0.00     0.023 A 
ATOM     74  C   UNL A   1      47.650  29.564  29.419  1.00  0.00     0.031 A 
ATOM     75  C   UNL A   1      47.221  30.348  27.183  1.00  0.00     0.131 A 
ATOM     76  C   UNL A   1      49.002  29.407  29.072  1.00  0.00     0.055 A 
ATOM     77  C   UNL A   1      48.552  30.133  26.826  1.00  0.00     0.041 A 
ATOM     78  F   UNL A   1      46.395  30.834  26.242  1.00  0.00    -0.206 F 
ATOM     79  C   UNL A   1      49.455  29.672  27.778  1.00  0.00     0.022 A 
BRANCH  76  80
ATOM     80  S   UNL A   1      50.181  28.942  30.370  1.00  0.00     0.124 S 
ATOM     81  O   UNL A   1      51.119  30.058  30.330  1.00  0.00    -0.237 OA
ATOM     82  O   UNL A   1      49.321  28.865  31.546  1.00  0.00    -0.237 OA
ATOM     83  O   UNL A   1      50.712  27.663  29.902  1.00  0.00    -0.744 OA
ENDBRANCH  76  80
ENDBRANCH  49  73
BRANCH  61  84
ATOM     84  C   UNL A   1      43.540  35.651  31.183  1.00  0.00     0.023 A 
ATOM     85  C   UNL A   1      43.820  35.876  32.543  1.00  0.00     0.031 A 
ATOM     86  C   UNL A   1      43.753  36.712  30.283  1.00  0.00     0.131 A 
ATOM     87  C   UNL A   1      44.240  37.144  32.971  1.00  0.00     0.055 A 
ATOM     88  C   UNL A   1      44.239  37.951  30.706  1.00  0.00     0.041 A 
ATOM     89  F   UNL A   1      43.499  36.560  28.974  1.00  0.00    -0.206 F 
ATOM     90  C   UNL A   1      44.471  38.177  32.059  1.00  0.00     0.022 A 
BRANCH  87  91
ATOM     91  S   UNL A   1      44.384  37.461  34.752  1.00  0.00     0.124 S 
ATOM     92  O   UNL A   1      43.667  36.324  35.320  1.00  0.00    -0.237 OA
ATOM     93  O   UNL A   1      45.830  37.468  34.952  1.00  0.00    -0.237 OA
ATOM     94  O   UNL A   1      43.729  38.756  34.925  1.00  0.00    -0.744 OA
ENDBRANCH  87  91
ENDBRANCH  61  84
ENDBRANCH  35  36
ENDBRANCH  28  30
ENDBRANCH  27  28
ENDBRANCH  26  27
ENDBRANCH  25  26
ENDBRANCH  24  25
ENDBRANCH   1  24
TORSDOF 22
ENDMDL
