MODEL 1
REMARK VINA RESULT:     -10.0      0.000      0.000
REMARK SMILES C[C@H](CNC(=O)Cn1cccc1C(=O)OCCOCCOC(=O)c1ccc(-c2c3nc(c(-c4cc(S(=O)(=O)[O-])ccc4F)c4ccc([nH]4)c(-c4cc(S(=O)(=O)[O-])ccc4F)c4nc(c(-c5cc(S(=O)(=O)[O-])ccc5F)c5ccc2[nH]5)C=C4)C=C3)cc1)[NH+](C)C
REMARK SMILES IDX 17 1 16 2 15 3 13 4 14 5 12 6 8 7 9 8 10 9 11 10 7 11 5 12
REMARK SMILES IDX 4 13 6 15 3 16 2 17 1 18 87 19 88 20 89 21 18 23 19 24 20 25
REMARK SMILES IDX 21 26 22 27 23 28 24 29 25 30 86 31 26 32 85 33 27 34 28 35
REMARK SMILES IDX 29 36 79 37 30 38 84 39 78 40 80 41 31 42 83 43 77 44 76 45
REMARK SMILES IDX 32 47 64 48 44 49 63 50 45 51 48 52 62 53 81 54 46 55 47 56
REMARK SMILES IDX 61 58 82 59 49 60 33 61 34 62 42 63 35 64 41 65 43 66 40 67
REMARK SMILES IDX 36 68 37 69 38 70 39 71 65 72 66 73 74 74 67 75 73 76 75 77
REMARK SMILES IDX 72 78 68 79 69 80 70 81 71 82 50 83 51 84 59 85 52 86 58 87
REMARK SMILES IDX 60 88 57 89 53 90 54 91 55 92 56 93
REMARK H PARENT 4 14 87 22 80 46 48 57
REMARK Flexibility Score: inf
ROOT
ATOM      1  C   UNL A   1      37.708  22.301  25.216  1.00  0.00     0.202 C 
ENDROOT
BRANCH   1   2
ATOM      2  C   UNL A   1      36.737  21.390  24.463  1.00  0.00     0.261 C 
BRANCH   2   3
ATOM      3  O   UNL A   1      35.864  20.727  25.392  1.00  0.00    -0.459 OA
BRANCH   3   4
ATOM      4  C   UNL A   1      34.547  20.652  25.040  1.00  0.00     0.355 C 
ATOM      5  O   UNL A   1      34.075  19.861  24.251  1.00  0.00    -0.244 OA
BRANCH   4   6
ATOM      6  C   UNL A   1      33.784  21.526  25.916  1.00  0.00     0.128 A 
ATOM      7  N   UNL A   1      33.002  22.612  25.566  1.00  0.00    -0.333 N 
ATOM      8  C   UNL A   1      32.692  23.334  26.693  1.00  0.00     0.087 A 
ATOM      9  C   UNL A   1      33.128  22.624  27.789  1.00  0.00     0.020 A 
ATOM     10  C   UNL A   1      33.778  21.469  27.305  1.00  0.00     0.035 A 
BRANCH   7  11
ATOM     11  C   UNL A   1      32.610  22.964  24.208  1.00  0.00     0.222 C 
BRANCH  11  12
ATOM     12  C   UNL A   1      33.451  24.017  23.526  1.00  0.00     0.240 C 
ATOM     13  N   UNL A   1      33.098  25.333  23.543  1.00  0.00    -0.349 N 
ATOM     14  H   UNL A   1      33.500  25.874  22.825  1.00  0.00     0.163 HD
ATOM     15  O   UNL A   1      34.424  23.702  22.836  1.00  0.00    -0.273 OA
BRANCH  13  16
ATOM     16  C   UNL A   1      32.224  26.075  24.445  1.00  0.00     0.180 C 
BRANCH  16  17
ATOM     17  C   UNL A   1      30.987  26.711  23.726  1.00  0.00     0.199 C 
ATOM     18  C   UNL A   1      29.682  25.936  23.990  1.00  0.00     0.077 C 
BRANCH  17  19
ATOM     19  N   UNL A   1      30.885  28.178  23.938  1.00  0.00    -0.336 N 
ATOM     20  C   UNL A   1      31.865  28.647  24.925  1.00  0.00     0.332 C 
ATOM     21  C   UNL A   1      31.000  28.969  22.714  1.00  0.00     0.332 C 
ATOM     22  H   UNL A   1      29.941  28.324  24.295  1.00  0.00     0.347 HD
ENDBRANCH  17  19
ENDBRANCH  16  17
ENDBRANCH  13  16
ENDBRANCH  11  12
ENDBRANCH   7  11
ENDBRANCH   4   6
ENDBRANCH   3   4
ENDBRANCH   2   3
ENDBRANCH   1   2
BRANCH   1  23
ATOM     23  O   UNL A   1      38.508  21.679  26.223  1.00  0.00    -0.374 OA
BRANCH  23  24
ATOM     24  C   UNL A   1      39.925  21.737  26.112  1.00  0.00     0.202 C 
BRANCH  24  25
ATOM     25  C   UNL A   1      40.691  22.779  26.920  1.00  0.00     0.261 C 
BRANCH  25  26
ATOM     26  O   UNL A   1      39.988  23.997  27.142  1.00  0.00    -0.460 OA
BRANCH  26  27
ATOM     27  C   UNL A   1      40.687  25.062  26.685  1.00  0.00     0.338 C 
ATOM     28  O   UNL A   1      41.593  25.044  25.866  1.00  0.00    -0.246 OA
BRANCH  27  29
ATOM     29  C   UNL A   1      40.341  26.264  27.440  1.00  0.00     0.060 A 
ATOM     30  C   UNL A   1      40.402  27.464  26.731  1.00  0.00     0.016 A 
ATOM     31  C   UNL A   1      40.257  26.226  28.840  1.00  0.00     0.016 A 
ATOM     32  C   UNL A   1      40.531  28.638  27.435  1.00  0.00     0.010 A 
ATOM     33  C   UNL A   1      40.413  27.403  29.547  1.00  0.00     0.010 A 
ATOM     34  C   UNL A   1      40.594  28.591  28.834  1.00  0.00    -0.014 A 
BRANCH  34  35
ATOM     35  C   UNL A   1      40.737  29.881  29.515  1.00  0.00     0.031 A 
ATOM     36  C   UNL A   1      39.340  30.410  29.873  1.00  0.00     0.074 A 
ATOM     37  C   UNL A   1      42.007  30.403  29.527  1.00  0.00     0.049 A 
ATOM     38  N   UNL A   1      38.840  31.594  29.713  1.00  0.00    -0.248 NA
ATOM     39  C   UNL A   1      38.284  29.450  30.315  1.00  0.00     0.031 C 
ATOM     40  C   UNL A   1      43.242  29.683  29.112  1.00  0.00     0.029 A 
ATOM     41  N   UNL A   1      42.531  31.632  29.859  1.00  0.00    -0.354 N 
ATOM     42  C   UNL A   1      37.536  31.584  30.260  1.00  0.00     0.074 A 
ATOM     43  C   UNL A   1      37.192  30.209  30.446  1.00  0.00     0.031 C 
ATOM     44  C   UNL A   1      44.322  30.502  29.131  1.00  0.00     0.029 A 
ATOM     45  C   UNL A   1      43.916  31.826  29.561  1.00  0.00     0.049 A 
ATOM     46  H   UNL A   1      41.984  32.337  30.277  1.00  0.00     0.167 HD
ATOM     47  C   UNL A   1      36.901  32.718  30.679  1.00  0.00     0.034 A 
ATOM     48  C   UNL A   1      44.650  32.988  29.608  1.00  0.00     0.034 A 
ATOM     49  C   UNL A   1      37.769  33.832  30.486  1.00  0.00     0.049 A 
ATOM     50  C   UNL A   1      43.691  33.974  30.134  1.00  0.00     0.074 A 
ATOM     51  C   UNL A   1      38.191  34.493  29.365  1.00  0.00     0.029 A 
ATOM     52  N   UNL A   1      38.592  34.156  31.543  1.00  0.00    -0.354 N 
ATOM     53  N   UNL A   1      43.285  34.040  31.364  1.00  0.00    -0.248 NA
ATOM     54  C   UNL A   1      43.064  34.907  29.186  1.00  0.00     0.031 C 
ATOM     55  C   UNL A   1      39.539  34.774  29.660  1.00  0.00     0.029 A 
ATOM     56  C   UNL A   1      39.805  34.505  31.011  1.00  0.00     0.049 A 
ATOM     57  H   UNL A   1      38.353  34.139  32.498  1.00  0.00     0.167 HD
ATOM     58  C   UNL A   1      42.147  34.797  31.260  1.00  0.00     0.074 A 
ATOM     59  C   UNL A   1      42.265  35.552  30.031  1.00  0.00     0.031 C 
ATOM     60  C   UNL A   1      40.994  34.353  31.828  1.00  0.00     0.034 A 
BRANCH  47  61
ATOM     61  C   UNL A   1      35.667  32.981  31.499  1.00  0.00     0.023 A 
ATOM     62  C   UNL A   1      34.737  33.894  30.937  1.00  0.00     0.031 A 
ATOM     63  C   UNL A   1      35.505  32.686  32.856  1.00  0.00     0.131 A 
ATOM     64  C   UNL A   1      33.821  34.591  31.731  1.00  0.00     0.055 A 
ATOM     65  C   UNL A   1      34.531  33.329  33.638  1.00  0.00     0.041 A 
ATOM     66  F   UNL A   1      36.325  31.843  33.496  1.00  0.00    -0.206 F 
ATOM     67  C   UNL A   1      33.713  34.316  33.088  1.00  0.00     0.022 A 
BRANCH  64  68
ATOM     68  S   UNL A   1      32.926  35.982  30.980  1.00  0.00     0.124 S 
ATOM     69  O   UNL A   1      33.901  37.062  31.075  1.00  0.00    -0.237 OA
ATOM     70  O   UNL A   1      32.657  35.481  29.635  1.00  0.00    -0.237 OA
ATOM     71  O   UNL A   1      31.750  36.128  31.834  1.00  0.00    -0.744 OA
ENDBRANCH  64  68
ENDBRANCH  47  61
BRANCH  48  72
ATOM     72  C   UNL A   1      46.014  33.562  29.216  1.00  0.00     0.023 A 
ATOM     73  C   UNL A   1      46.607  33.581  27.939  1.00  0.00     0.031 A 
ATOM     74  C   UNL A   1      46.801  34.205  30.231  1.00  0.00     0.131 A 
ATOM     75  C   UNL A   1      47.843  34.274  27.732  1.00  0.00     0.055 A 
ATOM     76  C   UNL A   1      47.948  34.962  30.002  1.00  0.00     0.041 A 
ATOM     77  F   UNL A   1      46.499  34.125  31.534  1.00  0.00    -0.206 F 
ATOM     78  C   UNL A   1      48.472  35.013  28.738  1.00  0.00     0.022 A 
BRANCH  75  79
ATOM     79  S   UNL A   1      48.710  34.246  26.131  1.00  0.00     0.124 S 
ATOM     80  O   UNL A   1      47.616  34.471  25.191  1.00  0.00    -0.237 OA
ATOM     81  O   UNL A   1      49.678  35.329  26.261  1.00  0.00    -0.237 OA
ATOM     82  O   UNL A   1      49.293  32.904  26.089  1.00  0.00    -0.744 OA
ENDBRANCH  75  79
ENDBRANCH  48  72
BRANCH  60  83
ATOM     83  C   UNL A   1      41.190  33.404  33.009  1.00  0.00     0.023 A 
ATOM     84  C   UNL A   1      40.780  32.060  32.916  1.00  0.00     0.031 A 
ATOM     85  C   UNL A   1      41.658  33.807  34.273  1.00  0.00     0.131 A 
ATOM     86  C   UNL A   1      40.813  31.207  34.038  1.00  0.00     0.055 A 
ATOM     87  C   UNL A   1      41.693  32.965  35.394  1.00  0.00     0.041 A 
ATOM     88  F   UNL A   1      42.096  35.046  34.474  1.00  0.00    -0.206 F 
ATOM     89  C   UNL A   1      41.263  31.654  35.281  1.00  0.00     0.022 A 
BRANCH  86  90
ATOM     90  S   UNL A   1      40.291  29.479  33.856  1.00  0.00     0.124 S 
ATOM     91  O   UNL A   1      40.702  28.884  35.121  1.00  0.00    -0.237 OA
ATOM     92  O   UNL A   1      38.852  29.608  33.645  1.00  0.00    -0.237 OA
ATOM     93  O   UNL A   1      41.037  29.018  32.684  1.00  0.00    -0.744 OA
ENDBRANCH  86  90
ENDBRANCH  60  83
ENDBRANCH  34  35
ENDBRANCH  27  29
ENDBRANCH  26  27
ENDBRANCH  25  26
ENDBRANCH  24  25
ENDBRANCH  23  24
ENDBRANCH   1  23
TORSDOF 22
ENDMDL
MODEL 2
REMARK VINA RESULT:     -10.0      4.184      8.388
REMARK SMILES C[C@H](CNC(=O)Cn1cccc1C(=O)OCCOCCOC(=O)c1ccc(-c2c3nc(c(-c4cc(S(=O)(=O)[O-])ccc4F)c4ccc([nH]4)c(-c4cc(S(=O)(=O)[O-])ccc4F)c4nc(c(-c5cc(S(=O)(=O)[O-])ccc5F)c5ccc2[nH]5)C=C4)C=C3)cc1)[NH+](C)C
REMARK SMILES IDX 17 1 16 2 15 3 13 4 14 5 12 6 8 7 9 8 10 9 11 10 7 11 5 12
REMARK SMILES IDX 4 13 6 15 3 16 2 17 1 18 87 19 88 20 89 21 18 23 19 24 20 25
REMARK SMILES IDX 21 26 22 27 23 28 24 29 25 30 86 31 26 32 85 33 27 34 28 35
REMARK SMILES IDX 29 36 79 37 30 38 84 39 78 40 80 41 31 42 83 43 77 44 76 45
REMARK SMILES IDX 32 47 64 48 44 49 63 50 45 51 48 52 62 53 81 54 46 55 47 56
REMARK SMILES IDX 61 58 82 59 49 60 33 61 34 62 42 63 35 64 41 65 43 66 40 67
REMARK SMILES IDX 36 68 37 69 38 70 39 71 65 72 66 73 74 74 67 75 73 76 75 77
REMARK SMILES IDX 72 78 68 79 69 80 70 81 71 82 50 83 51 84 59 85 52 86 58 87
REMARK SMILES IDX 60 88 57 89 53 90 54 91 55 92 56 93
REMARK H PARENT 4 14 87 22 80 46 48 57
REMARK Flexibility Score: inf
ROOT
ATOM      1  C   UNL A   1      32.484  28.443  25.475  1.00  0.00     0.202 C 
ENDROOT
BRANCH   1   2
ATOM      2  C   UNL A   1      32.909  27.294  26.391  1.00  0.00     0.261 C 
BRANCH   2   3
ATOM      3  O   UNL A   1      34.078  26.648  25.860  1.00  0.00    -0.459 OA
BRANCH   3   4
ATOM      4  C   UNL A   1      33.879  25.805  24.805  1.00  0.00     0.355 C 
ATOM      5  O   UNL A   1      34.038  26.091  23.637  1.00  0.00    -0.244 OA
BRANCH   4   6
ATOM      6  C   UNL A   1      33.655  24.464  25.321  1.00  0.00     0.128 A 
ATOM      7  N   UNL A   1      32.459  23.773  25.407  1.00  0.00    -0.333 N 
ATOM      8  C   UNL A   1      32.625  22.670  26.209  1.00  0.00     0.087 A 
ATOM      9  C   UNL A   1      33.965  22.553  26.504  1.00  0.00     0.020 A 
ATOM     10  C   UNL A   1      34.618  23.657  25.914  1.00  0.00     0.035 A 
BRANCH   7  11
ATOM     11  C   UNL A   1      31.206  24.178  24.783  1.00  0.00     0.222 C 
BRANCH  11  12
ATOM     12  C   UNL A   1      30.238  24.929  25.667  1.00  0.00     0.240 C 
ATOM     13  N   UNL A   1      29.501  25.971  25.191  1.00  0.00    -0.349 N 
ATOM     14  H   UNL A   1      29.166  26.586  25.884  1.00  0.00     0.163 HD
ATOM     15  O   UNL A   1      30.171  24.695  26.876  1.00  0.00    -0.273 OA
BRANCH  13  16
ATOM     16  C   UNL A   1      29.123  26.329  23.828  1.00  0.00     0.180 C 
BRANCH  16  17
ATOM     17  C   UNL A   1      29.937  27.538  23.257  1.00  0.00     0.199 C 
ATOM     18  C   UNL A   1      31.004  27.107  22.232  1.00  0.00     0.077 C 
BRANCH  17  19
ATOM     19  N   UNL A   1      29.070  28.659  22.808  1.00  0.00    -0.336 N 
ATOM     20  C   UNL A   1      27.659  28.406  23.122  1.00  0.00     0.332 C 
ATOM     21  C   UNL A   1      29.465  29.966  23.330  1.00  0.00     0.332 C 
ATOM     22  H   UNL A   1      29.196  28.697  21.796  1.00  0.00     0.347 HD
ENDBRANCH  17  19
ENDBRANCH  16  17
ENDBRANCH  13  16
ENDBRANCH  11  12
ENDBRANCH   7  11
ENDBRANCH   4   6
ENDBRANCH   3   4
ENDBRANCH   2   3
ENDBRANCH   1   2
BRANCH   1  23
ATOM     23  O   UNL A   1      31.777  29.518  26.096  1.00  0.00    -0.374 OA
BRANCH  23  24
ATOM     24  C   UNL A   1      32.251  30.030  27.336  1.00  0.00     0.202 C 
BRANCH  24  25
ATOM     25  C   UNL A   1      33.208  31.217  27.332  1.00  0.00     0.261 C 
BRANCH  25  26
ATOM     26  O   UNL A   1      34.586  30.872  27.245  1.00  0.00    -0.460 OA
BRANCH  26  27
ATOM     27  C   UNL A   1      35.187  30.929  28.457  1.00  0.00     0.338 C 
ATOM     28  O   UNL A   1      34.920  31.696  29.369  1.00  0.00    -0.246 OA
BRANCH  27  29
ATOM     29  C   UNL A   1      36.354  30.051  28.491  1.00  0.00     0.060 A 
ATOM     30  C   UNL A   1      36.676  29.519  29.741  1.00  0.00     0.016 A 
ATOM     31  C   UNL A   1      37.245  30.008  27.409  1.00  0.00     0.016 A 
ATOM     32  C   UNL A   1      37.958  29.069  29.954  1.00  0.00     0.010 A 
ATOM     33  C   UNL A   1      38.540  29.581  27.631  1.00  0.00     0.010 A 
ATOM     34  C   UNL A   1      38.894  29.159  28.915  1.00  0.00    -0.014 A 
BRANCH  34  35
ATOM     35  C   UNL A   1      40.240  28.666  29.219  1.00  0.00     0.031 A 
ATOM     36  C   UNL A   1      41.119  29.853  29.645  1.00  0.00     0.074 A 
ATOM     37  C   UNL A   1      40.470  27.350  28.904  1.00  0.00     0.049 A 
ATOM     38  N   UNL A   1      42.318  30.165  29.271  1.00  0.00    -0.248 NA
ATOM     39  C   UNL A   1      40.524  30.946  30.471  1.00  0.00     0.031 C 
ATOM     40  C   UNL A   1      39.432  26.363  28.498  1.00  0.00     0.029 A 
ATOM     41  N   UNL A   1      41.602  26.569  28.832  1.00  0.00    -0.354 N 
ATOM     42  C   UNL A   1      42.704  31.316  29.998  1.00  0.00     0.074 A 
ATOM     43  C   UNL A   1      41.507  31.844  30.574  1.00  0.00     0.031 C 
ATOM     44  C   UNL A   1      39.986  25.178  28.143  1.00  0.00     0.029 A 
ATOM     45  C   UNL A   1      41.427  25.259  28.284  1.00  0.00     0.049 A 
ATOM     46  H   UNL A   1      42.480  26.893  29.138  1.00  0.00     0.167 HD
ATOM     47  C   UNL A   1      44.011  31.652  30.211  1.00  0.00     0.034 A 
ATOM     48  C   UNL A   1      42.388  24.345  27.924  1.00  0.00     0.034 A 
ATOM     49  C   UNL A   1      44.846  30.664  29.613  1.00  0.00     0.049 A 
ATOM     50  C   UNL A   1      43.646  24.996  28.326  1.00  0.00     0.074 A 
ATOM     51  C   UNL A   1      45.144  30.369  28.311  1.00  0.00     0.029 A 
ATOM     52  N   UNL A   1      45.208  29.603  30.414  1.00  0.00    -0.354 N 
ATOM     53  N   UNL A   1      44.061  25.130  29.548  1.00  0.00    -0.248 NA
ATOM     54  C   UNL A   1      44.463  25.633  27.284  1.00  0.00     0.031 C 
ATOM     55  C   UNL A   1      45.189  28.962  28.314  1.00  0.00     0.029 A 
ATOM     56  C   UNL A   1      45.168  28.479  29.632  1.00  0.00     0.049 A 
ATOM     57  H   UNL A   1      45.449  29.645  31.368  1.00  0.00     0.167 HD
ATOM     58  C   UNL A   1      45.002  26.121  29.435  1.00  0.00     0.074 A 
ATOM     59  C   UNL A   1      45.431  26.125  28.052  1.00  0.00     0.031 C 
ATOM     60  C   UNL A   1      44.947  27.195  30.266  1.00  0.00     0.034 A 
BRANCH  47  61
ATOM     61  C   UNL A   1      44.701  32.633  31.119  1.00  0.00     0.023 A 
ATOM     62  C   UNL A   1      44.700  32.301  32.499  1.00  0.00     0.031 A 
ATOM     63  C   UNL A   1      45.041  33.951  30.798  1.00  0.00     0.131 A 
ATOM     64  C   UNL A   1      44.858  33.275  33.489  1.00  0.00     0.055 A 
ATOM     65  C   UNL A   1      45.277  34.913  31.794  1.00  0.00     0.041 A 
ATOM     66  F   UNL A   1      45.071  34.381  29.531  1.00  0.00    -0.206 F 
ATOM     67  C   UNL A   1      45.144  34.589  33.145  1.00  0.00     0.022 A 
BRANCH  64  68
ATOM     68  S   UNL A   1      44.489  32.813  35.207  1.00  0.00     0.124 S 
ATOM     69  O   UNL A   1      43.268  33.564  35.473  1.00  0.00    -0.237 OA
ATOM     70  O   UNL A   1      44.338  31.364  35.108  1.00  0.00    -0.237 OA
ATOM     71  O   UNL A   1      45.671  33.264  35.939  1.00  0.00    -0.744 OA
ENDBRANCH  64  68
ENDBRANCH  47  61
BRANCH  48  72
ATOM     72  C   UNL A   1      42.560  23.009  27.194  1.00  0.00     0.023 A 
ATOM     73  C   UNL A   1      43.547  22.662  26.253  1.00  0.00     0.031 A 
ATOM     74  C   UNL A   1      41.653  21.940  27.506  1.00  0.00     0.131 A 
ATOM     75  C   UNL A   1      43.630  21.320  25.762  1.00  0.00     0.055 A 
ATOM     76  C   UNL A   1      41.802  20.614  27.103  1.00  0.00     0.041 A 
ATOM     77  F   UNL A   1      40.541  22.127  28.229  1.00  0.00    -0.206 F 
ATOM     78  C   UNL A   1      42.809  20.291  26.232  1.00  0.00     0.022 A 
BRANCH  75  79
ATOM     79  S   UNL A   1      44.817  20.835  24.467  1.00  0.00     0.124 S 
ATOM     80  O   UNL A   1      44.338  19.506  24.102  1.00  0.00    -0.237 OA
ATOM     81  O   UNL A   1      44.651  21.877  23.460  1.00  0.00    -0.237 OA
ATOM     82  O   UNL A   1      46.102  20.857  25.167  1.00  0.00    -0.744 OA
ENDBRANCH  75  79
ENDBRANCH  48  72
BRANCH  60  83
ATOM     83  C   UNL A   1      44.256  26.930  31.604  1.00  0.00     0.023 A 
ATOM     84  C   UNL A   1      43.135  27.691  31.986  1.00  0.00     0.031 A 
ATOM     85  C   UNL A   1      44.737  26.032  32.574  1.00  0.00     0.131 A 
ATOM     86  C   UNL A   1      42.573  27.567  33.274  1.00  0.00     0.055 A 
ATOM     87  C   UNL A   1      44.186  25.905  33.857  1.00  0.00     0.041 A 
ATOM     88  F   UNL A   1      45.776  25.243  32.316  1.00  0.00    -0.206 F 
ATOM     89  C   UNL A   1      43.097  26.681  34.216  1.00  0.00     0.022 A 
BRANCH  86  90
ATOM     90  S   UNL A   1      41.117  28.558  33.706  1.00  0.00     0.124 S 
ATOM     91  O   UNL A   1      40.822  28.119  35.065  1.00  0.00    -0.237 OA
ATOM     92  O   UNL A   1      41.615  29.924  33.568  1.00  0.00    -0.237 OA
ATOM     93  O   UNL A   1      40.126  28.168  32.702  1.00  0.00    -0.744 OA
ENDBRANCH  86  90
ENDBRANCH  60  83
ENDBRANCH  34  35
ENDBRANCH  27  29
ENDBRANCH  26  27
ENDBRANCH  25  26
ENDBRANCH  24  25
ENDBRANCH  23  24
ENDBRANCH   1  23
TORSDOF 22
ENDMDL
MODEL 3
REMARK VINA RESULT:     -10.0      3.625      8.682
REMARK SMILES C[C@H](CNC(=O)Cn1cccc1C(=O)OCCOCCOC(=O)c1ccc(-c2c3nc(c(-c4cc(S(=O)(=O)[O-])ccc4F)c4ccc([nH]4)c(-c4cc(S(=O)(=O)[O-])ccc4F)c4nc(c(-c5cc(S(=O)(=O)[O-])ccc5F)c5ccc2[nH]5)C=C4)C=C3)cc1)[NH+](C)C
REMARK SMILES IDX 17 1 16 2 15 3 13 4 14 5 12 6 8 7 9 8 10 9 11 10 7 11 5 12
REMARK SMILES IDX 4 13 6 15 3 16 2 17 1 18 87 19 88 20 89 21 18 23 19 24 20 25
REMARK SMILES IDX 21 26 22 27 23 28 24 29 25 30 86 31 26 32 85 33 27 34 28 35
REMARK SMILES IDX 29 36 79 37 30 38 84 39 78 40 80 41 31 42 83 43 77 44 76 45
REMARK SMILES IDX 32 47 64 48 44 49 63 50 45 51 48 52 62 53 81 54 46 55 47 56
REMARK SMILES IDX 61 58 82 59 49 60 33 61 34 62 42 63 35 64 41 65 43 66 40 67
REMARK SMILES IDX 36 68 37 69 38 70 39 71 65 72 66 73 74 74 67 75 73 76 75 77
REMARK SMILES IDX 72 78 68 79 69 80 70 81 71 82 50 83 51 84 59 85 52 86 58 87
REMARK SMILES IDX 60 88 57 89 53 90 54 91 55 92 56 93
REMARK H PARENT 4 14 87 22 80 46 48 57
REMARK Flexibility Score: inf
ROOT
ATOM      1  C   UNL A   1      34.209  25.386  25.101  1.00  0.00     0.202 C 
ENDROOT
BRANCH   1   2
ATOM      2  C   UNL A   1      34.463  24.896  23.674  1.00  0.00     0.261 C 
BRANCH   2   3
ATOM      3  O   UNL A   1      33.219  24.548  23.045  1.00  0.00    -0.459 OA
BRANCH   3   4
ATOM      4  C   UNL A   1      32.756  25.412  22.094  1.00  0.00     0.355 C 
ATOM      5  O   UNL A   1      33.040  25.377  20.915  1.00  0.00    -0.244 OA
BRANCH   4   6
ATOM      6  C   UNL A   1      31.715  26.236  22.686  1.00  0.00     0.128 A 
ATOM      7  N   UNL A   1      30.608  25.821  23.407  1.00  0.00    -0.333 N 
ATOM      8  C   UNL A   1      29.730  26.869  23.537  1.00  0.00     0.087 A 
ATOM      9  C   UNL A   1      30.341  28.003  23.052  1.00  0.00     0.020 A 
ATOM     10  C   UNL A   1      31.603  27.614  22.553  1.00  0.00     0.035 A 
BRANCH   7  11
ATOM     11  C   UNL A   1      30.386  24.471  23.907  1.00  0.00     0.222 C 
BRANCH  11  12
ATOM     12  C   UNL A   1      30.702  24.244  25.366  1.00  0.00     0.240 C 
ATOM     13  N   UNL A   1      31.334  23.115  25.791  1.00  0.00    -0.349 N 
ATOM     14  H   UNL A   1      31.203  22.906  26.744  1.00  0.00     0.163 HD
ATOM     15  O   UNL A   1      30.296  25.023  26.232  1.00  0.00    -0.273 OA
BRANCH  13  16
ATOM     16  C   UNL A   1      32.171  22.162  25.071  1.00  0.00     0.180 C 
BRANCH  16  17
ATOM     17  C   UNL A   1      33.493  21.800  25.829  1.00  0.00     0.199 C 
ATOM     18  C   UNL A   1      33.447  22.182  27.321  1.00  0.00     0.077 C 
BRANCH  17  19
ATOM     19  N   UNL A   1      33.952  20.412  25.563  1.00  0.00    -0.336 N 
ATOM     20  C   UNL A   1      33.005  19.687  24.708  1.00  0.00     0.332 C 
ATOM     21  C   UNL A   1      35.296  20.326  24.994  1.00  0.00     0.332 C 
ATOM     22  H   UNL A   1      33.993  19.971  26.482  1.00  0.00     0.347 HD
ENDBRANCH  17  19
ENDBRANCH  16  17
ENDBRANCH  13  16
ENDBRANCH  11  12
ENDBRANCH   7  11
ENDBRANCH   4   6
ENDBRANCH   3   4
ENDBRANCH   2   3
ENDBRANCH   1   2
BRANCH   1  23
ATOM     23  O   UNL A   1      33.952  26.783  25.253  1.00  0.00    -0.374 OA
BRANCH  23  24
ATOM     24  C   UNL A   1      32.996  27.207  26.217  1.00  0.00     0.202 C 
BRANCH  24  25
ATOM     25  C   UNL A   1      33.263  28.477  27.019  1.00  0.00     0.261 C 
BRANCH  25  26
ATOM     26  O   UNL A   1      34.603  28.951  26.957  1.00  0.00    -0.460 OA
BRANCH  26  27
ATOM     27  C   UNL A   1      34.808  29.969  27.825  1.00  0.00     0.338 C 
ATOM     28  O   UNL A   1      34.043  30.891  28.063  1.00  0.00    -0.246 OA
BRANCH  27  29
ATOM     29  C   UNL A   1      36.175  29.936  28.339  1.00  0.00     0.060 A 
ATOM     30  C   UNL A   1      37.184  30.121  27.393  1.00  0.00     0.016 A 
ATOM     31  C   UNL A   1      36.440  29.449  29.628  1.00  0.00     0.016 A 
ATOM     32  C   UNL A   1      38.451  29.676  27.686  1.00  0.00     0.010 A 
ATOM     33  C   UNL A   1      37.707  28.977  29.912  1.00  0.00     0.010 A 
ATOM     34  C   UNL A   1      38.687  29.055  28.919  1.00  0.00    -0.014 A 
BRANCH  34  35
ATOM     35  C   UNL A   1      40.061  28.601  29.158  1.00  0.00     0.031 A 
ATOM     36  C   UNL A   1      40.932  29.819  29.504  1.00  0.00     0.074 A 
ATOM     37  C   UNL A   1      40.305  27.284  28.862  1.00  0.00     0.049 A 
ATOM     38  N   UNL A   1      42.100  30.151  29.056  1.00  0.00    -0.248 NA
ATOM     39  C   UNL A   1      40.357  30.918  30.337  1.00  0.00     0.031 C 
ATOM     40  C   UNL A   1      39.271  26.262  28.539  1.00  0.00     0.029 A 
ATOM     41  N   UNL A   1      41.450  26.528  28.744  1.00  0.00    -0.354 N 
ATOM     42  C   UNL A   1      42.497  31.328  29.731  1.00  0.00     0.074 A 
ATOM     43  C   UNL A   1      41.322  31.842  30.361  1.00  0.00     0.031 C 
ATOM     44  C   UNL A   1      39.834  25.083  28.182  1.00  0.00     0.029 A 
ATOM     45  C   UNL A   1      41.278  25.201  28.239  1.00  0.00     0.049 A 
ATOM     46  H   UNL A   1      42.336  26.881  28.992  1.00  0.00     0.167 HD
ATOM     47  C   UNL A   1      43.805  31.700  29.861  1.00  0.00     0.034 A 
ATOM     48  C   UNL A   1      42.240  24.301  27.846  1.00  0.00     0.034 A 
ATOM     49  C   UNL A   1      44.630  30.717  29.240  1.00  0.00     0.049 A 
ATOM     50  C   UNL A   1      43.502  24.992  28.160  1.00  0.00     0.074 A 
ATOM     51  C   UNL A   1      44.861  30.397  27.931  1.00  0.00     0.029 A 
ATOM     52  N   UNL A   1      45.063  29.686  30.045  1.00  0.00    -0.354 N 
ATOM     53  N   UNL A   1      43.982  25.167  29.353  1.00  0.00    -0.248 NA
ATOM     54  C   UNL A   1      44.242  25.622  27.058  1.00  0.00     0.031 C 
ATOM     55  C   UNL A   1      44.941  28.992  27.965  1.00  0.00     0.029 A 
ATOM     56  C   UNL A   1      45.007  28.542  29.293  1.00  0.00     0.049 A 
ATOM     57  H   UNL A   1      45.356  29.758  30.982  1.00  0.00     0.167 HD
ATOM     58  C   UNL A   1      44.889  26.176  29.162  1.00  0.00     0.074 A 
ATOM     59  C   UNL A   1      45.239  26.156  27.758  1.00  0.00     0.031 C 
ATOM     60  C   UNL A   1      44.855  27.269  29.970  1.00  0.00     0.034 A 
BRANCH  47  61
ATOM     61  C   UNL A   1      44.520  32.720  30.705  1.00  0.00     0.023 A 
ATOM     62  C   UNL A   1      45.165  33.765  29.993  1.00  0.00     0.031 A 
ATOM     63  C   UNL A   1      44.882  32.568  32.047  1.00  0.00     0.131 A 
ATOM     64  C   UNL A   1      46.225  34.487  30.549  1.00  0.00     0.055 A 
ATOM     65  C   UNL A   1      45.895  33.348  32.629  1.00  0.00     0.041 A 
ATOM     66  F   UNL A   1      44.344  31.613  32.817  1.00  0.00    -0.206 F 
ATOM     67  C   UNL A   1      46.600  34.283  31.871  1.00  0.00     0.022 A 
BRANCH  64  68
ATOM     68  S   UNL A   1      47.207  35.547  29.447  1.00  0.00     0.124 S 
ATOM     69  O   UNL A   1      47.118  36.844  30.108  1.00  0.00    -0.237 OA
ATOM     70  O   UNL A   1      48.515  34.899  29.486  1.00  0.00    -0.237 OA
ATOM     71  O   UNL A   1      46.504  35.449  28.170  1.00  0.00    -0.744 OA
ENDBRANCH  64  68
ENDBRANCH  47  61
BRANCH  48  72
ATOM     72  C   UNL A   1      42.404  22.952  27.140  1.00  0.00     0.023 A 
ATOM     73  C   UNL A   1      43.444  22.549  26.282  1.00  0.00     0.031 A 
ATOM     74  C   UNL A   1      41.424  21.930  27.385  1.00  0.00     0.131 A 
ATOM     75  C   UNL A   1      43.500  21.199  25.806  1.00  0.00     0.055 A 
ATOM     76  C   UNL A   1      41.539  20.595  27.002  1.00  0.00     0.041 A 
ATOM     77  F   UNL A   1      40.269  22.177  28.016  1.00  0.00    -0.206 F 
ATOM     78  C   UNL A   1      42.595  20.216  26.216  1.00  0.00     0.022 A 
BRANCH  75  79
ATOM     79  S   UNL A   1      44.760  20.646  24.613  1.00  0.00     0.124 S 
ATOM     80  O   UNL A   1      44.775  21.747  23.656  1.00  0.00    -0.237 OA
ATOM     81  O   UNL A   1      45.954  20.496  25.439  1.00  0.00    -0.237 OA
ATOM     82  O   UNL A   1      44.208  19.391  24.101  1.00  0.00    -0.744 OA
ENDBRANCH  75  79
ENDBRANCH  48  72
BRANCH  60  83
ATOM     83  C   UNL A   1      44.247  27.022  31.350  1.00  0.00     0.023 A 
ATOM     84  C   UNL A   1      43.094  27.722  31.754  1.00  0.00     0.031 A 
ATOM     85  C   UNL A   1      44.835  26.207  32.334  1.00  0.00     0.131 A 
ATOM     86  C   UNL A   1      42.603  27.622  33.073  1.00  0.00     0.055 A 
ATOM     87  C   UNL A   1      44.354  26.104  33.648  1.00  0.00     0.041 A 
ATOM     88  F   UNL A   1      45.914  25.478  32.060  1.00  0.00    -0.206 F 
ATOM     89  C   UNL A   1      43.232  26.820  34.025  1.00  0.00     0.022 A 
BRANCH  86  90
ATOM     90  S   UNL A   1      41.103  28.532  33.533  1.00  0.00     0.124 S 
ATOM     91  O   UNL A   1      41.535  29.922  33.458  1.00  0.00    -0.237 OA
ATOM     92  O   UNL A   1      40.151  28.101  32.514  1.00  0.00    -0.237 OA
ATOM     93  O   UNL A   1      40.810  28.047  34.883  1.00  0.00    -0.744 OA
ENDBRANCH  86  90
ENDBRANCH  60  83
ENDBRANCH  34  35
ENDBRANCH  27  29
ENDBRANCH  26  27
ENDBRANCH  25  26
ENDBRANCH  24  25
ENDBRANCH  23  24
ENDBRANCH   1  23
TORSDOF 22
ENDMDL
