MODEL 1
REMARK VINA RESULT:     -11.2      0.000      0.000
REMARK SMILES CC[NH+]1CCN(c2ccc(NC(=O)C3CCCC3)c(C(=O)OCCOCCOC(=O)c3ccc(-c4c5nc(c(-c6cc(S(=O)(=O)[O-])ccc6F)c6ccc([nH]6)c(-c6cc(S(=O)(=O)[O-])ccc6F)c6nc(c(-c7cc(S(=O)(=O)[O-])ccc7F)c7ccc4[nH]7)C=C6)C=C5)cc3)c2)CC1
REMARK SMILES IDX 26 1 25 2 24 3 23 4 22 5 20 6 21 7 19 8 7 9 8 10 94 11 9 12
REMARK SMILES IDX 10 13 6 14 3 15 4 16 96 17 5 19 95 20 2 21 1 22 11 23 12 24
REMARK SMILES IDX 13 26 14 27 15 28 18 29 16 30 17 31 27 32 28 33 29 34 30 35
REMARK SMILES IDX 31 36 32 37 93 38 33 39 92 40 34 41 35 42 36 43 86 44 37 45
REMARK SMILES IDX 91 46 85 47 87 48 38 49 90 50 84 51 83 52 39 54 71 55 51 56
REMARK SMILES IDX 70 57 52 58 55 59 69 60 88 61 53 62 54 63 68 65 89 66 56 67
REMARK SMILES IDX 40 68 41 69 49 70 42 71 48 72 50 73 47 74 43 75 44 76 45 77
REMARK SMILES IDX 46 78 72 79 73 80 81 81 74 82 80 83 82 84 79 85 75 86 76 87
REMARK SMILES IDX 77 88 78 89 57 90 58 91 66 92 59 93 65 94 67 95 64 96 60 97
REMARK SMILES IDX 61 98 62 99 63 100
REMARK H PARENT 3 18 11 25 87 53 55 64
REMARK Flexibility Score: inf
ROOT
ATOM      1  C   UNL A   1      31.352  31.374  26.384  1.00  0.00     0.202 C 
ENDROOT
BRANCH   1   2
ATOM      2  O   UNL A   1      32.068  30.365  27.096  1.00  0.00    -0.374 OA
BRANCH   2   3
ATOM      3  C   UNL A   1      33.067  29.643  26.374  1.00  0.00     0.202 C 
BRANCH   3   4
ATOM      4  C   UNL A   1      33.922  28.657  27.179  1.00  0.00     0.261 C 
BRANCH   4   5
ATOM      5  O   UNL A   1      34.001  27.380  26.520  1.00  0.00    -0.460 OA
BRANCH   5   6
ATOM      6  C   UNL A   1      32.817  26.757  26.298  1.00  0.00     0.340 C 
ATOM      7  O   UNL A   1      31.769  26.942  26.895  1.00  0.00    -0.246 OA
BRANCH   6   8
ATOM      8  C   UNL A   1      32.907  25.990  25.030  1.00  0.00     0.085 A 
ATOM      9  C   UNL A   1      33.432  23.864  23.904  1.00  0.00     0.038 A 
ATOM     10  C   UNL A   1      33.323  24.557  22.702  1.00  0.00     0.028 A 
ATOM     11  C   UNL A   1      33.285  24.634  25.069  1.00  0.00     0.043 A 
ATOM     12  C   UNL A   1      32.989  25.912  22.658  1.00  0.00     0.029 A 
ATOM     13  C   UNL A   1      32.673  26.627  23.801  1.00  0.00     0.055 A 
BRANCH   9  14
ATOM     14  N   UNL A   1      33.652  22.507  23.932  1.00  0.00    -0.360 N 
ATOM     15  N   UNL A   1      33.579  20.035  25.533  1.00  0.00    -0.332 N 
ATOM     16  C   UNL A   1      34.728  20.972  25.572  1.00  0.00     0.283 C 
ATOM     17  C   UNL A   1      32.369  20.776  25.090  1.00  0.00     0.283 C 
ATOM     18  H   UNL A   1      33.421  19.667  26.472  1.00  0.00     0.348 HD
ATOM     19  C   UNL A   1      34.928  21.888  24.335  1.00  0.00     0.178 C 
ATOM     20  C   UNL A   1      32.561  21.541  23.766  1.00  0.00     0.178 C 
BRANCH  15  21
ATOM     21  C   UNL A   1      33.846  18.861  24.695  1.00  0.00     0.258 C 
ATOM     22  C   UNL A   1      32.613  17.967  24.556  1.00  0.00     0.071 C 
ENDBRANCH  15  21
ENDBRANCH   9  14
BRANCH  13  23
ATOM     23  N   UNL A   1      32.205  27.957  23.756  1.00  0.00    -0.325 N 
ATOM     24  C   UNL A   1      31.062  28.560  23.331  1.00  0.00     0.227 C 
ATOM     25  H   UNL A   1      32.858  28.599  24.116  1.00  0.00     0.169 HD
ATOM     26  O   UNL A   1      31.072  29.799  23.294  1.00  0.00    -0.274 OA
BRANCH  24  27
ATOM     27  C   UNL A   1      29.767  27.848  22.936  1.00  0.00     0.079 C 
ATOM     28  C   UNL A   1      29.376  26.692  23.848  1.00  0.00     0.013 C 
ATOM     29  C   UNL A   1      28.536  28.716  22.696  1.00  0.00     0.013 C 
ATOM     30  C   UNL A   1      27.859  26.722  23.978  1.00  0.00     0.001 C 
ATOM     31  C   UNL A   1      27.356  28.022  23.362  1.00  0.00     0.001 C 
ENDBRANCH  24  27
ENDBRANCH  13  23
ENDBRANCH   6   8
ENDBRANCH   5   6
ENDBRANCH   4   5
ENDBRANCH   3   4
ENDBRANCH   2   3
ENDBRANCH   1   2
BRANCH   1  32
ATOM     32  C   UNL A   1      31.582  32.835  26.785  1.00  0.00     0.261 C 
BRANCH  32  33
ATOM     33  O   UNL A   1      32.976  33.178  26.842  1.00  0.00    -0.460 OA
BRANCH  33  34
ATOM     34  C   UNL A   1      33.362  33.785  27.990  1.00  0.00     0.338 C 
ATOM     35  O   UNL A   1      32.728  34.604  28.637  1.00  0.00    -0.246 OA
BRANCH  34  36
ATOM     36  C   UNL A   1      34.608  33.168  28.480  1.00  0.00     0.060 A 
ATOM     37  C   UNL A   1      34.500  31.993  29.236  1.00  0.00     0.016 A 
ATOM     38  C   UNL A   1      35.854  33.750  28.246  1.00  0.00     0.016 A 
ATOM     39  C   UNL A   1      35.639  31.408  29.784  1.00  0.00     0.010 A 
ATOM     40  C   UNL A   1      36.995  33.167  28.807  1.00  0.00     0.010 A 
ATOM     41  C   UNL A   1      36.892  32.007  29.598  1.00  0.00    -0.014 A 
BRANCH  41  42
ATOM     42  C   UNL A   1      38.083  31.487  30.316  1.00  0.00     0.031 A 
ATOM     43  C   UNL A   1      38.922  30.425  29.662  1.00  0.00     0.074 A 
ATOM     44  C   UNL A   1      38.402  31.952  31.537  1.00  0.00     0.049 A 
ATOM     45  N   UNL A   1      39.932  29.750  30.148  1.00  0.00    -0.248 NA
ATOM     46  C   UNL A   1      38.571  30.071  28.278  1.00  0.00     0.031 C 
ATOM     47  C   UNL A   1      37.689  33.015  32.246  1.00  0.00     0.029 A 
ATOM     48  N   UNL A   1      39.394  31.575  32.408  1.00  0.00    -0.354 N 
ATOM     49  C   UNL A   1      40.323  28.876  29.139  1.00  0.00     0.074 A 
ATOM     50  C   UNL A   1      39.430  29.095  28.021  1.00  0.00     0.031 C 
ATOM     51  C   UNL A   1      38.252  33.187  33.454  1.00  0.00     0.029 A 
ATOM     52  C   UNL A   1      39.329  32.213  33.626  1.00  0.00     0.049 A 
ATOM     53  H   UNL A   1      40.086  30.912  32.183  1.00  0.00     0.167 HD
ATOM     54  C   UNL A   1      41.334  27.973  29.152  1.00  0.00     0.034 A 
ATOM     55  C   UNL A   1      40.026  32.004  34.762  1.00  0.00     0.034 A 
ATOM     56  C   UNL A   1      42.213  27.771  30.279  1.00  0.00     0.049 A 
ATOM     57  C   UNL A   1      41.093  30.932  34.777  1.00  0.00     0.074 A 
ATOM     58  C   UNL A   1      43.298  26.917  30.378  1.00  0.00     0.029 A 
ATOM     59  N   UNL A   1      42.099  28.411  31.505  1.00  0.00    -0.354 N 
ATOM     60  N   UNL A   1      41.474  30.131  33.808  1.00  0.00    -0.248 NA
ATOM     61  C   UNL A   1      41.825  30.739  36.036  1.00  0.00     0.031 C 
ATOM     62  C   UNL A   1      43.778  26.971  31.691  1.00  0.00     0.029 A 
ATOM     63  C   UNL A   1      43.059  27.931  32.383  1.00  0.00     0.049 A 
ATOM     64  H   UNL A   1      41.433  29.104  31.721  1.00  0.00     0.167 HD
ATOM     65  C   UNL A   1      42.510  29.362  34.334  1.00  0.00     0.074 A 
ATOM     66  C   UNL A   1      42.706  29.810  35.697  1.00  0.00     0.031 C 
ATOM     67  C   UNL A   1      43.237  28.379  33.745  1.00  0.00     0.034 A 
BRANCH  54  68
ATOM     68  C   UNL A   1      41.505  27.087  27.941  1.00  0.00     0.023 A 
ATOM     69  C   UNL A   1      41.064  25.753  27.918  1.00  0.00     0.031 A 
ATOM     70  C   UNL A   1      42.119  27.598  26.783  1.00  0.00     0.131 A 
ATOM     71  C   UNL A   1      41.288  24.962  26.781  1.00  0.00     0.055 A 
ATOM     72  C   UNL A   1      42.271  26.829  25.628  1.00  0.00     0.041 A 
ATOM     73  F   UNL A   1      42.585  28.857  26.755  1.00  0.00    -0.206 F 
ATOM     74  C   UNL A   1      41.864  25.499  25.626  1.00  0.00     0.022 A 
BRANCH  71  75
ATOM     75  S   UNL A   1      40.930  23.187  26.871  1.00  0.00     0.124 S 
ATOM     76  O   UNL A   1      41.394  22.860  28.217  1.00  0.00    -0.237 OA
ATOM     77  O   UNL A   1      39.488  23.145  26.662  1.00  0.00    -0.237 OA
ATOM     78  O   UNL A   1      41.734  22.619  25.789  1.00  0.00    -0.744 OA
ENDBRANCH  71  75
ENDBRANCH  54  68
BRANCH  55  79
ATOM     79  C   UNL A   1      39.701  32.765  36.006  1.00  0.00     0.023 A 
ATOM     80  C   UNL A   1      38.824  32.246  36.970  1.00  0.00     0.031 A 
ATOM     81  C   UNL A   1      40.206  34.062  36.210  1.00  0.00     0.131 A 
ATOM     82  C   UNL A   1      38.429  33.041  38.058  1.00  0.00     0.055 A 
ATOM     83  C   UNL A   1      39.866  34.823  37.329  1.00  0.00     0.041 A 
ATOM     84  F   UNL A   1      41.046  34.615  35.318  1.00  0.00    -0.206 F 
ATOM     85  C   UNL A   1      38.957  34.319  38.254  1.00  0.00     0.022 A 
BRANCH  82  86
ATOM     86  S   UNL A   1      37.120  32.426  39.153  1.00  0.00     0.124 S 
ATOM     87  O   UNL A   1      37.435  31.003  39.219  1.00  0.00    -0.237 OA
ATOM     88  O   UNL A   1      37.359  33.194  40.370  1.00  0.00    -0.237 OA
ATOM     89  O   UNL A   1      35.892  32.761  38.436  1.00  0.00    -0.744 OA
ENDBRANCH  82  86
ENDBRANCH  55  79
BRANCH  67  90
ATOM     90  C   UNL A   1      44.346  27.753  34.561  1.00  0.00     0.023 A 
ATOM     91  C   UNL A   1      44.125  26.631  35.378  1.00  0.00     0.031 A 
ATOM     92  C   UNL A   1      45.644  28.291  34.518  1.00  0.00     0.131 A 
ATOM     93  C   UNL A   1      45.172  26.118  36.160  1.00  0.00     0.055 A 
ATOM     94  C   UNL A   1      46.698  27.734  35.244  1.00  0.00     0.041 A 
ATOM     95  F   UNL A   1      45.914  29.367  33.759  1.00  0.00    -0.206 F 
ATOM     96  C   UNL A   1      46.461  26.649  36.082  1.00  0.00     0.022 A 
BRANCH  93  97
ATOM     97  S   UNL A   1      44.802  24.806  37.357  1.00  0.00     0.124 S 
ATOM     98  O   UNL A   1      45.335  23.625  36.686  1.00  0.00    -0.237 OA
ATOM     99  O   UNL A   1      45.530  25.248  38.542  1.00  0.00    -0.237 OA
ATOM    100  O   UNL A   1      43.345  24.849  37.474  1.00  0.00    -0.744 OA
ENDBRANCH  93  97
ENDBRANCH  67  90
ENDBRANCH  41  42
ENDBRANCH  34  36
ENDBRANCH  33  34
ENDBRANCH  32  33
ENDBRANCH   1  32
TORSDOF 21
ENDMDL
MODEL 2
REMARK VINA RESULT:     -11.0      2.079      8.456
REMARK SMILES CC[NH+]1CCN(c2ccc(NC(=O)C3CCCC3)c(C(=O)OCCOCCOC(=O)c3ccc(-c4c5nc(c(-c6cc(S(=O)(=O)[O-])ccc6F)c6ccc([nH]6)c(-c6cc(S(=O)(=O)[O-])ccc6F)c6nc(c(-c7cc(S(=O)(=O)[O-])ccc7F)c7ccc4[nH]7)C=C6)C=C5)cc3)c2)CC1
REMARK SMILES IDX 26 1 25 2 24 3 23 4 22 5 20 6 21 7 19 8 7 9 8 10 94 11 9 12
REMARK SMILES IDX 10 13 6 14 3 15 4 16 96 17 5 19 95 20 2 21 1 22 11 23 12 24
REMARK SMILES IDX 13 26 14 27 15 28 18 29 16 30 17 31 27 32 28 33 29 34 30 35
REMARK SMILES IDX 31 36 32 37 93 38 33 39 92 40 34 41 35 42 36 43 86 44 37 45
REMARK SMILES IDX 91 46 85 47 87 48 38 49 90 50 84 51 83 52 39 54 71 55 51 56
REMARK SMILES IDX 70 57 52 58 55 59 69 60 88 61 53 62 54 63 68 65 89 66 56 67
REMARK SMILES IDX 40 68 41 69 49 70 42 71 48 72 50 73 47 74 43 75 44 76 45 77
REMARK SMILES IDX 46 78 72 79 73 80 81 81 74 82 80 83 82 84 79 85 75 86 76 87
REMARK SMILES IDX 77 88 78 89 57 90 58 91 66 92 59 93 65 94 67 95 64 96 60 97
REMARK SMILES IDX 61 98 62 99 63 100
REMARK H PARENT 3 18 11 25 87 53 55 64
REMARK Flexibility Score: inf
ROOT
ATOM      1  C   UNL A   1      31.686  32.441  26.820  1.00  0.00     0.202 C 
ENDROOT
BRANCH   1   2
ATOM      2  O   UNL A   1      31.952  31.124  26.342  1.00  0.00    -0.374 OA
BRANCH   2   3
ATOM      3  C   UNL A   1      32.606  30.224  27.239  1.00  0.00     0.202 C 
BRANCH   3   4
ATOM      4  C   UNL A   1      31.923  28.872  27.479  1.00  0.00     0.261 C 
BRANCH   4   5
ATOM      5  O   UNL A   1      32.858  27.787  27.342  1.00  0.00    -0.460 OA
BRANCH   5   6
ATOM      6  C   UNL A   1      33.130  27.400  26.071  1.00  0.00     0.340 C 
ATOM      7  O   UNL A   1      34.233  27.234  25.577  1.00  0.00    -0.246 OA
BRANCH   6   8
ATOM      8  C   UNL A   1      31.872  26.945  25.427  1.00  0.00     0.085 A 
ATOM      9  C   UNL A   1      29.971  27.465  23.951  1.00  0.00     0.038 A 
ATOM     10  C   UNL A   1      29.409  26.263  24.372  1.00  0.00     0.028 A 
ATOM     11  C   UNL A   1      31.187  27.816  24.557  1.00  0.00     0.043 A 
ATOM     12  C   UNL A   1      30.064  25.415  25.266  1.00  0.00     0.029 A 
ATOM     13  C   UNL A   1      31.342  25.681  25.728  1.00  0.00     0.055 A 
BRANCH   9  14
ATOM     14  N   UNL A   1      29.370  28.240  22.988  1.00  0.00    -0.360 N 
ATOM     15  N   UNL A   1      28.251  30.877  22.294  1.00  0.00    -0.332 N 
ATOM     16  C   UNL A   1      27.464  29.844  23.012  1.00  0.00     0.283 C 
ATOM     17  C   UNL A   1      29.698  30.618  22.516  1.00  0.00     0.283 C 
ATOM     18  H   UNL A   1      28.014  31.795  22.671  1.00  0.00     0.348 HD
ATOM     19  C   UNL A   1      27.909  28.369  22.828  1.00  0.00     0.178 C 
ATOM     20  C   UNL A   1      30.133  29.182  22.162  1.00  0.00     0.178 C 
BRANCH  15  21
ATOM     21  C   UNL A   1      27.914  30.943  20.868  1.00  0.00     0.258 C 
ATOM     22  C   UNL A   1      27.919  32.380  20.347  1.00  0.00     0.071 C 
ENDBRANCH  15  21
ENDBRANCH   9  14
BRANCH  13  23
ATOM     23  N   UNL A   1      32.064  24.766  26.523  1.00  0.00    -0.325 N 
ATOM     24  C   UNL A   1      32.786  23.640  26.277  1.00  0.00     0.227 C 
ATOM     25  H   UNL A   1      32.040  24.997  27.480  1.00  0.00     0.169 HD
ATOM     26  O   UNL A   1      33.150  22.990  27.268  1.00  0.00    -0.274 OA
BRANCH  24  27
ATOM     27  C   UNL A   1      33.217  23.135  24.899  1.00  0.00     0.079 C 
ATOM     28  C   UNL A   1      32.181  22.276  24.187  1.00  0.00     0.013 C 
ATOM     29  C   UNL A   1      33.756  24.166  23.913  1.00  0.00     0.013 C 
ATOM     30  C   UNL A   1      32.254  22.629  22.706  1.00  0.00     0.001 C 
ATOM     31  C   UNL A   1      33.140  23.859  22.555  1.00  0.00     0.001 C 
ENDBRANCH  24  27
ENDBRANCH  13  23
ENDBRANCH   6   8
ENDBRANCH   5   6
ENDBRANCH   4   5
ENDBRANCH   3   4
ENDBRANCH   2   3
ENDBRANCH   1   2
BRANCH   1  32
ATOM     32  C   UNL A   1      32.831  33.204  27.496  1.00  0.00     0.261 C 
BRANCH  32  33
ATOM     33  O   UNL A   1      32.361  34.181  28.439  1.00  0.00    -0.460 OA
BRANCH  33  34
ATOM     34  C   UNL A   1      33.270  35.130  28.769  1.00  0.00     0.338 C 
ATOM     35  O   UNL A   1      33.181  36.333  28.572  1.00  0.00    -0.246 OA
BRANCH  34  36
ATOM     36  C   UNL A   1      34.334  34.531  29.594  1.00  0.00     0.060 A 
ATOM     37  C   UNL A   1      35.644  34.572  29.101  1.00  0.00     0.016 A 
ATOM     38  C   UNL A   1      34.051  33.898  30.806  1.00  0.00     0.016 A 
ATOM     39  C   UNL A   1      36.677  33.958  29.806  1.00  0.00     0.010 A 
ATOM     40  C   UNL A   1      35.088  33.272  31.506  1.00  0.00     0.010 A 
ATOM     41  C   UNL A   1      36.401  33.278  31.000  1.00  0.00    -0.014 A 
BRANCH  41  42
ATOM     42  C   UNL A   1      37.459  32.480  31.667  1.00  0.00     0.031 A 
ATOM     43  C   UNL A   1      37.967  32.921  33.012  1.00  0.00     0.074 A 
ATOM     44  C   UNL A   1      37.966  31.384  31.074  1.00  0.00     0.049 A 
ATOM     45  N   UNL A   1      38.958  32.446  33.721  1.00  0.00    -0.248 NA
ATOM     46  C   UNL A   1      37.266  34.054  33.637  1.00  0.00     0.031 C 
ATOM     47  C   UNL A   1      37.517  30.836  29.793  1.00  0.00     0.029 A 
ATOM     48  N   UNL A   1      38.984  30.546  31.458  1.00  0.00    -0.354 N 
ATOM     49  C   UNL A   1      39.016  33.234  34.865  1.00  0.00     0.074 A 
ATOM     50  C   UNL A   1      37.971  34.229  34.746  1.00  0.00     0.031 C 
ATOM     51  C   UNL A   1      38.273  29.768  29.487  1.00  0.00     0.029 A 
ATOM     52  C   UNL A   1      39.292  29.588  30.519  1.00  0.00     0.049 A 
ATOM     53  H   UNL A   1      39.449  30.624  32.322  1.00  0.00     0.167 HD
ATOM     54  C   UNL A   1      39.868  33.135  35.915  1.00  0.00     0.034 A 
ATOM     55  C   UNL A   1      40.308  28.701  30.476  1.00  0.00     0.034 A 
ATOM     56  C   UNL A   1      40.904  32.134  36.013  1.00  0.00     0.049 A 
ATOM     57  C   UNL A   1      41.296  28.665  31.620  1.00  0.00     0.074 A 
ATOM     58  C   UNL A   1      41.789  31.914  37.055  1.00  0.00     0.029 A 
ATOM     59  N   UNL A   1      41.208  31.201  35.031  1.00  0.00    -0.354 N 
ATOM     60  N   UNL A   1      41.324  29.397  32.711  1.00  0.00    -0.248 NA
ATOM     61  C   UNL A   1      42.385  27.683  31.530  1.00  0.00     0.031 C 
ATOM     62  C   UNL A   1      42.686  30.916  36.663  1.00  0.00     0.029 A 
ATOM     63  C   UNL A   1      42.301  30.441  35.420  1.00  0.00     0.049 A 
ATOM     64  H   UNL A   1      40.719  31.094  34.183  1.00  0.00     0.167 HD
ATOM     65  C   UNL A   1      42.416  28.940  33.448  1.00  0.00     0.074 A 
ATOM     66  C   UNL A   1      43.005  27.859  32.687  1.00  0.00     0.031 C 
ATOM     67  C   UNL A   1      42.887  29.372  34.646  1.00  0.00     0.034 A 
BRANCH  54  68
ATOM     68  C   UNL A   1      39.765  34.170  37.009  1.00  0.00     0.023 A 
ATOM     69  C   UNL A   1      39.296  33.859  38.296  1.00  0.00     0.031 A 
ATOM     70  C   UNL A   1      40.153  35.498  36.752  1.00  0.00     0.131 A 
ATOM     71  C   UNL A   1      39.181  34.871  39.262  1.00  0.00     0.055 A 
ATOM     72  C   UNL A   1      40.108  36.484  37.740  1.00  0.00     0.041 A 
ATOM     73  F   UNL A   1      40.584  35.861  35.534  1.00  0.00    -0.206 F 
ATOM     74  C   UNL A   1      39.609  36.175  39.001  1.00  0.00     0.022 A 
BRANCH  71  75
ATOM     75  S   UNL A   1      38.347  34.489  40.827  1.00  0.00     0.124 S 
ATOM     76  O   UNL A   1      39.428  33.876  41.595  1.00  0.00    -0.237 OA
ATOM     77  O   UNL A   1      37.907  35.804  41.278  1.00  0.00    -0.237 OA
ATOM     78  O   UNL A   1      37.277  33.574  40.431  1.00  0.00    -0.744 OA
ENDBRANCH  71  75
ENDBRANCH  54  68
BRANCH  55  79
ATOM     79  C   UNL A   1      40.497  27.818  29.286  1.00  0.00     0.023 A 
ATOM     80  C   UNL A   1      41.421  28.139  28.280  1.00  0.00     0.031 A 
ATOM     81  C   UNL A   1      39.696  26.676  29.100  1.00  0.00     0.131 A 
ATOM     82  C   UNL A   1      41.478  27.367  27.108  1.00  0.00     0.055 A 
ATOM     83  C   UNL A   1      39.804  25.872  27.965  1.00  0.00     0.041 A 
ATOM     84  F   UNL A   1      38.789  26.322  30.026  1.00  0.00    -0.206 F 
ATOM     85  C   UNL A   1      40.688  26.226  26.951  1.00  0.00     0.022 A 
BRANCH  82  86
ATOM     86  S   UNL A   1      42.514  27.945  25.737  1.00  0.00     0.124 S 
ATOM     87  O   UNL A   1      41.868  29.205  25.389  1.00  0.00    -0.237 OA
ATOM     88  O   UNL A   1      43.824  28.049  26.372  1.00  0.00    -0.237 OA
ATOM     89  O   UNL A   1      42.387  26.882  24.743  1.00  0.00    -0.744 OA
ENDBRANCH  82  86
ENDBRANCH  55  79
BRANCH  67  90
ATOM     90  C   UNL A   1      44.073  28.638  35.228  1.00  0.00     0.023 A 
ATOM     91  C   UNL A   1      43.927  27.675  36.241  1.00  0.00     0.031 A 
ATOM     92  C   UNL A   1      45.371  28.909  34.759  1.00  0.00     0.131 A 
ATOM     93  C   UNL A   1      45.063  27.058  36.790  1.00  0.00     0.055 A 
ATOM     94  C   UNL A   1      46.490  28.243  35.259  1.00  0.00     0.041 A 
ATOM     95  F   UNL A   1      45.573  29.824  33.796  1.00  0.00    -0.206 F 
ATOM     96  C   UNL A   1      46.341  27.321  36.291  1.00  0.00     0.022 A 
BRANCH  93  97
ATOM     97  S   UNL A   1      44.858  25.979  38.233  1.00  0.00     0.124 S 
ATOM     98  O   UNL A   1      45.972  26.391  39.080  1.00  0.00    -0.237 OA
ATOM     99  O   UNL A   1      43.527  26.342  38.709  1.00  0.00    -0.237 OA
ATOM    100  O   UNL A   1      44.968  24.633  37.673  1.00  0.00    -0.744 OA
ENDBRANCH  93  97
ENDBRANCH  67  90
ENDBRANCH  41  42
ENDBRANCH  34  36
ENDBRANCH  33  34
ENDBRANCH  32  33
ENDBRANCH   1  32
TORSDOF 21
ENDMDL
MODEL 3
REMARK VINA RESULT:     -10.9      2.109      2.443
REMARK SMILES CC[NH+]1CCN(c2ccc(NC(=O)C3CCCC3)c(C(=O)OCCOCCOC(=O)c3ccc(-c4c5nc(c(-c6cc(S(=O)(=O)[O-])ccc6F)c6ccc([nH]6)c(-c6cc(S(=O)(=O)[O-])ccc6F)c6nc(c(-c7cc(S(=O)(=O)[O-])ccc7F)c7ccc4[nH]7)C=C6)C=C5)cc3)c2)CC1
REMARK SMILES IDX 26 1 25 2 24 3 23 4 22 5 20 6 21 7 19 8 7 9 8 10 94 11 9 12
REMARK SMILES IDX 10 13 6 14 3 15 4 16 96 17 5 19 95 20 2 21 1 22 11 23 12 24
REMARK SMILES IDX 13 26 14 27 15 28 18 29 16 30 17 31 27 32 28 33 29 34 30 35
REMARK SMILES IDX 31 36 32 37 93 38 33 39 92 40 34 41 35 42 36 43 86 44 37 45
REMARK SMILES IDX 91 46 85 47 87 48 38 49 90 50 84 51 83 52 39 54 71 55 51 56
REMARK SMILES IDX 70 57 52 58 55 59 69 60 88 61 53 62 54 63 68 65 89 66 56 67
REMARK SMILES IDX 40 68 41 69 49 70 42 71 48 72 50 73 47 74 43 75 44 76 45 77
REMARK SMILES IDX 46 78 72 79 73 80 81 81 74 82 80 83 82 84 79 85 75 86 76 87
REMARK SMILES IDX 77 88 78 89 57 90 58 91 66 92 59 93 65 94 67 95 64 96 60 97
REMARK SMILES IDX 61 98 62 99 63 100
REMARK H PARENT 3 18 11 25 87 53 55 64
REMARK Flexibility Score: inf
ROOT
ATOM      1  C   UNL A   1      33.344  32.124  27.774  1.00  0.00     0.202 C 
ENDROOT
BRANCH   1   2
ATOM      2  O   UNL A   1      32.594  31.044  27.221  1.00  0.00    -0.374 OA
BRANCH   2   3
ATOM      3  C   UNL A   1      33.326  29.895  26.791  1.00  0.00     0.202 C 
BRANCH   3   4
ATOM      4  C   UNL A   1      32.834  28.534  27.297  1.00  0.00     0.261 C 
BRANCH   4   5
ATOM      5  O   UNL A   1      33.356  27.461  26.494  1.00  0.00    -0.460 OA
BRANCH   5   6
ATOM      6  C   UNL A   1      32.534  26.396  26.325  1.00  0.00     0.340 C 
ATOM      7  O   UNL A   1      31.518  26.148  26.955  1.00  0.00    -0.246 OA
BRANCH   6   8
ATOM      8  C   UNL A   1      32.905  25.695  25.070  1.00  0.00     0.085 A 
ATOM      9  C   UNL A   1      33.621  23.612  23.971  1.00  0.00     0.038 A 
ATOM     10  C   UNL A   1      33.828  24.373  22.824  1.00  0.00     0.028 A 
ATOM     11  C   UNL A   1      33.220  24.323  25.112  1.00  0.00     0.043 A 
ATOM     12  C   UNL A   1      33.557  25.742  22.787  1.00  0.00     0.029 A 
ATOM     13  C   UNL A   1      32.996  26.408  23.864  1.00  0.00     0.055 A 
BRANCH   9  14
ATOM     14  N   UNL A   1      33.786  22.247  23.964  1.00  0.00    -0.360 N 
ATOM     15  N   UNL A   1      33.569  19.735  25.489  1.00  0.00    -0.332 N 
ATOM     16  C   UNL A   1      34.752  20.623  25.588  1.00  0.00     0.283 C 
ATOM     17  C   UNL A   1      32.402  20.537  25.034  1.00  0.00     0.283 C 
ATOM     18  H   UNL A   1      33.368  19.347  26.412  1.00  0.00     0.348 HD
ATOM     19  C   UNL A   1      35.024  21.565  24.385  1.00  0.00     0.178 C 
ATOM     20  C   UNL A   1      32.663  21.331  23.739  1.00  0.00     0.178 C 
BRANCH  15  21
ATOM     21  C   UNL A   1      33.812  18.575  24.624  1.00  0.00     0.258 C 
ATOM     22  C   UNL A   1      32.705  17.529  24.747  1.00  0.00     0.071 C 
ENDBRANCH  15  21
ENDBRANCH   9  14
BRANCH  13  23
ATOM     23  N   UNL A   1      32.594  27.758  23.792  1.00  0.00    -0.325 N 
ATOM     24  C   UNL A   1      31.490  28.410  23.335  1.00  0.00     0.227 C 
ATOM     25  H   UNL A   1      33.270  28.373  24.158  1.00  0.00     0.169 HD
ATOM     26  O   UNL A   1      31.561  29.647  23.283  1.00  0.00    -0.274 OA
BRANCH  24  27
ATOM     27  C   UNL A   1      30.170  27.756  22.923  1.00  0.00     0.079 C 
ATOM     28  C   UNL A   1      29.682  26.665  23.867  1.00  0.00     0.013 C 
ATOM     29  C   UNL A   1      29.001  28.681  22.601  1.00  0.00     0.013 C 
ATOM     30  C   UNL A   1      28.165  26.786  23.939  1.00  0.00     0.001 C 
ATOM     31  C   UNL A   1      27.760  28.084  23.251  1.00  0.00     0.001 C 
ENDBRANCH  24  27
ENDBRANCH  13  23
ENDBRANCH   6   8
ENDBRANCH   5   6
ENDBRANCH   4   5
ENDBRANCH   3   4
ENDBRANCH   2   3
ENDBRANCH   1   2
BRANCH   1  32
ATOM     32  C   UNL A   1      32.812  33.547  27.567  1.00  0.00     0.261 C 
BRANCH  32  33
ATOM     33  O   UNL A   1      32.503  34.206  28.806  1.00  0.00    -0.460 OA
BRANCH  33  34
ATOM     34  C   UNL A   1      33.443  35.086  29.227  1.00  0.00     0.338 C 
ATOM     35  O   UNL A   1      33.312  36.294  29.358  1.00  0.00    -0.246 OA
BRANCH  34  36
ATOM     36  C   UNL A   1      34.628  34.352  29.706  1.00  0.00     0.060 A 
ATOM     37  C   UNL A   1      34.473  33.522  30.824  1.00  0.00     0.016 A 
ATOM     38  C   UNL A   1      35.877  34.507  29.103  1.00  0.00     0.016 A 
ATOM     39  C   UNL A   1      35.575  32.862  31.361  1.00  0.00     0.010 A 
ATOM     40  C   UNL A   1      36.984  33.851  29.652  1.00  0.00     0.010 A 
ATOM     41  C   UNL A   1      36.845  33.044  30.797  1.00  0.00    -0.014 A 
BRANCH  41  42
ATOM     42  C   UNL A   1      38.046  32.482  31.462  1.00  0.00     0.031 A 
ATOM     43  C   UNL A   1      38.781  31.348  30.803  1.00  0.00     0.074 A 
ATOM     44  C   UNL A   1      38.467  32.972  32.642  1.00  0.00     0.049 A 
ATOM     45  N   UNL A   1      39.778  30.632  31.254  1.00  0.00    -0.248 NA
ATOM     46  C   UNL A   1      38.323  30.964  29.458  1.00  0.00     0.031 C 
ATOM     47  C   UNL A   1      37.862  34.101  33.349  1.00  0.00     0.029 A 
ATOM     48  N   UNL A   1      39.489  32.570  33.466  1.00  0.00    -0.354 N 
ATOM     49  C   UNL A   1      40.055  29.700  30.260  1.00  0.00     0.074 A 
ATOM     50  C   UNL A   1      39.107  29.930  29.191  1.00  0.00     0.031 C 
ATOM     51  C   UNL A   1      38.510  34.285  34.512  1.00  0.00     0.029 A 
ATOM     52  C   UNL A   1      39.537  33.256  34.658  1.00  0.00     0.049 A 
ATOM     53  H   UNL A   1      40.126  31.859  33.227  1.00  0.00     0.167 HD
ATOM     54  C   UNL A   1      41.012  28.739  30.249  1.00  0.00     0.034 A 
ATOM     55  C   UNL A   1      40.292  33.048  35.758  1.00  0.00     0.034 A 
ATOM     56  C   UNL A   1      41.947  28.527  31.328  1.00  0.00     0.049 A 
ATOM     57  C   UNL A   1      41.294  31.916  35.752  1.00  0.00     0.074 A 
ATOM     58  C   UNL A   1      42.985  27.614  31.397  1.00  0.00     0.029 A 
ATOM     59  N   UNL A   1      41.947  29.219  32.532  1.00  0.00    -0.354 N 
ATOM     60  N   UNL A   1      41.567  31.058  34.795  1.00  0.00    -0.248 NA
ATOM     61  C   UNL A   1      42.092  31.727  36.971  1.00  0.00     0.031 C 
ATOM     62  C   UNL A   1      43.549  27.689  32.674  1.00  0.00     0.029 A 
ATOM     63  C   UNL A   1      42.931  28.716  33.369  1.00  0.00     0.049 A 
ATOM     64  H   UNL A   1      41.336  29.957  32.758  1.00  0.00     0.167 HD
ATOM     65  C   UNL A   1      42.589  30.249  35.289  1.00  0.00     0.074 A 
ATOM     66  C   UNL A   1      42.895  30.735  36.618  1.00  0.00     0.031 C 
ATOM     67  C   UNL A   1      43.220  29.202  34.698  1.00  0.00     0.034 A 
BRANCH  54  68
ATOM     68  C   UNL A   1      41.055  27.800  29.068  1.00  0.00     0.023 A 
ATOM     69  C   UNL A   1      42.020  27.914  28.053  1.00  0.00     0.031 A 
ATOM     70  C   UNL A   1      40.109  26.764  28.963  1.00  0.00     0.131 A 
ATOM     71  C   UNL A   1      41.987  27.040  26.955  1.00  0.00     0.055 A 
ATOM     72  C   UNL A   1      40.129  25.851  27.907  1.00  0.00     0.041 A 
ATOM     73  F   UNL A   1      39.146  26.621  29.888  1.00  0.00    -0.206 F 
ATOM     74  C   UNL A   1      41.065  25.992  26.889  1.00  0.00     0.022 A 
BRANCH  71  75
ATOM     75  S   UNL A   1      43.087  27.366  25.550  1.00  0.00     0.124 S 
ATOM     76  O   UNL A   1      42.227  28.163  24.679  1.00  0.00    -0.237 OA
ATOM     77  O   UNL A   1      44.197  28.074  26.177  1.00  0.00    -0.237 OA
ATOM     78  O   UNL A   1      43.404  26.030  25.046  1.00  0.00    -0.744 OA
ENDBRANCH  71  75
ENDBRANCH  54  68
BRANCH  55  79
ATOM     79  C   UNL A   1      40.089  33.873  36.987  1.00  0.00     0.023 A 
ATOM     80  C   UNL A   1      40.915  34.971  37.272  1.00  0.00     0.031 A 
ATOM     81  C   UNL A   1      39.111  33.525  37.936  1.00  0.00     0.131 A 
ATOM     82  C   UNL A   1      40.791  35.642  38.499  1.00  0.00     0.055 A 
ATOM     83  C   UNL A   1      38.944  34.237  39.124  1.00  0.00     0.041 A 
ATOM     84  F   UNL A   1      38.294  32.480  37.721  1.00  0.00    -0.206 F 
ATOM     85  C   UNL A   1      39.800  35.294  39.420  1.00  0.00     0.022 A 
BRANCH  82  86
ATOM     86  S   UNL A   1      42.024  36.900  38.929  1.00  0.00     0.124 S 
ATOM     87  O   UNL A   1      42.668  37.134  37.642  1.00  0.00    -0.237 OA
ATOM     88  O   UNL A   1      41.186  37.983  39.435  1.00  0.00    -0.237 OA
ATOM     89  O   UNL A   1      42.852  36.236  39.932  1.00  0.00    -0.744 OA
ENDBRANCH  82  86
ENDBRANCH  55  79
BRANCH  67  90
ATOM     90  C   UNL A   1      44.339  28.543  35.471  1.00  0.00     0.023 A 
ATOM     91  C   UNL A   1      44.098  27.516  36.399  1.00  0.00     0.031 A 
ATOM     92  C   UNL A   1      45.671  28.951  35.271  1.00  0.00     0.131 A 
ATOM     93  C   UNL A   1      45.163  26.971  37.133  1.00  0.00     0.055 A 
ATOM     94  C   UNL A   1      46.734  28.357  35.953  1.00  0.00     0.041 A 
ATOM     95  F   UNL A   1      45.962  29.932  34.401  1.00  0.00    -0.206 F 
ATOM     96  C   UNL A   1      46.481  27.370  36.900  1.00  0.00     0.022 A 
BRANCH  93  97
ATOM     97  S   UNL A   1      44.793  25.800  38.468  1.00  0.00     0.124 S 
ATOM     98  O   UNL A   1      44.189  24.689  37.738  1.00  0.00    -0.237 OA
ATOM     99  O   UNL A   1      46.111  25.546  39.038  1.00  0.00    -0.237 OA
ATOM    100  O   UNL A   1      43.877  26.544  39.332  1.00  0.00    -0.744 OA
ENDBRANCH  93  97
ENDBRANCH  67  90
ENDBRANCH  41  42
ENDBRANCH  34  36
ENDBRANCH  33  34
ENDBRANCH  32  33
ENDBRANCH   1  32
TORSDOF 21
ENDMDL
