MODEL 1
REMARK VINA RESULT:     -11.4      0.000      0.000
REMARK SMILES O=C(OCCOCCOC(=O)c1ccc(-n2cc(CSc3nc4ccccc4c(=O)n3-c3ccccc3)nn2)cc1)c1ccc(-c2c3nc(c(-c4cc(S(=O)(=O)[O-])ccc4F)c4ccc([nH]4)c(-c4cc(S(=O)(=O)[O-])ccc4F)c4nc(c(-c5cc(S(=O)(=O)[O-])ccc5F)c5ccc2[nH]5)C=C4)C=C3)cc1
REMARK SMILES IDX 7 1 6 2 5 3 4 4 3 5 2 6 1 7 42 8 43 9 104 10 44 11 103 12
REMARK SMILES IDX 45 13 46 14 47 15 97 16 48 17 102 18 96 19 98 20 49 21
REMARK SMILES IDX 101 22 95 23 94 24 50 26 82 27 62 28 81 29 63 30 66 31 80 32
REMARK SMILES IDX 99 33 64 34 65 35 79 37 100 38 67 39 51 40 52 41 60 42 53 43
REMARK SMILES IDX 59 44 61 45 58 46 54 47 55 48 56 49 57 50 83 51 84 52 92 53
REMARK SMILES IDX 85 54 91 55 93 56 90 57 86 58 87 59 88 60 89 61 68 62 69 63
REMARK SMILES IDX 77 64 70 65 76 66 78 67 75 68 71 69 72 70 73 71 74 72 8 73
REMARK SMILES IDX 9 74 10 75 11 76 12 77 13 78 41 79 14 80 40 81 15 82 16 83
REMARK SMILES IDX 17 84 39 85 18 86 38 87 19 88 20 89 21 90 22 91 31 92 23 93
REMARK SMILES IDX 29 94 24 95 28 96 30 97 25 98 27 99 26 100 32 101 33 102
REMARK SMILES IDX 37 103 34 104 36 105 35 106
REMARK H PARENT 98 25 66 36
REMARK Flexibility Score: inf
ROOT
ATOM      1  C   UNL A   1      33.532  35.026  31.845  1.00  0.00     0.202 C 
ENDROOT
BRANCH   1   2
ATOM      2  O   UNL A   1      33.601  33.738  32.466  1.00  0.00    -0.374 OA
BRANCH   2   3
ATOM      3  C   UNL A   1      34.690  33.527  33.358  1.00  0.00     0.202 C 
BRANCH   3   4
ATOM      4  C   UNL A   1      35.989  32.967  32.788  1.00  0.00     0.261 C 
BRANCH   4   5
ATOM      5  O   UNL A   1      36.039  32.979  31.351  1.00  0.00    -0.460 OA
BRANCH   5   6
ATOM      6  C   UNL A   1      37.154  32.956  30.587  1.00  0.00     0.338 C 
ATOM      7  O   UNL A   1      37.396  33.904  29.839  1.00  0.00    -0.246 OA
BRANCH   6   8
ATOM      8  C   UNL A   1      38.218  31.952  30.840  1.00  0.00     0.060 A 
ATOM      9  C   UNL A   1      39.498  32.226  31.313  1.00  0.00     0.016 A 
ATOM     10  C   UNL A   1      37.900  30.634  30.468  1.00  0.00     0.016 A 
ATOM     11  C   UNL A   1      40.497  31.279  31.176  1.00  0.00     0.010 A 
ATOM     12  C   UNL A   1      38.882  29.661  30.387  1.00  0.00     0.010 A 
ATOM     13  C   UNL A   1      40.195  30.015  30.661  1.00  0.00    -0.014 A 
BRANCH  13  14
ATOM     14  C   UNL A   1      41.262  29.024  30.645  1.00  0.00     0.031 A 
ATOM     15  C   UNL A   1      41.661  28.626  32.019  1.00  0.00     0.074 A 
ATOM     16  C   UNL A   1      41.790  28.477  29.533  1.00  0.00     0.049 A 
ATOM     17  N   UNL A   1      42.736  28.978  32.640  1.00  0.00    -0.248 NA
ATOM     18  C   UNL A   1      40.657  27.986  32.884  1.00  0.00     0.031 C 
ATOM     19  C   UNL A   1      41.346  28.624  28.147  1.00  0.00     0.029 A 
ATOM     20  N   UNL A   1      42.826  27.598  29.420  1.00  0.00    -0.354 N 
ATOM     21  C   UNL A   1      42.670  28.361  33.883  1.00  0.00     0.074 A 
ATOM     22  C   UNL A   1      41.297  27.972  34.055  1.00  0.00     0.031 C 
ATOM     23  C   UNL A   1      41.956  27.691  27.376  1.00  0.00     0.029 A 
ATOM     24  C   UNL A   1      42.932  26.968  28.178  1.00  0.00     0.049 A 
ATOM     25  H   UNL A   1      43.453  27.419  30.158  1.00  0.00     0.167 HD
ATOM     26  C   UNL A   1      43.814  27.983  34.518  1.00  0.00     0.034 A 
ATOM     27  C   UNL A   1      43.736  25.913  27.851  1.00  0.00     0.034 A 
ATOM     28  C   UNL A   1      44.954  28.698  33.976  1.00  0.00     0.049 A 
ATOM     29  C   UNL A   1      44.848  25.907  28.834  1.00  0.00     0.074 A 
ATOM     30  C   UNL A   1      45.272  30.037  33.836  1.00  0.00     0.029 A 
ATOM     31  N   UNL A   1      45.783  28.031  33.100  1.00  0.00    -0.354 N 
ATOM     32  N   UNL A   1      45.750  26.850  28.889  1.00  0.00    -0.248 NA
ATOM     33  C   UNL A   1      44.658  25.161  30.071  1.00  0.00     0.031 C 
ATOM     34  C   UNL A   1      45.875  30.138  32.547  1.00  0.00     0.029 A 
ATOM     35  C   UNL A   1      46.000  28.852  32.020  1.00  0.00     0.049 A 
ATOM     36  H   UNL A   1      46.153  27.128  33.225  1.00  0.00     0.167 HD
ATOM     37  C   UNL A   1      45.900  27.121  30.240  1.00  0.00     0.074 A 
ATOM     38  C   UNL A   1      45.263  25.994  30.924  1.00  0.00     0.031 C 
ATOM     39  C   UNL A   1      46.262  28.364  30.679  1.00  0.00     0.034 A 
BRANCH  26  40
ATOM     40  C   UNL A   1      43.965  26.678  35.275  1.00  0.00     0.023 A 
ATOM     41  C   UNL A   1      44.431  26.774  36.599  1.00  0.00     0.031 A 
ATOM     42  C   UNL A   1      44.005  25.383  34.709  1.00  0.00     0.131 A 
ATOM     43  C   UNL A   1      45.058  25.687  37.226  1.00  0.00     0.055 A 
ATOM     44  C   UNL A   1      44.570  24.285  35.364  1.00  0.00     0.041 A 
ATOM     45  F   UNL A   1      43.578  25.108  33.472  1.00  0.00    -0.206 F 
ATOM     46  C   UNL A   1      45.141  24.442  36.613  1.00  0.00     0.022 A 
BRANCH  43  47
ATOM     47  S   UNL A   1      45.944  25.999  38.771  1.00  0.00     0.124 S 
ATOM     48  O   UNL A   1      45.157  25.209  39.714  1.00  0.00    -0.237 OA
ATOM     49  O   UNL A   1      47.276  25.493  38.460  1.00  0.00    -0.237 OA
ATOM     50  O   UNL A   1      45.847  27.448  38.929  1.00  0.00    -0.744 OA
ENDBRANCH  43  47
ENDBRANCH  26  40
BRANCH  27  51
ATOM     51  C   UNL A   1      43.408  24.734  26.986  1.00  0.00     0.023 A 
ATOM     52  C   UNL A   1      44.226  24.291  25.915  1.00  0.00     0.031 A 
ATOM     53  C   UNL A   1      42.380  23.851  27.388  1.00  0.00     0.131 A 
ATOM     54  C   UNL A   1      43.998  23.026  25.309  1.00  0.00     0.055 A 
ATOM     55  C   UNL A   1      42.166  22.605  26.793  1.00  0.00     0.041 A 
ATOM     56  F   UNL A   1      41.598  24.131  28.442  1.00  0.00    -0.206 F 
ATOM     57  C   UNL A   1      42.981  22.182  25.758  1.00  0.00     0.022 A 
BRANCH  54  58
ATOM     58  S   UNL A   1      45.073  22.402  23.967  1.00  0.00     0.124 S 
ATOM     59  O   UNL A   1      46.052  23.473  23.827  1.00  0.00    -0.237 OA
ATOM     60  O   UNL A   1      45.563  21.141  24.511  1.00  0.00    -0.237 OA
ATOM     61  O   UNL A   1      44.159  22.259  22.832  1.00  0.00    -0.744 OA
ENDBRANCH  54  58
ENDBRANCH  27  51
BRANCH  39  62
ATOM     62  C   UNL A   1      46.819  29.361  29.679  1.00  0.00     0.023 A 
ATOM     63  C   UNL A   1      46.057  30.150  28.786  1.00  0.00     0.031 A 
ATOM     64  C   UNL A   1      48.208  29.582  29.719  1.00  0.00     0.131 A 
ATOM     65  C   UNL A   1      46.700  31.105  27.969  1.00  0.00     0.055 A 
ATOM     66  C   UNL A   1      48.834  30.543  28.929  1.00  0.00     0.041 A 
ATOM     67  F   UNL A   1      48.986  28.879  30.558  1.00  0.00    -0.206 F 
ATOM     68  C   UNL A   1      48.082  31.304  28.045  1.00  0.00     0.022 A 
BRANCH  65  69
ATOM     69  S   UNL A   1      45.761  32.093  26.756  1.00  0.00     0.124 S 
ATOM     70  O   UNL A   1      45.347  31.112  25.760  1.00  0.00    -0.237 OA
ATOM     71  O   UNL A   1      44.695  32.663  27.574  1.00  0.00    -0.237 OA
ATOM     72  O   UNL A   1      46.746  33.066  26.279  1.00  0.00    -0.744 OA
ENDBRANCH  65  69
ENDBRANCH  39  62
ENDBRANCH  13  14
ENDBRANCH   6   8
ENDBRANCH   5   6
ENDBRANCH   4   5
ENDBRANCH   3   4
ENDBRANCH   2   3
ENDBRANCH   1   2
BRANCH   1  73
ATOM     73  C   UNL A   1      33.590  35.112  30.311  1.00  0.00     0.261 C 
BRANCH  73  74
ATOM     74  O   UNL A   1      33.654  33.814  29.688  1.00  0.00    -0.460 OA
BRANCH  74  75
ATOM     75  C   UNL A   1      34.085  33.808  28.400  1.00  0.00     0.338 C 
ATOM     76  O   UNL A   1      34.701  34.675  27.823  1.00  0.00    -0.246 OA
BRANCH  75  77
ATOM     77  C   UNL A   1      33.879  32.451  27.839  1.00  0.00     0.060 A 
ATOM     78  C   UNL A   1      32.644  32.181  27.227  1.00  0.00     0.018 A 
ATOM     79  C   UNL A   1      34.855  31.458  27.942  1.00  0.00     0.018 A 
ATOM     80  C   UNL A   1      32.377  30.921  26.700  1.00  0.00     0.029 A 
ATOM     81  C   UNL A   1      34.565  30.171  27.475  1.00  0.00     0.029 A 
ATOM     82  C   UNL A   1      33.335  29.918  26.841  1.00  0.00     0.066 A 
BRANCH  82  83
ATOM     83  N   UNL A   1      32.896  28.594  26.707  1.00  0.00    -0.220 N 
ATOM     84  C   UNL A   1      33.315  27.758  25.710  1.00  0.00     0.141 A 
ATOM     85  N   UNL A   1      32.023  27.960  27.505  1.00  0.00    -0.062 NA
ATOM     86  C   UNL A   1      32.604  26.598  25.860  1.00  0.00     0.093 A 
ATOM     87  N   UNL A   1      31.811  26.751  26.982  1.00  0.00    -0.134 NA
BRANCH  86  88
ATOM     88  C   UNL A   1      32.357  25.494  24.900  1.00  0.00     0.138 C 
BRANCH  88  89
ATOM     89  S   UNL A   1      33.591  24.672  23.898  1.00  0.00    -0.081 SA
BRANCH  89  90
ATOM     90  C   UNL A   1      33.792  22.967  24.188  1.00  0.00     0.176 A 
ATOM     91  N   UNL A   1      32.952  22.259  23.486  1.00  0.00    -0.223 NA
ATOM     92  N   UNL A   1      34.705  22.361  25.034  1.00  0.00    -0.255 N 
ATOM     93  C   UNL A   1      32.880  20.881  23.720  1.00  0.00     0.079 A 
ATOM     94  C   UNL A   1      34.184  21.254  25.720  1.00  0.00     0.266 A 
ATOM     95  C   UNL A   1      32.259  20.022  22.815  1.00  0.00     0.029 A 
ATOM     96  C   UNL A   1      33.321  20.367  24.930  1.00  0.00     0.066 A 
ATOM     97  O   UNL A   1      34.377  20.980  26.903  1.00  0.00    -0.268 OA
ATOM     98  C   UNL A   1      32.019  18.686  23.163  1.00  0.00     0.002 A 
ATOM     99  C   UNL A   1      33.034  19.057  25.321  1.00  0.00     0.016 A 
ATOM    100  C   UNL A   1      32.368  18.217  24.432  1.00  0.00     0.001 A 
BRANCH  92 101
ATOM    101  C   UNL A   1      36.069  22.765  25.314  1.00  0.00     0.051 A 
ATOM    102  C   UNL A   1      37.137  21.897  24.999  1.00  0.00     0.027 A 
ATOM    103  C   UNL A   1      36.425  23.963  25.940  1.00  0.00     0.027 A 
ATOM    104  C   UNL A   1      38.426  22.090  25.503  1.00  0.00     0.002 A 
ATOM    105  C   UNL A   1      37.694  24.129  26.516  1.00  0.00     0.002 A 
ATOM    106  C   UNL A   1      38.684  23.174  26.327  1.00  0.00     0.000 A 
ENDBRANCH  92 101
ENDBRANCH  89  90
ENDBRANCH  88  89
ENDBRANCH  86  88
ENDBRANCH  82  83
ENDBRANCH  75  77
ENDBRANCH  74  75
ENDBRANCH  73  74
ENDBRANCH   1  73
TORSDOF 22
ENDMDL
MODEL 2
REMARK VINA RESULT:     -11.3      0.969      2.540
REMARK SMILES O=C(OCCOCCOC(=O)c1ccc(-n2cc(CSc3nc4ccccc4c(=O)n3-c3ccccc3)nn2)cc1)c1ccc(-c2c3nc(c(-c4cc(S(=O)(=O)[O-])ccc4F)c4ccc([nH]4)c(-c4cc(S(=O)(=O)[O-])ccc4F)c4nc(c(-c5cc(S(=O)(=O)[O-])ccc5F)c5ccc2[nH]5)C=C4)C=C3)cc1
REMARK SMILES IDX 7 1 6 2 5 3 4 4 3 5 2 6 1 7 42 8 43 9 104 10 44 11 103 12
REMARK SMILES IDX 45 13 46 14 47 15 97 16 48 17 102 18 96 19 98 20 49 21
REMARK SMILES IDX 101 22 95 23 94 24 50 26 82 27 62 28 81 29 63 30 66 31 80 32
REMARK SMILES IDX 99 33 64 34 65 35 79 37 100 38 67 39 51 40 52 41 60 42 53 43
REMARK SMILES IDX 59 44 61 45 58 46 54 47 55 48 56 49 57 50 83 51 84 52 92 53
REMARK SMILES IDX 85 54 91 55 93 56 90 57 86 58 87 59 88 60 89 61 68 62 69 63
REMARK SMILES IDX 77 64 70 65 76 66 78 67 75 68 71 69 72 70 73 71 74 72 8 73
REMARK SMILES IDX 9 74 10 75 11 76 12 77 13 78 41 79 14 80 40 81 15 82 16 83
REMARK SMILES IDX 17 84 39 85 18 86 38 87 19 88 20 89 21 90 22 91 31 92 23 93
REMARK SMILES IDX 29 94 24 95 28 96 30 97 25 98 27 99 26 100 32 101 33 102
REMARK SMILES IDX 37 103 34 104 36 105 35 106
REMARK H PARENT 98 25 66 36
REMARK Flexibility Score: inf
ROOT
ATOM      1  C   UNL A   1      33.824  34.841  31.399  1.00  0.00     0.202 C 
ENDROOT
BRANCH   1   2
ATOM      2  O   UNL A   1      33.656  33.641  32.164  1.00  0.00    -0.374 OA
BRANCH   2   3
ATOM      3  C   UNL A   1      34.616  33.410  33.189  1.00  0.00     0.202 C 
BRANCH   3   4
ATOM      4  C   UNL A   1      35.868  32.615  32.835  1.00  0.00     0.261 C 
BRANCH   4   5
ATOM      5  O   UNL A   1      35.918  32.201  31.459  1.00  0.00    -0.460 OA
BRANCH   5   6
ATOM      6  C   UNL A   1      37.013  32.178  30.667  1.00  0.00     0.338 C 
ATOM      7  O   UNL A   1      37.175  33.067  29.831  1.00  0.00    -0.246 OA
BRANCH   6   8
ATOM      8  C   UNL A   1      38.146  31.270  30.976  1.00  0.00     0.060 A 
ATOM      9  C   UNL A   1      39.446  31.663  31.272  1.00  0.00     0.016 A 
ATOM     10  C   UNL A   1      37.864  29.897  30.855  1.00  0.00     0.016 A 
ATOM     11  C   UNL A   1      40.477  30.743  31.195  1.00  0.00     0.010 A 
ATOM     12  C   UNL A   1      38.884  28.960  30.839  1.00  0.00     0.010 A 
ATOM     13  C   UNL A   1      40.196  29.401  30.924  1.00  0.00    -0.014 A 
BRANCH  13  14
ATOM     14  C   UNL A   1      41.306  28.460  30.966  1.00  0.00     0.031 A 
ATOM     15  C   UNL A   1      41.737  28.184  32.360  1.00  0.00     0.074 A 
ATOM     16  C   UNL A   1      41.848  27.857  29.890  1.00  0.00     0.049 A 
ATOM     17  N   UNL A   1      42.801  28.628  32.939  1.00  0.00    -0.248 NA
ATOM     18  C   UNL A   1      40.772  27.565  33.283  1.00  0.00     0.031 C 
ATOM     19  C   UNL A   1      41.383  27.882  28.503  1.00  0.00     0.029 A 
ATOM     20  N   UNL A   1      42.921  27.019  29.828  1.00  0.00    -0.354 N 
ATOM     21  C   UNL A   1      42.776  28.103  34.225  1.00  0.00     0.074 A 
ATOM     22  C   UNL A   1      41.424  27.666  34.443  1.00  0.00     0.031 C 
ATOM     23  C   UNL A   1      42.027  26.922  27.795  1.00  0.00     0.029 A 
ATOM     24  C   UNL A   1      43.043  26.305  28.635  1.00  0.00     0.049 A 
ATOM     25  H   UNL A   1      43.563  26.924  30.569  1.00  0.00     0.167 HD
ATOM     26  C   UNL A   1      43.942  27.824  34.871  1.00  0.00     0.034 A 
ATOM     27  C   UNL A   1      43.891  25.266  28.375  1.00  0.00     0.034 A 
ATOM     28  C   UNL A   1      45.043  28.548  34.262  1.00  0.00     0.049 A 
ATOM     29  C   UNL A   1      45.012  25.382  29.341  1.00  0.00     0.074 A 
ATOM     30  C   UNL A   1      45.298  29.885  34.020  1.00  0.00     0.029 A 
ATOM     31  N   UNL A   1      45.892  27.855  33.426  1.00  0.00    -0.354 N 
ATOM     32  N   UNL A   1      45.870  26.366  29.314  1.00  0.00    -0.248 NA
ATOM     33  C   UNL A   1      44.869  24.721  30.631  1.00  0.00     0.031 C 
ATOM     34  C   UNL A   1      45.882  29.918  32.719  1.00  0.00     0.029 A 
ATOM     35  C   UNL A   1      46.061  28.602  32.286  1.00  0.00     0.049 A 
ATOM     36  H   UNL A   1      46.305  26.981  33.612  1.00  0.00     0.167 HD
ATOM     37  C   UNL A   1      46.022  26.743  30.639  1.00  0.00     0.074 A 
ATOM     38  C   UNL A   1      45.444  25.642  31.412  1.00  0.00     0.031 C 
ATOM     39  C   UNL A   1      46.331  28.029  30.981  1.00  0.00     0.034 A 
BRANCH  26  40
ATOM     40  C   UNL A   1      44.161  26.586  35.718  1.00  0.00     0.023 A 
ATOM     41  C   UNL A   1      44.513  26.805  37.063  1.00  0.00     0.031 A 
ATOM     42  C   UNL A   1      44.368  25.272  35.241  1.00  0.00     0.131 A 
ATOM     43  C   UNL A   1      45.192  25.824  37.802  1.00  0.00     0.055 A 
ATOM     44  C   UNL A   1      44.985  24.275  36.004  1.00  0.00     0.041 A 
ATOM     45  F   UNL A   1      44.065  24.885  33.998  1.00  0.00    -0.206 F 
ATOM     46  C   UNL A   1      45.441  24.561  37.278  1.00  0.00     0.022 A 
BRANCH  43  47
ATOM     47  S   UNL A   1      45.924  26.312  39.381  1.00  0.00     0.124 S 
ATOM     48  O   UNL A   1      47.153  25.525  39.380  1.00  0.00    -0.237 OA
ATOM     49  O   UNL A   1      46.080  27.752  39.206  1.00  0.00    -0.237 OA
ATOM     50  O   UNL A   1      44.918  25.907  40.359  1.00  0.00    -0.744 OA
ENDBRANCH  43  47
ENDBRANCH  26  40
BRANCH  27  51
ATOM     51  C   UNL A   1      43.607  24.012  27.603  1.00  0.00     0.023 A 
ATOM     52  C   UNL A   1      44.303  23.640  26.424  1.00  0.00     0.031 A 
ATOM     53  C   UNL A   1      42.798  23.013  28.188  1.00  0.00     0.131 A 
ATOM     54  C   UNL A   1      44.172  22.328  25.893  1.00  0.00     0.055 A 
ATOM     55  C   UNL A   1      42.679  21.723  27.666  1.00  0.00     0.041 A 
ATOM     56  F   UNL A   1      42.159  23.229  29.348  1.00  0.00    -0.206 F 
ATOM     57  C   UNL A   1      43.373  21.371  26.522  1.00  0.00     0.022 A 
BRANCH  54  58
ATOM     58  S   UNL A   1      45.101  21.799  24.410  1.00  0.00     0.124 S 
ATOM     59  O   UNL A   1      44.973  22.956  23.531  1.00  0.00    -0.237 OA
ATOM     60  O   UNL A   1      46.432  21.534  24.945  1.00  0.00    -0.237 OA
ATOM     61  O   UNL A   1      44.381  20.608  23.958  1.00  0.00    -0.744 OA
ENDBRANCH  54  58
ENDBRANCH  27  51
BRANCH  39  62
ATOM     62  C   UNL A   1      46.832  28.973  29.903  1.00  0.00     0.023 A 
ATOM     63  C   UNL A   1      46.026  29.658  28.963  1.00  0.00     0.031 A 
ATOM     64  C   UNL A   1      48.210  29.260  29.909  1.00  0.00     0.131 A 
ATOM     65  C   UNL A   1      46.616  30.578  28.070  1.00  0.00     0.055 A 
ATOM     66  C   UNL A   1      48.782  30.188  29.043  1.00  0.00     0.041 A 
ATOM     67  F   UNL A   1      49.027  28.659  30.788  1.00  0.00    -0.206 F 
ATOM     68  C   UNL A   1      47.988  30.845  28.114  1.00  0.00     0.022 A 
BRANCH  65  69
ATOM     69  S   UNL A   1      45.622  31.427  26.798  1.00  0.00     0.124 S 
ATOM     70  O   UNL A   1      46.156  30.914  25.543  1.00  0.00    -0.237 OA
ATOM     71  O   UNL A   1      44.263  31.011  27.134  1.00  0.00    -0.237 OA
ATOM     72  O   UNL A   1      45.899  32.844  27.043  1.00  0.00    -0.744 OA
ENDBRANCH  65  69
ENDBRANCH  39  62
ENDBRANCH  13  14
ENDBRANCH   6   8
ENDBRANCH   5   6
ENDBRANCH   4   5
ENDBRANCH   3   4
ENDBRANCH   2   3
ENDBRANCH   1   2
BRANCH   1  73
ATOM     73  C   UNL A   1      34.034  34.727  29.880  1.00  0.00     0.261 C 
BRANCH  73  74
ATOM     74  O   UNL A   1      33.702  33.418  29.374  1.00  0.00    -0.460 OA
BRANCH  74  75
ATOM     75  C   UNL A   1      34.162  33.144  28.126  1.00  0.00     0.338 C 
ATOM     76  O   UNL A   1      34.908  33.815  27.449  1.00  0.00    -0.246 OA
BRANCH  75  77
ATOM     77  C   UNL A   1      33.783  31.754  27.777  1.00  0.00     0.060 A 
ATOM     78  C   UNL A   1      34.752  30.753  27.950  1.00  0.00     0.018 A 
ATOM     79  C   UNL A   1      32.524  31.444  27.259  1.00  0.00     0.018 A 
ATOM     80  C   UNL A   1      34.469  29.431  27.621  1.00  0.00     0.029 A 
ATOM     81  C   UNL A   1      32.258  30.128  26.864  1.00  0.00     0.029 A 
ATOM     82  C   UNL A   1      33.227  29.128  27.065  1.00  0.00     0.066 A 
BRANCH  82  83
ATOM     83  N   UNL A   1      33.121  27.923  26.357  1.00  0.00    -0.220 N 
ATOM     84  C   UNL A   1      34.073  27.476  25.484  1.00  0.00     0.141 A 
ATOM     85  N   UNL A   1      32.104  27.051  26.419  1.00  0.00    -0.062 NA
ATOM     86  C   UNL A   1      33.573  26.327  24.931  1.00  0.00     0.093 A 
ATOM     87  N   UNL A   1      32.351  26.087  25.530  1.00  0.00    -0.134 NA
BRANCH  86  88
ATOM     88  C   UNL A   1      33.967  25.610  23.693  1.00  0.00     0.138 C 
BRANCH  88  89
ATOM     89  S   UNL A   1      34.142  23.839  23.510  1.00  0.00    -0.081 SA
BRANCH  89  90
ATOM     90  C   UNL A   1      35.362  23.090  24.500  1.00  0.00     0.176 A 
ATOM     91  N   UNL A   1      36.124  23.978  25.075  1.00  0.00    -0.223 NA
ATOM     92  N   UNL A   1      35.562  21.736  24.706  1.00  0.00    -0.255 N 
ATOM     93  C   UNL A   1      37.249  23.537  25.781  1.00  0.00     0.079 A 
ATOM     94  C   UNL A   1      36.915  21.371  24.764  1.00  0.00     0.266 A 
ATOM     95  C   UNL A   1      37.920  24.372  26.674  1.00  0.00     0.029 A 
ATOM     96  C   UNL A   1      37.790  22.291  25.501  1.00  0.00     0.066 A 
ATOM     97  O   UNL A   1      37.418  20.375  24.248  1.00  0.00    -0.268 OA
ATOM     98  C   UNL A   1      39.154  23.982  27.211  1.00  0.00     0.002 A 
ATOM     99  C   UNL A   1      39.048  21.912  25.975  1.00  0.00     0.016 A 
ATOM    100  C   UNL A   1      39.737  22.772  26.827  1.00  0.00     0.001 A 
BRANCH  92 101
ATOM    101  C   UNL A   1      34.563  20.691  24.812  1.00  0.00     0.051 A 
ATOM    102  C   UNL A   1      34.955  19.336  24.763  1.00  0.00     0.027 A 
ATOM    103  C   UNL A   1      33.187  20.921  24.912  1.00  0.00     0.027 A 
ATOM    104  C   UNL A   1      34.036  18.302  24.563  1.00  0.00     0.002 A 
ATOM    105  C   UNL A   1      32.262  19.903  24.634  1.00  0.00     0.002 A 
ATOM    106  C   UNL A   1      32.691  18.599  24.424  1.00  0.00     0.000 A 
ENDBRANCH  92 101
ENDBRANCH  89  90
ENDBRANCH  88  89
ENDBRANCH  86  88
ENDBRANCH  82  83
ENDBRANCH  75  77
ENDBRANCH  74  75
ENDBRANCH  73  74
ENDBRANCH   1  73
TORSDOF 22
ENDMDL
MODEL 3
REMARK VINA RESULT:     -11.2      2.179      3.085
REMARK SMILES O=C(OCCOCCOC(=O)c1ccc(-n2cc(CSc3nc4ccccc4c(=O)n3-c3ccccc3)nn2)cc1)c1ccc(-c2c3nc(c(-c4cc(S(=O)(=O)[O-])ccc4F)c4ccc([nH]4)c(-c4cc(S(=O)(=O)[O-])ccc4F)c4nc(c(-c5cc(S(=O)(=O)[O-])ccc5F)c5ccc2[nH]5)C=C4)C=C3)cc1
REMARK SMILES IDX 7 1 6 2 5 3 4 4 3 5 2 6 1 7 42 8 43 9 104 10 44 11 103 12
REMARK SMILES IDX 45 13 46 14 47 15 97 16 48 17 102 18 96 19 98 20 49 21
REMARK SMILES IDX 101 22 95 23 94 24 50 26 82 27 62 28 81 29 63 30 66 31 80 32
REMARK SMILES IDX 99 33 64 34 65 35 79 37 100 38 67 39 51 40 52 41 60 42 53 43
REMARK SMILES IDX 59 44 61 45 58 46 54 47 55 48 56 49 57 50 83 51 84 52 92 53
REMARK SMILES IDX 85 54 91 55 93 56 90 57 86 58 87 59 88 60 89 61 68 62 69 63
REMARK SMILES IDX 77 64 70 65 76 66 78 67 75 68 71 69 72 70 73 71 74 72 8 73
REMARK SMILES IDX 9 74 10 75 11 76 12 77 13 78 41 79 14 80 40 81 15 82 16 83
REMARK SMILES IDX 17 84 39 85 18 86 38 87 19 88 20 89 21 90 22 91 31 92 23 93
REMARK SMILES IDX 29 94 24 95 28 96 30 97 25 98 27 99 26 100 32 101 33 102
REMARK SMILES IDX 37 103 34 104 36 105 35 106
REMARK H PARENT 98 25 66 36
REMARK Flexibility Score: inf
ROOT
ATOM      1  C   UNL A   1      33.508  34.739  32.125  1.00  0.00     0.202 C 
ENDROOT
BRANCH   1   2
ATOM      2  O   UNL A   1      33.574  33.463  32.773  1.00  0.00    -0.374 OA
BRANCH   2   3
ATOM      3  C   UNL A   1      34.687  33.252  33.634  1.00  0.00     0.202 C 
BRANCH   3   4
ATOM      4  C   UNL A   1      35.982  32.731  33.021  1.00  0.00     0.261 C 
BRANCH   4   5
ATOM      5  O   UNL A   1      35.790  32.026  31.782  1.00  0.00    -0.460 OA
BRANCH   5   6
ATOM      6  C   UNL A   1      36.691  31.899  30.784  1.00  0.00     0.338 C 
ATOM      7  O   UNL A   1      36.625  32.647  29.808  1.00  0.00    -0.246 OA
BRANCH   6   8
ATOM      8  C   UNL A   1      37.911  31.073  30.972  1.00  0.00     0.060 A 
ATOM      9  C   UNL A   1      39.172  31.550  31.309  1.00  0.00     0.016 A 
ATOM     10  C   UNL A   1      37.758  29.704  30.683  1.00  0.00     0.016 A 
ATOM     11  C   UNL A   1      40.285  30.751  31.114  1.00  0.00     0.010 A 
ATOM     12  C   UNL A   1      38.862  28.880  30.545  1.00  0.00     0.010 A 
ATOM     13  C   UNL A   1      40.128  29.432  30.679  1.00  0.00    -0.014 A 
BRANCH  13  14
ATOM     14  C   UNL A   1      41.323  28.604  30.599  1.00  0.00     0.031 A 
ATOM     15  C   UNL A   1      41.931  28.388  31.937  1.00  0.00     0.074 A 
ATOM     16  C   UNL A   1      41.799  28.043  29.470  1.00  0.00     0.049 A 
ATOM     17  N   UNL A   1      43.003  28.941  32.394  1.00  0.00    -0.248 NA
ATOM     18  C   UNL A   1      41.139  27.690  32.963  1.00  0.00     0.031 C 
ATOM     19  C   UNL A   1      41.184  28.005  28.144  1.00  0.00     0.029 A 
ATOM     20  N   UNL A   1      42.937  27.313  29.291  1.00  0.00    -0.354 N 
ATOM     21  C   UNL A   1      43.172  28.432  33.675  1.00  0.00     0.074 A 
ATOM     22  C   UNL A   1      41.902  27.868  34.042  1.00  0.00     0.031 C 
ATOM     23  C   UNL A   1      41.837  27.104  27.370  1.00  0.00     0.029 A 
ATOM     24  C   UNL A   1      42.995  26.599  28.092  1.00  0.00     0.049 A 
ATOM     25  H   UNL A   1      43.663  27.290  29.956  1.00  0.00     0.167 HD
ATOM     26  C   UNL A   1      44.424  28.277  34.187  1.00  0.00     0.034 A 
ATOM     27  C   UNL A   1      43.907  25.644  27.741  1.00  0.00     0.034 A 
ATOM     28  C   UNL A   1      45.375  29.097  33.459  1.00  0.00     0.049 A 
ATOM     29  C   UNL A   1      45.112  25.882  28.577  1.00  0.00     0.074 A 
ATOM     30  C   UNL A   1      45.469  30.450  33.188  1.00  0.00     0.029 A 
ATOM     31  N   UNL A   1      46.190  28.479  32.535  1.00  0.00    -0.354 N 
ATOM     32  N   UNL A   1      45.860  26.944  28.453  1.00  0.00    -0.248 NA
ATOM     33  C   UNL A   1      45.178  25.226  29.876  1.00  0.00     0.031 C 
ATOM     34  C   UNL A   1      45.900  30.523  31.830  1.00  0.00     0.029 A 
ATOM     35  C   UNL A   1      46.158  29.226  31.382  1.00  0.00     0.049 A 
ATOM     36  H   UNL A   1      46.705  27.652  32.675  1.00  0.00     0.167 HD
ATOM     37  C   UNL A   1      46.120  27.351  29.752  1.00  0.00     0.074 A 
ATOM     38  C   UNL A   1      45.742  26.208  30.587  1.00  0.00     0.031 C 
ATOM     39  C   UNL A   1      46.337  28.665  30.056  1.00  0.00     0.034 A 
BRANCH  26  40
ATOM     40  C   UNL A   1      44.856  27.077  35.008  1.00  0.00     0.023 A 
ATOM     41  C   UNL A   1      44.732  25.819  34.388  1.00  0.00     0.031 A 
ATOM     42  C   UNL A   1      45.055  27.048  36.407  1.00  0.00     0.131 A 
ATOM     43  C   UNL A   1      44.629  24.645  35.149  1.00  0.00     0.055 A 
ATOM     44  C   UNL A   1      45.019  25.868  37.155  1.00  0.00     0.041 A 
ATOM     45  F   UNL A   1      45.217  28.149  37.149  1.00  0.00    -0.206 F 
ATOM     46  C   UNL A   1      44.761  24.660  36.533  1.00  0.00     0.022 A 
BRANCH  43  47
ATOM     47  S   UNL A   1      44.110  23.134  34.303  1.00  0.00     0.124 S 
ATOM     48  O   UNL A   1      42.657  23.265  34.354  1.00  0.00    -0.237 OA
ATOM     49  O   UNL A   1      44.727  23.298  32.992  1.00  0.00    -0.237 OA
ATOM     50  O   UNL A   1      44.675  22.072  35.131  1.00  0.00    -0.744 OA
ENDBRANCH  43  47
ENDBRANCH  26  40
BRANCH  27  51
ATOM     51  C   UNL A   1      43.665  24.360  27.008  1.00  0.00     0.023 A 
ATOM     52  C   UNL A   1      42.770  23.354  27.457  1.00  0.00     0.031 A 
ATOM     53  C   UNL A   1      44.138  24.224  25.684  1.00  0.00     0.131 A 
ATOM     54  C   UNL A   1      42.390  22.291  26.594  1.00  0.00     0.055 A 
ATOM     55  C   UNL A   1      43.754  23.180  24.838  1.00  0.00     0.041 A 
ATOM     56  F   UNL A   1      44.925  25.159  25.129  1.00  0.00    -0.206 F 
ATOM     57  C   UNL A   1      42.871  22.214  25.286  1.00  0.00     0.022 A 
BRANCH  54  58
ATOM     58  S   UNL A   1      41.192  21.014  27.122  1.00  0.00     0.124 S 
ATOM     59  O   UNL A   1      40.217  21.032  26.038  1.00  0.00    -0.237 OA
ATOM     60  O   UNL A   1      42.023  19.821  27.229  1.00  0.00    -0.237 OA
ATOM     61  O   UNL A   1      40.690  21.520  28.401  1.00  0.00    -0.744 OA
ENDBRANCH  54  58
ENDBRANCH  27  51
BRANCH  39  62
ATOM     62  C   UNL A   1      46.620  29.640  28.928  1.00  0.00     0.023 A 
ATOM     63  C   UNL A   1      45.684  30.528  28.346  1.00  0.00     0.031 A 
ATOM     64  C   UNL A   1      47.956  29.730  28.494  1.00  0.00     0.131 A 
ATOM     65  C   UNL A   1      46.105  31.447  27.361  1.00  0.00     0.055 A 
ATOM     66  C   UNL A   1      48.371  30.655  27.540  1.00  0.00     0.041 A 
ATOM     67  F   UNL A   1      48.898  28.929  29.019  1.00  0.00    -0.206 F 
ATOM     68  C   UNL A   1      47.444  31.513  26.964  1.00  0.00     0.022 A 
BRANCH  65  69
ATOM     69  S   UNL A   1      44.915  32.558  26.539  1.00  0.00     0.124 S 
ATOM     70  O   UNL A   1      45.722  33.249  25.540  1.00  0.00    -0.237 OA
ATOM     71  O   UNL A   1      43.920  31.624  26.022  1.00  0.00    -0.237 OA
ATOM     72  O   UNL A   1      44.438  33.409  27.631  1.00  0.00    -0.744 OA
ENDBRANCH  65  69
ENDBRANCH  39  62
ENDBRANCH  13  14
ENDBRANCH   6   8
ENDBRANCH   5   6
ENDBRANCH   4   5
ENDBRANCH   3   4
ENDBRANCH   2   3
ENDBRANCH   1   2
BRANCH   1  73
ATOM     73  C   UNL A   1      34.034  34.865  30.686  1.00  0.00     0.261 C 
BRANCH  73  74
ATOM     74  O   UNL A   1      33.483  33.864  29.807  1.00  0.00    -0.460 OA
BRANCH  74  75
ATOM     75  C   UNL A   1      33.741  34.045  28.486  1.00  0.00     0.338 C 
ATOM     76  O   UNL A   1      34.408  34.917  27.976  1.00  0.00    -0.246 OA
BRANCH  75  77
ATOM     77  C   UNL A   1      33.252  32.860  27.742  1.00  0.00     0.060 A 
ATOM     78  C   UNL A   1      34.119  31.762  27.626  1.00  0.00     0.018 A 
ATOM     79  C   UNL A   1      31.991  32.838  27.141  1.00  0.00     0.018 A 
ATOM     80  C   UNL A   1      33.731  30.626  26.922  1.00  0.00     0.029 A 
ATOM     81  C   UNL A   1      31.624  31.727  26.376  1.00  0.00     0.029 A 
ATOM     82  C   UNL A   1      32.490  30.621  26.287  1.00  0.00     0.066 A 
BRANCH  82  83
ATOM     83  N   UNL A   1      32.304  29.689  25.257  1.00  0.00    -0.220 N 
ATOM     84  C   UNL A   1      33.334  29.086  24.591  1.00  0.00     0.141 A 
ATOM     85  N   UNL A   1      31.128  29.260  24.775  1.00  0.00    -0.062 NA
ATOM     86  C   UNL A   1      32.759  28.323  23.610  1.00  0.00     0.093 A 
ATOM     87  N   UNL A   1      31.390  28.450  23.748  1.00  0.00    -0.134 NA
BRANCH  86  88
ATOM     88  C   UNL A   1      33.349  27.747  22.376  1.00  0.00     0.138 C 
BRANCH  88  89
ATOM     89  S   UNL A   1      33.222  26.043  21.843  1.00  0.00    -0.081 SA
BRANCH  89  90
ATOM     90  C   UNL A   1      33.657  24.842  23.026  1.00  0.00     0.176 A 
ATOM     91  N   UNL A   1      34.866  24.394  22.833  1.00  0.00    -0.223 NA
ATOM     92  N   UNL A   1      32.881  24.373  24.072  1.00  0.00    -0.255 N 
ATOM     93  C   UNL A   1      35.310  23.314  23.603  1.00  0.00     0.079 A 
ATOM     94  C   UNL A   1      33.018  22.996  24.299  1.00  0.00     0.266 A 
ATOM     95  C   UNL A   1      36.663  22.988  23.685  1.00  0.00     0.029 A 
ATOM     96  C   UNL A   1      34.385  22.470  24.199  1.00  0.00     0.066 A 
ATOM     97  O   UNL A   1      32.108  22.211  24.555  1.00  0.00    -0.268 OA
ATOM     98  C   UNL A   1      37.063  21.790  24.291  1.00  0.00     0.002 A 
ATOM     99  C   UNL A   1      34.758  21.242  24.750  1.00  0.00     0.016 A 
ATOM    100  C   UNL A   1      36.108  20.898  24.784  1.00  0.00     0.001 A 
BRANCH  92 101
ATOM    101  C   UNL A   1      31.940  25.114  24.890  1.00  0.00     0.051 A 
ATOM    102  C   UNL A   1      32.402  25.841  26.009  1.00  0.00     0.027 A 
ATOM    103  C   UNL A   1      30.557  25.129  24.685  1.00  0.00     0.027 A 
ATOM    104  C   UNL A   1      31.534  26.322  26.992  1.00  0.00     0.002 A 
ATOM    105  C   UNL A   1      29.680  25.539  25.702  1.00  0.00     0.002 A 
ATOM    106  C   UNL A   1      30.172  26.103  26.872  1.00  0.00     0.000 A 
ENDBRANCH  92 101
ENDBRANCH  89  90
ENDBRANCH  88  89
ENDBRANCH  86  88
ENDBRANCH  82  83
ENDBRANCH  75  77
ENDBRANCH  74  75
ENDBRANCH  73  74
ENDBRANCH   1  73
TORSDOF 22
ENDMDL
