MODEL 1
REMARK VINA RESULT:      -9.7      0.000      0.000
REMARK SMILES Cc1ccc(C)c(N2C(=O)S[C@H](CC(=O)Nc3ccc(C(=O)OCCOCCOC(=O)c4ccc(-c5c6nc(c(-c7cc(S(=O)(=O)[O-])ccc7F)c7ccc([nH]7)c(-c7cc(S(=O)(=O)[O-])ccc7F)c7nc(c(-c8cc(S(=O)(=O)[O-])ccc8F)c8ccc5[nH]8)C=C7)C=C6)cc4)c(O)c3)C2=O)c1
REMARK SMILES IDX 25 1 24 2 23 3 21 4 22 5 20 6 17 7 18 8 97 9 19 10 95 11
REMARK SMILES IDX 16 12 14 13 15 14 13 16 12 17 8 18 9 19 98 20 10 21 11 22
REMARK SMILES IDX 99 23 7 24 1 25 2 26 3 27 100 28 4 29 5 30 6 31 96 32 26 34
REMARK SMILES IDX 27 35 28 36 29 37 30 38 31 39 32 40 33 41 94 42 34 43 93 44
REMARK SMILES IDX 35 45 36 46 37 47 87 48 38 49 92 50 86 51 88 52 39 53 91 54
REMARK SMILES IDX 85 55 84 56 40 58 72 59 52 60 71 61 53 62 56 63 70 64 89 65
REMARK SMILES IDX 54 66 55 67 69 69 90 70 57 71 41 72 42 73 50 74 43 75 49 76
REMARK SMILES IDX 51 77 48 78 44 79 45 80 46 81 47 82 73 83 74 84 82 85 75 86
REMARK SMILES IDX 81 87 83 88 80 89 76 90 77 91 78 92 79 93 58 94 59 95 67 96
REMARK SMILES IDX 60 97 66 98 68 99 65 100 61 101 62 102 63 103 64 104
REMARK H PARENT 16 15 96 33 88 57 56 68
REMARK Flexibility Score: inf
ROOT
ATOM      1  C   UNL A   1      33.092  34.589  28.385  1.00  0.00     0.202 C 
ENDROOT
BRANCH   1   2
ATOM      2  C   UNL A   1      33.702  35.156  29.676  1.00  0.00     0.261 C 
BRANCH   2   3
ATOM      3  O   UNL A   1      32.896  34.686  30.779  1.00  0.00    -0.460 OA
BRANCH   3   4
ATOM      4  C   UNL A   1      33.287  35.265  31.939  1.00  0.00     0.341 C 
ATOM      5  O   UNL A   1      32.707  36.199  32.466  1.00  0.00    -0.246 OA
BRANCH   4   6
ATOM      6  C   UNL A   1      34.377  34.535  32.614  1.00  0.00     0.101 A 
ATOM      7  C   UNL A   1      36.576  33.428  33.970  1.00  0.00     0.044 A 
ATOM      8  C   UNL A   1      36.314  34.782  34.000  1.00  0.00     0.027 A 
ATOM      9  C   UNL A   1      35.783  32.619  33.153  1.00  0.00     0.073 A 
ATOM     10  C   UNL A   1      35.171  35.311  33.447  1.00  0.00     0.022 A 
ATOM     11  C   UNL A   1      34.688  33.181  32.467  1.00  0.00     0.132 A 
BRANCH   7  12
ATOM     12  N   UNL A   1      37.655  32.944  34.732  1.00  0.00    -0.326 N 
ATOM     13  C   UNL A   1      38.925  32.639  34.264  1.00  0.00     0.226 C 
ATOM     14  O   UNL A   1      39.663  31.893  34.910  1.00  0.00    -0.275 OA
ATOM     15  H   UNL A   1      37.492  32.806  35.693  1.00  0.00     0.169 HD
BRANCH  13  16
ATOM     16  C   UNL A   1      39.488  33.434  33.071  1.00  0.00     0.125 C 
BRANCH  16  17
ATOM     17  C   UNL A   1      39.578  32.703  31.726  1.00  0.00     0.156 C 
ATOM     18  N   UNL A   1      41.447  33.472  30.416  1.00  0.00    -0.240 N 
ATOM     19  C   UNL A   1      40.484  34.313  29.935  1.00  0.00     0.293 C 
ATOM     20  C   UNL A   1      41.040  32.502  31.322  1.00  0.00     0.248 C 
ATOM     21  O   UNL A   1      40.631  35.334  29.289  1.00  0.00    -0.261 OA
ATOM     22  S   UNL A   1      38.947  33.630  30.310  1.00  0.00    -0.050 SA
ATOM     23  O   UNL A   1      41.741  31.604  31.780  1.00  0.00    -0.273 OA
BRANCH  18  24
ATOM     24  C   UNL A   1      42.660  33.424  29.704  1.00  0.00     0.056 A 
ATOM     25  C   UNL A   1      44.145  31.300  26.907  1.00  0.00     0.044 C 
ATOM     26  C   UNL A   1      44.008  32.281  28.033  1.00  0.00    -0.049 A 
ATOM     27  C   UNL A   1      45.145  32.922  28.536  1.00  0.00     0.004 A 
ATOM     28  C   UNL A   1      42.762  32.551  28.611  1.00  0.00     0.030 A 
ATOM     29  C   UNL A   1      45.051  33.777  29.635  1.00  0.00     0.006 A 
ATOM     30  C   UNL A   1      43.817  34.012  30.255  1.00  0.00    -0.027 A 
ATOM     31  C   UNL A   1      43.822  34.823  31.527  1.00  0.00     0.046 C 
ENDBRANCH  18  24
ENDBRANCH  16  17
ENDBRANCH  13  16
ENDBRANCH   7  12
BRANCH  11  32
ATOM     32  O   UNL A   1      33.948  32.341  31.680  1.00  0.00    -0.507 OA
ATOM     33  H   UNL A   1      34.316  31.530  31.386  1.00  0.00     0.293 HD
ENDBRANCH  11  32
ENDBRANCH   4   6
ENDBRANCH   3   4
ENDBRANCH   2   3
ENDBRANCH   1   2
BRANCH   1  34
ATOM     34  O   UNL A   1      33.650  33.304  28.139  1.00  0.00    -0.374 OA
BRANCH  34  35
ATOM     35  C   UNL A   1      34.998  33.083  28.508  1.00  0.00     0.202 C 
BRANCH  35  36
ATOM     36  C   UNL A   1      35.605  31.831  27.867  1.00  0.00     0.261 C 
BRANCH  36  37
ATOM     37  O   UNL A   1      36.419  31.042  28.763  1.00  0.00    -0.460 OA
BRANCH  37  38
ATOM     38  C   UNL A   1      36.627  29.749  28.377  1.00  0.00     0.338 C 
ATOM     39  O   UNL A   1      35.732  28.964  28.110  1.00  0.00    -0.246 OA
BRANCH  38  40
ATOM     40  C   UNL A   1      38.081  29.431  28.452  1.00  0.00     0.060 A 
ATOM     41  C   UNL A   1      38.909  29.672  27.347  1.00  0.00     0.016 A 
ATOM     42  C   UNL A   1      38.546  28.653  29.513  1.00  0.00     0.016 A 
ATOM     43  C   UNL A   1      40.152  29.023  27.257  1.00  0.00     0.010 A 
ATOM     44  C   UNL A   1      39.727  27.940  29.366  1.00  0.00     0.010 A 
ATOM     45  C   UNL A   1      40.539  28.087  28.231  1.00  0.00    -0.014 A 
BRANCH  45  46
ATOM     46  C   UNL A   1      41.942  27.629  28.393  1.00  0.00     0.031 A 
ATOM     47  C   UNL A   1      42.092  26.403  27.599  1.00  0.00     0.074 A 
ATOM     48  C   UNL A   1      43.018  28.126  29.061  1.00  0.00     0.049 A 
ATOM     49  N   UNL A   1      42.079  25.223  28.130  1.00  0.00    -0.248 NA
ATOM     50  C   UNL A   1      41.926  26.405  26.137  1.00  0.00     0.031 C 
ATOM     51  C   UNL A   1      43.023  29.122  30.113  1.00  0.00     0.029 A 
ATOM     52  N   UNL A   1      44.379  27.888  28.921  1.00  0.00    -0.354 N 
ATOM     53  C   UNL A   1      42.299  24.384  27.066  1.00  0.00     0.074 A 
ATOM     54  C   UNL A   1      41.851  25.093  25.900  1.00  0.00     0.031 C 
ATOM     55  C   UNL A   1      44.257  29.631  30.315  1.00  0.00     0.029 A 
ATOM     56  C   UNL A   1      45.196  28.875  29.508  1.00  0.00     0.049 A 
ATOM     57  H   UNL A   1      44.740  27.100  28.454  1.00  0.00     0.167 HD
ATOM     58  C   UNL A   1      43.256  23.431  27.195  1.00  0.00     0.034 A 
ATOM     59  C   UNL A   1      46.553  28.964  29.642  1.00  0.00     0.034 A 
ATOM     60  C   UNL A   1      43.576  23.192  28.590  1.00  0.00     0.049 A 
ATOM     61  C   UNL A   1      47.009  27.589  29.886  1.00  0.00     0.074 A 
ATOM     62  C   UNL A   1      42.909  22.676  29.684  1.00  0.00     0.029 A 
ATOM     63  N   UNL A   1      44.640  23.913  29.080  1.00  0.00    -0.354 N 
ATOM     64  N   UNL A   1      46.745  26.962  30.998  1.00  0.00    -0.248 NA
ATOM     65  C   UNL A   1      47.403  26.742  28.768  1.00  0.00     0.031 C 
ATOM     66  C   UNL A   1      43.540  23.212  30.845  1.00  0.00     0.029 A 
ATOM     67  C   UNL A   1      44.602  24.021  30.451  1.00  0.00     0.049 A 
ATOM     68  H   UNL A   1      45.345  24.306  28.517  1.00  0.00     0.167 HD
ATOM     69  C   UNL A   1      46.428  25.689  30.575  1.00  0.00     0.074 A 
ATOM     70  C   UNL A   1      47.049  25.553  29.265  1.00  0.00     0.031 C 
ATOM     71  C   UNL A   1      45.413  24.995  31.162  1.00  0.00     0.034 A 
BRANCH  58  72
ATOM     72  C   UNL A   1      44.212  23.083  26.082  1.00  0.00     0.023 A 
ATOM     73  C   UNL A   1      44.149  21.776  25.583  1.00  0.00     0.031 A 
ATOM     74  C   UNL A   1      45.331  23.850  25.666  1.00  0.00     0.131 A 
ATOM     75  C   UNL A   1      45.168  21.275  24.759  1.00  0.00     0.055 A 
ATOM     76  C   UNL A   1      46.304  23.372  24.792  1.00  0.00     0.041 A 
ATOM     77  F   UNL A   1      45.612  25.066  26.150  1.00  0.00    -0.206 F 
ATOM     78  C   UNL A   1      46.239  22.067  24.350  1.00  0.00     0.022 A 
BRANCH  75  79
ATOM     79  S   UNL A   1      45.142  19.519  24.341  1.00  0.00     0.124 S 
ATOM     80  O   UNL A   1      46.565  19.217  24.242  1.00  0.00    -0.237 OA
ATOM     81  O   UNL A   1      44.437  18.951  25.486  1.00  0.00    -0.237 OA
ATOM     82  O   UNL A   1      44.407  19.486  23.079  1.00  0.00    -0.744 OA
ENDBRANCH  75  79
ENDBRANCH  58  72
BRANCH  59  83
ATOM     83  C   UNL A   1      47.471  30.146  29.572  1.00  0.00     0.023 A 
ATOM     84  C   UNL A   1      47.925  30.738  28.375  1.00  0.00     0.031 A 
ATOM     85  C   UNL A   1      47.712  30.891  30.733  1.00  0.00     0.131 A 
ATOM     86  C   UNL A   1      48.451  32.058  28.380  1.00  0.00     0.055 A 
ATOM     87  C   UNL A   1      48.116  32.232  30.729  1.00  0.00     0.041 A 
ATOM     88  F   UNL A   1      47.586  30.304  31.922  1.00  0.00    -0.206 F 
ATOM     89  C   UNL A   1      48.453  32.837  29.537  1.00  0.00     0.022 A 
BRANCH  86  90
ATOM     90  S   UNL A   1      49.169  32.790  26.877  1.00  0.00     0.124 S 
ATOM     91  O   UNL A   1      47.980  33.269  26.179  1.00  0.00    -0.237 OA
ATOM     92  O   UNL A   1      50.064  33.810  27.408  1.00  0.00    -0.237 OA
ATOM     93  O   UNL A   1      49.842  31.661  26.233  1.00  0.00    -0.744 OA
ENDBRANCH  86  90
ENDBRANCH  59  83
BRANCH  71  94
ATOM     94  C   UNL A   1      45.078  25.347  32.594  1.00  0.00     0.023 A 
ATOM     95  C   UNL A   1      43.987  26.147  33.005  1.00  0.00     0.031 A 
ATOM     96  C   UNL A   1      45.924  24.839  33.593  1.00  0.00     0.131 A 
ATOM     97  C   UNL A   1      43.784  26.418  34.375  1.00  0.00     0.055 A 
ATOM     98  C   UNL A   1      45.716  25.097  34.947  1.00  0.00     0.041 A 
ATOM     99  F   UNL A   1      46.977  24.071  33.266  1.00  0.00    -0.206 F 
ATOM    100  C   UNL A   1      44.648  25.894  35.343  1.00  0.00     0.022 A 
BRANCH  97 101
ATOM    101  S   UNL A   1      42.413  27.491  34.917  1.00  0.00     0.124 S 
ATOM    102  O   UNL A   1      41.980  28.148  33.689  1.00  0.00    -0.237 OA
ATOM    103  O   UNL A   1      41.466  26.539  35.493  1.00  0.00    -0.237 OA
ATOM    104  O   UNL A   1      43.044  28.381  35.895  1.00  0.00    -0.744 OA
ENDBRANCH  97 101
ENDBRANCH  71  94
ENDBRANCH  45  46
ENDBRANCH  38  40
ENDBRANCH  37  38
ENDBRANCH  36  37
ENDBRANCH  35  36
ENDBRANCH  34  35
ENDBRANCH   1  34
TORSDOF 22
ENDMDL
MODEL 2
REMARK VINA RESULT:      -9.4      4.806      8.710
REMARK SMILES Cc1ccc(C)c(N2C(=O)S[C@H](CC(=O)Nc3ccc(C(=O)OCCOCCOC(=O)c4ccc(-c5c6nc(c(-c7cc(S(=O)(=O)[O-])ccc7F)c7ccc([nH]7)c(-c7cc(S(=O)(=O)[O-])ccc7F)c7nc(c(-c8cc(S(=O)(=O)[O-])ccc8F)c8ccc5[nH]8)C=C7)C=C6)cc4)c(O)c3)C2=O)c1
REMARK SMILES IDX 25 1 24 2 23 3 21 4 22 5 20 6 17 7 18 8 97 9 19 10 95 11
REMARK SMILES IDX 16 12 14 13 15 14 13 16 12 17 8 18 9 19 98 20 10 21 11 22
REMARK SMILES IDX 99 23 7 24 1 25 2 26 3 27 100 28 4 29 5 30 6 31 96 32 26 34
REMARK SMILES IDX 27 35 28 36 29 37 30 38 31 39 32 40 33 41 94 42 34 43 93 44
REMARK SMILES IDX 35 45 36 46 37 47 87 48 38 49 92 50 86 51 88 52 39 53 91 54
REMARK SMILES IDX 85 55 84 56 40 58 72 59 52 60 71 61 53 62 56 63 70 64 89 65
REMARK SMILES IDX 54 66 55 67 69 69 90 70 57 71 41 72 42 73 50 74 43 75 49 76
REMARK SMILES IDX 51 77 48 78 44 79 45 80 46 81 47 82 73 83 74 84 82 85 75 86
REMARK SMILES IDX 81 87 83 88 80 89 76 90 77 91 78 92 79 93 58 94 59 95 67 96
REMARK SMILES IDX 60 97 66 98 68 99 65 100 61 101 62 102 63 103 64 104
REMARK H PARENT 16 15 96 33 88 57 56 68
REMARK Flexibility Score: inf
ROOT
ATOM      1  C   UNL A   1      32.810  35.377  28.955  1.00  0.00     0.202 C 
ENDROOT
BRANCH   1   2
ATOM      2  C   UNL A   1      34.164  34.787  28.528  1.00  0.00     0.261 C 
BRANCH   2   3
ATOM      3  O   UNL A   1      34.110  33.363  28.771  1.00  0.00    -0.460 OA
BRANCH   3   4
ATOM      4  C   UNL A   1      34.947  32.705  27.935  1.00  0.00     0.341 C 
ATOM      5  O   UNL A   1      36.025  33.140  27.563  1.00  0.00    -0.246 OA
BRANCH   4   6
ATOM      6  C   UNL A   1      34.524  31.318  27.663  1.00  0.00     0.101 A 
ATOM      7  C   UNL A   1      33.428  28.765  27.241  1.00  0.00     0.044 A 
ATOM      8  C   UNL A   1      32.634  29.852  27.539  1.00  0.00     0.027 A 
ATOM      9  C   UNL A   1      34.814  28.932  27.261  1.00  0.00     0.073 A 
ATOM     10  C   UNL A   1      33.150  31.125  27.620  1.00  0.00     0.022 A 
ATOM     11  C   UNL A   1      35.359  30.213  27.484  1.00  0.00     0.132 A 
BRANCH   7  12
ATOM     12  N   UNL A   1      32.798  27.535  26.974  1.00  0.00    -0.326 N 
ATOM     13  C   UNL A   1      32.713  26.902  25.742  1.00  0.00     0.226 C 
ATOM     14  O   UNL A   1      31.849  26.046  25.543  1.00  0.00    -0.275 OA
ATOM     15  H   UNL A   1      32.375  27.079  27.737  1.00  0.00     0.169 HD
BRANCH  13  16
ATOM     16  C   UNL A   1      33.852  27.098  24.725  1.00  0.00     0.125 C 
BRANCH  16  17
ATOM     17  C   UNL A   1      33.604  28.089  23.581  1.00  0.00     0.156 C 
ATOM     18  N   UNL A   1      31.311  28.046  22.847  1.00  0.00    -0.240 N 
ATOM     19  C   UNL A   1      31.832  27.126  21.984  1.00  0.00     0.293 C 
ATOM     20  C   UNL A   1      32.203  28.693  23.691  1.00  0.00     0.248 C 
ATOM     21  O   UNL A   1      31.237  26.317  21.295  1.00  0.00    -0.261 OA
ATOM     22  S   UNL A   1      33.540  27.351  21.934  1.00  0.00    -0.050 SA
ATOM     23  O   UNL A   1      31.932  29.613  24.457  1.00  0.00    -0.273 OA
BRANCH  18  24
ATOM     24  C   UNL A   1      30.012  28.511  22.569  1.00  0.00     0.056 A 
ATOM     25  C   UNL A   1      28.448  31.732  21.258  1.00  0.00     0.044 C 
ATOM     26  C   UNL A   1      28.611  30.372  21.869  1.00  0.00    -0.049 A 
ATOM     27  C   UNL A   1      27.498  29.714  22.404  1.00  0.00     0.004 A 
ATOM     28  C   UNL A   1      29.866  29.755  21.938  1.00  0.00     0.030 A 
ATOM     29  C   UNL A   1      27.642  28.485  23.048  1.00  0.00     0.006 A 
ATOM     30  C   UNL A   1      28.902  27.885  23.172  1.00  0.00    -0.027 A 
ATOM     31  C   UNL A   1      28.997  26.637  24.014  1.00  0.00     0.046 C 
ENDBRANCH  18  24
ENDBRANCH  16  17
ENDBRANCH  13  16
ENDBRANCH   7  12
BRANCH  11  32
ATOM     32  O   UNL A   1      36.723  30.317  27.496  1.00  0.00    -0.507 OA
ATOM     33  H   UNL A   1      37.219  30.065  26.740  1.00  0.00     0.293 HD
ENDBRANCH  11  32
ENDBRANCH   4   6
ENDBRANCH   3   4
ENDBRANCH   2   3
ENDBRANCH   1   2
BRANCH   1  34
ATOM     34  O   UNL A   1      33.043  36.495  29.803  1.00  0.00    -0.374 OA
BRANCH  34  35
ATOM     35  C   UNL A   1      32.539  36.443  31.124  1.00  0.00     0.202 C 
BRANCH  35  36
ATOM     36  C   UNL A   1      33.631  36.263  32.185  1.00  0.00     0.261 C 
BRANCH  36  37
ATOM     37  O   UNL A   1      34.314  34.991  32.122  1.00  0.00    -0.460 OA
BRANCH  37  38
ATOM     38  C   UNL A   1      35.198  34.754  33.134  1.00  0.00     0.338 C 
ATOM     39  O   UNL A   1      35.067  35.181  34.270  1.00  0.00    -0.246 OA
BRANCH  38  40
ATOM     40  C   UNL A   1      36.376  34.010  32.606  1.00  0.00     0.060 A 
ATOM     41  C   UNL A   1      37.227  33.329  33.487  1.00  0.00     0.016 A 
ATOM     42  C   UNL A   1      36.768  34.221  31.284  1.00  0.00     0.016 A 
ATOM     43  C   UNL A   1      38.523  32.978  33.068  1.00  0.00     0.010 A 
ATOM     44  C   UNL A   1      38.081  33.963  30.915  1.00  0.00     0.010 A 
ATOM     45  C   UNL A   1      38.990  33.364  31.800  1.00  0.00    -0.014 A 
BRANCH  45  46
ATOM     46  C   UNL A   1      40.184  32.753  31.164  1.00  0.00     0.031 A 
ATOM     47  C   UNL A   1      39.858  31.347  30.889  1.00  0.00     0.074 A 
ATOM     48  C   UNL A   1      41.401  33.238  30.796  1.00  0.00     0.049 A 
ATOM     49  N   UNL A   1      40.269  30.377  31.639  1.00  0.00    -0.248 NA
ATOM     50  C   UNL A   1      38.778  30.973  29.962  1.00  0.00     0.031 C 
ATOM     51  C   UNL A   1      42.027  34.471  31.226  1.00  0.00     0.029 A 
ATOM     52  N   UNL A   1      42.352  32.759  29.906  1.00  0.00    -0.354 N 
ATOM     53  C   UNL A   1      39.795  29.253  31.008  1.00  0.00     0.074 A 
ATOM     54  C   UNL A   1      38.651  29.675  30.250  1.00  0.00     0.031 C 
ATOM     55  C   UNL A   1      43.058  34.814  30.425  1.00  0.00     0.029 A 
ATOM     56  C   UNL A   1      43.290  33.728  29.493  1.00  0.00     0.049 A 
ATOM     57  H   UNL A   1      42.370  31.826  29.591  1.00  0.00     0.167 HD
ATOM     58  C   UNL A   1      40.662  28.235  30.787  1.00  0.00     0.034 A 
ATOM     59  C   UNL A   1      44.396  33.634  28.697  1.00  0.00     0.034 A 
ATOM     60  C   UNL A   1      41.830  28.341  31.643  1.00  0.00     0.049 A 
ATOM     61  C   UNL A   1      44.987  32.325  29.006  1.00  0.00     0.074 A 
ATOM     62  C   UNL A   1      42.072  28.258  33.000  1.00  0.00     0.029 A 
ATOM     63  N   UNL A   1      42.906  28.992  31.088  1.00  0.00    -0.354 N 
ATOM     64  N   UNL A   1      45.553  32.079  30.155  1.00  0.00    -0.248 NA
ATOM     65  C   UNL A   1      44.609  31.152  28.230  1.00  0.00     0.031 C 
ATOM     66  C   UNL A   1      43.272  28.987  33.252  1.00  0.00     0.029 A 
ATOM     67  C   UNL A   1      43.765  29.478  32.047  1.00  0.00     0.049 A 
ATOM     68  H   UNL A   1      43.047  29.098  30.119  1.00  0.00     0.167 HD
ATOM     69  C   UNL A   1      45.118  30.805  30.454  1.00  0.00     0.074 A 
ATOM     70  C   UNL A   1      44.742  30.218  29.176  1.00  0.00     0.031 C 
ATOM     71  C   UNL A   1      44.779  30.469  31.729  1.00  0.00     0.034 A 
BRANCH  58  72
ATOM     72  C   UNL A   1      40.680  27.447  29.501  1.00  0.00     0.023 A 
ATOM     73  C   UNL A   1      41.617  27.839  28.536  1.00  0.00     0.031 A 
ATOM     74  C   UNL A   1      39.691  26.528  29.065  1.00  0.00     0.131 A 
ATOM     75  C   UNL A   1      41.527  27.365  27.219  1.00  0.00     0.055 A 
ATOM     76  C   UNL A   1      39.648  26.007  27.775  1.00  0.00     0.041 A 
ATOM     77  F   UNL A   1      38.650  26.154  29.818  1.00  0.00    -0.206 F 
ATOM     78  C   UNL A   1      40.558  26.442  26.834  1.00  0.00     0.022 A 
BRANCH  75  79
ATOM     79  S   UNL A   1      42.622  28.084  25.976  1.00  0.00     0.124 S 
ATOM     80  O   UNL A   1      42.080  29.432  25.849  1.00  0.00    -0.237 OA
ATOM     81  O   UNL A   1      43.924  27.969  26.624  1.00  0.00    -0.237 OA
ATOM     82  O   UNL A   1      42.425  27.220  24.816  1.00  0.00    -0.744 OA
ENDBRANCH  75  79
ENDBRANCH  58  72
BRANCH  59  83
ATOM     83  C   UNL A   1      44.969  34.591  27.695  1.00  0.00     0.023 A 
ATOM     84  C   UNL A   1      45.793  35.689  28.018  1.00  0.00     0.031 A 
ATOM     85  C   UNL A   1      44.916  34.267  26.335  1.00  0.00     0.131 A 
ATOM     86  C   UNL A   1      46.604  36.297  27.022  1.00  0.00     0.055 A 
ATOM     87  C   UNL A   1      45.798  34.780  25.376  1.00  0.00     0.041 A 
ATOM     88  F   UNL A   1      43.961  33.448  25.897  1.00  0.00    -0.206 F 
ATOM     89  C   UNL A   1      46.679  35.780  25.729  1.00  0.00     0.022 A 
BRANCH  86  90
ATOM     90  S   UNL A   1      47.569  37.797  27.381  1.00  0.00     0.124 S 
ATOM     91  O   UNL A   1      46.608  38.601  28.128  1.00  0.00    -0.237 OA
ATOM     92  O   UNL A   1      48.705  37.279  28.133  1.00  0.00    -0.237 OA
ATOM     93  O   UNL A   1      47.901  38.317  26.054  1.00  0.00    -0.744 OA
ENDBRANCH  86  90
ENDBRANCH  59  83
BRANCH  71  94
ATOM     94  C   UNL A   1      45.438  31.250  32.844  1.00  0.00     0.023 A 
ATOM     95  C   UNL A   1      44.922  32.427  33.434  1.00  0.00     0.031 A 
ATOM     96  C   UNL A   1      46.666  30.766  33.326  1.00  0.00     0.131 A 
ATOM     97  C   UNL A   1      45.637  33.076  34.462  1.00  0.00     0.055 A 
ATOM     98  C   UNL A   1      47.366  31.402  34.350  1.00  0.00     0.041 A 
ATOM     99  F   UNL A   1      47.208  29.652  32.808  1.00  0.00    -0.206 F 
ATOM    100  C   UNL A   1      46.857  32.565  34.918  1.00  0.00     0.022 A 
BRANCH  97 101
ATOM    101  S   UNL A   1      45.010  34.623  35.197  1.00  0.00     0.124 S 
ATOM    102  O   UNL A   1      46.210  35.278  35.705  1.00  0.00    -0.237 OA
ATOM    103  O   UNL A   1      44.363  35.280  34.064  1.00  0.00    -0.237 OA
ATOM    104  O   UNL A   1      44.085  34.158  36.233  1.00  0.00    -0.744 OA
ENDBRANCH  97 101
ENDBRANCH  71  94
ENDBRANCH  45  46
ENDBRANCH  38  40
ENDBRANCH  37  38
ENDBRANCH  36  37
ENDBRANCH  35  36
ENDBRANCH  34  35
ENDBRANCH   1  34
TORSDOF 22
ENDMDL
MODEL 3
REMARK VINA RESULT:      -9.2      4.309      9.836
REMARK SMILES Cc1ccc(C)c(N2C(=O)S[C@H](CC(=O)Nc3ccc(C(=O)OCCOCCOC(=O)c4ccc(-c5c6nc(c(-c7cc(S(=O)(=O)[O-])ccc7F)c7ccc([nH]7)c(-c7cc(S(=O)(=O)[O-])ccc7F)c7nc(c(-c8cc(S(=O)(=O)[O-])ccc8F)c8ccc5[nH]8)C=C7)C=C6)cc4)c(O)c3)C2=O)c1
REMARK SMILES IDX 25 1 24 2 23 3 21 4 22 5 20 6 17 7 18 8 97 9 19 10 95 11
REMARK SMILES IDX 16 12 14 13 15 14 13 16 12 17 8 18 9 19 98 20 10 21 11 22
REMARK SMILES IDX 99 23 7 24 1 25 2 26 3 27 100 28 4 29 5 30 6 31 96 32 26 34
REMARK SMILES IDX 27 35 28 36 29 37 30 38 31 39 32 40 33 41 94 42 34 43 93 44
REMARK SMILES IDX 35 45 36 46 37 47 87 48 38 49 92 50 86 51 88 52 39 53 91 54
REMARK SMILES IDX 85 55 84 56 40 58 72 59 52 60 71 61 53 62 56 63 70 64 89 65
REMARK SMILES IDX 54 66 55 67 69 69 90 70 57 71 41 72 42 73 50 74 43 75 49 76
REMARK SMILES IDX 51 77 48 78 44 79 45 80 46 81 47 82 73 83 74 84 82 85 75 86
REMARK SMILES IDX 81 87 83 88 80 89 76 90 77 91 78 92 79 93 58 94 59 95 67 96
REMARK SMILES IDX 60 97 66 98 68 99 65 100 61 101 62 102 63 103 64 104
REMARK H PARENT 16 15 96 33 88 57 56 68
REMARK Flexibility Score: inf
ROOT
ATOM      1  C   UNL A   1      34.321  32.914  27.931  1.00  0.00     0.202 C 
ENDROOT
BRANCH   1   2
ATOM      2  C   UNL A   1      34.301  31.392  28.140  1.00  0.00     0.261 C 
BRANCH   2   3
ATOM      3  O   UNL A   1      33.859  30.791  26.902  1.00  0.00    -0.460 OA
BRANCH   3   4
ATOM      4  C   UNL A   1      34.415  29.567  26.739  1.00  0.00     0.341 C 
ATOM      5  O   UNL A   1      35.437  29.201  27.296  1.00  0.00    -0.246 OA
BRANCH   4   6
ATOM      6  C   UNL A   1      33.563  28.639  25.972  1.00  0.00     0.101 A 
ATOM      7  C   UNL A   1      31.845  26.756  24.789  1.00  0.00     0.044 A 
ATOM      8  C   UNL A   1      31.842  26.983  26.149  1.00  0.00     0.027 A 
ATOM      9  C   UNL A   1      32.804  27.407  24.011  1.00  0.00     0.073 A 
ATOM     10  C   UNL A   1      32.587  27.991  26.717  1.00  0.00     0.022 A 
ATOM     11  C   UNL A   1      33.670  28.343  24.612  1.00  0.00     0.132 A 
BRANCH   7  12
ATOM     12  N   UNL A   1      30.906  25.848  24.265  1.00  0.00    -0.326 N 
ATOM     13  C   UNL A   1      31.013  24.464  24.255  1.00  0.00     0.226 C 
ATOM     14  O   UNL A   1      30.340  23.796  23.468  1.00  0.00    -0.275 OA
ATOM     15  H   UNL A   1      30.093  26.233  23.866  1.00  0.00     0.169 HD
BRANCH  13  16
ATOM     16  C   UNL A   1      31.781  23.770  25.394  1.00  0.00     0.125 C 
BRANCH  16  17
ATOM     17  C   UNL A   1      32.556  22.495  25.037  1.00  0.00     0.156 C 
ATOM     18  N   UNL A   1      34.935  22.821  25.211  1.00  0.00    -0.240 N 
ATOM     19  C   UNL A   1      34.770  23.132  23.892  1.00  0.00     0.293 C 
ATOM     20  C   UNL A   1      33.815  22.374  25.898  1.00  0.00     0.248 C 
ATOM     21  O   UNL A   1      35.546  23.706  23.150  1.00  0.00    -0.261 OA
ATOM     22  S   UNL A   1      33.263  22.473  23.375  1.00  0.00    -0.050 SA
ATOM     23  O   UNL A   1      33.795  21.958  27.052  1.00  0.00    -0.273 OA
BRANCH  18  24
ATOM     24  C   UNL A   1      36.258  22.634  25.656  1.00  0.00     0.056 A 
ATOM     25  C   UNL A   1      39.190  24.868  26.632  1.00  0.00     0.044 C 
ATOM     26  C   UNL A   1      38.376  23.663  26.266  1.00  0.00    -0.049 A 
ATOM     27  C   UNL A   1      39.005  22.424  26.103  1.00  0.00     0.004 A 
ATOM     28  C   UNL A   1      36.995  23.758  26.059  1.00  0.00     0.030 A 
ATOM     29  C   UNL A   1      38.280  21.308  25.685  1.00  0.00     0.006 A 
ATOM     30  C   UNL A   1      36.907  21.405  25.421  1.00  0.00    -0.027 A 
ATOM     31  C   UNL A   1      36.227  20.197  24.827  1.00  0.00     0.046 C 
ENDBRANCH  18  24
ENDBRANCH  16  17
ENDBRANCH  13  16
ENDBRANCH   7  12
BRANCH  11  32
ATOM     32  O   UNL A   1      34.593  28.948  23.801  1.00  0.00    -0.507 OA
ATOM     33  H   UNL A   1      35.176  29.591  24.155  1.00  0.00     0.293 HD
ENDBRANCH  11  32
ENDBRANCH   4   6
ENDBRANCH   3   4
ENDBRANCH   2   3
ENDBRANCH   1   2
BRANCH   1  34
ATOM     34  O   UNL A   1      35.288  33.485  28.804  1.00  0.00    -0.374 OA
BRANCH  34  35
ATOM     35  C   UNL A   1      34.890  33.790  30.128  1.00  0.00     0.202 C 
BRANCH  35  36
ATOM     36  C   UNL A   1      35.963  33.467  31.173  1.00  0.00     0.261 C 
BRANCH  36  37
ATOM     37  O   UNL A   1      36.214  32.054  31.346  1.00  0.00    -0.460 OA
BRANCH  37  38
ATOM     38  C   UNL A   1      36.540  31.671  32.616  1.00  0.00     0.338 C 
ATOM     39  O   UNL A   1      35.917  32.004  33.611  1.00  0.00    -0.246 OA
BRANCH  38  40
ATOM     40  C   UNL A   1      37.816  30.902  32.595  1.00  0.00     0.060 A 
ATOM     41  C   UNL A   1      39.041  31.571  32.710  1.00  0.00     0.016 A 
ATOM     42  C   UNL A   1      37.788  29.566  32.193  1.00  0.00     0.016 A 
ATOM     43  C   UNL A   1      40.223  30.933  32.295  1.00  0.00     0.010 A 
ATOM     44  C   UNL A   1      38.944  28.983  31.693  1.00  0.00     0.010 A 
ATOM     45  C   UNL A   1      40.175  29.657  31.708  1.00  0.00    -0.014 A 
BRANCH  45  46
ATOM     46  C   UNL A   1      41.372  28.792  31.565  1.00  0.00     0.031 A 
ATOM     47  C   UNL A   1      41.932  28.602  32.910  1.00  0.00     0.074 A 
ATOM     48  C   UNL A   1      41.963  28.178  30.505  1.00  0.00     0.049 A 
ATOM     49  N   UNL A   1      42.963  29.258  33.335  1.00  0.00    -0.248 NA
ATOM     50  C   UNL A   1      41.174  27.920  33.971  1.00  0.00     0.031 C 
ATOM     51  C   UNL A   1      41.766  28.459  29.098  1.00  0.00     0.029 A 
ATOM     52  N   UNL A   1      42.852  27.113  30.436  1.00  0.00    -0.354 N 
ATOM     53  C   UNL A   1      43.179  28.747  34.592  1.00  0.00     0.074 A 
ATOM     54  C   UNL A   1      41.912  28.239  35.038  1.00  0.00     0.031 C 
ATOM     55  C   UNL A   1      42.230  27.460  28.318  1.00  0.00     0.029 A 
ATOM     56  C   UNL A   1      42.924  26.508  29.165  1.00  0.00     0.049 A 
ATOM     57  H   UNL A   1      43.384  26.809  31.206  1.00  0.00     0.167 HD
ATOM     58  C   UNL A   1      44.437  28.359  34.912  1.00  0.00     0.034 A 
ATOM     59  C   UNL A   1      43.712  25.501  28.686  1.00  0.00     0.034 A 
ATOM     60  C   UNL A   1      45.416  28.954  34.020  1.00  0.00     0.049 A 
ATOM     61  C   UNL A   1      45.019  25.691  29.330  1.00  0.00     0.074 A 
ATOM     62  C   UNL A   1      45.871  30.232  33.763  1.00  0.00     0.029 A 
ATOM     63  N   UNL A   1      45.767  28.183  32.937  1.00  0.00    -0.354 N 
ATOM     64  N   UNL A   1      45.792  26.699  29.038  1.00  0.00    -0.248 NA
ATOM     65  C   UNL A   1      45.317  25.018  30.588  1.00  0.00     0.031 C 
ATOM     66  C   UNL A   1      46.399  30.224  32.438  1.00  0.00     0.029 A 
ATOM     67  C   UNL A   1      46.291  28.940  31.914  1.00  0.00     0.049 A 
ATOM     68  H   UNL A   1      45.657  27.205  32.897  1.00  0.00     0.167 HD
ATOM     69  C   UNL A   1      46.278  27.091  30.266  1.00  0.00     0.074 A 
ATOM     70  C   UNL A   1      46.140  25.923  31.125  1.00  0.00     0.031 C 
ATOM     71  C   UNL A   1      46.423  28.412  30.566  1.00  0.00     0.034 A 
BRANCH  58  72
ATOM     72  C   UNL A   1      44.726  27.103  35.695  1.00  0.00     0.023 A 
ATOM     73  C   UNL A   1      45.403  27.261  36.911  1.00  0.00     0.031 A 
ATOM     74  C   UNL A   1      44.616  25.772  35.217  1.00  0.00     0.131 A 
ATOM     75  C   UNL A   1      45.962  26.153  37.567  1.00  0.00     0.055 A 
ATOM     76  C   UNL A   1      45.112  24.668  35.907  1.00  0.00     0.041 A 
ATOM     77  F   UNL A   1      44.118  25.459  34.015  1.00  0.00    -0.206 F 
ATOM     78  C   UNL A   1      45.810  24.857  37.081  1.00  0.00     0.022 A 
BRANCH  75  79
ATOM     79  S   UNL A   1      47.014  26.454  39.004  1.00  0.00     0.124 S 
ATOM     80  O   UNL A   1      47.992  27.390  38.463  1.00  0.00    -0.237 OA
ATOM     81  O   UNL A   1      46.059  26.997  39.964  1.00  0.00    -0.237 OA
ATOM     82  O   UNL A   1      47.531  25.126  39.323  1.00  0.00    -0.744 OA
ENDBRANCH  75  79
ENDBRANCH  58  72
BRANCH  59  83
ATOM     83  C   UNL A   1      43.414  24.396  27.718  1.00  0.00     0.023 A 
ATOM     84  C   UNL A   1      44.281  23.979  26.686  1.00  0.00     0.031 A 
ATOM     85  C   UNL A   1      42.340  23.535  27.976  1.00  0.00     0.131 A 
ATOM     86  C   UNL A   1      44.118  22.705  26.081  1.00  0.00     0.055 A 
ATOM     87  C   UNL A   1      42.246  22.233  27.471  1.00  0.00     0.041 A 
ATOM     88  F   UNL A   1      41.322  23.969  28.717  1.00  0.00    -0.206 F 
ATOM     89  C   UNL A   1      43.165  21.796  26.541  1.00  0.00     0.022 A 
BRANCH  86  90
ATOM     90  S   UNL A   1      45.134  22.202  24.657  1.00  0.00     0.124 S 
ATOM     91  O   UNL A   1      44.373  21.075  24.128  1.00  0.00    -0.237 OA
ATOM     92  O   UNL A   1      45.163  23.407  23.839  1.00  0.00    -0.237 OA
ATOM     93  O   UNL A   1      46.418  21.843  25.262  1.00  0.00    -0.744 OA
ENDBRANCH  86  90
ENDBRANCH  59  83
BRANCH  71  94
ATOM     94  C   UNL A   1      46.637  29.361  29.408  1.00  0.00     0.023 A 
ATOM     95  C   UNL A   1      45.611  30.014  28.687  1.00  0.00     0.031 A 
ATOM     96  C   UNL A   1      47.964  29.606  29.017  1.00  0.00     0.131 A 
ATOM     97  C   UNL A   1      45.935  30.869  27.612  1.00  0.00     0.055 A 
ATOM     98  C   UNL A   1      48.283  30.460  27.963  1.00  0.00     0.041 A 
ATOM     99  F   UNL A   1      48.983  29.017  29.664  1.00  0.00    -0.206 F 
ATOM    100  C   UNL A   1      47.269  31.091  27.252  1.00  0.00     0.022 A 
BRANCH  97 101
ATOM    101  S   UNL A   1      44.622  31.678  26.639  1.00  0.00     0.124 S 
ATOM    102  O   UNL A   1      45.297  32.075  25.408  1.00  0.00    -0.237 OA
ATOM    103  O   UNL A   1      43.625  30.619  26.500  1.00  0.00    -0.237 OA
ATOM    104  O   UNL A   1      44.204  32.793  27.492  1.00  0.00    -0.744 OA
ENDBRANCH  97 101
ENDBRANCH  71  94
ENDBRANCH  45  46
ENDBRANCH  38  40
ENDBRANCH  37  38
ENDBRANCH  36  37
ENDBRANCH  35  36
ENDBRANCH  34  35
ENDBRANCH   1  34
TORSDOF 22
ENDMDL
