MODEL 1
REMARK VINA RESULT:     -11.2      0.000      0.000
REMARK SMILES O=C(OCCOCCOC(=O)[C@@H](Cc1ccncc1)c1ccc(Cl)cc1)c1ccc(-c2c3nc(c(-c4cc(S(=O)(=O)[O-])ccc4F)c4ccc([nH]4)c(-c4cc(S(=O)(=O)[O-])ccc4F)c4nc(c(-c5cc(S(=O)(=O)[O-])ccc5F)c5ccc2[nH]5)C=C4)C=C3)cc1
REMARK SMILES IDX 5 1 4 2 3 3 2 4 1 5 27 6 28 7 89 8 29 9 88 10 30 11 31 12
REMARK SMILES IDX 32 13 82 14 33 15 87 16 81 17 83 18 34 19 86 20 80 21 79 22
REMARK SMILES IDX 35 24 67 25 47 26 66 27 48 28 51 29 65 30 84 31 49 32 50 33
REMARK SMILES IDX 64 35 85 36 52 37 36 38 37 39 45 40 38 41 44 42 46 43 43 44
REMARK SMILES IDX 39 45 40 46 41 47 42 48 68 49 69 50 77 51 70 52 76 53 78 54
REMARK SMILES IDX 75 55 71 56 72 57 73 58 74 59 53 60 54 61 62 62 55 63 61 64
REMARK SMILES IDX 63 65 60 66 56 67 57 68 58 69 59 70 6 71 7 72 8 73 9 74
REMARK SMILES IDX 10 75 11 76 12 77 13 78 14 79 15 80 19 81 16 82 18 83 17 84
REMARK SMILES IDX 20 85 21 86 26 87 22 88 25 89 23 90 24 91
REMARK H PARENT 83 23 51 34
REMARK Flexibility Score: inf
ROOT
ATOM      1  C   UNL A   1      34.714  21.139  24.755  1.00  0.00     0.202 C 
ENDROOT
BRANCH   1   2
ATOM      2  C   UNL A   1      36.102  20.564  25.121  1.00  0.00     0.261 C 
BRANCH   2   3
ATOM      3  O   UNL A   1      36.963  21.550  25.736  1.00  0.00    -0.460 OA
BRANCH   3   4
ATOM      4  C   UNL A   1      38.316  21.502  25.895  1.00  0.00     0.338 C 
ATOM      5  O   UNL A   1      38.913  20.457  25.655  1.00  0.00    -0.246 OA
BRANCH   4   6
ATOM      6  C   UNL A   1      39.087  22.679  26.381  1.00  0.00     0.060 A 
ATOM      7  C   UNL A   1      38.749  23.967  26.010  1.00  0.00     0.016 A 
ATOM      8  C   UNL A   1      40.156  22.526  27.271  1.00  0.00     0.016 A 
ATOM      9  C   UNL A   1      39.462  25.066  26.365  1.00  0.00     0.010 A 
ATOM     10  C   UNL A   1      40.859  23.657  27.726  1.00  0.00     0.010 A 
ATOM     11  C   UNL A   1      40.501  24.928  27.258  1.00  0.00    -0.014 A 
BRANCH  11  12
ATOM     12  C   UNL A   1      41.216  26.186  27.472  1.00  0.00     0.031 A 
ATOM     13  C   UNL A   1      40.572  27.180  28.382  1.00  0.00     0.074 A 
ATOM     14  C   UNL A   1      42.530  26.220  27.166  1.00  0.00     0.049 A 
ATOM     15  N   UNL A   1      41.010  28.339  28.772  1.00  0.00    -0.248 NA
ATOM     16  C   UNL A   1      39.268  26.798  28.956  1.00  0.00     0.031 C 
ATOM     17  C   UNL A   1      43.273  25.124  26.516  1.00  0.00     0.029 A 
ATOM     18  N   UNL A   1      43.494  27.145  27.437  1.00  0.00    -0.354 N 
ATOM     19  C   UNL A   1      40.022  28.846  29.603  1.00  0.00     0.074 A 
ATOM     20  C   UNL A   1      38.960  27.870  29.666  1.00  0.00     0.031 C 
ATOM     21  C   UNL A   1      44.575  25.435  26.474  1.00  0.00     0.029 A 
ATOM     22  C   UNL A   1      44.741  26.791  26.973  1.00  0.00     0.049 A 
ATOM     23  H   UNL A   1      43.316  27.985  27.920  1.00  0.00     0.167 HD
ATOM     24  C   UNL A   1      40.021  30.039  30.238  1.00  0.00     0.034 A 
ATOM     25  C   UNL A   1      45.865  27.526  26.901  1.00  0.00     0.034 A 
ATOM     26  C   UNL A   1      41.117  30.963  30.113  1.00  0.00     0.049 A 
ATOM     27  C   UNL A   1      45.774  28.923  27.459  1.00  0.00     0.074 A 
ATOM     28  C   UNL A   1      41.211  32.269  30.547  1.00  0.00     0.029 A 
ATOM     29  N   UNL A   1      42.329  30.655  29.497  1.00  0.00    -0.354 N 
ATOM     30  N   UNL A   1      44.769  29.490  28.093  1.00  0.00    -0.248 NA
ATOM     31  C   UNL A   1      46.944  29.782  27.283  1.00  0.00     0.031 C 
ATOM     32  C   UNL A   1      42.452  32.770  30.136  1.00  0.00     0.029 A 
ATOM     33  C   UNL A   1      43.169  31.751  29.521  1.00  0.00     0.049 A 
ATOM     34  H   UNL A   1      42.553  29.782  29.101  1.00  0.00     0.167 HD
ATOM     35  C   UNL A   1      45.193  30.775  28.403  1.00  0.00     0.074 A 
ATOM     36  C   UNL A   1      46.560  30.876  27.922  1.00  0.00     0.031 C 
ATOM     37  C   UNL A   1      44.524  31.789  29.014  1.00  0.00     0.034 A 
BRANCH  24  38
ATOM     38  C   UNL A   1      38.760  30.415  30.969  1.00  0.00     0.023 A 
ATOM     39  C   UNL A   1      37.806  31.285  30.412  1.00  0.00     0.031 A 
ATOM     40  C   UNL A   1      38.574  29.998  32.298  1.00  0.00     0.131 A 
ATOM     41  C   UNL A   1      36.754  31.769  31.206  1.00  0.00     0.055 A 
ATOM     42  C   UNL A   1      37.481  30.418  33.057  1.00  0.00     0.041 A 
ATOM     43  F   UNL A   1      39.479  29.207  32.898  1.00  0.00    -0.206 F 
ATOM     44  C   UNL A   1      36.571  31.321  32.517  1.00  0.00     0.022 A 
BRANCH  41  45
ATOM     45  S   UNL A   1      35.724  33.117  30.560  1.00  0.00     0.124 S 
ATOM     46  O   UNL A   1      36.427  33.456  29.324  1.00  0.00    -0.237 OA
ATOM     47  O   UNL A   1      34.425  32.474  30.398  1.00  0.00    -0.237 OA
ATOM     48  O   UNL A   1      35.791  34.134  31.607  1.00  0.00    -0.744 OA
ENDBRANCH  41  45
ENDBRANCH  24  38
BRANCH  25  49
ATOM     49  C   UNL A   1      47.075  27.032  26.173  1.00  0.00     0.023 A 
ATOM     50  C   UNL A   1      48.098  26.331  26.829  1.00  0.00     0.031 A 
ATOM     51  C   UNL A   1      47.268  27.337  24.810  1.00  0.00     0.131 A 
ATOM     52  C   UNL A   1      49.286  26.018  26.144  1.00  0.00     0.055 A 
ATOM     53  C   UNL A   1      48.419  26.959  24.115  1.00  0.00     0.041 A 
ATOM     54  F   UNL A   1      46.338  28.020  24.123  1.00  0.00    -0.206 F 
ATOM     55  C   UNL A   1      49.447  26.314  24.789  1.00  0.00     0.022 A 
BRANCH  52  56
ATOM     56  S   UNL A   1      50.681  25.341  27.087  1.00  0.00     0.124 S 
ATOM     57  O   UNL A   1      51.104  26.502  27.864  1.00  0.00    -0.237 OA
ATOM     58  O   UNL A   1      50.043  24.265  27.837  1.00  0.00    -0.237 OA
ATOM     59  O   UNL A   1      51.615  24.910  26.050  1.00  0.00    -0.744 OA
ENDBRANCH  52  56
ENDBRANCH  25  49
BRANCH  37  60
ATOM     60  C   UNL A   1      45.300  33.061  29.215  1.00  0.00     0.023 A 
ATOM     61  C   UNL A   1      45.339  34.056  28.225  1.00  0.00     0.031 A 
ATOM     62  C   UNL A   1      46.029  33.261  30.399  1.00  0.00     0.131 A 
ATOM     63  C   UNL A   1      46.162  35.174  28.403  1.00  0.00     0.055 A 
ATOM     64  C   UNL A   1      46.779  34.417  30.605  1.00  0.00     0.041 A 
ATOM     65  F   UNL A   1      46.022  32.336  31.372  1.00  0.00    -0.206 F 
ATOM     66  C   UNL A   1      46.864  35.372  29.596  1.00  0.00     0.022 A 
BRANCH  63  67
ATOM     67  S   UNL A   1      46.404  36.295  27.001  1.00  0.00     0.124 S 
ATOM     68  O   UNL A   1      47.740  36.820  27.262  1.00  0.00    -0.237 OA
ATOM     69  O   UNL A   1      46.285  35.395  25.858  1.00  0.00    -0.237 OA
ATOM     70  O   UNL A   1      45.317  37.261  27.146  1.00  0.00    -0.744 OA
ENDBRANCH  63  67
ENDBRANCH  37  60
ENDBRANCH  11  12
ENDBRANCH   4   6
ENDBRANCH   3   4
ENDBRANCH   2   3
ENDBRANCH   1   2
BRANCH   1  71
ATOM     71  O   UNL A   1      34.541  22.557  24.755  1.00  0.00    -0.374 OA
BRANCH  71  72
ATOM     72  C   UNL A   1      34.459  23.225  23.494  1.00  0.00     0.202 C 
BRANCH  72  73
ATOM     73  C   UNL A   1      33.022  23.628  23.219  1.00  0.00     0.261 C 
BRANCH  73  74
ATOM     74  O   UNL A   1      33.008  24.283  21.947  1.00  0.00    -0.463 OA
BRANCH  74  75
ATOM     75  C   UNL A   1      33.057  25.639  21.969  1.00  0.00     0.313 C 
ATOM     76  O   UNL A   1      33.464  26.353  21.054  1.00  0.00    -0.252 OA
BRANCH  75  77
ATOM     77  C   UNL A   1      32.639  26.186  23.322  1.00  0.00     0.133 C 
BRANCH  77  78
ATOM     78  C   UNL A   1      33.668  27.067  24.091  1.00  0.00     0.055 C 
BRANCH  78  79
ATOM     79  C   UNL A   1      33.187  27.956  25.219  1.00  0.00    -0.044 A 
ATOM     80  C   UNL A   1      32.783  27.406  26.434  1.00  0.00     0.024 A 
ATOM     81  C   UNL A   1      33.131  29.350  25.100  1.00  0.00     0.024 A 
ATOM     82  C   UNL A   1      32.257  28.239  27.410  1.00  0.00     0.111 A 
ATOM     83  C   UNL A   1      32.577  30.105  26.125  1.00  0.00     0.111 A 
ATOM     84  N   UNL A   1      32.129  29.574  27.278  1.00  0.00    -0.265 NA
ENDBRANCH  78  79
ENDBRANCH  77  78
BRANCH  77  85
ATOM     85  C   UNL A   1      31.234  26.761  23.244  1.00  0.00    -0.033 A 
ATOM     86  C   UNL A   1      31.021  27.962  22.558  1.00  0.00     0.006 A 
ATOM     87  C   UNL A   1      30.147  26.143  23.888  1.00  0.00     0.006 A 
ATOM     88  C   UNL A   1      29.752  28.536  22.530  1.00  0.00     0.021 A 
ATOM     89  C   UNL A   1      28.881  26.716  23.861  1.00  0.00     0.021 A 
ATOM     90  C   UNL A   1      28.689  27.912  23.182  1.00  0.00     0.041 A 
ATOM     91  Cl  UNL A   1      27.125  28.625  23.150  1.00  0.00    -0.084 Cl
ENDBRANCH  77  85
ENDBRANCH  75  77
ENDBRANCH  74  75
ENDBRANCH  73  74
ENDBRANCH  72  73
ENDBRANCH  71  72
ENDBRANCH   1  71
TORSDOF 20
ENDMDL
MODEL 2
REMARK VINA RESULT:     -11.0      4.852     10.100
REMARK SMILES O=C(OCCOCCOC(=O)[C@@H](Cc1ccncc1)c1ccc(Cl)cc1)c1ccc(-c2c3nc(c(-c4cc(S(=O)(=O)[O-])ccc4F)c4ccc([nH]4)c(-c4cc(S(=O)(=O)[O-])ccc4F)c4nc(c(-c5cc(S(=O)(=O)[O-])ccc5F)c5ccc2[nH]5)C=C4)C=C3)cc1
REMARK SMILES IDX 5 1 4 2 3 3 2 4 1 5 27 6 28 7 89 8 29 9 88 10 30 11 31 12
REMARK SMILES IDX 32 13 82 14 33 15 87 16 81 17 83 18 34 19 86 20 80 21 79 22
REMARK SMILES IDX 35 24 67 25 47 26 66 27 48 28 51 29 65 30 84 31 49 32 50 33
REMARK SMILES IDX 64 35 85 36 52 37 36 38 37 39 45 40 38 41 44 42 46 43 43 44
REMARK SMILES IDX 39 45 40 46 41 47 42 48 68 49 69 50 77 51 70 52 76 53 78 54
REMARK SMILES IDX 75 55 71 56 72 57 73 58 74 59 53 60 54 61 62 62 55 63 61 64
REMARK SMILES IDX 63 65 60 66 56 67 57 68 58 69 59 70 6 71 7 72 8 73 9 74
REMARK SMILES IDX 10 75 11 76 12 77 13 78 14 79 15 80 19 81 16 82 18 83 17 84
REMARK SMILES IDX 20 85 21 86 26 87 22 88 25 89 23 90 24 91
REMARK H PARENT 83 23 51 34
REMARK Flexibility Score: inf
ROOT
ATOM      1  C   UNL A   1      31.381  29.013  24.701  1.00  0.00     0.202 C 
ENDROOT
BRANCH   1   2
ATOM      2  C   UNL A   1      31.457  30.159  25.735  1.00  0.00     0.261 C 
BRANCH   2   3
ATOM      3  O   UNL A   1      32.813  30.612  25.957  1.00  0.00    -0.460 OA
BRANCH   3   4
ATOM      4  C   UNL A   1      33.276  31.419  26.953  1.00  0.00     0.338 C 
ATOM      5  O   UNL A   1      32.639  32.422  27.262  1.00  0.00    -0.246 OA
BRANCH   4   6
ATOM      6  C   UNL A   1      34.554  31.130  27.661  1.00  0.00     0.060 A 
ATOM      7  C   UNL A   1      34.881  29.850  28.068  1.00  0.00     0.016 A 
ATOM      8  C   UNL A   1      35.494  32.140  27.898  1.00  0.00     0.016 A 
ATOM      9  C   UNL A   1      35.997  29.546  28.779  1.00  0.00     0.010 A 
ATOM     10  C   UNL A   1      36.700  31.836  28.557  1.00  0.00     0.010 A 
ATOM     11  C   UNL A   1      36.937  30.528  28.997  1.00  0.00    -0.014 A 
BRANCH  11  12
ATOM     12  C   UNL A   1      38.034  30.063  29.846  1.00  0.00     0.031 A 
ATOM     13  C   UNL A   1      39.102  29.257  29.182  1.00  0.00     0.074 A 
ATOM     14  C   UNL A   1      38.215  30.681  31.031  1.00  0.00     0.049 A 
ATOM     15  N   UNL A   1      40.194  28.768  29.690  1.00  0.00    -0.248 NA
ATOM     16  C   UNL A   1      38.930  28.996  27.741  1.00  0.00     0.031 C 
ATOM     17  C   UNL A   1      37.316  31.707  31.593  1.00  0.00     0.029 A 
ATOM     18  N   UNL A   1      39.240  30.627  31.928  1.00  0.00    -0.354 N 
ATOM     19  C   UNL A   1      40.821  28.105  28.644  1.00  0.00     0.074 A 
ATOM     20  C   UNL A   1      39.992  28.255  27.472  1.00  0.00     0.031 C 
ATOM     21  C   UNL A   1      37.854  32.200  32.717  1.00  0.00     0.029 A 
ATOM     22  C   UNL A   1      39.059  31.445  33.020  1.00  0.00     0.049 A 
ATOM     23  H   UNL A   1      40.035  30.058  31.805  1.00  0.00     0.167 HD
ATOM     24  C   UNL A   1      41.987  27.424  28.690  1.00  0.00     0.034 A 
ATOM     25  C   UNL A   1      39.762  31.508  34.165  1.00  0.00     0.034 A 
ATOM     26  C   UNL A   1      42.750  27.311  29.906  1.00  0.00     0.049 A 
ATOM     27  C   UNL A   1      40.958  30.596  34.253  1.00  0.00     0.074 A 
ATOM     28  C   UNL A   1      43.854  26.531  30.173  1.00  0.00     0.029 A 
ATOM     29  N   UNL A   1      42.467  28.024  31.071  1.00  0.00    -0.354 N 
ATOM     30  N   UNL A   1      41.465  29.813  33.324  1.00  0.00    -0.248 NA
ATOM     31  C   UNL A   1      41.667  30.558  35.531  1.00  0.00     0.031 C 
ATOM     32  C   UNL A   1      44.200  26.723  31.517  1.00  0.00     0.029 A 
ATOM     33  C   UNL A   1      43.364  27.687  32.065  1.00  0.00     0.049 A 
ATOM     34  H   UNL A   1      41.734  28.673  31.170  1.00  0.00     0.167 HD
ATOM     35  C   UNL A   1      42.563  29.195  33.905  1.00  0.00     0.074 A 
ATOM     36  C   UNL A   1      42.665  29.734  35.250  1.00  0.00     0.031 C 
ATOM     37  C   UNL A   1      43.407  28.259  33.394  1.00  0.00     0.034 A 
BRANCH  24  38
ATOM     38  C   UNL A   1      42.380  26.671  27.448  1.00  0.00     0.023 A 
ATOM     39  C   UNL A   1      42.032  25.322  27.251  1.00  0.00     0.031 A 
ATOM     40  C   UNL A   1      43.229  27.276  26.506  1.00  0.00     0.131 A 
ATOM     41  C   UNL A   1      42.593  24.605  26.182  1.00  0.00     0.055 A 
ATOM     42  C   UNL A   1      43.718  26.580  25.399  1.00  0.00     0.041 A 
ATOM     43  F   UNL A   1      43.634  28.546  26.668  1.00  0.00    -0.206 F 
ATOM     44  C   UNL A   1      43.413  25.232  25.241  1.00  0.00     0.022 A 
BRANCH  41  45
ATOM     45  S   UNL A   1      42.371  22.804  26.130  1.00  0.00     0.124 S 
ATOM     46  O   UNL A   1      42.927  22.478  24.819  1.00  0.00    -0.237 OA
ATOM     47  O   UNL A   1      43.147  22.356  27.281  1.00  0.00    -0.237 OA
ATOM     48  O   UNL A   1      40.925  22.633  26.248  1.00  0.00    -0.744 OA
ENDBRANCH  41  45
ENDBRANCH  24  38
BRANCH  25  49
ATOM     49  C   UNL A   1      39.289  32.322  35.327  1.00  0.00     0.023 A 
ATOM     50  C   UNL A   1      39.671  33.661  35.498  1.00  0.00     0.031 A 
ATOM     51  C   UNL A   1      38.508  31.735  36.346  1.00  0.00     0.131 A 
ATOM     52  C   UNL A   1      39.330  34.344  36.680  1.00  0.00     0.055 A 
ATOM     53  C   UNL A   1      38.110  32.440  37.483  1.00  0.00     0.041 A 
ATOM     54  F   UNL A   1      38.120  30.453  36.257  1.00  0.00    -0.206 F 
ATOM     55  C   UNL A   1      38.540  33.748  37.664  1.00  0.00     0.022 A 
BRANCH  52  56
ATOM     56  S   UNL A   1      40.052  35.982  36.977  1.00  0.00     0.124 S 
ATOM     57  O   UNL A   1      41.449  35.647  37.231  1.00  0.00    -0.237 OA
ATOM     58  O   UNL A   1      39.775  36.666  35.719  1.00  0.00    -0.237 OA
ATOM     59  O   UNL A   1      39.309  36.477  38.133  1.00  0.00    -0.744 OA
ENDBRANCH  52  56
ENDBRANCH  25  49
BRANCH  37  60
ATOM     60  C   UNL A   1      44.520  27.813  34.301  1.00  0.00     0.023 A 
ATOM     61  C   UNL A   1      44.384  26.683  35.123  1.00  0.00     0.031 A 
ATOM     62  C   UNL A   1      45.716  28.548  34.360  1.00  0.00     0.131 A 
ATOM     63  C   UNL A   1      45.398  26.367  36.034  1.00  0.00     0.055 A 
ATOM     64  C   UNL A   1      46.756  28.177  35.209  1.00  0.00     0.041 A 
ATOM     65  F   UNL A   1      45.890  29.637  33.594  1.00  0.00    -0.206 F 
ATOM     66  C   UNL A   1      46.593  27.092  36.066  1.00  0.00     0.022 A 
BRANCH  63  67
ATOM     67  S   UNL A   1      45.076  25.077  37.264  1.00  0.00     0.124 S 
ATOM     68  O   UNL A   1      44.862  23.904  36.422  1.00  0.00    -0.237 OA
ATOM     69  O   UNL A   1      46.305  25.081  38.050  1.00  0.00    -0.237 OA
ATOM     70  O   UNL A   1      43.889  25.563  37.965  1.00  0.00    -0.744 OA
ENDBRANCH  63  67
ENDBRANCH  37  60
ENDBRANCH  11  12
ENDBRANCH   4   6
ENDBRANCH   3   4
ENDBRANCH   2   3
ENDBRANCH   1   2
BRANCH   1  71
ATOM     71  O   UNL A   1      30.782  27.776  25.093  1.00  0.00    -0.374 OA
BRANCH  71  72
ATOM     72  C   UNL A   1      30.861  26.673  24.188  1.00  0.00     0.202 C 
BRANCH  72  73
ATOM     73  C   UNL A   1      31.813  25.627  24.737  1.00  0.00     0.261 C 
BRANCH  73  74
ATOM     74  O   UNL A   1      32.105  24.725  23.666  1.00  0.00    -0.463 OA
BRANCH  74  75
ATOM     75  C   UNL A   1      31.828  23.415  23.890  1.00  0.00     0.313 C 
ATOM     76  O   UNL A   1      30.973  22.990  24.665  1.00  0.00    -0.252 OA
BRANCH  75  77
ATOM     77  C   UNL A   1      32.785  22.510  23.134  1.00  0.00     0.133 C 
BRANCH  77  78
ATOM     78  C   UNL A   1      34.173  23.098  22.742  1.00  0.00     0.055 C 
BRANCH  78  79
ATOM     79  C   UNL A   1      35.284  23.125  23.771  1.00  0.00    -0.044 A 
ATOM     80  C   UNL A   1      36.368  22.257  23.670  1.00  0.00     0.024 A 
ATOM     81  C   UNL A   1      35.278  24.015  24.854  1.00  0.00     0.024 A 
ATOM     82  C   UNL A   1      37.318  22.241  24.680  1.00  0.00     0.111 A 
ATOM     83  C   UNL A   1      36.264  23.919  25.826  1.00  0.00     0.111 A 
ATOM     84  N   UNL A   1      37.283  23.041  25.765  1.00  0.00    -0.265 NA
ENDBRANCH  78  79
ENDBRANCH  77  78
BRANCH  77  85
ATOM     85  C   UNL A   1      32.829  21.136  23.782  1.00  0.00    -0.033 A 
ATOM     86  C   UNL A   1      32.396  20.020  23.056  1.00  0.00     0.006 A 
ATOM     87  C   UNL A   1      33.246  20.961  25.114  1.00  0.00     0.006 A 
ATOM     88  C   UNL A   1      32.369  18.763  23.655  1.00  0.00     0.021 A 
ATOM     89  C   UNL A   1      33.219  19.707  25.712  1.00  0.00     0.021 A 
ATOM     90  C   UNL A   1      32.780  18.612  24.980  1.00  0.00     0.041 A 
ATOM     91  Cl  UNL A   1      32.741  17.061  25.718  1.00  0.00    -0.084 Cl
ENDBRANCH  77  85
ENDBRANCH  75  77
ENDBRANCH  74  75
ENDBRANCH  73  74
ENDBRANCH  72  73
ENDBRANCH  71  72
ENDBRANCH   1  71
TORSDOF 20
ENDMDL
MODEL 3
REMARK VINA RESULT:     -11.0      5.216     10.107
REMARK SMILES O=C(OCCOCCOC(=O)[C@@H](Cc1ccncc1)c1ccc(Cl)cc1)c1ccc(-c2c3nc(c(-c4cc(S(=O)(=O)[O-])ccc4F)c4ccc([nH]4)c(-c4cc(S(=O)(=O)[O-])ccc4F)c4nc(c(-c5cc(S(=O)(=O)[O-])ccc5F)c5ccc2[nH]5)C=C4)C=C3)cc1
REMARK SMILES IDX 5 1 4 2 3 3 2 4 1 5 27 6 28 7 89 8 29 9 88 10 30 11 31 12
REMARK SMILES IDX 32 13 82 14 33 15 87 16 81 17 83 18 34 19 86 20 80 21 79 22
REMARK SMILES IDX 35 24 67 25 47 26 66 27 48 28 51 29 65 30 84 31 49 32 50 33
REMARK SMILES IDX 64 35 85 36 52 37 36 38 37 39 45 40 38 41 44 42 46 43 43 44
REMARK SMILES IDX 39 45 40 46 41 47 42 48 68 49 69 50 77 51 70 52 76 53 78 54
REMARK SMILES IDX 75 55 71 56 72 57 73 58 74 59 53 60 54 61 62 62 55 63 61 64
REMARK SMILES IDX 63 65 60 66 56 67 57 68 58 69 59 70 6 71 7 72 8 73 9 74
REMARK SMILES IDX 10 75 11 76 12 77 13 78 14 79 15 80 19 81 16 82 18 83 17 84
REMARK SMILES IDX 20 85 21 86 26 87 22 88 25 89 23 90 24 91
REMARK H PARENT 83 23 51 34
REMARK Flexibility Score: inf
ROOT
ATOM      1  C   UNL A   1      31.500  28.978  25.168  1.00  0.00     0.202 C 
ENDROOT
BRANCH   1   2
ATOM      2  C   UNL A   1      32.005  29.595  26.492  1.00  0.00     0.261 C 
BRANCH   2   3
ATOM      3  O   UNL A   1      33.162  30.441  26.300  1.00  0.00    -0.460 OA
BRANCH   3   4
ATOM      4  C   UNL A   1      33.763  31.262  27.208  1.00  0.00     0.338 C 
ATOM      5  O   UNL A   1      33.235  32.333  27.493  1.00  0.00    -0.246 OA
BRANCH   4   6
ATOM      6  C   UNL A   1      35.061  30.905  27.843  1.00  0.00     0.060 A 
ATOM      7  C   UNL A   1      35.309  29.628  28.312  1.00  0.00     0.016 A 
ATOM      8  C   UNL A   1      36.097  31.841  27.948  1.00  0.00     0.016 A 
ATOM      9  C   UNL A   1      36.446  29.272  28.963  1.00  0.00     0.010 A 
ATOM     10  C   UNL A   1      37.318  31.473  28.541  1.00  0.00     0.010 A 
ATOM     11  C   UNL A   1      37.478  30.179  29.051  1.00  0.00    -0.014 A 
BRANCH  11  12
ATOM     12  C   UNL A   1      38.592  29.671  29.851  1.00  0.00     0.031 A 
ATOM     13  C   UNL A   1      39.556  28.762  29.162  1.00  0.00     0.074 A 
ATOM     14  C   UNL A   1      38.892  30.325  30.993  1.00  0.00     0.049 A 
ATOM     15  N   UNL A   1      40.641  28.216  29.624  1.00  0.00    -0.248 NA
ATOM     16  C   UNL A   1      39.273  28.452  27.748  1.00  0.00     0.031 C 
ATOM     17  C   UNL A   1      38.106  31.437  31.560  1.00  0.00     0.029 A 
ATOM     18  N   UNL A   1      39.967  30.234  31.826  1.00  0.00    -0.354 N 
ATOM     19  C   UNL A   1      41.151  27.465  28.574  1.00  0.00     0.074 A 
ATOM     20  C   UNL A   1      40.260  27.625  27.449  1.00  0.00     0.031 C 
ATOM     21  C   UNL A   1      38.749  31.936  32.624  1.00  0.00     0.029 A 
ATOM     22  C   UNL A   1      39.915  31.109  32.888  1.00  0.00     0.049 A 
ATOM     23  H   UNL A   1      40.711  29.603  31.682  1.00  0.00     0.167 HD
ATOM     24  C   UNL A   1      42.266  26.703  28.581  1.00  0.00     0.034 A 
ATOM     25  C   UNL A   1      40.693  31.169  33.983  1.00  0.00     0.034 A 
ATOM     26  C   UNL A   1      43.096  26.587  29.752  1.00  0.00     0.049 A 
ATOM     27  C   UNL A   1      41.826  30.177  34.040  1.00  0.00     0.074 A 
ATOM     28  C   UNL A   1      44.158  25.740  29.987  1.00  0.00     0.029 A 
ATOM     29  N   UNL A   1      42.941  27.367  30.896  1.00  0.00    -0.354 N 
ATOM     30  N   UNL A   1      42.215  29.320  33.120  1.00  0.00    -0.248 NA
ATOM     31  C   UNL A   1      42.612  30.142  35.273  1.00  0.00     0.031 C 
ATOM     32  C   UNL A   1      44.603  25.963  31.296  1.00  0.00     0.029 A 
ATOM     33  C   UNL A   1      43.874  27.009  31.849  1.00  0.00     0.049 A 
ATOM     34  H   UNL A   1      42.263  28.072  31.009  1.00  0.00     0.167 HD
ATOM     35  C   UNL A   1      43.302  28.648  33.661  1.00  0.00     0.074 A 
ATOM     36  C   UNL A   1      43.528  29.236  34.970  1.00  0.00     0.031 C 
ATOM     37  C   UNL A   1      44.043  27.632  33.144  1.00  0.00     0.034 A 
BRANCH  24  38
ATOM     38  C   UNL A   1      42.525  25.870  27.354  1.00  0.00     0.023 A 
ATOM     39  C   UNL A   1      42.080  24.540  27.247  1.00  0.00     0.031 A 
ATOM     40  C   UNL A   1      43.342  26.376  26.328  1.00  0.00     0.131 A 
ATOM     41  C   UNL A   1      42.519  23.741  26.180  1.00  0.00     0.055 A 
ATOM     42  C   UNL A   1      43.708  25.601  25.227  1.00  0.00     0.041 A 
ATOM     43  F   UNL A   1      43.836  27.623  26.401  1.00  0.00    -0.206 F 
ATOM     44  C   UNL A   1      43.309  24.270  25.156  1.00  0.00     0.022 A 
BRANCH  41  45
ATOM     45  S   UNL A   1      42.182  21.958  26.232  1.00  0.00     0.124 S 
ATOM     46  O   UNL A   1      40.749  21.922  25.947  1.00  0.00    -0.237 OA
ATOM     47  O   UNL A   1      43.053  21.439  25.184  1.00  0.00    -0.237 OA
ATOM     48  O   UNL A   1      42.551  21.578  27.594  1.00  0.00    -0.744 OA
ENDBRANCH  41  45
ENDBRANCH  24  38
BRANCH  25  49
ATOM     49  C   UNL A   1      40.355  32.065  35.132  1.00  0.00     0.023 A 
ATOM     50  C   UNL A   1      39.361  31.730  36.064  1.00  0.00     0.031 A 
ATOM     51  C   UNL A   1      40.968  33.329  35.263  1.00  0.00     0.131 A 
ATOM     52  C   UNL A   1      38.967  32.665  37.038  1.00  0.00     0.055 A 
ATOM     53  C   UNL A   1      40.625  34.225  36.278  1.00  0.00     0.041 A 
ATOM     54  F   UNL A   1      41.915  33.723  34.397  1.00  0.00    -0.206 F 
ATOM     55  C   UNL A   1      39.602  33.902  37.160  1.00  0.00     0.022 A 
BRANCH  52  56
ATOM     56  S   UNL A   1      37.514  32.297  38.059  1.00  0.00     0.124 S 
ATOM     57  O   UNL A   1      37.965  32.722  39.380  1.00  0.00    -0.237 OA
ATOM     58  O   UNL A   1      36.488  33.125  37.434  1.00  0.00    -0.237 OA
ATOM     59  O   UNL A   1      37.338  30.856  37.894  1.00  0.00    -0.744 OA
ENDBRANCH  52  56
ENDBRANCH  25  49
BRANCH  37  60
ATOM     60  C   UNL A   1      45.179  27.145  34.001  1.00  0.00     0.023 A 
ATOM     61  C   UNL A   1      45.018  26.062  34.880  1.00  0.00     0.031 A 
ATOM     62  C   UNL A   1      46.424  27.794  33.953  1.00  0.00     0.131 A 
ATOM     63  C   UNL A   1      46.063  25.712  35.741  1.00  0.00     0.055 A 
ATOM     64  C   UNL A   1      47.488  27.384  34.753  1.00  0.00     0.041 A 
ATOM     65  F   UNL A   1      46.624  28.835  33.129  1.00  0.00    -0.206 F 
ATOM     66  C   UNL A   1      47.305  26.350  35.667  1.00  0.00     0.022 A 
BRANCH  63  67
ATOM     67  S   UNL A   1      45.732  24.500  37.046  1.00  0.00     0.124 S 
ATOM     68  O   UNL A   1      44.632  25.130  37.769  1.00  0.00    -0.237 OA
ATOM     69  O   UNL A   1      45.393  23.305  36.283  1.00  0.00    -0.237 OA
ATOM     70  O   UNL A   1      46.997  24.432  37.777  1.00  0.00    -0.744 OA
ENDBRANCH  63  67
ENDBRANCH  37  60
ENDBRANCH  11  12
ENDBRANCH   4   6
ENDBRANCH   3   4
ENDBRANCH   2   3
ENDBRANCH   1   2
BRANCH   1  71
ATOM     71  O   UNL A   1      31.687  27.578  24.951  1.00  0.00    -0.374 OA
BRANCH  71  72
ATOM     72  C   UNL A   1      30.623  26.843  24.344  1.00  0.00     0.202 C 
BRANCH  72  73
ATOM     73  C   UNL A   1      30.850  25.355  24.540  1.00  0.00     0.261 C 
BRANCH  73  74
ATOM     74  O   UNL A   1      31.025  24.785  23.239  1.00  0.00    -0.463 OA
BRANCH  74  75
ATOM     75  C   UNL A   1      32.297  24.468  22.888  1.00  0.00     0.313 C 
ATOM     76  O   UNL A   1      32.989  25.084  22.079  1.00  0.00    -0.252 OA
BRANCH  75  77
ATOM     77  C   UNL A   1      32.747  23.175  23.547  1.00  0.00     0.133 C 
BRANCH  77  78
ATOM     78  C   UNL A   1      32.558  21.855  22.742  1.00  0.00     0.055 C 
BRANCH  78  79
ATOM     79  C   UNL A   1      32.482  20.538  23.487  1.00  0.00    -0.044 A 
ATOM     80  C   UNL A   1      32.794  20.470  24.842  1.00  0.00     0.024 A 
ATOM     81  C   UNL A   1      32.096  19.346  22.860  1.00  0.00     0.024 A 
ATOM     82  C   UNL A   1      32.808  19.233  25.470  1.00  0.00     0.111 A 
ATOM     83  C   UNL A   1      32.152  18.151  23.563  1.00  0.00     0.111 A 
ATOM     84  N   UNL A   1      32.511  18.069  24.858  1.00  0.00    -0.265 NA
ENDBRANCH  78  79
ENDBRANCH  77  78
BRANCH  77  85
ATOM     85  C   UNL A   1      34.120  23.356  24.172  1.00  0.00    -0.033 A 
ATOM     86  C   UNL A   1      34.220  23.864  25.473  1.00  0.00     0.006 A 
ATOM     87  C   UNL A   1      35.299  23.074  23.459  1.00  0.00     0.006 A 
ATOM     88  C   UNL A   1      35.472  24.096  26.039  1.00  0.00     0.021 A 
ATOM     89  C   UNL A   1      36.548  23.306  24.024  1.00  0.00     0.021 A 
ATOM     90  C   UNL A   1      36.629  23.817  25.312  1.00  0.00     0.041 A 
ATOM     91  Cl  UNL A   1      38.172  24.108  26.011  1.00  0.00    -0.084 Cl
ENDBRANCH  77  85
ENDBRANCH  75  77
ENDBRANCH  74  75
ENDBRANCH  73  74
ENDBRANCH  72  73
ENDBRANCH  71  72
ENDBRANCH   1  71
TORSDOF 20
ENDMDL
