MODEL 1
REMARK VINA RESULT:     -12.2      0.000      0.000
REMARK SMILES O=C(OCCOCCOC(=O)[C@@H]1C[NH2+]CCN1C(=O)N[C@H]1CCOC1)c1ccc(-c2c3nc(c(-c4cc(S(=O)(=O)[O-])ccc4F)c4ccc([nH]4)c(-c4cc(S(=O)(=O)[O-])ccc4F)c4nc(c(-c5cc(S(=O)(=O)[O-])ccc5F)c5ccc2[nH]5)C=C4)C=C3)cc1
REMARK SMILES IDX 5 1 4 2 3 3 2 4 1 5 26 6 27 7 88 8 28 9 87 10 29 11 30 12
REMARK SMILES IDX 31 13 81 14 32 15 86 16 80 17 82 18 33 19 85 20 79 21 78 22
REMARK SMILES IDX 34 24 66 25 46 26 65 27 47 28 50 29 64 30 83 31 48 32 49 33
REMARK SMILES IDX 63 35 84 36 51 37 35 38 36 39 44 40 37 41 43 42 45 43 42 44
REMARK SMILES IDX 38 45 39 46 40 47 41 48 67 49 68 50 76 51 69 52 75 53 77 54
REMARK SMILES IDX 74 55 70 56 71 57 72 58 73 59 52 60 53 61 61 62 54 63 60 64
REMARK SMILES IDX 62 65 59 66 55 67 56 68 57 69 58 70 6 71 7 72 8 73 9 74
REMARK SMILES IDX 10 75 11 76 12 77 13 78 17 79 14 80 16 81 15 82 18 85 19 86
REMARK SMILES IDX 20 87 21 89 22 90 25 91 23 92 24 93
REMARK H PARENT 82 23 50 34 14 83 14 84 20 88
REMARK Flexibility Score: inf
ROOT
ATOM      1  C   UNL A   1      37.528  20.036  24.856  1.00  0.00     0.202 C 
ENDROOT
BRANCH   1   2
ATOM      2  C   UNL A   1      38.811  19.198  25.200  1.00  0.00     0.261 C 
BRANCH   2   3
ATOM      3  O   UNL A   1      39.765  19.767  26.161  1.00  0.00    -0.460 OA
BRANCH   3   4
ATOM      4  C   UNL A   1      41.085  20.060  25.985  1.00  0.00     0.338 C 
ATOM      5  O   UNL A   1      41.841  19.271  25.428  1.00  0.00    -0.246 OA
BRANCH   4   6
ATOM      6  C   UNL A   1      41.608  21.320  26.558  1.00  0.00     0.060 A 
ATOM      7  C   UNL A   1      41.634  22.462  25.771  1.00  0.00     0.016 A 
ATOM      8  C   UNL A   1      41.887  21.403  27.934  1.00  0.00     0.016 A 
ATOM      9  C   UNL A   1      41.567  23.692  26.382  1.00  0.00     0.010 A 
ATOM     10  C   UNL A   1      42.052  22.657  28.528  1.00  0.00     0.010 A 
ATOM     11  C   UNL A   1      41.832  23.798  27.750  1.00  0.00    -0.014 A 
BRANCH  11  12
ATOM     12  C   UNL A   1      42.201  25.162  28.151  1.00  0.00     0.031 A 
ATOM     13  C   UNL A   1      43.585  25.573  27.727  1.00  0.00     0.074 A 
ATOM     14  C   UNL A   1      41.269  26.039  28.555  1.00  0.00     0.049 A 
ATOM     15  N   UNL A   1      44.083  26.765  27.577  1.00  0.00    -0.248 NA
ATOM     16  C   UNL A   1      44.474  24.484  27.268  1.00  0.00     0.031 C 
ATOM     17  C   UNL A   1      39.854  25.737  28.784  1.00  0.00     0.029 A 
ATOM     18  N   UNL A   1      41.366  27.382  28.793  1.00  0.00    -0.354 N 
ATOM     19  C   UNL A   1      45.295  26.570  26.926  1.00  0.00     0.074 A 
ATOM     20  C   UNL A   1      45.443  25.157  26.678  1.00  0.00     0.031 C 
ATOM     21  C   UNL A   1      39.221  26.866  29.154  1.00  0.00     0.029 A 
ATOM     22  C   UNL A   1      40.191  27.958  29.213  1.00  0.00     0.049 A 
ATOM     23  H   UNL A   1      42.201  27.890  28.674  1.00  0.00     0.167 HD
ATOM     24  C   UNL A   1      46.227  27.495  26.608  1.00  0.00     0.034 A 
ATOM     25  C   UNL A   1      39.965  29.222  29.626  1.00  0.00     0.034 A 
ATOM     26  C   UNL A   1      46.126  28.846  27.079  1.00  0.00     0.049 A 
ATOM     27  C   UNL A   1      41.135  30.180  29.547  1.00  0.00     0.074 A 
ATOM     28  C   UNL A   1      47.082  29.839  27.088  1.00  0.00     0.029 A 
ATOM     29  N   UNL A   1      44.992  29.365  27.702  1.00  0.00    -0.354 N 
ATOM     30  N   UNL A   1      42.324  29.986  29.013  1.00  0.00    -0.248 NA
ATOM     31  C   UNL A   1      40.948  31.512  30.126  1.00  0.00     0.031 C 
ATOM     32  C   UNL A   1      46.557  30.926  27.796  1.00  0.00     0.029 A 
ATOM     33  C   UNL A   1      45.241  30.649  28.143  1.00  0.00     0.049 A 
ATOM     34  H   UNL A   1      44.140  28.886  27.812  1.00  0.00     0.167 HD
ATOM     35  C   UNL A   1      43.019  31.180  29.174  1.00  0.00     0.074 A 
ATOM     36  C   UNL A   1      42.104  32.092  29.839  1.00  0.00     0.031 C 
ATOM     37  C   UNL A   1      44.288  31.506  28.813  1.00  0.00     0.034 A 
BRANCH  24  38
ATOM     38  C   UNL A   1      47.467  26.972  25.935  1.00  0.00     0.023 A 
ATOM     39  C   UNL A   1      48.466  26.291  26.658  1.00  0.00     0.031 A 
ATOM     40  C   UNL A   1      47.739  27.327  24.603  1.00  0.00     0.131 A 
ATOM     41  C   UNL A   1      49.717  26.056  26.063  1.00  0.00     0.055 A 
ATOM     42  C   UNL A   1      48.959  27.026  23.996  1.00  0.00     0.041 A 
ATOM     43  F   UNL A   1      46.848  28.033  23.890  1.00  0.00    -0.206 F 
ATOM     44  C   UNL A   1      49.963  26.400  24.731  1.00  0.00     0.022 A 
BRANCH  41  45
ATOM     45  S   UNL A   1      51.083  25.460  27.104  1.00  0.00     0.124 S 
ATOM     46  O   UNL A   1      51.633  26.713  27.615  1.00  0.00    -0.237 OA
ATOM     47  O   UNL A   1      50.397  24.620  28.077  1.00  0.00    -0.237 OA
ATOM     48  O   UNL A   1      51.945  24.747  26.163  1.00  0.00    -0.744 OA
ENDBRANCH  41  45
ENDBRANCH  24  38
BRANCH  25  49
ATOM     49  C   UNL A   1      38.662  29.622  30.242  1.00  0.00     0.023 A 
ATOM     50  C   UNL A   1      37.717  30.407  29.560  1.00  0.00     0.031 A 
ATOM     51  C   UNL A   1      38.383  29.297  31.585  1.00  0.00     0.131 A 
ATOM     52  C   UNL A   1      36.572  30.875  30.231  1.00  0.00     0.055 A 
ATOM     53  C   UNL A   1      37.218  29.718  32.232  1.00  0.00     0.041 A 
ATOM     54  F   UNL A   1      39.252  28.568  32.305  1.00  0.00    -0.206 F 
ATOM     55  C   UNL A   1      36.312  30.525  31.557  1.00  0.00     0.022 A 
BRANCH  52  56
ATOM     56  S   UNL A   1      35.472  32.044  29.382  1.00  0.00     0.124 S 
ATOM     57  O   UNL A   1      34.632  31.146  28.597  1.00  0.00    -0.237 OA
ATOM     58  O   UNL A   1      34.823  32.718  30.502  1.00  0.00    -0.237 OA
ATOM     59  O   UNL A   1      36.391  32.875  28.606  1.00  0.00    -0.744 OA
ENDBRANCH  52  56
ENDBRANCH  25  49
BRANCH  37  60
ATOM     60  C   UNL A   1      44.733  32.913  29.103  1.00  0.00     0.023 A 
ATOM     61  C   UNL A   1      44.423  33.975  28.240  1.00  0.00     0.031 A 
ATOM     62  C   UNL A   1      45.450  33.191  30.279  1.00  0.00     0.131 A 
ATOM     63  C   UNL A   1      44.876  35.266  28.541  1.00  0.00     0.055 A 
ATOM     64  C   UNL A   1      45.840  34.487  30.607  1.00  0.00     0.041 A 
ATOM     65  F   UNL A   1      45.766  32.207  31.136  1.00  0.00    -0.206 F 
ATOM     66  C   UNL A   1      45.564  35.532  29.729  1.00  0.00     0.022 A 
BRANCH  63  67
ATOM     67  S   UNL A   1      44.628  36.577  27.317  1.00  0.00     0.124 S 
ATOM     68  O   UNL A   1      44.365  37.737  28.164  1.00  0.00    -0.237 OA
ATOM     69  O   UNL A   1      45.901  36.584  26.604  1.00  0.00    -0.237 OA
ATOM     70  O   UNL A   1      43.483  36.107  26.539  1.00  0.00    -0.744 OA
ENDBRANCH  63  67
ENDBRANCH  37  60
ENDBRANCH  11  12
ENDBRANCH   4   6
ENDBRANCH   3   4
ENDBRANCH   2   3
ENDBRANCH   1   2
BRANCH   1  71
ATOM     71  O   UNL A   1      37.377  21.144  25.771  1.00  0.00    -0.374 OA
BRANCH  71  72
ATOM     72  C   UNL A   1      37.904  22.473  25.559  1.00  0.00     0.202 C 
BRANCH  72  73
ATOM     73  C   UNL A   1      37.181  23.495  24.305  1.00  0.00     0.261 C 
BRANCH  73  74
ATOM     74  O   UNL A   1      35.497  22.907  23.298  1.00  0.00    -0.462 OA
BRANCH  74  75
ATOM     75  C   UNL A   1      34.152  23.224  22.913  1.00  0.00     0.334 C 
ATOM     76  O   UNL A   1      33.718  23.477  21.788  1.00  0.00    -0.250 OA
BRANCH  75  77
ATOM     77  C   UNL A   1      33.245  22.972  24.062  1.00  0.00     0.252 C 
ATOM     78  C   UNL A   1      34.115  23.010  25.349  1.00  0.00     0.298 C 
ATOM     79  N   UNL A   1      32.287  21.863  24.006  1.00  0.00    -0.300 N 
ATOM     80  N   UNL A   1      33.328  22.932  26.593  1.00  0.00    -0.343 N 
ATOM     81  C   UNL A   1      31.501  21.823  25.251  1.00  0.00     0.183 C 
ATOM     82  C   UNL A   1      32.417  21.781  26.498  1.00  0.00     0.282 C 
ATOM     83  H   UNL A   1      32.789  23.789  26.713  1.00  0.00     0.346 HD
ATOM     84  H   UNL A   1      33.951  22.820  27.393  1.00  0.00     0.346 HD
BRANCH  79  85
ATOM     85  C   UNL A   1      32.198  20.802  23.138  1.00  0.00     0.318 C 
ATOM     86  O   UNL A   1      31.946  20.988  21.941  1.00  0.00    -0.249 OA
ATOM     87  N   UNL A   1      32.368  19.494  23.478  1.00  0.00    -0.333 N 
ATOM     88  H   UNL A   1      31.641  18.904  23.177  1.00  0.00     0.165 HD
BRANCH  87  89
ATOM     89  C   UNL A   1      33.465  18.786  24.231  1.00  0.00     0.112 C 
ATOM     90  C   UNL A   1      32.641  18.131  25.866  1.00  0.00     0.056 C 
ATOM     91  C   UNL A   1      34.236  17.240  23.232  1.00  0.00     0.185 C 
ATOM     92  C   UNL A   1      32.692  16.164  25.807  1.00  0.00     0.162 C 
ATOM     93  O   UNL A   1      33.690  15.662  24.205  1.00  0.00    -0.379 OA
ENDBRANCH  87  89
ENDBRANCH  79  85
ENDBRANCH  75  77
ENDBRANCH  74  75
ENDBRANCH  73  74
ENDBRANCH  72  73
ENDBRANCH  71  72
ENDBRANCH   1  71
TORSDOF 19
ENDMDL
MODEL 2
REMARK VINA RESULT:     -12.2      1.791      3.322
REMARK SMILES O=C(OCCOCCOC(=O)[C@@H]1C[NH2+]CCN1C(=O)N[C@H]1CCOC1)c1ccc(-c2c3nc(c(-c4cc(S(=O)(=O)[O-])ccc4F)c4ccc([nH]4)c(-c4cc(S(=O)(=O)[O-])ccc4F)c4nc(c(-c5cc(S(=O)(=O)[O-])ccc5F)c5ccc2[nH]5)C=C4)C=C3)cc1
REMARK SMILES IDX 5 1 4 2 3 3 2 4 1 5 26 6 27 7 88 8 28 9 87 10 29 11 30 12
REMARK SMILES IDX 31 13 81 14 32 15 86 16 80 17 82 18 33 19 85 20 79 21 78 22
REMARK SMILES IDX 34 24 66 25 46 26 65 27 47 28 50 29 64 30 83 31 48 32 49 33
REMARK SMILES IDX 63 35 84 36 51 37 35 38 36 39 44 40 37 41 43 42 45 43 42 44
REMARK SMILES IDX 38 45 39 46 40 47 41 48 67 49 68 50 76 51 69 52 75 53 77 54
REMARK SMILES IDX 74 55 70 56 71 57 72 58 73 59 52 60 53 61 61 62 54 63 60 64
REMARK SMILES IDX 62 65 59 66 55 67 56 68 57 69 58 70 6 71 7 72 8 73 9 74
REMARK SMILES IDX 10 75 11 76 12 77 13 78 17 79 14 80 16 81 15 82 18 85 19 86
REMARK SMILES IDX 20 87 21 89 22 90 25 91 23 92 24 93
REMARK H PARENT 82 23 50 34 14 83 14 84 20 88
REMARK Flexibility Score: inf
ROOT
ATOM      1  C   UNL A   1      37.647  20.839  25.087  1.00  0.00     0.202 C 
ENDROOT
BRANCH   1   2
ATOM      2  C   UNL A   1      38.730  19.703  25.041  1.00  0.00     0.261 C 
BRANCH   2   3
ATOM      3  O   UNL A   1      39.748  19.681  26.099  1.00  0.00    -0.460 OA
BRANCH   3   4
ATOM      4  C   UNL A   1      41.085  19.935  26.006  1.00  0.00     0.338 C 
ATOM      5  O   UNL A   1      41.855  19.111  25.525  1.00  0.00    -0.246 OA
BRANCH   4   6
ATOM      6  C   UNL A   1      41.601  21.199  26.577  1.00  0.00     0.060 A 
ATOM      7  C   UNL A   1      41.647  22.333  25.779  1.00  0.00     0.016 A 
ATOM      8  C   UNL A   1      41.854  21.294  27.957  1.00  0.00     0.016 A 
ATOM      9  C   UNL A   1      41.572  23.569  26.377  1.00  0.00     0.010 A 
ATOM     10  C   UNL A   1      42.011  22.554  28.542  1.00  0.00     0.010 A 
ATOM     11  C   UNL A   1      41.811  23.688  27.750  1.00  0.00    -0.014 A 
BRANCH  11  12
ATOM     12  C   UNL A   1      42.178  25.054  28.144  1.00  0.00     0.031 A 
ATOM     13  C   UNL A   1      43.556  25.470  27.710  1.00  0.00     0.074 A 
ATOM     14  C   UNL A   1      41.244  25.929  28.553  1.00  0.00     0.049 A 
ATOM     15  N   UNL A   1      44.048  26.663  27.552  1.00  0.00    -0.248 NA
ATOM     16  C   UNL A   1      44.446  24.383  27.246  1.00  0.00     0.031 C 
ATOM     17  C   UNL A   1      39.832  25.621  28.792  1.00  0.00     0.029 A 
ATOM     18  N   UNL A   1      41.338  27.273  28.786  1.00  0.00    -0.354 N 
ATOM     19  C   UNL A   1      45.257  26.471  26.894  1.00  0.00     0.074 A 
ATOM     20  C   UNL A   1      45.409  25.059  26.648  1.00  0.00     0.031 C 
ATOM     21  C   UNL A   1      39.198  26.749  29.164  1.00  0.00     0.029 A 
ATOM     22  C   UNL A   1      40.163  27.844  29.214  1.00  0.00     0.049 A 
ATOM     23  H   UNL A   1      42.170  27.783  28.660  1.00  0.00     0.167 HD
ATOM     24  C   UNL A   1      46.182  27.399  26.567  1.00  0.00     0.034 A 
ATOM     25  C   UNL A   1      39.935  29.109  29.624  1.00  0.00     0.034 A 
ATOM     26  C   UNL A   1      46.079  28.751  27.035  1.00  0.00     0.049 A 
ATOM     27  C   UNL A   1      41.101  30.071  29.535  1.00  0.00     0.074 A 
ATOM     28  C   UNL A   1      47.031  29.748  27.035  1.00  0.00     0.029 A 
ATOM     29  N   UNL A   1      44.948  29.267  27.665  1.00  0.00    -0.354 N 
ATOM     30  N   UNL A   1      42.287  29.881  28.993  1.00  0.00    -0.248 NA
ATOM     31  C   UNL A   1      40.912  31.404  30.112  1.00  0.00     0.031 C 
ATOM     32  C   UNL A   1      46.507  30.835  27.744  1.00  0.00     0.029 A 
ATOM     33  C   UNL A   1      45.194  30.554  28.101  1.00  0.00     0.049 A 
ATOM     34  H   UNL A   1      44.098  28.785  27.782  1.00  0.00     0.167 HD
ATOM     35  C   UNL A   1      42.977  31.078  29.146  1.00  0.00     0.074 A 
ATOM     36  C   UNL A   1      42.064  31.988  29.815  1.00  0.00     0.031 C 
ATOM     37  C   UNL A   1      44.243  31.408  28.776  1.00  0.00     0.034 A 
BRANCH  24  38
ATOM     38  C   UNL A   1      47.420  26.880  25.886  1.00  0.00     0.023 A 
ATOM     39  C   UNL A   1      48.458  26.265  26.614  1.00  0.00     0.031 A 
ATOM     40  C   UNL A   1      47.647  27.177  24.531  1.00  0.00     0.131 A 
ATOM     41  C   UNL A   1      49.699  26.037  25.997  1.00  0.00     0.055 A 
ATOM     42  C   UNL A   1      48.859  26.881  23.907  1.00  0.00     0.041 A 
ATOM     43  F   UNL A   1      46.716  27.821  23.810  1.00  0.00    -0.206 F 
ATOM     44  C   UNL A   1      49.900  26.322  24.644  1.00  0.00     0.022 A 
BRANCH  41  45
ATOM     45  S   UNL A   1      51.108  25.532  27.028  1.00  0.00     0.124 S 
ATOM     46  O   UNL A   1      51.930  24.799  26.067  1.00  0.00    -0.237 OA
ATOM     47  O   UNL A   1      51.644  26.810  27.481  1.00  0.00    -0.237 OA
ATOM     48  O   UNL A   1      50.496  24.709  28.068  1.00  0.00    -0.744 OA
ENDBRANCH  41  45
ENDBRANCH  24  38
BRANCH  25  49
ATOM     49  C   UNL A   1      38.635  29.505  30.249  1.00  0.00     0.023 A 
ATOM     50  C   UNL A   1      37.681  30.282  29.570  1.00  0.00     0.031 A 
ATOM     51  C   UNL A   1      38.368  29.185  31.596  1.00  0.00     0.131 A 
ATOM     52  C   UNL A   1      36.538  30.747  30.248  1.00  0.00     0.055 A 
ATOM     53  C   UNL A   1      37.206  29.603  32.249  1.00  0.00     0.041 A 
ATOM     54  F   UNL A   1      39.247  28.465  32.313  1.00  0.00    -0.206 F 
ATOM     55  C   UNL A   1      36.290  30.402  31.578  1.00  0.00     0.022 A 
BRANCH  52  56
ATOM     56  S   UNL A   1      35.425  31.906  29.402  1.00  0.00     0.124 S 
ATOM     57  O   UNL A   1      34.829  31.053  28.380  1.00  0.00    -0.237 OA
ATOM     58  O   UNL A   1      34.543  32.325  30.486  1.00  0.00    -0.237 OA
ATOM     59  O   UNL A   1      36.328  32.942  28.901  1.00  0.00    -0.744 OA
ENDBRANCH  52  56
ENDBRANCH  25  49
BRANCH  37  60
ATOM     60  C   UNL A   1      44.684  32.818  29.059  1.00  0.00     0.023 A 
ATOM     61  C   UNL A   1      44.261  33.895  28.265  1.00  0.00     0.031 A 
ATOM     62  C   UNL A   1      45.515  33.082  30.161  1.00  0.00     0.131 A 
ATOM     63  C   UNL A   1      44.714  35.188  28.555  1.00  0.00     0.055 A 
ATOM     64  C   UNL A   1      45.908  34.378  30.485  1.00  0.00     0.041 A 
ATOM     65  F   UNL A   1      45.941  32.083  30.951  1.00  0.00    -0.206 F 
ATOM     66  C   UNL A   1      45.518  35.439  29.672  1.00  0.00     0.022 A 
BRANCH  63  67
ATOM     67  S   UNL A   1      44.310  36.525  27.403  1.00  0.00     0.124 S 
ATOM     68  O   UNL A   1      43.400  37.344  28.197  1.00  0.00    -0.237 OA
ATOM     69  O   UNL A   1      45.619  37.109  27.129  1.00  0.00    -0.237 OA
ATOM     70  O   UNL A   1      43.693  35.829  26.275  1.00  0.00    -0.744 OA
ENDBRANCH  63  67
ENDBRANCH  37  60
ENDBRANCH  11  12
ENDBRANCH   4   6
ENDBRANCH   3   4
ENDBRANCH   2   3
ENDBRANCH   1   2
BRANCH   1  71
ATOM     71  O   UNL A   1      38.091  21.939  25.912  1.00  0.00    -0.374 OA
BRANCH  71  72
ATOM     72  C   UNL A   1      37.815  23.334  25.657  1.00  0.00     0.202 C 
BRANCH  72  73
ATOM     73  C   UNL A   1      36.206  23.974  26.032  1.00  0.00     0.261 C 
BRANCH  73  74
ATOM     74  O   UNL A   1      34.549  22.770  25.995  1.00  0.00    -0.462 OA
BRANCH  74  75
ATOM     75  C   UNL A   1      33.143  22.648  26.253  1.00  0.00     0.334 C 
ATOM     76  O   UNL A   1      32.576  22.470  27.332  1.00  0.00    -0.250 OA
BRANCH  75  77
ATOM     77  C   UNL A   1      32.390  23.010  25.025  1.00  0.00     0.252 C 
ATOM     78  C   UNL A   1      33.428  23.510  23.981  1.00  0.00     0.298 C 
ATOM     79  N   UNL A   1      31.183  23.836  25.126  1.00  0.00    -0.300 N 
ATOM     80  N   UNL A   1      32.850  23.760  22.649  1.00  0.00    -0.343 N 
ATOM     81  C   UNL A   1      30.614  24.052  23.785  1.00  0.00     0.183 C 
ATOM     82  C   UNL A   1      31.670  24.624  22.807  1.00  0.00     0.282 C 
ATOM     83  H   UNL A   1      32.574  22.876  22.222  1.00  0.00     0.346 HD
ATOM     84  H   UNL A   1      33.538  24.215  22.049  1.00  0.00     0.346 HD
BRANCH  79  85
ATOM     85  C   UNL A   1      30.691  24.575  26.175  1.00  0.00     0.318 C 
ATOM     86  O   UNL A   1      30.110  24.021  27.116  1.00  0.00    -0.249 OA
ATOM     87  N   UNL A   1      30.783  25.929  26.291  1.00  0.00    -0.333 N 
ATOM     88  H   UNL A   1      29.928  26.374  26.485  1.00  0.00     0.165 HD
BRANCH  87  89
ATOM     89  C   UNL A   1      31.955  26.871  26.177  1.00  0.00     0.112 C 
ATOM     90  C   UNL A   1      31.655  27.887  24.546  1.00  0.00     0.056 C 
ATOM     91  C   UNL A   1      32.100  28.139  27.712  1.00  0.00     0.185 C 
ATOM     92  C   UNL A   1      31.393  29.768  25.062  1.00  0.00     0.162 C 
ATOM     93  O   UNL A   1      31.695  29.885  26.989  1.00  0.00    -0.379 OA
ENDBRANCH  87  89
ENDBRANCH  79  85
ENDBRANCH  75  77
ENDBRANCH  74  75
ENDBRANCH  73  74
ENDBRANCH  72  73
ENDBRANCH  71  72
ENDBRANCH   1  71
TORSDOF 19
ENDMDL
MODEL 3
REMARK VINA RESULT:     -12.2      5.076     10.669
REMARK SMILES O=C(OCCOCCOC(=O)[C@@H]1C[NH2+]CCN1C(=O)N[C@H]1CCOC1)c1ccc(-c2c3nc(c(-c4cc(S(=O)(=O)[O-])ccc4F)c4ccc([nH]4)c(-c4cc(S(=O)(=O)[O-])ccc4F)c4nc(c(-c5cc(S(=O)(=O)[O-])ccc5F)c5ccc2[nH]5)C=C4)C=C3)cc1
REMARK SMILES IDX 5 1 4 2 3 3 2 4 1 5 26 6 27 7 88 8 28 9 87 10 29 11 30 12
REMARK SMILES IDX 31 13 81 14 32 15 86 16 80 17 82 18 33 19 85 20 79 21 78 22
REMARK SMILES IDX 34 24 66 25 46 26 65 27 47 28 50 29 64 30 83 31 48 32 49 33
REMARK SMILES IDX 63 35 84 36 51 37 35 38 36 39 44 40 37 41 43 42 45 43 42 44
REMARK SMILES IDX 38 45 39 46 40 47 41 48 67 49 68 50 76 51 69 52 75 53 77 54
REMARK SMILES IDX 74 55 70 56 71 57 72 58 73 59 52 60 53 61 61 62 54 63 60 64
REMARK SMILES IDX 62 65 59 66 55 67 56 68 57 69 58 70 6 71 7 72 8 73 9 74
REMARK SMILES IDX 10 75 11 76 12 77 13 78 17 79 14 80 16 81 15 82 18 85 19 86
REMARK SMILES IDX 20 87 21 89 22 90 25 91 23 92 24 93
REMARK H PARENT 82 23 50 34 14 83 14 84 20 88
REMARK Flexibility Score: inf
ROOT
ATOM      1  C   UNL A   1      33.562  31.279  26.951  1.00  0.00     0.202 C 
ENDROOT
BRANCH   1   2
ATOM      2  C   UNL A   1      32.350  32.219  27.285  1.00  0.00     0.261 C 
BRANCH   2   3
ATOM      3  O   UNL A   1      32.640  33.619  27.626  1.00  0.00    -0.460 OA
BRANCH   3   4
ATOM      4  C   UNL A   1      33.126  34.132  28.792  1.00  0.00     0.338 C 
ATOM      5  O   UNL A   1      32.507  34.989  29.414  1.00  0.00    -0.246 OA
BRANCH   4   6
ATOM      6  C   UNL A   1      34.463  33.692  29.249  1.00  0.00     0.060 A 
ATOM      7  C   UNL A   1      34.555  32.722  30.237  1.00  0.00     0.016 A 
ATOM      8  C   UNL A   1      35.614  34.108  28.557  1.00  0.00     0.016 A 
ATOM      9  C   UNL A   1      35.672  31.922  30.279  1.00  0.00     0.010 A 
ATOM     10  C   UNL A   1      36.823  33.440  28.769  1.00  0.00     0.010 A 
ATOM     11  C   UNL A   1      36.826  32.310  29.592  1.00  0.00    -0.014 A 
BRANCH  11  12
ATOM     12  C   UNL A   1      38.038  31.658  30.106  1.00  0.00     0.031 A 
ATOM     13  C   UNL A   1      38.374  32.020  31.526  1.00  0.00     0.074 A 
ATOM     14  C   UNL A   1      38.577  30.605  29.472  1.00  0.00     0.049 A 
ATOM     15  N   UNL A   1      39.108  31.382  32.390  1.00  0.00    -0.248 NA
ATOM     16  C   UNL A   1      37.656  33.186  32.087  1.00  0.00     0.031 C 
ATOM     17  C   UNL A   1      38.148  30.078  28.174  1.00  0.00     0.029 A 
ATOM     18  N   UNL A   1      39.572  29.754  29.866  1.00  0.00    -0.354 N 
ATOM     19  C   UNL A   1      38.867  32.013  33.604  1.00  0.00     0.074 A 
ATOM     20  C   UNL A   1      37.897  33.056  33.378  1.00  0.00     0.031 C 
ATOM     21  C   UNL A   1      38.899  29.003  27.870  1.00  0.00     0.029 A 
ATOM     22  C   UNL A   1      39.874  28.786  28.937  1.00  0.00     0.049 A 
ATOM     23  H   UNL A   1      40.030  29.828  30.734  1.00  0.00     0.167 HD
ATOM     24  C   UNL A   1      39.449  31.769  34.799  1.00  0.00     0.034 A 
ATOM     25  C   UNL A   1      40.858  27.864  28.962  1.00  0.00     0.034 A 
ATOM     26  C   UNL A   1      40.566  30.875  34.914  1.00  0.00     0.049 A 
ATOM     27  C   UNL A   1      41.710  27.816  30.213  1.00  0.00     0.074 A 
ATOM     28  C   UNL A   1      41.440  30.707  35.966  1.00  0.00     0.029 A 
ATOM     29  N   UNL A   1      40.999  30.043  33.884  1.00  0.00    -0.354 N 
ATOM     30  N   UNL A   1      41.551  28.472  31.344  1.00  0.00    -0.248 NA
ATOM     31  C   UNL A   1      42.871  26.923  30.195  1.00  0.00     0.031 C 
ATOM     32  C   UNL A   1      42.454  29.840  35.539  1.00  0.00     0.029 A 
ATOM     33  C   UNL A   1      42.159  29.392  34.257  1.00  0.00     0.049 A 
ATOM     34  H   UNL A   1      40.546  29.934  33.017  1.00  0.00     0.167 HD
ATOM     35  C   UNL A   1      42.580  28.054  32.181  1.00  0.00     0.074 A 
ATOM     36  C   UNL A   1      43.341  27.074  31.425  1.00  0.00     0.031 C 
ATOM     37  C   UNL A   1      42.880  28.433  33.451  1.00  0.00     0.034 A 
BRANCH  24  38
ATOM     38  C   UNL A   1      39.008  32.649  35.937  1.00  0.00     0.023 A 
ATOM     39  C   UNL A   1      39.446  33.984  36.048  1.00  0.00     0.031 A 
ATOM     40  C   UNL A   1      38.301  32.092  37.015  1.00  0.00     0.131 A 
ATOM     41  C   UNL A   1      39.236  34.687  37.246  1.00  0.00     0.055 A 
ATOM     42  C   UNL A   1      38.034  32.821  38.174  1.00  0.00     0.041 A 
ATOM     43  F   UNL A   1      37.918  30.806  36.987  1.00  0.00    -0.206 F 
ATOM     44  C   UNL A   1      38.516  34.122  38.302  1.00  0.00     0.022 A 
BRANCH  41  45
ATOM     45  S   UNL A   1      40.073  36.283  37.482  1.00  0.00     0.124 S 
ATOM     46  O   UNL A   1      41.404  35.859  37.911  1.00  0.00    -0.237 OA
ATOM     47  O   UNL A   1      39.991  36.883  36.156  1.00  0.00    -0.237 OA
ATOM     48  O   UNL A   1      39.273  36.939  38.514  1.00  0.00    -0.744 OA
ENDBRANCH  41  45
ENDBRANCH  24  38
BRANCH  25  49
ATOM     49  C   UNL A   1      41.166  27.017  27.768  1.00  0.00     0.023 A 
ATOM     50  C   UNL A   1      40.883  25.641  27.728  1.00  0.00     0.031 A 
ATOM     51  C   UNL A   1      41.850  27.568  26.665  1.00  0.00     0.131 A 
ATOM     52  C   UNL A   1      41.320  24.862  26.641  1.00  0.00     0.055 A 
ATOM     53  C   UNL A   1      42.234  26.802  25.562  1.00  0.00     0.041 A 
ATOM     54  F   UNL A   1      42.173  28.872  26.645  1.00  0.00    -0.206 F 
ATOM     55  C   UNL A   1      41.982  25.436  25.553  1.00  0.00     0.022 A 
BRANCH  52  56
ATOM     56  S   UNL A   1      41.110  23.059  26.710  1.00  0.00     0.124 S 
ATOM     57  O   UNL A   1      41.612  22.753  28.045  1.00  0.00    -0.237 OA
ATOM     58  O   UNL A   1      39.672  22.914  26.513  1.00  0.00    -0.237 OA
ATOM     59  O   UNL A   1      41.940  22.577  25.607  1.00  0.00    -0.744 OA
ENDBRANCH  52  56
ENDBRANCH  25  49
BRANCH  37  60
ATOM     60  C   UNL A   1      44.056  27.756  34.099  1.00  0.00     0.023 A 
ATOM     61  C   UNL A   1      43.928  26.516  34.744  1.00  0.00     0.031 A 
ATOM     62  C   UNL A   1      45.327  28.352  34.037  1.00  0.00     0.131 A 
ATOM     63  C   UNL A   1      45.047  25.933  35.351  1.00  0.00     0.055 A 
ATOM     64  C   UNL A   1      46.449  27.736  34.584  1.00  0.00     0.041 A 
ATOM     65  F   UNL A   1      45.498  29.536  33.427  1.00  0.00    -0.206 F 
ATOM     66  C   UNL A   1      46.311  26.525  35.257  1.00  0.00     0.022 A 
BRANCH  63  67
ATOM     67  S   UNL A   1      44.813  24.433  36.338  1.00  0.00     0.124 S 
ATOM     68  O   UNL A   1      43.698  23.789  35.651  1.00  0.00    -0.237 OA
ATOM     69  O   UNL A   1      46.107  23.772  36.213  1.00  0.00    -0.237 OA
ATOM     70  O   UNL A   1      44.505  24.947  37.672  1.00  0.00    -0.744 OA
ENDBRANCH  63  67
ENDBRANCH  37  60
ENDBRANCH  11  12
ENDBRANCH   4   6
ENDBRANCH   3   4
ENDBRANCH   2   3
ENDBRANCH   1   2
BRANCH   1  71
ATOM     71  O   UNL A   1      33.103  29.959  26.585  1.00  0.00    -0.374 OA
BRANCH  71  72
ATOM     72  C   UNL A   1      31.787  29.429  26.865  1.00  0.00     0.202 C 
BRANCH  72  73
ATOM     73  C   UNL A   1      31.648  27.867  27.690  1.00  0.00     0.261 C 
BRANCH  73  74
ATOM     74  O   UNL A   1      31.295  26.141  26.643  1.00  0.00    -0.462 OA
BRANCH  74  75
ATOM     75  C   UNL A   1      31.550  24.735  26.518  1.00  0.00     0.334 C 
ATOM     76  O   UNL A   1      31.243  23.830  27.295  1.00  0.00    -0.250 OA
BRANCH  75  77
ATOM     77  C   UNL A   1      32.055  24.453  25.150  1.00  0.00     0.252 C 
ATOM     78  C   UNL A   1      30.918  24.818  24.156  1.00  0.00     0.298 C 
ATOM     79  N   UNL A   1      32.725  23.178  24.869  1.00  0.00    -0.300 N 
ATOM     80  N   UNL A   1      31.325  24.740  22.742  1.00  0.00    -0.343 N 
ATOM     81  C   UNL A   1      33.140  23.137  23.456  1.00  0.00     0.183 C 
ATOM     82  C   UNL A   1      31.951  23.429  22.508  1.00  0.00     0.282 C 
ATOM     83  H   UNL A   1      31.992  25.482  22.534  1.00  0.00     0.346 HD
ATOM     84  H   UNL A   1      30.510  24.850  22.138  1.00  0.00     0.346 HD
BRANCH  79  85
ATOM     85  C   UNL A   1      32.794  22.023  25.608  1.00  0.00     0.318 C 
ATOM     86  O   UNL A   1      31.986  21.106  25.419  1.00  0.00    -0.249 OA
ATOM     87  N   UNL A   1      33.711  21.770  26.583  1.00  0.00    -0.333 N 
ATOM     88  H   UNL A   1      33.320  21.467  27.433  1.00  0.00     0.165 HD
BRANCH  87  89
ATOM     89  C   UNL A   1      35.215  21.870  26.598  1.00  0.00     0.112 C 
ATOM     90  C   UNL A   1      35.828  20.816  25.083  1.00  0.00     0.056 C 
ATOM     91  C   UNL A   1      35.883  23.740  26.397  1.00  0.00     0.185 C 
ATOM     92  C   UNL A   1      36.692  22.049  23.817  1.00  0.00     0.162 C 
ATOM     93  O   UNL A   1      36.729  23.810  24.661  1.00  0.00    -0.379 OA
ENDBRANCH  87  89
ENDBRANCH  79  85
ENDBRANCH  75  77
ENDBRANCH  74  75
ENDBRANCH  73  74
ENDBRANCH  72  73
ENDBRANCH  71  72
ENDBRANCH   1  71
TORSDOF 19
ENDMDL
