MODEL 1
REMARK VINA RESULT:     -13.2      0.000      0.000
REMARK SMILES CC(=O)O[C@@H]1CC[C@]23C(=O)O[C@]4(CC[C@]2(O)C1)[C@H]3CC[C@]1(C)[C@H](C(=O)OCCOCCOC(=O)c2ccc(-c3c5nc(c(-c6cc(S(=O)(=O)[O-])ccc6F)c6ccc([nH]6)c(-c6cc(S(=O)(=O)[O-])ccc6F)c6nc(c(-c7cc(S(=O)(=O)[O-])ccc7F)c7ccc3[nH]7)C=C6)C=C5)cc2)CC[C@@H]14
REMARK SMILES IDX 30 1 29 2 28 3 27 4 26 5 24 6 25 7 23 8 5 9 6 10 17 11 7 12
REMARK SMILES IDX 15 13 8 14 14 15 9 16 18 17 13 18 10 19 11 20 12 21 19 22
REMARK SMILES IDX 100 23 20 24 21 25 99 26 22 27 98 28 4 29 2 30 1 31 3 32
REMARK SMILES IDX 16 33 31 35 32 36 33 37 34 38 35 39 36 40 97 41 37 42 96 43
REMARK SMILES IDX 38 44 39 45 40 46 90 47 41 48 95 49 89 50 91 51 42 52 94 53
REMARK SMILES IDX 88 54 87 55 43 57 75 58 55 59 74 60 56 61 59 62 73 63 92 64
REMARK SMILES IDX 57 65 58 66 72 68 93 69 60 70 44 71 45 72 53 73 46 74 52 75
REMARK SMILES IDX 54 76 51 77 47 78 48 79 49 80 50 81 76 82 77 83 85 84 78 85
REMARK SMILES IDX 84 86 86 87 83 88 79 89 80 90 81 91 82 92 61 93 62 94 70 95
REMARK SMILES IDX 63 96 69 97 71 98 68 99 64 100 65 101 66 102 67 103
REMARK H PARENT 16 34 91 56 59 67
REMARK Flexibility Score: inf
ROOT
ATOM      1  C   UNL A   1      35.887  20.290  24.998  1.00  0.00     0.202 C 
ENDROOT
BRANCH   1   2
ATOM      2  O   UNL A   1      35.209  19.072  24.703  1.00  0.00    -0.374 OA
BRANCH   2   3
ATOM      3  C   UNL A   1      33.803  18.991  24.915  1.00  0.00     0.202 C 
BRANCH   3   4
ATOM      4  C   UNL A   1      32.873  19.949  24.162  1.00  0.00     0.261 C 
BRANCH   4   5
ATOM      5  O   UNL A   1      31.975  20.659  25.029  1.00  0.00    -0.463 OA
BRANCH   5   6
ATOM      6  C   UNL A   1      32.540  21.710  25.661  1.00  0.00     0.309 C 
ATOM      7  O   UNL A   1      32.611  21.823  26.886  1.00  0.00    -0.252 OA
BRANCH   6   8
ATOM      8  C   UNL A   1      33.217  22.729  24.763  1.00  0.00     0.105 C 
ATOM      9  C   UNL A   1      32.390  30.010  26.996  1.00  0.00     0.179 C 
ATOM     10  C   UNL A   1      31.779  28.776  27.582  1.00  0.00     0.047 C 
ATOM     11  C   UNL A   1      31.710  30.188  25.627  1.00  0.00     0.081 C 
ATOM     12  C   UNL A   1      32.043  27.672  26.597  1.00  0.00     0.026 C 
ATOM     13  C   UNL A   1      31.584  28.938  24.649  1.00  0.00     0.085 C 
ATOM     14  C   UNL A   1      30.954  27.573  25.194  1.00  0.00     0.103 C 
ATOM     15  C   UNL A   1      32.955  28.799  23.943  1.00  0.00     0.041 C 
ATOM     16  C   UNL A   1      31.021  26.184  25.701  1.00  0.00     0.316 C 
ATOM     17  C   UNL A   1      31.245  26.581  23.706  1.00  0.00     0.054 C 
ATOM     18  C   UNL A   1      33.462  27.392  23.631  1.00  0.00     0.052 C 
ATOM     19  O   UNL A   1      30.194  25.592  26.358  1.00  0.00    -0.251 OA
ATOM     20  O   UNL A   1      32.285  25.750  25.378  1.00  0.00    -0.458 OA
ATOM     21  C   UNL A   1      32.624  26.166  24.057  1.00  0.00     0.120 C 
ATOM     22  C   UNL A   1      30.456  25.284  23.277  1.00  0.00     0.009 C 
ATOM     23  C   UNL A   1      33.395  24.932  23.632  1.00  0.00     0.040 C 
ATOM     24  C   UNL A   1      31.018  23.882  23.714  1.00  0.00     0.008 C 
ATOM     25  C   UNL A   1      32.561  23.618  23.622  1.00  0.00    -0.013 C 
ATOM     26  C   UNL A   1      34.517  24.699  24.707  1.00  0.00     0.009 C 
ATOM     27  C   UNL A   1      32.904  22.950  22.267  1.00  0.00     0.013 C 
ATOM     28  C   UNL A   1      33.952  23.689  25.686  1.00  0.00     0.016 C 
BRANCH   9  29
ATOM     29  O   UNL A   1      33.857  30.086  26.936  1.00  0.00    -0.462 OA
BRANCH  29  30
ATOM     30  C   UNL A   1      34.628  30.988  27.618  1.00  0.00     0.302 C 
ATOM     31  C   UNL A   1      35.807  30.326  28.267  1.00  0.00     0.139 C 
ATOM     32  O   UNL A   1      34.480  32.200  27.677  1.00  0.00    -0.253 OA
ENDBRANCH  29  30
ENDBRANCH   9  29
BRANCH  13  33
ATOM     33  O   UNL A   1      30.644  29.495  23.690  1.00  0.00    -0.389 OA
ATOM     34  H   UNL A   1      30.758  30.457  23.645  1.00  0.00     0.211 HD
ENDBRANCH  13  33
ENDBRANCH   6   8
ENDBRANCH   5   6
ENDBRANCH   4   5
ENDBRANCH   3   4
ENDBRANCH   2   3
ENDBRANCH   1   2
BRANCH   1  35
ATOM     35  C   UNL A   1      37.401  20.396  24.770  1.00  0.00     0.261 C 
BRANCH  35  36
ATOM     36  O   UNL A   1      38.007  21.533  25.396  1.00  0.00    -0.460 OA
BRANCH  36  37
ATOM     37  C   UNL A   1      39.130  21.239  26.098  1.00  0.00     0.338 C 
ATOM     38  O   UNL A   1      39.732  20.179  26.109  1.00  0.00    -0.246 OA
BRANCH  37  39
ATOM     39  C   UNL A   1      39.653  22.461  26.725  1.00  0.00     0.060 A 
ATOM     40  C   UNL A   1      39.122  23.691  26.314  1.00  0.00     0.016 A 
ATOM     41  C   UNL A   1      40.715  22.401  27.627  1.00  0.00     0.016 A 
ATOM     42  C   UNL A   1      39.687  24.877  26.770  1.00  0.00     0.010 A 
ATOM     43  C   UNL A   1      41.286  23.591  28.074  1.00  0.00     0.010 A 
ATOM     44  C   UNL A   1      40.799  24.830  27.617  1.00  0.00    -0.014 A 
BRANCH  44  45
ATOM     45  C   UNL A   1      41.580  26.057  27.888  1.00  0.00     0.031 A 
ATOM     46  C   UNL A   1      40.952  27.129  28.733  1.00  0.00     0.074 A 
ATOM     47  C   UNL A   1      42.812  26.216  27.377  1.00  0.00     0.049 A 
ATOM     48  N   UNL A   1      41.374  28.337  28.994  1.00  0.00    -0.248 NA
ATOM     49  C   UNL A   1      39.660  26.791  29.350  1.00  0.00     0.031 C 
ATOM     50  C   UNL A   1      43.539  25.212  26.603  1.00  0.00     0.029 A 
ATOM     51  N   UNL A   1      43.661  27.290  27.424  1.00  0.00    -0.354 N 
ATOM     52  C   UNL A   1      40.389  28.916  29.787  1.00  0.00     0.074 A 
ATOM     53  C   UNL A   1      39.333  27.936  29.927  1.00  0.00     0.031 C 
ATOM     54  C   UNL A   1      44.729  25.722  26.243  1.00  0.00     0.029 A 
ATOM     55  C   UNL A   1      44.820  27.105  26.711  1.00  0.00     0.049 A 
ATOM     56  H   UNL A   1      43.460  28.117  27.921  1.00  0.00     0.167 HD
ATOM     57  C   UNL A   1      40.373  30.152  30.345  1.00  0.00     0.034 A 
ATOM     58  C   UNL A   1      45.820  27.967  26.440  1.00  0.00     0.034 A 
ATOM     59  C   UNL A   1      41.437  31.111  30.174  1.00  0.00     0.049 A 
ATOM     60  C   UNL A   1      45.729  29.378  26.971  1.00  0.00     0.074 A 
ATOM     61  C   UNL A   1      41.545  32.383  30.706  1.00  0.00     0.029 A 
ATOM     62  N   UNL A   1      42.569  30.909  29.394  1.00  0.00    -0.354 N 
ATOM     63  N   UNL A   1      44.793  29.923  27.715  1.00  0.00    -0.248 NA
ATOM     64  C   UNL A   1      46.825  30.292  26.621  1.00  0.00     0.031 C 
ATOM     65  C   UNL A   1      42.689  32.983  30.172  1.00  0.00     0.029 A 
ATOM     66  C   UNL A   1      43.356  32.050  29.392  1.00  0.00     0.049 A 
ATOM     67  H   UNL A   1      42.782  30.077  28.913  1.00  0.00     0.167 HD
ATOM     68  C   UNL A   1      45.216  31.228  27.963  1.00  0.00     0.074 A 
ATOM     69  C   UNL A   1      46.482  31.390  27.280  1.00  0.00     0.031 C 
ATOM     70  C   UNL A   1      44.619  32.196  28.705  1.00  0.00     0.034 A 
BRANCH  57  71
ATOM     71  C   UNL A   1      39.138  30.547  31.122  1.00  0.00     0.023 A 
ATOM     72  C   UNL A   1      38.185  31.439  30.600  1.00  0.00     0.031 A 
ATOM     73  C   UNL A   1      38.944  30.075  32.433  1.00  0.00     0.131 A 
ATOM     74  C   UNL A   1      37.144  31.908  31.416  1.00  0.00     0.055 A 
ATOM     75  C   UNL A   1      37.848  30.467  33.204  1.00  0.00     0.041 A 
ATOM     76  F   UNL A   1      39.832  29.242  32.999  1.00  0.00    -0.206 F 
ATOM     77  C   UNL A   1      36.952  31.406  32.704  1.00  0.00     0.022 A 
BRANCH  74  78
ATOM     78  S   UNL A   1      36.169  33.325  30.840  1.00  0.00     0.124 S 
ATOM     79  O   UNL A   1      36.450  34.316  31.878  1.00  0.00    -0.237 OA
ATOM     80  O   UNL A   1      36.745  33.592  29.528  1.00  0.00    -0.237 OA
ATOM     81  O   UNL A   1      34.798  32.818  30.830  1.00  0.00    -0.744 OA
ENDBRANCH  74  78
ENDBRANCH  57  71
BRANCH  58  82
ATOM     82  C   UNL A   1      46.984  27.534  25.617  1.00  0.00     0.023 A 
ATOM     83  C   UNL A   1      47.093  27.924  24.274  1.00  0.00     0.031 A 
ATOM     84  C   UNL A   1      47.986  26.703  26.147  1.00  0.00     0.131 A 
ATOM     85  C   UNL A   1      48.158  27.453  23.493  1.00  0.00     0.055 A 
ATOM     86  C   UNL A   1      49.077  26.284  25.382  1.00  0.00     0.041 A 
ATOM     87  F   UNL A   1      47.927  26.293  27.424  1.00  0.00    -0.206 F 
ATOM     88  C   UNL A   1      49.161  26.651  24.042  1.00  0.00     0.022 A 
BRANCH  85  89
ATOM     89  S   UNL A   1      48.165  27.835  21.721  1.00  0.00     0.124 S 
ATOM     90  O   UNL A   1      48.278  26.505  21.134  1.00  0.00    -0.237 OA
ATOM     91  O   UNL A   1      46.882  28.507  21.548  1.00  0.00    -0.237 OA
ATOM     92  O   UNL A   1      49.341  28.690  21.563  1.00  0.00    -0.744 OA
ENDBRANCH  85  89
ENDBRANCH  58  82
BRANCH  70  93
ATOM     93  C   UNL A   1      45.361  33.498  28.886  1.00  0.00     0.023 A 
ATOM     94  C   UNL A   1      45.216  34.577  27.998  1.00  0.00     0.031 A 
ATOM     95  C   UNL A   1      46.199  33.669  30.005  1.00  0.00     0.131 A 
ATOM     96  C   UNL A   1      45.919  35.770  28.231  1.00  0.00     0.055 A 
ATOM     97  C   UNL A   1      46.847  34.876  30.262  1.00  0.00     0.041 A 
ATOM     98  F   UNL A   1      46.379  32.668  30.882  1.00  0.00    -0.206 F 
ATOM     99  C   UNL A   1      46.714  35.934  29.369  1.00  0.00     0.022 A 
BRANCH  96 100
ATOM    100  S   UNL A   1      45.830  37.095  26.995  1.00  0.00     0.124 S 
ATOM    101  O   UNL A   1      46.474  36.477  25.841  1.00  0.00    -0.237 OA
ATOM    102  O   UNL A   1      44.394  37.321  26.878  1.00  0.00    -0.237 OA
ATOM    103  O   UNL A   1      46.579  38.190  27.611  1.00  0.00    -0.744 OA
ENDBRANCH  96 100
ENDBRANCH  70  93
ENDBRANCH  44  45
ENDBRANCH  37  39
ENDBRANCH  36  37
ENDBRANCH  35  36
ENDBRANCH   1  35
TORSDOF 20
ENDMDL
MODEL 2
REMARK VINA RESULT:     -13.1      1.248      2.520
REMARK SMILES CC(=O)O[C@@H]1CC[C@]23C(=O)O[C@]4(CC[C@]2(O)C1)[C@H]3CC[C@]1(C)[C@H](C(=O)OCCOCCOC(=O)c2ccc(-c3c5nc(c(-c6cc(S(=O)(=O)[O-])ccc6F)c6ccc([nH]6)c(-c6cc(S(=O)(=O)[O-])ccc6F)c6nc(c(-c7cc(S(=O)(=O)[O-])ccc7F)c7ccc3[nH]7)C=C6)C=C5)cc2)CC[C@@H]14
REMARK SMILES IDX 30 1 29 2 28 3 27 4 26 5 24 6 25 7 23 8 5 9 6 10 17 11 7 12
REMARK SMILES IDX 15 13 8 14 14 15 9 16 18 17 13 18 10 19 11 20 12 21 19 22
REMARK SMILES IDX 100 23 20 24 21 25 99 26 22 27 98 28 4 29 2 30 1 31 3 32
REMARK SMILES IDX 16 33 31 35 32 36 33 37 34 38 35 39 36 40 97 41 37 42 96 43
REMARK SMILES IDX 38 44 39 45 40 46 90 47 41 48 95 49 89 50 91 51 42 52 94 53
REMARK SMILES IDX 88 54 87 55 43 57 75 58 55 59 74 60 56 61 59 62 73 63 92 64
REMARK SMILES IDX 57 65 58 66 72 68 93 69 60 70 44 71 45 72 53 73 46 74 52 75
REMARK SMILES IDX 54 76 51 77 47 78 48 79 49 80 50 81 76 82 77 83 85 84 78 85
REMARK SMILES IDX 84 86 86 87 83 88 79 89 80 90 81 91 82 92 61 93 62 94 70 95
REMARK SMILES IDX 63 96 69 97 71 98 68 99 64 100 65 101 66 102 67 103
REMARK H PARENT 16 34 91 56 59 67
REMARK Flexibility Score: inf
ROOT
ATOM      1  C   UNL A   1      36.519  19.637  24.987  1.00  0.00     0.202 C 
ENDROOT
BRANCH   1   2
ATOM      2  O   UNL A   1      35.129  19.698  24.687  1.00  0.00    -0.374 OA
BRANCH   2   3
ATOM      3  C   UNL A   1      34.398  18.486  24.530  1.00  0.00     0.202 C 
BRANCH   3   4
ATOM      4  C   UNL A   1      32.870  18.538  24.421  1.00  0.00     0.261 C 
BRANCH   4   5
ATOM      5  O   UNL A   1      32.275  19.493  25.313  1.00  0.00    -0.463 OA
BRANCH   5   6
ATOM      6  C   UNL A   1      32.199  20.742  24.807  1.00  0.00     0.309 C 
ATOM      7  O   UNL A   1      32.210  21.002  23.603  1.00  0.00    -0.252 OA
BRANCH   6   8
ATOM      8  C   UNL A   1      31.971  21.849  25.821  1.00  0.00     0.105 C 
ATOM      9  C   UNL A   1      31.016  28.819  22.789  1.00  0.00     0.179 C 
ATOM     10  C   UNL A   1      31.357  27.536  22.098  1.00  0.00     0.047 C 
ATOM     11  C   UNL A   1      32.263  29.177  23.617  1.00  0.00     0.081 C 
ATOM     12  C   UNL A   1      31.699  26.555  23.185  1.00  0.00     0.026 C 
ATOM     13  C   UNL A   1      32.952  28.059  24.517  1.00  0.00     0.085 C 
ATOM     14  C   UNL A   1      33.340  26.652  23.864  1.00  0.00     0.103 C 
ATOM     15  C   UNL A   1      32.119  27.978  25.820  1.00  0.00     0.041 C 
ATOM     16  C   UNL A   1      33.143  25.210  23.593  1.00  0.00     0.316 C 
ATOM     17  C   UNL A   1      33.896  25.843  25.388  1.00  0.00     0.054 C 
ATOM     18  C   UNL A   1      31.943  26.608  26.475  1.00  0.00     0.052 C 
ATOM     19  O   UNL A   1      33.586  24.561  22.672  1.00  0.00    -0.251 OA
ATOM     20  O   UNL A   1      32.239  24.791  24.541  1.00  0.00    -0.458 OA
ATOM     21  C   UNL A   1      32.559  25.358  25.809  1.00  0.00     0.120 C 
ATOM     22  C   UNL A   1      34.893  24.626  25.490  1.00  0.00     0.009 C 
ATOM     23  C   UNL A   1      32.196  24.169  26.675  1.00  0.00     0.040 C 
ATOM     24  C   UNL A   1      34.302  23.169  25.525  1.00  0.00     0.008 C 
ATOM     25  C   UNL A   1      33.029  22.885  26.396  1.00  0.00    -0.013 C 
ATOM     26  C   UNL A   1      30.713  23.782  26.326  1.00  0.00     0.009 C 
ATOM     27  C   UNL A   1      33.449  22.380  27.799  1.00  0.00     0.013 C 
ATOM     28  C   UNL A   1      30.805  22.672  25.297  1.00  0.00     0.016 C 
BRANCH   9  29
ATOM     29  O   UNL A   1      29.766  28.870  23.562  1.00  0.00    -0.462 OA
BRANCH  29  30
ATOM     30  C   UNL A   1      28.640  29.556  23.195  1.00  0.00     0.302 C 
ATOM     31  C   UNL A   1      28.923  31.015  22.999  1.00  0.00     0.139 C 
ATOM     32  O   UNL A   1      27.531  29.097  22.967  1.00  0.00    -0.253 OA
ENDBRANCH  29  30
ENDBRANCH   9  29
BRANCH  13  33
ATOM     33  O   UNL A   1      34.194  28.750  24.826  1.00  0.00    -0.389 OA
ATOM     34  H   UNL A   1      34.927  28.115  24.820  1.00  0.00     0.211 HD
ENDBRANCH  13  33
ENDBRANCH   6   8
ENDBRANCH   5   6
ENDBRANCH   4   5
ENDBRANCH   3   4
ENDBRANCH   2   3
ENDBRANCH   1   2
BRANCH   1  35
ATOM     35  C   UNL A   1      37.431  20.818  24.628  1.00  0.00     0.261 C 
BRANCH  35  36
ATOM     36  O   UNL A   1      37.807  21.627  25.749  1.00  0.00    -0.460 OA
BRANCH  36  37
ATOM     37  C   UNL A   1      39.099  21.467  26.133  1.00  0.00     0.338 C 
ATOM     38  O   UNL A   1      39.843  20.547  25.838  1.00  0.00    -0.246 OA
BRANCH  37  39
ATOM     39  C   UNL A   1      39.561  22.678  26.824  1.00  0.00     0.060 A 
ATOM     40  C   UNL A   1      38.955  23.898  26.491  1.00  0.00     0.016 A 
ATOM     41  C   UNL A   1      40.638  22.627  27.709  1.00  0.00     0.016 A 
ATOM     42  C   UNL A   1      39.459  25.086  27.010  1.00  0.00     0.010 A 
ATOM     43  C   UNL A   1      41.146  23.820  28.219  1.00  0.00     0.010 A 
ATOM     44  C   UNL A   1      40.584  25.053  27.840  1.00  0.00    -0.014 A 
BRANCH  44  45
ATOM     45  C   UNL A   1      41.298  26.305  28.174  1.00  0.00     0.031 A 
ATOM     46  C   UNL A   1      40.544  27.386  28.895  1.00  0.00     0.074 A 
ATOM     47  C   UNL A   1      42.583  26.478  27.825  1.00  0.00     0.049 A 
ATOM     48  N   UNL A   1      40.904  28.610  29.172  1.00  0.00    -0.248 NA
ATOM     49  C   UNL A   1      39.188  27.035  29.347  1.00  0.00     0.031 C 
ATOM     50  C   UNL A   1      43.426  25.471  27.184  1.00  0.00     0.029 A 
ATOM     51  N   UNL A   1      43.398  27.573  27.950  1.00  0.00    -0.354 N 
ATOM     52  C   UNL A   1      39.812  29.188  29.811  1.00  0.00     0.074 A 
ATOM     53  C   UNL A   1      38.766  28.188  29.841  1.00  0.00     0.031 C 
ATOM     54  C   UNL A   1      44.643  25.998  26.969  1.00  0.00     0.029 A 
ATOM     55  C   UNL A   1      44.645  27.395  27.401  1.00  0.00     0.049 A 
ATOM     56  H   UNL A   1      43.117  28.408  28.390  1.00  0.00     0.167 HD
ATOM     57  C   UNL A   1      39.698  30.438  30.324  1.00  0.00     0.034 A 
ATOM     58  C   UNL A   1      45.655  28.272  27.238  1.00  0.00     0.034 A 
ATOM     59  C   UNL A   1      40.756  31.416  30.265  1.00  0.00     0.049 A 
ATOM     60  C   UNL A   1      45.467  29.695  27.708  1.00  0.00     0.074 A 
ATOM     61  C   UNL A   1      40.769  32.705  30.767  1.00  0.00     0.029 A 
ATOM     62  N   UNL A   1      41.985  31.219  29.646  1.00  0.00    -0.354 N 
ATOM     63  N   UNL A   1      44.431  30.239  28.306  1.00  0.00    -0.248 NA
ATOM     64  C   UNL A   1      46.581  30.624  27.478  1.00  0.00     0.031 C 
ATOM     65  C   UNL A   1      41.962  33.316  30.370  1.00  0.00     0.029 A 
ATOM     66  C   UNL A   1      42.743  32.378  29.713  1.00  0.00     0.049 A 
ATOM     67  H   UNL A   1      42.276  30.379  29.223  1.00  0.00     0.167 HD
ATOM     68  C   UNL A   1      44.792  31.559  28.567  1.00  0.00     0.074 A 
ATOM     69  C   UNL A   1      46.134  31.732  28.052  1.00  0.00     0.031 C 
ATOM     70  C   UNL A   1      44.083  32.534  29.194  1.00  0.00     0.034 A 
BRANCH  57  71
ATOM     71  C   UNL A   1      38.364  30.826  30.918  1.00  0.00     0.023 A 
ATOM     72  C   UNL A   1      37.334  31.381  30.138  1.00  0.00     0.031 A 
ATOM     73  C   UNL A   1      38.141  30.700  32.302  1.00  0.00     0.131 A 
ATOM     74  C   UNL A   1      36.178  31.880  30.756  1.00  0.00     0.055 A 
ATOM     75  C   UNL A   1      36.945  31.105  32.897  1.00  0.00     0.041 A 
ATOM     76  F   UNL A   1      39.094  30.203  33.106  1.00  0.00    -0.206 F 
ATOM     77  C   UNL A   1      35.964  31.720  32.127  1.00  0.00     0.022 A 
BRANCH  74  78
ATOM     78  S   UNL A   1      35.055  32.916  29.778  1.00  0.00     0.124 S 
ATOM     79  O   UNL A   1      34.138  33.408  30.804  1.00  0.00    -0.237 OA
ATOM     80  O   UNL A   1      35.960  33.903  29.202  1.00  0.00    -0.237 OA
ATOM     81  O   UNL A   1      34.465  31.978  28.825  1.00  0.00    -0.744 OA
ENDBRANCH  74  78
ENDBRANCH  57  71
BRANCH  58  82
ATOM     82  C   UNL A   1      46.925  27.843  26.589  1.00  0.00     0.023 A 
ATOM     83  C   UNL A   1      47.099  27.976  25.204  1.00  0.00     0.031 A 
ATOM     84  C   UNL A   1      47.970  27.269  27.334  1.00  0.00     0.131 A 
ATOM     85  C   UNL A   1      48.273  27.506  24.597  1.00  0.00     0.055 A 
ATOM     86  C   UNL A   1      49.162  26.856  26.734  1.00  0.00     0.041 A 
ATOM     87  F   UNL A   1      47.854  27.111  28.662  1.00  0.00    -0.206 F 
ATOM     88  C   UNL A   1      49.313  26.963  25.355  1.00  0.00     0.022 A 
BRANCH  85  89
ATOM     89  S   UNL A   1      48.383  27.534  22.789  1.00  0.00     0.124 S 
ATOM     90  O   UNL A   1      48.356  26.111  22.469  1.00  0.00    -0.237 OA
ATOM     91  O   UNL A   1      47.195  28.297  22.422  1.00  0.00    -0.237 OA
ATOM     92  O   UNL A   1      49.656  28.207  22.536  1.00  0.00    -0.744 OA
ENDBRANCH  85  89
ENDBRANCH  58  82
BRANCH  70  93
ATOM     93  C   UNL A   1      44.770  33.857  29.431  1.00  0.00     0.023 A 
ATOM     94  C   UNL A   1      44.648  34.939  28.542  1.00  0.00     0.031 A 
ATOM     95  C   UNL A   1      45.527  34.045  30.603  1.00  0.00     0.131 A 
ATOM     96  C   UNL A   1      45.295  36.152  28.827  1.00  0.00     0.055 A 
ATOM     97  C   UNL A   1      46.117  35.270  30.910  1.00  0.00     0.041 A 
ATOM     98  F   UNL A   1      45.682  33.043  31.484  1.00  0.00    -0.206 F 
ATOM     99  C   UNL A   1      46.009  36.331  30.017  1.00  0.00     0.022 A 
BRANCH  96 100
ATOM    100  S   UNL A   1      45.244  37.483  27.597  1.00  0.00     0.124 S 
ATOM    101  O   UNL A   1      45.579  38.653  28.402  1.00  0.00    -0.237 OA
ATOM    102  O   UNL A   1      46.256  37.061  26.634  1.00  0.00    -0.237 OA
ATOM    103  O   UNL A   1      43.868  37.443  27.104  1.00  0.00    -0.744 OA
ENDBRANCH  96 100
ENDBRANCH  70  93
ENDBRANCH  44  45
ENDBRANCH  37  39
ENDBRANCH  36  37
ENDBRANCH  35  36
ENDBRANCH   1  35
TORSDOF 20
ENDMDL
MODEL 3
REMARK VINA RESULT:     -13.0      4.805     10.399
REMARK SMILES CC(=O)O[C@@H]1CC[C@]23C(=O)O[C@]4(CC[C@]2(O)C1)[C@H]3CC[C@]1(C)[C@H](C(=O)OCCOCCOC(=O)c2ccc(-c3c5nc(c(-c6cc(S(=O)(=O)[O-])ccc6F)c6ccc([nH]6)c(-c6cc(S(=O)(=O)[O-])ccc6F)c6nc(c(-c7cc(S(=O)(=O)[O-])ccc7F)c7ccc3[nH]7)C=C6)C=C5)cc2)CC[C@@H]14
REMARK SMILES IDX 30 1 29 2 28 3 27 4 26 5 24 6 25 7 23 8 5 9 6 10 17 11 7 12
REMARK SMILES IDX 15 13 8 14 14 15 9 16 18 17 13 18 10 19 11 20 12 21 19 22
REMARK SMILES IDX 100 23 20 24 21 25 99 26 22 27 98 28 4 29 2 30 1 31 3 32
REMARK SMILES IDX 16 33 31 35 32 36 33 37 34 38 35 39 36 40 97 41 37 42 96 43
REMARK SMILES IDX 38 44 39 45 40 46 90 47 41 48 95 49 89 50 91 51 42 52 94 53
REMARK SMILES IDX 88 54 87 55 43 57 75 58 55 59 74 60 56 61 59 62 73 63 92 64
REMARK SMILES IDX 57 65 58 66 72 68 93 69 60 70 44 71 45 72 53 73 46 74 52 75
REMARK SMILES IDX 54 76 51 77 47 78 48 79 49 80 50 81 76 82 77 83 85 84 78 85
REMARK SMILES IDX 84 86 86 87 83 88 79 89 80 90 81 91 82 92 61 93 62 94 70 95
REMARK SMILES IDX 63 96 69 97 71 98 68 99 64 100 65 101 66 102 67 103
REMARK H PARENT 16 34 91 56 59 67
REMARK Flexibility Score: inf
ROOT
ATOM      1  C   UNL A   1      31.014  30.795  25.059  1.00  0.00     0.202 C 
ENDROOT
BRANCH   1   2
ATOM      2  O   UNL A   1      29.707  31.087  24.573  1.00  0.00    -0.374 OA
BRANCH   2   3
ATOM      3  C   UNL A   1      29.466  31.062  23.169  1.00  0.00     0.202 C 
BRANCH   3   4
ATOM      4  C   UNL A   1      28.892  29.794  22.529  1.00  0.00     0.261 C 
BRANCH   4   5
ATOM      5  O   UNL A   1      29.900  28.953  21.945  1.00  0.00    -0.463 OA
BRANCH   5   6
ATOM      6  C   UNL A   1      30.344  27.979  22.768  1.00  0.00     0.309 C 
ATOM      7  O   UNL A   1      29.697  27.522  23.711  1.00  0.00    -0.252 OA
BRANCH   6   8
ATOM      8  C   UNL A   1      31.680  27.363  22.395  1.00  0.00     0.105 C 
ATOM      9  C   UNL A   1      33.023  20.500  25.522  1.00  0.00     0.179 C 
ATOM     10  C   UNL A   1      31.869  21.423  25.752  1.00  0.00     0.047 C 
ATOM     11  C   UNL A   1      34.237  21.202  26.157  1.00  0.00     0.081 C 
ATOM     12  C   UNL A   1      32.248  22.731  25.115  1.00  0.00     0.026 C 
ATOM     13  C   UNL A   1      34.500  22.741  25.847  1.00  0.00     0.085 C 
ATOM     14  C   UNL A   1      33.318  23.798  26.053  1.00  0.00     0.103 C 
ATOM     15  C   UNL A   1      35.201  22.792  24.467  1.00  0.00     0.041 C 
ATOM     16  C   UNL A   1      32.233  24.690  25.587  1.00  0.00     0.316 C 
ATOM     17  C   UNL A   1      34.194  25.245  25.401  1.00  0.00     0.054 C 
ATOM     18  C   UNL A   1      34.873  23.960  23.538  1.00  0.00     0.052 C 
ATOM     19  O   UNL A   1      31.292  25.111  26.223  1.00  0.00    -0.251 OA
ATOM     20  O   UNL A   1      32.449  24.835  24.236  1.00  0.00    -0.458 OA
ATOM     21  C   UNL A   1      33.839  25.019  23.979  1.00  0.00     0.120 C 
ATOM     22  C   UNL A   1      33.883  26.755  25.732  1.00  0.00     0.009 C 
ATOM     23  C   UNL A   1      33.719  26.021  22.848  1.00  0.00     0.040 C 
ATOM     24  C   UNL A   1      32.905  27.546  24.789  1.00  0.00     0.008 C 
ATOM     25  C   UNL A   1      33.027  27.359  23.236  1.00  0.00    -0.013 C 
ATOM     26  C   UNL A   1      32.785  25.374  21.760  1.00  0.00     0.009 C 
ATOM     27  C   UNL A   1      33.942  28.457  22.641  1.00  0.00     0.013 C 
ATOM     28  C   UNL A   1      31.395  25.913  22.035  1.00  0.00     0.016 C 
BRANCH   9  29
ATOM     29  O   UNL A   1      33.267  20.037  24.148  1.00  0.00    -0.462 OA
BRANCH  29  30
ATOM     30  C   UNL A   1      32.979  18.786  23.675  1.00  0.00     0.302 C 
ATOM     31  C   UNL A   1      33.731  17.726  24.423  1.00  0.00     0.139 C 
ATOM     32  O   UNL A   1      32.172  18.486  22.807  1.00  0.00    -0.253 OA
ENDBRANCH  29  30
ENDBRANCH   9  29
BRANCH  13  33
ATOM     33  O   UNL A   1      35.502  23.009  26.866  1.00  0.00    -0.389 OA
ATOM     34  H   UNL A   1      35.111  22.888  27.745  1.00  0.00     0.211 HD
ENDBRANCH  13  33
ENDBRANCH   6   8
ENDBRANCH   5   6
ENDBRANCH   4   5
ENDBRANCH   3   4
ENDBRANCH   2   3
ENDBRANCH   1   2
BRANCH   1  35
ATOM     35  C   UNL A   1      31.395  31.166  26.498  1.00  0.00     0.261 C 
BRANCH  35  36
ATOM     36  O   UNL A   1      32.764  30.900  26.826  1.00  0.00    -0.460 OA
BRANCH  36  37
ATOM     37  C   UNL A   1      33.413  31.961  27.370  1.00  0.00     0.338 C 
ATOM     38  O   UNL A   1      32.938  33.049  27.646  1.00  0.00    -0.246 OA
BRANCH  37  39
ATOM     39  C   UNL A   1      34.768  31.557  27.769  1.00  0.00     0.060 A 
ATOM     40  C   UNL A   1      35.001  30.199  28.030  1.00  0.00     0.016 A 
ATOM     41  C   UNL A   1      35.764  32.511  27.979  1.00  0.00     0.016 A 
ATOM     42  C   UNL A   1      36.224  29.793  28.550  1.00  0.00     0.010 A 
ATOM     43  C   UNL A   1      36.985  32.102  28.511  1.00  0.00     0.010 A 
ATOM     44  C   UNL A   1      37.205  30.750  28.834  1.00  0.00    -0.014 A 
BRANCH  44  45
ATOM     45  C   UNL A   1      38.391  30.383  29.637  1.00  0.00     0.031 A 
ATOM     46  C   UNL A   1      39.372  29.406  29.054  1.00  0.00     0.074 A 
ATOM     47  C   UNL A   1      38.578  30.896  30.864  1.00  0.00     0.049 A 
ATOM     48  N   UNL A   1      40.404  28.829  29.610  1.00  0.00    -0.248 NA
ATOM     49  C   UNL A   1      39.140  29.016  27.655  1.00  0.00     0.031 C 
ATOM     50  C   UNL A   1      37.725  31.901  31.496  1.00  0.00     0.029 A 
ATOM     51  N   UNL A   1      39.541  30.629  31.802  1.00  0.00    -0.354 N 
ATOM     52  C   UNL A   1      40.934  27.988  28.637  1.00  0.00     0.074 A 
ATOM     53  C   UNL A   1      40.081  28.103  27.473  1.00  0.00     0.031 C 
ATOM     54  C   UNL A   1      38.204  32.164  32.724  1.00  0.00     0.029 A 
ATOM     55  C   UNL A   1      39.357  31.304  32.984  1.00  0.00     0.049 A 
ATOM     56  H   UNL A   1      40.292  30.012  31.644  1.00  0.00     0.167 HD
ATOM     57  C   UNL A   1      42.031  27.195  28.714  1.00  0.00     0.034 A 
ATOM     58  C   UNL A   1      40.026  31.210  34.150  1.00  0.00     0.034 A 
ATOM     59  C   UNL A   1      42.851  27.092  29.896  1.00  0.00     0.049 A 
ATOM     60  C   UNL A   1      41.173  30.232  34.256  1.00  0.00     0.074 A 
ATOM     61  C   UNL A   1      43.997  26.341  30.088  1.00  0.00     0.029 A 
ATOM     62  N   UNL A   1      42.599  27.746  31.096  1.00  0.00    -0.354 N 
ATOM     63  N   UNL A   1      41.666  29.434  33.336  1.00  0.00    -0.248 NA
ATOM     64  C   UNL A   1      41.849  30.139  35.556  1.00  0.00     0.031 C 
ATOM     65  C   UNL A   1      44.381  26.466  31.426  1.00  0.00     0.029 A 
ATOM     66  C   UNL A   1      43.540  27.378  32.045  1.00  0.00     0.049 A 
ATOM     67  H   UNL A   1      41.861  28.378  31.250  1.00  0.00     0.167 HD
ATOM     68  C   UNL A   1      42.742  28.782  33.935  1.00  0.00     0.074 A 
ATOM     69  C   UNL A   1      42.818  29.271  35.296  1.00  0.00     0.031 C 
ATOM     70  C   UNL A   1      43.602  27.877  33.401  1.00  0.00     0.034 A 
BRANCH  57  71
ATOM     71  C   UNL A   1      42.349  26.332  27.515  1.00  0.00     0.023 A 
ATOM     72  C   UNL A   1      41.873  25.013  27.399  1.00  0.00     0.031 A 
ATOM     73  C   UNL A   1      43.197  26.813  26.500  1.00  0.00     0.131 A 
ATOM     74  C   UNL A   1      42.328  24.194  26.355  1.00  0.00     0.055 A 
ATOM     75  C   UNL A   1      43.564  26.024  25.409  1.00  0.00     0.041 A 
ATOM     76  F   UNL A   1      43.707  28.053  26.566  1.00  0.00    -0.206 F 
ATOM     77  C   UNL A   1      43.147  24.699  25.343  1.00  0.00     0.022 A 
BRANCH  74  78
ATOM     78  S   UNL A   1      41.996  22.413  26.449  1.00  0.00     0.124 S 
ATOM     79  O   UNL A   1      40.538  22.390  26.548  1.00  0.00    -0.237 OA
ATOM     80  O   UNL A   1      42.561  21.921  25.198  1.00  0.00    -0.237 OA
ATOM     81  O   UNL A   1      42.701  21.996  27.660  1.00  0.00    -0.744 OA
ENDBRANCH  74  78
ENDBRANCH  57  71
BRANCH  58  82
ATOM     82  C   UNL A   1      39.625  32.045  35.316  1.00  0.00     0.023 A 
ATOM     83  C   UNL A   1      38.826  31.510  36.337  1.00  0.00     0.031 A 
ATOM     84  C   UNL A   1      40.007  33.395  35.417  1.00  0.00     0.131 A 
ATOM     85  C   UNL A   1      38.399  32.327  37.394  1.00  0.00     0.055 A 
ATOM     86  C   UNL A   1      39.630  34.189  36.501  1.00  0.00     0.041 A 
ATOM     87  F   UNL A   1      40.766  33.960  34.464  1.00  0.00    -0.206 F 
ATOM     88  C   UNL A   1      38.811  33.658  37.493  1.00  0.00     0.022 A 
BRANCH  85  89
ATOM     89  S   UNL A   1      37.225  31.645  38.594  1.00  0.00     0.124 S 
ATOM     90  O   UNL A   1      36.105  32.571  38.469  1.00  0.00    -0.237 OA
ATOM     91  O   UNL A   1      37.007  30.299  38.077  1.00  0.00    -0.237 OA
ATOM     92  O   UNL A   1      37.954  31.714  39.860  1.00  0.00    -0.744 OA
ENDBRANCH  85  89
ENDBRANCH  58  82
BRANCH  70  93
ATOM     93  C   UNL A   1      44.750  27.407  34.261  1.00  0.00     0.023 A 
ATOM     94  C   UNL A   1      44.661  26.269  35.080  1.00  0.00     0.031 A 
ATOM     95  C   UNL A   1      45.976  28.099  34.219  1.00  0.00     0.131 A 
ATOM     96  C   UNL A   1      45.771  25.871  35.843  1.00  0.00     0.055 A 
ATOM     97  C   UNL A   1      47.092  27.664  34.932  1.00  0.00     0.041 A 
ATOM     98  F   UNL A   1      46.115  29.197  33.458  1.00  0.00    -0.206 F 
ATOM     99  C   UNL A   1      46.992  26.547  35.756  1.00  0.00     0.022 A 
BRANCH  96 100
ATOM    100  S   UNL A   1      45.587  24.488  37.002  1.00  0.00     0.124 S 
ATOM    101  O   UNL A   1      44.427  24.900  37.785  1.00  0.00    -0.237 OA
ATOM    102  O   UNL A   1      45.382  23.353  36.108  1.00  0.00    -0.237 OA
ATOM    103  O   UNL A   1      46.855  24.479  37.730  1.00  0.00    -0.744 OA
ENDBRANCH  96 100
ENDBRANCH  70  93
ENDBRANCH  44  45
ENDBRANCH  37  39
ENDBRANCH  36  37
ENDBRANCH  35  36
ENDBRANCH   1  35
TORSDOF 20
ENDMDL
