MODEL 1
REMARK VINA RESULT:     -11.5      0.000      0.000
REMARK SMILES Cc1cc(F)c([C@H](O)[C@H]2CCCC[C@@H]2C(=O)OCCOCCOC(=O)c2ccc(-c3c4nc(c(-c5cc(S(=O)(=O)[O-])ccc5F)c5ccc([nH]5)c(-c5cc(S(=O)(=O)[O-])ccc5F)c5nc(c(-c6cc(S(=O)(=O)[O-])ccc6F)c6ccc3[nH]6)C=C5)C=C4)cc2)cc1F
REMARK SMILES IDX 21 1 20 2 19 3 18 4 17 5 15 6 16 7 14 8 9 9 10 10 11 11
REMARK SMILES IDX 13 12 12 13 7 14 6 15 1 16 2 17 3 18 90 19 4 20 89 21 91 22
REMARK SMILES IDX 5 23 8 24 22 26 23 27 24 28 25 29 26 30 27 31 88 32 28 33
REMARK SMILES IDX 87 34 29 35 30 36 31 37 81 38 32 39 86 40 80 41 82 42 33 43
REMARK SMILES IDX 85 44 79 45 78 46 34 48 66 49 46 50 65 51 47 52 50 53 64 54
REMARK SMILES IDX 83 55 48 56 49 57 63 59 84 60 51 61 35 62 36 63 44 64 37 65
REMARK SMILES IDX 43 66 45 67 42 68 38 69 39 70 40 71 41 72 67 73 68 74 76 75
REMARK SMILES IDX 69 76 75 77 77 78 74 79 70 80 71 81 72 82 73 83 52 84 53 85
REMARK SMILES IDX 61 86 54 87 60 88 62 89 59 90 55 91 56 92 57 93 58 94
REMARK H PARENT 8 25 82 47 50 58
REMARK Flexibility Score: inf
ROOT
ATOM      1  C   UNL A   1      31.496  29.599  26.036  1.00  0.00     0.202 C 
ENDROOT
BRANCH   1   2
ATOM      2  O   UNL A   1      32.425  28.521  25.985  1.00  0.00    -0.374 OA
BRANCH   2   3
ATOM      3  C   UNL A   1      32.145  27.394  26.821  1.00  0.00     0.202 C 
BRANCH   3   4
ATOM      4  C   UNL A   1      31.341  26.254  26.187  1.00  0.00     0.261 C 
BRANCH   4   5
ATOM      5  O   UNL A   1      31.618  25.000  26.847  1.00  0.00    -0.463 OA
BRANCH   5   6
ATOM      6  C   UNL A   1      32.434  24.142  26.187  1.00  0.00     0.309 C 
ATOM      7  O   UNL A   1      32.473  22.931  26.377  1.00  0.00    -0.252 OA
BRANCH   6   8
ATOM      8  C   UNL A   1      33.323  24.823  25.151  1.00  0.00     0.105 C 
ATOM      9  C   UNL A   1      33.036  24.320  23.721  1.00  0.00     0.037 C 
ATOM     10  C   UNL A   1      33.822  23.006  23.457  1.00  0.00     0.007 C 
ATOM     11  C   UNL A   1      35.317  23.107  23.761  1.00  0.00     0.000 C 
ATOM     12  C   UNL A   1      34.828  24.894  25.451  1.00  0.00     0.016 C 
ATOM     13  C   UNL A   1      35.575  23.596  25.179  1.00  0.00     0.001 C 
BRANCH   9  14
ATOM     14  C   UNL A   1      33.344  25.416  22.646  1.00  0.00     0.151 C 
BRANCH  14  15
ATOM     15  C   UNL A   1      32.373  26.584  22.632  1.00  0.00     0.019 A 
ATOM     16  C   UNL A   1      29.698  29.997  22.736  1.00  0.00     0.047 C 
ATOM     17  C   UNL A   1      30.615  28.814  22.704  1.00  0.00    -0.012 A 
ATOM     18  C   UNL A   1      31.983  28.998  22.505  1.00  0.00     0.046 A 
ATOM     19  C   UNL A   1      30.135  27.509  22.847  1.00  0.00     0.126 A 
ATOM     20  C   UNL A   1      32.834  27.895  22.445  1.00  0.00     0.129 A 
ATOM     21  C   UNL A   1      30.995  26.408  22.830  1.00  0.00     0.049 A 
ATOM     22  F   UNL A   1      28.821  27.295  23.007  1.00  0.00    -0.207 F 
ATOM     23  F   UNL A   1      34.138  28.126  22.239  1.00  0.00    -0.207 F 
ENDBRANCH  14  15
BRANCH  14  24
ATOM     24  O   UNL A   1      33.354  24.858  21.328  1.00  0.00    -0.388 OA
ATOM     25  H   UNL A   1      32.464  24.919  20.944  1.00  0.00     0.211 HD
ENDBRANCH  14  24
ENDBRANCH   9  14
ENDBRANCH   6   8
ENDBRANCH   5   6
ENDBRANCH   4   5
ENDBRANCH   3   4
ENDBRANCH   2   3
ENDBRANCH   1   2
BRANCH   1  26
ATOM     26  C   UNL A   1      32.051  30.986  26.388  1.00  0.00     0.261 C 
BRANCH  26  27
ATOM     27  O   UNL A   1      32.916  30.942  27.535  1.00  0.00    -0.460 OA
BRANCH  27  28
ATOM     28  C   UNL A   1      33.758  31.998  27.657  1.00  0.00     0.338 C 
ATOM     29  O   UNL A   1      33.449  33.180  27.618  1.00  0.00    -0.246 OA
BRANCH  28  30
ATOM     30  C   UNL A   1      35.100  31.526  28.070  1.00  0.00     0.060 A 
ATOM     31  C   UNL A   1      36.172  32.397  28.275  1.00  0.00     0.016 A 
ATOM     32  C   UNL A   1      35.269  30.147  28.259  1.00  0.00     0.016 A 
ATOM     33  C   UNL A   1      37.398  31.886  28.715  1.00  0.00     0.010 A 
ATOM     34  C   UNL A   1      36.489  29.642  28.710  1.00  0.00     0.010 A 
ATOM     35  C   UNL A   1      37.558  30.509  28.968  1.00  0.00    -0.014 A 
BRANCH  35  36
ATOM     36  C   UNL A   1      38.777  30.009  29.658  1.00  0.00     0.031 A 
ATOM     37  C   UNL A   1      39.191  30.506  31.013  1.00  0.00     0.074 A 
ATOM     38  C   UNL A   1      39.548  29.111  29.012  1.00  0.00     0.049 A 
ATOM     39  N   UNL A   1      40.175  30.094  31.768  1.00  0.00    -0.248 NA
ATOM     40  C   UNL A   1      38.414  31.613  31.589  1.00  0.00     0.031 C 
ATOM     41  C   UNL A   1      39.288  28.617  27.659  1.00  0.00     0.029 A 
ATOM     42  N   UNL A   1      40.691  28.452  29.394  1.00  0.00    -0.354 N 
ATOM     43  C   UNL A   1      40.129  30.873  32.918  1.00  0.00     0.074 A 
ATOM     44  C   UNL A   1      39.054  31.825  32.733  1.00  0.00     0.031 C 
ATOM     45  C   UNL A   1      40.215  27.703  27.342  1.00  0.00     0.029 A 
ATOM     46  C   UNL A   1      41.159  27.569  28.448  1.00  0.00     0.049 A 
ATOM     47  H   UNL A   1      41.133  28.599  30.261  1.00  0.00     0.167 HD
ATOM     48  C   UNL A   1      40.899  30.780  34.031  1.00  0.00     0.034 A 
ATOM     49  C   UNL A   1      42.220  26.734  28.466  1.00  0.00     0.034 A 
ATOM     50  C   UNL A   1      41.978  29.834  34.187  1.00  0.00     0.049 A 
ATOM     51  C   UNL A   1      43.059  26.650  29.715  1.00  0.00     0.074 A 
ATOM     52  C   UNL A   1      42.779  29.629  35.298  1.00  0.00     0.029 A 
ATOM     53  N   UNL A   1      42.418  28.945  33.215  1.00  0.00    -0.354 N 
ATOM     54  N   UNL A   1      42.923  27.301  30.845  1.00  0.00    -0.248 NA
ATOM     55  C   UNL A   1      44.182  25.701  29.706  1.00  0.00     0.031 C 
ATOM     56  C   UNL A   1      43.749  28.683  34.972  1.00  0.00     0.029 A 
ATOM     57  C   UNL A   1      43.496  28.215  33.693  1.00  0.00     0.049 A 
ATOM     58  H   UNL A   1      42.022  28.848  32.319  1.00  0.00     0.167 HD
ATOM     59  C   UNL A   1      43.913  26.814  31.694  1.00  0.00     0.074 A 
ATOM     60  C   UNL A   1      44.629  25.799  30.952  1.00  0.00     0.031 C 
ATOM     61  C   UNL A   1      44.197  27.179  32.970  1.00  0.00     0.034 A 
BRANCH  48  62
ATOM     62  C   UNL A   1      40.604  31.691  35.201  1.00  0.00     0.023 A 
ATOM     63  C   UNL A   1      39.557  31.387  36.093  1.00  0.00     0.031 A 
ATOM     64  C   UNL A   1      41.243  32.939  35.332  1.00  0.00     0.131 A 
ATOM     65  C   UNL A   1      39.150  32.334  37.041  1.00  0.00     0.055 A 
ATOM     66  C   UNL A   1      40.866  33.859  36.311  1.00  0.00     0.041 A 
ATOM     67  F   UNL A   1      42.240  33.285  34.502  1.00  0.00    -0.206 F 
ATOM     68  C   UNL A   1      39.803  33.565  37.160  1.00  0.00     0.022 A 
BRANCH  65  69
ATOM     69  S   UNL A   1      37.702  32.047  38.095  1.00  0.00     0.124 S 
ATOM     70  O   UNL A   1      37.410  30.641  37.824  1.00  0.00    -0.237 OA
ATOM     71  O   UNL A   1      38.233  32.327  39.427  1.00  0.00    -0.237 OA
ATOM     72  O   UNL A   1      36.712  32.994  37.597  1.00  0.00    -0.744 OA
ENDBRANCH  65  69
ENDBRANCH  48  62
BRANCH  49  73
ATOM     73  C   UNL A   1      42.470  25.856  27.285  1.00  0.00     0.023 A 
ATOM     74  C   UNL A   1      41.986  24.535  27.251  1.00  0.00     0.031 A 
ATOM     75  C   UNL A   1      43.293  26.284  26.230  1.00  0.00     0.131 A 
ATOM     76  C   UNL A   1      42.388  23.671  26.225  1.00  0.00     0.055 A 
ATOM     77  C   UNL A   1      43.625  25.443  25.166  1.00  0.00     0.041 A 
ATOM     78  F   UNL A   1      43.796  27.527  26.225  1.00  0.00    -0.206 F 
ATOM     79  C   UNL A   1      43.187  24.122  25.170  1.00  0.00     0.022 A 
BRANCH  76  80
ATOM     80  S   UNL A   1      42.008  21.899  26.302  1.00  0.00     0.124 S 
ATOM     81  O   UNL A   1      42.365  21.569  27.678  1.00  0.00    -0.237 OA
ATOM     82  O   UNL A   1      40.577  21.891  26.001  1.00  0.00    -0.237 OA
ATOM     83  O   UNL A   1      42.861  21.318  25.271  1.00  0.00    -0.744 OA
ENDBRANCH  76  80
ENDBRANCH  49  73
BRANCH  61  84
ATOM     84  C   UNL A   1      45.314  26.470  33.705  1.00  0.00     0.023 A 
ATOM     85  C   UNL A   1      45.004  25.426  34.600  1.00  0.00     0.031 A 
ATOM     86  C   UNL A   1      46.643  26.923  33.655  1.00  0.00     0.131 A 
ATOM     87  C   UNL A   1      45.995  24.908  35.444  1.00  0.00     0.055 A 
ATOM     88  C   UNL A   1      47.641  26.360  34.454  1.00  0.00     0.041 A 
ATOM     89  F   UNL A   1      46.993  27.926  32.833  1.00  0.00    -0.206 F 
ATOM     90  C   UNL A   1      47.314  25.361  35.366  1.00  0.00     0.022 A 
BRANCH  87  91
ATOM     91  S   UNL A   1      45.585  23.710  36.744  1.00  0.00     0.124 S 
ATOM     92  O   UNL A   1      46.860  23.577  37.445  1.00  0.00    -0.237 OA
ATOM     93  O   UNL A   1      44.538  24.409  37.484  1.00  0.00    -0.237 OA
ATOM     94  O   UNL A   1      45.151  22.526  36.010  1.00  0.00    -0.744 OA
ENDBRANCH  87  91
ENDBRANCH  61  84
ENDBRANCH  35  36
ENDBRANCH  28  30
ENDBRANCH  27  28
ENDBRANCH  26  27
ENDBRANCH   1  26
TORSDOF 20
ENDMDL
MODEL 2
REMARK VINA RESULT:     -11.4      1.740      2.071
REMARK SMILES Cc1cc(F)c([C@H](O)[C@H]2CCCC[C@@H]2C(=O)OCCOCCOC(=O)c2ccc(-c3c4nc(c(-c5cc(S(=O)(=O)[O-])ccc5F)c5ccc([nH]5)c(-c5cc(S(=O)(=O)[O-])ccc5F)c5nc(c(-c6cc(S(=O)(=O)[O-])ccc6F)c6ccc3[nH]6)C=C5)C=C4)cc2)cc1F
REMARK SMILES IDX 21 1 20 2 19 3 18 4 17 5 15 6 16 7 14 8 9 9 10 10 11 11
REMARK SMILES IDX 13 12 12 13 7 14 6 15 1 16 2 17 3 18 90 19 4 20 89 21 91 22
REMARK SMILES IDX 5 23 8 24 22 26 23 27 24 28 25 29 26 30 27 31 88 32 28 33
REMARK SMILES IDX 87 34 29 35 30 36 31 37 81 38 32 39 86 40 80 41 82 42 33 43
REMARK SMILES IDX 85 44 79 45 78 46 34 48 66 49 46 50 65 51 47 52 50 53 64 54
REMARK SMILES IDX 83 55 48 56 49 57 63 59 84 60 51 61 35 62 36 63 44 64 37 65
REMARK SMILES IDX 43 66 45 67 42 68 38 69 39 70 40 71 41 72 67 73 68 74 76 75
REMARK SMILES IDX 69 76 75 77 77 78 74 79 70 80 71 81 72 82 73 83 52 84 53 85
REMARK SMILES IDX 61 86 54 87 60 88 62 89 59 90 55 91 56 92 57 93 58 94
REMARK H PARENT 8 25 82 47 50 58
REMARK Flexibility Score: inf
ROOT
ATOM      1  C   UNL A   1      32.078  28.754  27.077  1.00  0.00     0.202 C 
ENDROOT
BRANCH   1   2
ATOM      2  O   UNL A   1      31.401  28.062  26.033  1.00  0.00    -0.374 OA
BRANCH   2   3
ATOM      3  C   UNL A   1      30.940  26.741  26.334  1.00  0.00     0.202 C 
BRANCH   3   4
ATOM      4  C   UNL A   1      32.018  25.676  26.563  1.00  0.00     0.261 C 
BRANCH   4   5
ATOM      5  O   UNL A   1      31.447  24.480  27.135  1.00  0.00    -0.463 OA
BRANCH   5   6
ATOM      6  C   UNL A   1      32.212  23.363  27.080  1.00  0.00     0.309 C 
ATOM      7  O   UNL A   1      32.328  22.551  27.992  1.00  0.00    -0.252 OA
BRANCH   6   8
ATOM      8  C   UNL A   1      32.938  23.188  25.749  1.00  0.00     0.105 C 
ATOM      9  C   UNL A   1      32.062  22.467  24.702  1.00  0.00     0.037 C 
ATOM     10  C   UNL A   1      32.160  20.930  24.901  1.00  0.00     0.007 C 
ATOM     11  C   UNL A   1      33.595  20.401  24.938  1.00  0.00     0.000 C 
ATOM     12  C   UNL A   1      34.368  22.628  25.794  1.00  0.00     0.016 C 
ATOM     13  C   UNL A   1      34.436  21.119  25.984  1.00  0.00     0.001 C 
BRANCH   9  14
ATOM     14  C   UNL A   1      32.428  22.897  23.242  1.00  0.00     0.151 C 
BRANCH  14  15
ATOM     15  C   UNL A   1      32.448  24.397  23.007  1.00  0.00     0.019 A 
ATOM     16  C   UNL A   1      32.607  28.702  22.494  1.00  0.00     0.047 C 
ATOM     17  C   UNL A   1      32.543  27.217  22.674  1.00  0.00    -0.012 A 
ATOM     18  C   UNL A   1      33.721  26.474  22.759  1.00  0.00     0.046 A 
ATOM     19  C   UNL A   1      31.324  26.536  22.737  1.00  0.00     0.126 A 
ATOM     20  C   UNL A   1      33.664  25.088  22.896  1.00  0.00     0.129 A 
ATOM     21  C   UNL A   1      31.268  25.152  22.919  1.00  0.00     0.049 A 
ATOM     22  F   UNL A   1      30.174  27.216  22.625  1.00  0.00    -0.207 F 
ATOM     23  F   UNL A   1      34.824  24.421  22.960  1.00  0.00    -0.207 F 
ENDBRANCH  14  15
BRANCH  14  24
ATOM     24  O   UNL A   1      31.517  22.332  22.294  1.00  0.00    -0.388 OA
ATOM     25  H   UNL A   1      30.902  23.018  21.988  1.00  0.00     0.211 HD
ENDBRANCH  14  24
ENDBRANCH   9  14
ENDBRANCH   6   8
ENDBRANCH   5   6
ENDBRANCH   4   5
ENDBRANCH   3   4
ENDBRANCH   2   3
ENDBRANCH   1   2
BRANCH   1  26
ATOM     26  C   UNL A   1      32.200  30.278  26.944  1.00  0.00     0.261 C 
BRANCH  26  27
ATOM     27  O   UNL A   1      33.551  30.687  26.676  1.00  0.00    -0.460 OA
BRANCH  27  28
ATOM     28  C   UNL A   1      34.086  31.532  27.593  1.00  0.00     0.338 C 
ATOM     29  O   UNL A   1      33.511  32.452  28.153  1.00  0.00    -0.246 OA
BRANCH  28  30
ATOM     30  C   UNL A   1      35.427  31.049  27.998  1.00  0.00     0.060 A 
ATOM     31  C   UNL A   1      36.505  31.912  28.200  1.00  0.00     0.016 A 
ATOM     32  C   UNL A   1      35.587  29.669  28.183  1.00  0.00     0.016 A 
ATOM     33  C   UNL A   1      37.730  31.392  28.633  1.00  0.00     0.010 A 
ATOM     34  C   UNL A   1      36.806  29.154  28.626  1.00  0.00     0.010 A 
ATOM     35  C   UNL A   1      37.882  30.013  28.882  1.00  0.00    -0.014 A 
BRANCH  35  36
ATOM     36  C   UNL A   1      39.101  29.502  29.565  1.00  0.00     0.031 A 
ATOM     37  C   UNL A   1      39.537  30.011  30.908  1.00  0.00     0.074 A 
ATOM     38  C   UNL A   1      39.851  28.585  28.922  1.00  0.00     0.049 A 
ATOM     39  N   UNL A   1      40.523  29.593  31.658  1.00  0.00    -0.248 NA
ATOM     40  C   UNL A   1      38.785  31.138  31.478  1.00  0.00     0.031 C 
ATOM     41  C   UNL A   1      39.568  28.077  27.579  1.00  0.00     0.029 A 
ATOM     42  N   UNL A   1      40.987  27.913  29.300  1.00  0.00    -0.354 N 
ATOM     43  C   UNL A   1      40.503  30.388  32.798  1.00  0.00     0.074 A 
ATOM     44  C   UNL A   1      39.441  31.354  32.612  1.00  0.00     0.031 C 
ATOM     45  C   UNL A   1      40.476  27.144  27.263  1.00  0.00     0.029 A 
ATOM     46  C   UNL A   1      41.431  27.010  28.361  1.00  0.00     0.049 A 
ATOM     47  H   UNL A   1      41.441  28.064  30.160  1.00  0.00     0.167 HD
ATOM     48  C   UNL A   1      41.284  30.298  33.904  1.00  0.00     0.034 A 
ATOM     49  C   UNL A   1      42.479  26.159  28.378  1.00  0.00     0.034 A 
ATOM     50  C   UNL A   1      42.350  29.337  34.060  1.00  0.00     0.049 A 
ATOM     51  C   UNL A   1      43.331  26.078  29.618  1.00  0.00     0.074 A 
ATOM     52  C   UNL A   1      43.160  29.133  35.165  1.00  0.00     0.029 A 
ATOM     53  N   UNL A   1      42.765  28.428  33.095  1.00  0.00    -0.354 N 
ATOM     54  N   UNL A   1      43.217  26.746  30.741  1.00  0.00    -0.248 NA
ATOM     55  C   UNL A   1      44.438  25.112  29.610  1.00  0.00     0.031 C 
ATOM     56  C   UNL A   1      44.112  28.168  34.840  1.00  0.00     0.029 A 
ATOM     57  C   UNL A   1      43.837  27.688  33.570  1.00  0.00     0.049 A 
ATOM     58  H   UNL A   1      42.357  28.326  32.204  1.00  0.00     0.167 HD
ATOM     59  C   UNL A   1      44.209  26.254  31.585  1.00  0.00     0.074 A 
ATOM     60  C   UNL A   1      44.901  25.219  30.849  1.00  0.00     0.031 C 
ATOM     61  C   UNL A   1      44.513  26.631  32.853  1.00  0.00     0.034 A 
BRANCH  48  62
ATOM     62  C   UNL A   1      41.017  31.228  35.064  1.00  0.00     0.023 A 
ATOM     63  C   UNL A   1      39.849  31.082  35.838  1.00  0.00     0.031 A 
ATOM     64  C   UNL A   1      41.826  32.357  35.294  1.00  0.00     0.131 A 
ATOM     65  C   UNL A   1      39.500  32.070  36.768  1.00  0.00     0.055 A 
ATOM     66  C   UNL A   1      41.499  33.312  36.258  1.00  0.00     0.041 A 
ATOM     67  F   UNL A   1      42.945  32.551  34.578  1.00  0.00    -0.206 F 
ATOM     68  C   UNL A   1      40.322  33.180  36.988  1.00  0.00     0.022 A 
BRANCH  65  69
ATOM     69  S   UNL A   1      37.924  32.002  37.665  1.00  0.00     0.124 S 
ATOM     70  O   UNL A   1      38.318  32.456  38.997  1.00  0.00    -0.237 OA
ATOM     71  O   UNL A   1      37.100  32.938  36.906  1.00  0.00    -0.237 OA
ATOM     72  O   UNL A   1      37.531  30.600  37.578  1.00  0.00    -0.744 OA
ENDBRANCH  65  69
ENDBRANCH  48  62
BRANCH  49  73
ATOM     73  C   UNL A   1      42.701  25.262  27.206  1.00  0.00     0.023 A 
ATOM     74  C   UNL A   1      42.169  23.959  27.181  1.00  0.00     0.031 A 
ATOM     75  C   UNL A   1      43.544  25.650  26.151  1.00  0.00     0.131 A 
ATOM     76  C   UNL A   1      42.545  23.072  26.164  1.00  0.00     0.055 A 
ATOM     77  C   UNL A   1      43.851  24.788  25.096  1.00  0.00     0.041 A 
ATOM     78  F   UNL A   1      44.093  26.874  26.137  1.00  0.00    -0.206 F 
ATOM     79  C   UNL A   1      43.364  23.484  25.110  1.00  0.00     0.022 A 
BRANCH  76  80
ATOM     80  S   UNL A   1      42.099  21.316  26.255  1.00  0.00     0.124 S 
ATOM     81  O   UNL A   1      42.308  21.019  27.669  1.00  0.00    -0.237 OA
ATOM     82  O   UNL A   1      40.705  21.342  25.815  1.00  0.00    -0.237 OA
ATOM     83  O   UNL A   1      43.028  20.676  25.330  1.00  0.00    -0.744 OA
ENDBRANCH  76  80
ENDBRANCH  49  73
BRANCH  61  84
ATOM     84  C   UNL A   1      45.627  25.915  33.585  1.00  0.00     0.023 A 
ATOM     85  C   UNL A   1      46.966  26.295  33.357  1.00  0.00     0.031 A 
ATOM     86  C   UNL A   1      45.391  24.768  34.363  1.00  0.00     0.131 A 
ATOM     87  C   UNL A   1      48.013  25.509  33.855  1.00  0.00     0.055 A 
ATOM     88  C   UNL A   1      46.438  24.023  34.909  1.00  0.00     0.041 A 
ATOM     89  F   UNL A   1      44.137  24.350  34.599  1.00  0.00    -0.206 F 
ATOM     90  C   UNL A   1      47.755  24.382  34.640  1.00  0.00     0.022 A 
BRANCH  87  91
ATOM     91  S   UNL A   1      49.738  25.856  33.409  1.00  0.00     0.124 S 
ATOM     92  O   UNL A   1      49.584  26.588  32.154  1.00  0.00    -0.237 OA
ATOM     93  O   UNL A   1      50.192  26.653  34.544  1.00  0.00    -0.237 OA
ATOM     94  O   UNL A   1      50.344  24.534  33.288  1.00  0.00    -0.744 OA
ENDBRANCH  87  91
ENDBRANCH  61  84
ENDBRANCH  35  36
ENDBRANCH  28  30
ENDBRANCH  27  28
ENDBRANCH  26  27
ENDBRANCH   1  26
TORSDOF 20
ENDMDL
MODEL 3
REMARK VINA RESULT:     -11.4      2.077      3.470
REMARK SMILES Cc1cc(F)c([C@H](O)[C@H]2CCCC[C@@H]2C(=O)OCCOCCOC(=O)c2ccc(-c3c4nc(c(-c5cc(S(=O)(=O)[O-])ccc5F)c5ccc([nH]5)c(-c5cc(S(=O)(=O)[O-])ccc5F)c5nc(c(-c6cc(S(=O)(=O)[O-])ccc6F)c6ccc3[nH]6)C=C5)C=C4)cc2)cc1F
REMARK SMILES IDX 21 1 20 2 19 3 18 4 17 5 15 6 16 7 14 8 9 9 10 10 11 11
REMARK SMILES IDX 13 12 12 13 7 14 6 15 1 16 2 17 3 18 90 19 4 20 89 21 91 22
REMARK SMILES IDX 5 23 8 24 22 26 23 27 24 28 25 29 26 30 27 31 88 32 28 33
REMARK SMILES IDX 87 34 29 35 30 36 31 37 81 38 32 39 86 40 80 41 82 42 33 43
REMARK SMILES IDX 85 44 79 45 78 46 34 48 66 49 46 50 65 51 47 52 50 53 64 54
REMARK SMILES IDX 83 55 48 56 49 57 63 59 84 60 51 61 35 62 36 63 44 64 37 65
REMARK SMILES IDX 43 66 45 67 42 68 38 69 39 70 40 71 41 72 67 73 68 74 76 75
REMARK SMILES IDX 69 76 75 77 77 78 74 79 70 80 71 81 72 82 73 83 52 84 53 85
REMARK SMILES IDX 61 86 54 87 60 88 62 89 59 90 55 91 56 92 57 93 58 94
REMARK H PARENT 8 25 82 47 50 58
REMARK Flexibility Score: inf
ROOT
ATOM      1  C   UNL A   1      31.025  29.948  25.002  1.00  0.00     0.202 C 
ENDROOT
BRANCH   1   2
ATOM      2  O   UNL A   1      30.996  29.166  23.813  1.00  0.00    -0.374 OA
BRANCH   2   3
ATOM      3  C   UNL A   1      32.250  28.943  23.161  1.00  0.00     0.202 C 
BRANCH   3   4
ATOM      4  C   UNL A   1      32.375  27.657  22.336  1.00  0.00     0.261 C 
BRANCH   4   5
ATOM      5  O   UNL A   1      32.026  26.502  23.128  1.00  0.00    -0.463 OA
BRANCH   5   6
ATOM      6  C   UNL A   1      32.968  25.532  23.221  1.00  0.00     0.309 C 
ATOM      7  O   UNL A   1      33.568  25.048  22.267  1.00  0.00    -0.252 OA
BRANCH   6   8
ATOM      8  C   UNL A   1      33.235  25.079  24.654  1.00  0.00     0.105 C 
ATOM      9  C   UNL A   1      31.929  24.862  25.446  1.00  0.00     0.037 C 
ATOM     10  C   UNL A   1      31.430  26.216  26.020  1.00  0.00     0.007 C 
ATOM     11  C   UNL A   1      32.488  26.977  26.820  1.00  0.00     0.000 C 
ATOM     12  C   UNL A   1      34.279  25.868  25.459  1.00  0.00     0.016 C 
ATOM     13  C   UNL A   1      33.763  27.187  26.015  1.00  0.00     0.001 C 
BRANCH   9  14
ATOM     14  C   UNL A   1      32.098  23.776  26.560  1.00  0.00     0.151 C 
BRANCH  14  15
ATOM     15  C   UNL A   1      32.680  22.458  26.081  1.00  0.00     0.019 A 
ATOM     16  C   UNL A   1      34.484  18.791  24.625  1.00  0.00     0.047 C 
ATOM     17  C   UNL A   1      33.855  20.056  25.121  1.00  0.00    -0.012 A 
ATOM     18  C   UNL A   1      34.591  20.935  25.917  1.00  0.00     0.046 A 
ATOM     19  C   UNL A   1      32.527  20.380  24.829  1.00  0.00     0.126 A 
ATOM     20  C   UNL A   1      33.997  22.098  26.404  1.00  0.00     0.129 A 
ATOM     21  C   UNL A   1      31.947  21.567  25.282  1.00  0.00     0.049 A 
ATOM     22  F   UNL A   1      31.783  19.541  24.095  1.00  0.00    -0.207 F 
ATOM     23  F   UNL A   1      34.744  22.901  27.175  1.00  0.00    -0.207 F 
ENDBRANCH  14  15
BRANCH  14  24
ATOM     24  O   UNL A   1      30.846  23.481  27.189  1.00  0.00    -0.388 OA
ATOM     25  H   UNL A   1      30.387  22.789  26.687  1.00  0.00     0.211 HD
ENDBRANCH  14  24
ENDBRANCH   9  14
ENDBRANCH   6   8
ENDBRANCH   5   6
ENDBRANCH   4   5
ENDBRANCH   3   4
ENDBRANCH   2   3
ENDBRANCH   1   2
BRANCH   1  26
ATOM     26  C   UNL A   1      32.404  30.371  25.528  1.00  0.00     0.261 C 
BRANCH  26  27
ATOM     27  O   UNL A   1      32.363  30.716  26.923  1.00  0.00    -0.460 OA
BRANCH  27  28
ATOM     28  C   UNL A   1      33.058  31.832  27.257  1.00  0.00     0.338 C 
ATOM     29  O   UNL A   1      32.615  32.969  27.321  1.00  0.00    -0.246 OA
BRANCH  28  30
ATOM     30  C   UNL A   1      34.401  31.457  27.756  1.00  0.00     0.060 A 
ATOM     31  C   UNL A   1      35.430  32.388  27.912  1.00  0.00     0.016 A 
ATOM     32  C   UNL A   1      34.616  30.110  28.079  1.00  0.00     0.016 A 
ATOM     33  C   UNL A   1      36.659  31.971  28.438  1.00  0.00     0.010 A 
ATOM     34  C   UNL A   1      35.838  29.700  28.615  1.00  0.00     0.010 A 
ATOM     35  C   UNL A   1      36.863  30.632  28.824  1.00  0.00    -0.014 A 
BRANCH  35  36
ATOM     36  C   UNL A   1      38.075  30.249  29.598  1.00  0.00     0.031 A 
ATOM     37  C   UNL A   1      38.332  30.760  30.986  1.00  0.00     0.074 A 
ATOM     38  C   UNL A   1      38.983  29.452  29.000  1.00  0.00     0.049 A 
ATOM     39  N   UNL A   1      39.297  30.439  31.808  1.00  0.00    -0.248 NA
ATOM     40  C   UNL A   1      37.401  31.767  31.516  1.00  0.00     0.031 C 
ATOM     41  C   UNL A   1      38.877  28.961  27.626  1.00  0.00     0.029 A 
ATOM     42  N   UNL A   1      40.159  28.910  29.459  1.00  0.00    -0.354 N 
ATOM     43  C   UNL A   1      39.084  31.185  32.961  1.00  0.00     0.074 A 
ATOM     44  C   UNL A   1      37.930  32.022  32.707  1.00  0.00     0.031 C 
ATOM     45  C   UNL A   1      39.917  28.157  27.367  1.00  0.00     0.029 A 
ATOM     46  C   UNL A   1      40.787  28.101  28.539  1.00  0.00     0.049 A 
ATOM     47  H   UNL A   1      40.518  29.085  30.358  1.00  0.00     0.167 HD
ATOM     48  C   UNL A   1      39.776  31.152  34.127  1.00  0.00     0.034 A 
ATOM     49  C   UNL A   1      41.927  27.383  28.626  1.00  0.00     0.034 A 
ATOM     50  C   UNL A   1      40.936  30.323  34.351  1.00  0.00     0.049 A 
ATOM     51  C   UNL A   1      42.677  27.363  29.933  1.00  0.00     0.074 A 
ATOM     52  C   UNL A   1      41.671  30.181  35.516  1.00  0.00     0.029 A 
ATOM     53  N   UNL A   1      41.538  29.505  33.404  1.00  0.00    -0.354 N 
ATOM     54  N   UNL A   1      42.389  27.973  31.058  1.00  0.00    -0.248 NA
ATOM     55  C   UNL A   1      43.892  26.539  29.997  1.00  0.00     0.031 C 
ATOM     56  C   UNL A   1      42.758  29.350  35.252  1.00  0.00     0.029 A 
ATOM     57  C   UNL A   1      42.651  28.884  33.952  1.00  0.00     0.049 A 
ATOM     58  H   UNL A   1      41.222  29.385  32.479  1.00  0.00     0.167 HD
ATOM     59  C   UNL A   1      43.361  27.576  31.972  1.00  0.00     0.074 A 
ATOM     60  C   UNL A   1      44.234  26.658  31.273  1.00  0.00     0.031 C 
ATOM     61  C   UNL A   1      43.510  27.943  33.270  1.00  0.00     0.034 A 
BRANCH  48  62
ATOM     62  C   UNL A   1      39.300  32.003  35.283  1.00  0.00     0.023 A 
ATOM     63  C   UNL A   1      39.816  33.300  35.469  1.00  0.00     0.031 A 
ATOM     64  C   UNL A   1      38.473  31.468  36.289  1.00  0.00     0.131 A 
ATOM     65  C   UNL A   1      39.539  33.998  36.651  1.00  0.00     0.055 A 
ATOM     66  C   UNL A   1      38.160  32.189  37.441  1.00  0.00     0.041 A 
ATOM     67  F   UNL A   1      37.962  30.233  36.166  1.00  0.00    -0.206 F 
ATOM     68  C   UNL A   1      38.707  33.453  37.635  1.00  0.00     0.022 A 
BRANCH  65  69
ATOM     69  S   UNL A   1      40.316  35.600  37.002  1.00  0.00     0.124 S 
ATOM     70  O   UNL A   1      39.652  36.471  36.035  1.00  0.00    -0.237 OA
ATOM     71  O   UNL A   1      39.946  35.820  38.397  1.00  0.00    -0.237 OA
ATOM     72  O   UNL A   1      41.733  35.364  36.753  1.00  0.00    -0.744 OA
ENDBRANCH  65  69
ENDBRANCH  48  62
BRANCH  49  73
ATOM     73  C   UNL A   1      42.355  26.561  27.456  1.00  0.00     0.023 A 
ATOM     74  C   UNL A   1      41.947  25.220  27.327  1.00  0.00     0.031 A 
ATOM     75  C   UNL A   1      43.270  27.065  26.516  1.00  0.00     0.131 A 
ATOM     76  C   UNL A   1      42.509  24.414  26.329  1.00  0.00     0.055 A 
ATOM     77  C   UNL A   1      43.765  26.280  25.474  1.00  0.00     0.041 A 
ATOM     78  F   UNL A   1      43.704  28.331  26.607  1.00  0.00    -0.206 F 
ATOM     79  C   UNL A   1      43.398  24.940  25.388  1.00  0.00     0.022 A 
BRANCH  76  80
ATOM     80  S   UNL A   1      42.215  22.623  26.308  1.00  0.00     0.124 S 
ATOM     81  O   UNL A   1      42.997  22.172  27.455  1.00  0.00    -0.237 OA
ATOM     82  O   UNL A   1      40.763  22.561  26.470  1.00  0.00    -0.237 OA
ATOM     83  O   UNL A   1      42.711  22.208  25.001  1.00  0.00    -0.744 OA
ENDBRANCH  76  80
ENDBRANCH  49  73
BRANCH  61  84
ATOM     84  C   UNL A   1      44.640  27.342  34.078  1.00  0.00     0.023 A 
ATOM     85  C   UNL A   1      44.367  26.293  34.981  1.00  0.00     0.031 A 
ATOM     86  C   UNL A   1      45.929  27.900  34.086  1.00  0.00     0.131 A 
ATOM     87  C   UNL A   1      45.351  25.874  35.886  1.00  0.00     0.055 A 
ATOM     88  C   UNL A   1      46.925  27.436  34.948  1.00  0.00     0.041 A 
ATOM     89  F   UNL A   1      46.240  28.912  33.260  1.00  0.00    -0.206 F 
ATOM     90  C   UNL A   1      46.632  26.431  35.865  1.00  0.00     0.022 A 
BRANCH  87  91
ATOM     91  S   UNL A   1      44.970  24.672  37.191  1.00  0.00     0.124 S 
ATOM     92  O   UNL A   1      44.909  23.420  36.440  1.00  0.00    -0.237 OA
ATOM     93  O   UNL A   1      46.120  24.811  38.080  1.00  0.00    -0.237 OA
ATOM     94  O   UNL A   1      43.697  25.133  37.735  1.00  0.00    -0.744 OA
ENDBRANCH  87  91
ENDBRANCH  61  84
ENDBRANCH  35  36
ENDBRANCH  28  30
ENDBRANCH  27  28
ENDBRANCH  26  27
ENDBRANCH   1  26
TORSDOF 20
ENDMDL
