MODEL 1
REMARK VINA RESULT:     -10.9      0.000      0.000
REMARK SMILES C#CC[C@@H](Cc1cccc(C)c1)C(=O)OCCOCCOC(=O)c1ccc(-c2c3nc(c(-c4cc(S(=O)(=O)[O-])ccc4F)c4ccc([nH]4)c(-c4cc(S(=O)(=O)[O-])ccc4F)c4nc(c(-c5cc(S(=O)(=O)[O-])ccc5F)c5ccc2[nH]5)C=C4)C=C3)cc1
REMARK SMILES IDX 19 1 18 2 17 3 16 4 15 5 13 6 14 7 4 8 3 9 2 10 1 11 5 12
REMARK SMILES IDX 6 13 7 14 12 15 8 16 10 17 9 18 11 19 20 20 21 21 22 22
REMARK SMILES IDX 23 23 24 24 25 25 86 26 26 27 85 28 27 29 28 30 29 31 79 32
REMARK SMILES IDX 30 33 84 34 78 35 80 36 31 37 83 38 77 39 76 40 32 42 64 43
REMARK SMILES IDX 44 44 63 45 45 46 48 47 62 48 81 49 46 50 47 51 61 53 82 54
REMARK SMILES IDX 49 55 33 56 34 57 42 58 35 59 41 60 43 61 40 62 36 63 37 64
REMARK SMILES IDX 38 65 39 66 65 67 66 68 74 69 67 70 73 71 75 72 72 73 68 74
REMARK SMILES IDX 69 75 70 76 71 77 50 78 51 79 59 80 52 81 58 82 60 83 57 84
REMARK SMILES IDX 53 85 54 86 55 87 56 88
REMARK H PARENT 80 41 48 52
REMARK Flexibility Score: inf
ROOT
ATOM      1  C   UNL A   1      32.109  31.095  26.502  1.00  0.00     0.202 C 
ENDROOT
BRANCH   1   2
ATOM      2  O   UNL A   1      31.419  30.247  25.608  1.00  0.00    -0.374 OA
BRANCH   2   3
ATOM      3  C   UNL A   1      32.114  29.045  25.283  1.00  0.00     0.202 C 
BRANCH   3   4
ATOM      4  C   UNL A   1      31.098  28.126  24.703  1.00  0.00     0.261 C 
BRANCH   4   5
ATOM      5  O   UNL A   1      31.222  26.770  25.063  1.00  0.00    -0.463 OA
BRANCH   5   6
ATOM      6  C   UNL A   1      31.770  26.584  26.292  1.00  0.00     0.310 C 
ATOM      7  O   UNL A   1      31.392  27.003  27.378  1.00  0.00    -0.252 OA
BRANCH   6   8
ATOM      8  C   UNL A   1      32.669  25.451  26.141  1.00  0.00     0.115 C 
BRANCH   8   9
ATOM      9  C   UNL A   1      31.649  24.275  26.148  1.00  0.00     0.105 C 
BRANCH   9  10
ATOM     10  C   UNL A   1      32.611  23.389  26.923  1.00  0.00    -0.106 C 
ATOM     11  C   UNL A   1      33.435  22.629  27.589  1.00  0.00     0.004 C 
ENDBRANCH   9  10
ENDBRANCH   8   9
BRANCH   8  12
ATOM     12  C   UNL A   1      33.835  25.559  25.089  1.00  0.00     0.051 C 
BRANCH  12  13
ATOM     13  C   UNL A   1      34.927  24.558  24.723  1.00  0.00    -0.047 A 
ATOM     14  C   UNL A   1      34.782  23.867  23.501  1.00  0.00     0.004 A 
ATOM     15  C   UNL A   1      36.082  24.280  25.457  1.00  0.00     0.007 A 
ATOM     16  C   UNL A   1      35.687  22.882  23.090  1.00  0.00     0.001 A 
ATOM     17  C   UNL A   1      36.957  23.226  25.099  1.00  0.00    -0.051 A 
ATOM     18  C   UNL A   1      36.757  22.541  23.903  1.00  0.00     0.003 A 
ATOM     19  C   UNL A   1      38.074  22.777  25.998  1.00  0.00     0.044 C 
ENDBRANCH  12  13
ENDBRANCH   8  12
ENDBRANCH   6   8
ENDBRANCH   5   6
ENDBRANCH   4   5
ENDBRANCH   3   4
ENDBRANCH   2   3
ENDBRANCH   1   2
BRANCH   1  20
ATOM     20  C   UNL A   1      33.233  30.400  27.294  1.00  0.00     0.261 C 
BRANCH  20  21
ATOM     21  O   UNL A   1      34.410  31.246  27.333  1.00  0.00    -0.460 OA
BRANCH  21  22
ATOM     22  C   UNL A   1      35.072  31.371  28.531  1.00  0.00     0.338 C 
ATOM     23  O   UNL A   1      34.911  32.262  29.322  1.00  0.00    -0.246 OA
BRANCH  22  24
ATOM     24  C   UNL A   1      36.073  30.256  28.673  1.00  0.00     0.060 A 
ATOM     25  C   UNL A   1      36.320  29.643  29.923  1.00  0.00     0.016 A 
ATOM     26  C   UNL A   1      36.947  30.029  27.615  1.00  0.00     0.016 A 
ATOM     27  C   UNL A   1      37.504  28.906  30.141  1.00  0.00     0.010 A 
ATOM     28  C   UNL A   1      38.149  29.404  27.866  1.00  0.00     0.010 A 
ATOM     29  C   UNL A   1      38.455  28.849  29.126  1.00  0.00    -0.014 A 
BRANCH  29  30
ATOM     30  C   UNL A   1      39.861  28.429  29.247  1.00  0.00     0.031 A 
ATOM     31  C   UNL A   1      40.169  27.030  28.948  1.00  0.00     0.074 A 
ATOM     32  C   UNL A   1      40.880  29.318  29.333  1.00  0.00     0.049 A 
ATOM     33  N   UNL A   1      41.302  26.490  29.190  1.00  0.00    -0.248 NA
ATOM     34  C   UNL A   1      39.206  26.095  28.379  1.00  0.00     0.031 C 
ATOM     35  C   UNL A   1      42.283  29.225  28.906  1.00  0.00     0.029 A 
ATOM     36  N   UNL A   1      40.820  30.572  29.881  1.00  0.00    -0.354 N 
ATOM     37  C   UNL A   1      41.345  25.300  28.515  1.00  0.00     0.074 A 
ATOM     38  C   UNL A   1      39.989  25.053  28.103  1.00  0.00     0.031 C 
ATOM     39  C   UNL A   1      42.967  30.309  29.334  1.00  0.00     0.029 A 
ATOM     40  C   UNL A   1      42.070  31.106  30.161  1.00  0.00     0.049 A 
ATOM     41  H   UNL A   1      39.975  31.045  30.061  1.00  0.00     0.167 HD
ATOM     42  C   UNL A   1      42.562  24.744  28.278  1.00  0.00     0.034 A 
ATOM     43  C   UNL A   1      42.212  31.586  31.423  1.00  0.00     0.034 A 
ATOM     44  C   UNL A   1      43.644  25.608  28.802  1.00  0.00     0.049 A 
ATOM     45  C   UNL A   1      43.003  30.459  32.142  1.00  0.00     0.074 A 
ATOM     46  C   UNL A   1      44.614  26.425  28.243  1.00  0.00     0.029 A 
ATOM     47  N   UNL A   1      43.602  25.969  30.143  1.00  0.00    -0.354 N 
ATOM     48  N   UNL A   1      43.254  29.292  31.588  1.00  0.00    -0.248 NA
ATOM     49  C   UNL A   1      43.638  30.547  33.450  1.00  0.00     0.031 C 
ATOM     50  C   UNL A   1      45.137  27.272  29.281  1.00  0.00     0.029 A 
ATOM     51  C   UNL A   1      44.494  26.966  30.472  1.00  0.00     0.049 A 
ATOM     52  H   UNL A   1      42.993  25.553  30.796  1.00  0.00     0.167 HD
ATOM     53  C   UNL A   1      44.103  28.540  32.333  1.00  0.00     0.074 A 
ATOM     54  C   UNL A   1      44.234  29.337  33.550  1.00  0.00     0.031 C 
ATOM     55  C   UNL A   1      44.633  27.351  31.880  1.00  0.00     0.034 A 
BRANCH  42  56
ATOM     56  C   UNL A   1      42.775  23.537  27.397  1.00  0.00     0.023 A 
ATOM     57  C   UNL A   1      43.742  23.609  26.382  1.00  0.00     0.031 A 
ATOM     58  C   UNL A   1      42.109  22.294  27.500  1.00  0.00     0.131 A 
ATOM     59  C   UNL A   1      43.966  22.533  25.504  1.00  0.00     0.055 A 
ATOM     60  C   UNL A   1      42.276  21.251  26.583  1.00  0.00     0.041 A 
ATOM     61  F   UNL A   1      41.327  21.982  28.539  1.00  0.00    -0.206 F 
ATOM     62  C   UNL A   1      43.215  21.364  25.575  1.00  0.00     0.022 A 
BRANCH  59  63
ATOM     63  S   UNL A   1      45.310  22.664  24.300  1.00  0.00     0.124 S 
ATOM     64  O   UNL A   1      44.675  22.184  23.078  1.00  0.00    -0.237 OA
ATOM     65  O   UNL A   1      45.629  24.087  24.347  1.00  0.00    -0.237 OA
ATOM     66  O   UNL A   1      46.342  21.785  24.849  1.00  0.00    -0.744 OA
ENDBRANCH  59  63
ENDBRANCH  42  56
BRANCH  43  67
ATOM     67  C   UNL A   1      40.902  32.332  31.820  1.00  0.00     0.023 A 
ATOM     68  C   UNL A   1      39.943  31.716  32.727  1.00  0.00     0.031 A 
ATOM     69  C   UNL A   1      40.813  33.727  31.727  1.00  0.00     0.131 A 
ATOM     70  C   UNL A   1      39.028  32.484  33.512  1.00  0.00     0.055 A 
ATOM     71  C   UNL A   1      39.912  34.477  32.513  1.00  0.00     0.041 A 
ATOM     72  F   UNL A   1      41.689  34.414  30.984  1.00  0.00    -0.206 F 
ATOM     73  C   UNL A   1      39.039  33.869  33.411  1.00  0.00     0.022 A 
BRANCH  70  74
ATOM     74  S   UNL A   1      38.010  31.849  34.931  1.00  0.00     0.124 S 
ATOM     75  O   UNL A   1      36.663  32.283  34.583  1.00  0.00    -0.237 OA
ATOM     76  O   UNL A   1      38.240  30.414  34.940  1.00  0.00    -0.237 OA
ATOM     77  O   UNL A   1      38.597  32.517  36.090  1.00  0.00    -0.744 OA
ENDBRANCH  70  74
ENDBRANCH  43  67
BRANCH  55  78
ATOM     78  C   UNL A   1      45.327  26.378  32.793  1.00  0.00     0.023 A 
ATOM     79  C   UNL A   1      44.621  25.611  33.715  1.00  0.00     0.031 A 
ATOM     80  C   UNL A   1      46.727  26.148  32.727  1.00  0.00     0.131 A 
ATOM     81  C   UNL A   1      45.246  24.536  34.357  1.00  0.00     0.055 A 
ATOM     82  C   UNL A   1      47.372  25.170  33.478  1.00  0.00     0.041 A 
ATOM     83  F   UNL A   1      47.531  26.802  31.879  1.00  0.00    -0.206 F 
ATOM     84  C   UNL A   1      46.621  24.319  34.265  1.00  0.00     0.022 A 
BRANCH  81  85
ATOM     85  S   UNL A   1      44.182  23.313  35.147  1.00  0.00     0.124 S 
ATOM     86  O   UNL A   1      45.120  22.567  35.981  1.00  0.00    -0.237 OA
ATOM     87  O   UNL A   1      43.241  24.167  35.867  1.00  0.00    -0.237 OA
ATOM     88  O   UNL A   1      43.614  22.572  34.023  1.00  0.00    -0.744 OA
ENDBRANCH  81  85
ENDBRANCH  55  78
ENDBRANCH  29  30
ENDBRANCH  22  24
ENDBRANCH  21  22
ENDBRANCH  20  21
ENDBRANCH   1  20
TORSDOF 21
ENDMDL
MODEL 2
REMARK VINA RESULT:     -10.6      2.010      2.604
REMARK SMILES C#CC[C@@H](Cc1cccc(C)c1)C(=O)OCCOCCOC(=O)c1ccc(-c2c3nc(c(-c4cc(S(=O)(=O)[O-])ccc4F)c4ccc([nH]4)c(-c4cc(S(=O)(=O)[O-])ccc4F)c4nc(c(-c5cc(S(=O)(=O)[O-])ccc5F)c5ccc2[nH]5)C=C4)C=C3)cc1
REMARK SMILES IDX 19 1 18 2 17 3 16 4 15 5 13 6 14 7 4 8 3 9 2 10 1 11 5 12
REMARK SMILES IDX 6 13 7 14 12 15 8 16 10 17 9 18 11 19 20 20 21 21 22 22
REMARK SMILES IDX 23 23 24 24 25 25 86 26 26 27 85 28 27 29 28 30 29 31 79 32
REMARK SMILES IDX 30 33 84 34 78 35 80 36 31 37 83 38 77 39 76 40 32 42 64 43
REMARK SMILES IDX 44 44 63 45 45 46 48 47 62 48 81 49 46 50 47 51 61 53 82 54
REMARK SMILES IDX 49 55 33 56 34 57 42 58 35 59 41 60 43 61 40 62 36 63 37 64
REMARK SMILES IDX 38 65 39 66 65 67 66 68 74 69 67 70 73 71 75 72 72 73 68 74
REMARK SMILES IDX 69 75 70 76 71 77 50 78 51 79 59 80 52 81 58 82 60 83 57 84
REMARK SMILES IDX 53 85 54 86 55 87 56 88
REMARK H PARENT 80 41 48 52
REMARK Flexibility Score: inf
ROOT
ATOM      1  C   UNL A   1      33.437  29.666  25.976  1.00  0.00     0.202 C 
ENDROOT
BRANCH   1   2
ATOM      2  O   UNL A   1      32.451  29.391  25.002  1.00  0.00    -0.374 OA
BRANCH   2   3
ATOM      3  C   UNL A   1      32.205  28.003  24.790  1.00  0.00     0.202 C 
BRANCH   3   4
ATOM      4  C   UNL A   1      33.014  27.618  23.602  1.00  0.00     0.261 C 
BRANCH   4   5
ATOM      5  O   UNL A   1      33.825  26.477  23.757  1.00  0.00    -0.463 OA
BRANCH   5   6
ATOM      6  C   UNL A   1      33.653  25.553  22.775  1.00  0.00     0.310 C 
ATOM      7  O   UNL A   1      33.645  25.710  21.561  1.00  0.00    -0.252 OA
BRANCH   6   8
ATOM      8  C   UNL A   1      33.887  24.269  23.416  1.00  0.00     0.115 C 
BRANCH   8   9
ATOM      9  C   UNL A   1      34.658  24.722  24.690  1.00  0.00     0.105 C 
BRANCH   9  10
ATOM     10  C   UNL A   1      35.811  23.782  24.378  1.00  0.00    -0.106 C 
ATOM     11  C   UNL A   1      36.801  22.975  24.111  1.00  0.00     0.004 C 
ENDBRANCH   9  10
ENDBRANCH   8   9
BRANCH   8  12
ATOM     12  C   UNL A   1      32.703  23.232  23.462  1.00  0.00     0.051 C 
BRANCH  12  13
ATOM     13  C   UNL A   1      32.704  21.754  23.840  1.00  0.00    -0.047 A 
ATOM     14  C   UNL A   1      33.102  21.427  25.154  1.00  0.00     0.004 A 
ATOM     15  C   UNL A   1      32.313  20.687  23.029  1.00  0.00     0.007 A 
ATOM     16  C   UNL A   1      33.200  20.102  25.595  1.00  0.00     0.001 A 
ATOM     17  C   UNL A   1      32.492  19.341  23.430  1.00  0.00    -0.051 A 
ATOM     18  C   UNL A   1      32.925  19.060  24.724  1.00  0.00     0.003 A 
ATOM     19  C   UNL A   1      32.284  18.192  22.484  1.00  0.00     0.044 C 
ENDBRANCH  12  13
ENDBRANCH   8  12
ENDBRANCH   6   8
ENDBRANCH   5   6
ENDBRANCH   4   5
ENDBRANCH   3   4
ENDBRANCH   2   3
ENDBRANCH   1   2
BRANCH   1  20
ATOM     20  C   UNL A   1      33.164  30.929  26.814  1.00  0.00     0.261 C 
BRANCH  20  21
ATOM     21  O   UNL A   1      33.987  30.920  28.008  1.00  0.00    -0.460 OA
BRANCH  21  22
ATOM     22  C   UNL A   1      35.267  31.412  27.910  1.00  0.00     0.338 C 
ATOM     23  O   UNL A   1      35.554  32.546  27.631  1.00  0.00    -0.246 OA
BRANCH  22  24
ATOM     24  C   UNL A   1      36.254  30.301  28.148  1.00  0.00     0.060 A 
ATOM     25  C   UNL A   1      36.457  29.760  29.438  1.00  0.00     0.016 A 
ATOM     26  C   UNL A   1      37.157  30.006  27.133  1.00  0.00     0.016 A 
ATOM     27  C   UNL A   1      37.627  29.029  29.736  1.00  0.00     0.010 A 
ATOM     28  C   UNL A   1      38.346  29.389  27.456  1.00  0.00     0.010 A 
ATOM     29  C   UNL A   1      38.609  28.906  28.756  1.00  0.00    -0.014 A 
BRANCH  29  30
ATOM     30  C   UNL A   1      40.007  28.485  28.945  1.00  0.00     0.031 A 
ATOM     31  C   UNL A   1      40.330  27.089  28.646  1.00  0.00     0.074 A 
ATOM     32  C   UNL A   1      41.020  29.373  29.093  1.00  0.00     0.049 A 
ATOM     33  N   UNL A   1      41.450  26.547  28.941  1.00  0.00    -0.248 NA
ATOM     34  C   UNL A   1      39.399  26.161  28.018  1.00  0.00     0.031 C 
ATOM     35  C   UNL A   1      42.442  29.285  28.738  1.00  0.00     0.029 A 
ATOM     36  N   UNL A   1      40.930  30.621  29.651  1.00  0.00    -0.354 N 
ATOM     37  C   UNL A   1      41.528  25.365  28.256  1.00  0.00     0.074 A 
ATOM     38  C   UNL A   1      40.195  25.123  27.771  1.00  0.00     0.031 C 
ATOM     39  C   UNL A   1      43.103  30.364  29.213  1.00  0.00     0.029 A 
ATOM     40  C   UNL A   1      42.164  31.152  30.001  1.00  0.00     0.049 A 
ATOM     41  H   UNL A   1      40.077  31.092  29.792  1.00  0.00     0.167 HD
ATOM     42  C   UNL A   1      42.756  24.811  28.076  1.00  0.00     0.034 A 
ATOM     43  C   UNL A   1      42.241  31.618  31.274  1.00  0.00     0.034 A 
ATOM     44  C   UNL A   1      43.809  25.669  28.665  1.00  0.00     0.049 A 
ATOM     45  C   UNL A   1      42.994  30.483  32.020  1.00  0.00     0.074 A 
ATOM     46  C   UNL A   1      44.806  26.492  28.165  1.00  0.00     0.029 A 
ATOM     47  N   UNL A   1      43.697  26.015  30.005  1.00  0.00    -0.354 N 
ATOM     48  N   UNL A   1      43.274  29.322  31.467  1.00  0.00    -0.248 NA
ATOM     49  C   UNL A   1      43.561  30.557  33.359  1.00  0.00     0.031 C 
ATOM     50  C   UNL A   1      45.274  27.328  29.238  1.00  0.00     0.029 A 
ATOM     51  C   UNL A   1      44.571  27.008  30.391  1.00  0.00     0.049 A 
ATOM     52  H   UNL A   1      43.056  25.593  30.621  1.00  0.00     0.167 HD
ATOM     53  C   UNL A   1      44.084  28.562  32.246  1.00  0.00     0.074 A 
ATOM     54  C   UNL A   1      44.151  29.346  33.477  1.00  0.00     0.031 C 
ATOM     55  C   UNL A   1      44.637  27.378  31.808  1.00  0.00     0.034 A 
BRANCH  42  56
ATOM     56  C   UNL A   1      43.015  23.614  27.194  1.00  0.00     0.023 A 
ATOM     57  C   UNL A   1      42.352  22.411  27.484  1.00  0.00     0.031 A 
ATOM     58  C   UNL A   1      43.854  23.574  26.057  1.00  0.00     0.131 A 
ATOM     59  C   UNL A   1      42.574  21.248  26.723  1.00  0.00     0.055 A 
ATOM     60  C   UNL A   1      44.134  22.402  25.345  1.00  0.00     0.041 A 
ATOM     61  F   UNL A   1      44.381  24.677  25.514  1.00  0.00    -0.206 F 
ATOM     62  C   UNL A   1      43.488  21.226  25.675  1.00  0.00     0.022 A 
BRANCH  59  63
ATOM     63  S   UNL A   1      41.592  19.774  27.090  1.00  0.00     0.124 S 
ATOM     64  O   UNL A   1      41.145  19.366  25.763  1.00  0.00    -0.237 OA
ATOM     65  O   UNL A   1      42.569  18.906  27.739  1.00  0.00    -0.237 OA
ATOM     66  O   UNL A   1      40.539  20.280  27.971  1.00  0.00    -0.744 OA
ENDBRANCH  59  63
ENDBRANCH  42  56
BRANCH  43  67
ATOM     67  C   UNL A   1      40.911  32.360  31.611  1.00  0.00     0.023 A 
ATOM     68  C   UNL A   1      39.780  31.637  32.175  1.00  0.00     0.031 A 
ATOM     69  C   UNL A   1      40.897  33.743  31.834  1.00  0.00     0.131 A 
ATOM     70  C   UNL A   1      38.770  32.281  32.955  1.00  0.00     0.055 A 
ATOM     71  C   UNL A   1      39.900  34.368  32.612  1.00  0.00     0.041 A 
ATOM     72  F   UNL A   1      41.920  34.506  31.429  1.00  0.00    -0.206 F 
ATOM     73  C   UNL A   1      38.855  33.647  33.184  1.00  0.00     0.022 A 
BRANCH  70  74
ATOM     74  S   UNL A   1      37.488  31.428  33.995  1.00  0.00     0.124 S 
ATOM     75  O   UNL A   1      36.795  30.586  33.028  1.00  0.00    -0.237 OA
ATOM     76  O   UNL A   1      38.244  30.736  35.024  1.00  0.00    -0.237 OA
ATOM     77  O   UNL A   1      36.699  32.537  34.530  1.00  0.00    -0.744 OA
ENDBRANCH  70  74
ENDBRANCH  43  67
BRANCH  55  78
ATOM     78  C   UNL A   1      45.283  26.395  32.746  1.00  0.00     0.023 A 
ATOM     79  C   UNL A   1      44.547  25.711  33.708  1.00  0.00     0.031 A 
ATOM     80  C   UNL A   1      46.663  26.071  32.664  1.00  0.00     0.131 A 
ATOM     81  C   UNL A   1      45.113  24.621  34.379  1.00  0.00     0.055 A 
ATOM     82  C   UNL A   1      47.257  25.080  33.440  1.00  0.00     0.041 A 
ATOM     83  F   UNL A   1      47.491  26.637  31.777  1.00  0.00    -0.206 F 
ATOM     84  C   UNL A   1      46.468  24.310  34.271  1.00  0.00     0.022 A 
BRANCH  81  85
ATOM     85  S   UNL A   1      43.986  23.502  35.234  1.00  0.00     0.124 S 
ATOM     86  O   UNL A   1      44.896  22.527  35.826  1.00  0.00    -0.237 OA
ATOM     87  O   UNL A   1      43.333  24.407  36.175  1.00  0.00    -0.237 OA
ATOM     88  O   UNL A   1      43.130  22.993  34.165  1.00  0.00    -0.744 OA
ENDBRANCH  81  85
ENDBRANCH  55  78
ENDBRANCH  29  30
ENDBRANCH  22  24
ENDBRANCH  21  22
ENDBRANCH  20  21
ENDBRANCH   1  20
TORSDOF 21
ENDMDL
MODEL 3
REMARK VINA RESULT:     -10.5      1.683      2.170
REMARK SMILES C#CC[C@@H](Cc1cccc(C)c1)C(=O)OCCOCCOC(=O)c1ccc(-c2c3nc(c(-c4cc(S(=O)(=O)[O-])ccc4F)c4ccc([nH]4)c(-c4cc(S(=O)(=O)[O-])ccc4F)c4nc(c(-c5cc(S(=O)(=O)[O-])ccc5F)c5ccc2[nH]5)C=C4)C=C3)cc1
REMARK SMILES IDX 19 1 18 2 17 3 16 4 15 5 13 6 14 7 4 8 3 9 2 10 1 11 5 12
REMARK SMILES IDX 6 13 7 14 12 15 8 16 10 17 9 18 11 19 20 20 21 21 22 22
REMARK SMILES IDX 23 23 24 24 25 25 86 26 26 27 85 28 27 29 28 30 29 31 79 32
REMARK SMILES IDX 30 33 84 34 78 35 80 36 31 37 83 38 77 39 76 40 32 42 64 43
REMARK SMILES IDX 44 44 63 45 45 46 48 47 62 48 81 49 46 50 47 51 61 53 82 54
REMARK SMILES IDX 49 55 33 56 34 57 42 58 35 59 41 60 43 61 40 62 36 63 37 64
REMARK SMILES IDX 38 65 39 66 65 67 66 68 74 69 67 70 73 71 75 72 72 73 68 74
REMARK SMILES IDX 69 75 70 76 71 77 50 78 51 79 59 80 52 81 58 82 60 83 57 84
REMARK SMILES IDX 53 85 54 86 55 87 56 88
REMARK H PARENT 80 41 48 52
REMARK Flexibility Score: inf
ROOT
ATOM      1  C   UNL A   1      32.893  29.950  26.613  1.00  0.00     0.202 C 
ENDROOT
BRANCH   1   2
ATOM      2  O   UNL A   1      31.859  29.990  25.650  1.00  0.00    -0.374 OA
BRANCH   2   3
ATOM      3  C   UNL A   1      32.111  29.208  24.485  1.00  0.00     0.202 C 
BRANCH   3   4
ATOM      4  C   UNL A   1      32.837  27.996  24.952  1.00  0.00     0.261 C 
BRANCH   4   5
ATOM      5  O   UNL A   1      33.962  27.625  24.190  1.00  0.00    -0.463 OA
BRANCH   5   6
ATOM      6  C   UNL A   1      33.664  27.302  22.905  1.00  0.00     0.310 C 
ATOM      7  O   UNL A   1      34.009  27.856  21.869  1.00  0.00    -0.252 OA
BRANCH   6   8
ATOM      8  C   UNL A   1      33.187  25.929  22.958  1.00  0.00     0.115 C 
BRANCH   8   9
ATOM      9  C   UNL A   1      31.974  26.011  21.987  1.00  0.00     0.105 C 
BRANCH   9  10
ATOM     10  C   UNL A   1      31.085  25.262  22.966  1.00  0.00    -0.106 C 
ATOM     11  C   UNL A   1      30.322  24.619  23.805  1.00  0.00     0.004 C 
ENDBRANCH   9  10
ENDBRANCH   8   9
BRANCH   8  12
ATOM     12  C   UNL A   1      34.248  24.768  22.898  1.00  0.00     0.051 C 
BRANCH  12  13
ATOM     13  C   UNL A   1      34.724  23.813  23.988  1.00  0.00    -0.047 A 
ATOM     14  C   UNL A   1      35.734  22.891  23.638  1.00  0.00     0.004 A 
ATOM     15  C   UNL A   1      34.290  23.780  25.314  1.00  0.00     0.007 A 
ATOM     16  C   UNL A   1      36.207  21.926  24.535  1.00  0.00     0.001 A 
ATOM     17  C   UNL A   1      34.693  22.755  26.205  1.00  0.00    -0.051 A 
ATOM     18  C   UNL A   1      35.665  21.839  25.808  1.00  0.00     0.003 A 
ATOM     19  C   UNL A   1      34.064  22.582  27.559  1.00  0.00     0.044 C 
ENDBRANCH  12  13
ENDBRANCH   8  12
ENDBRANCH   6   8
ENDBRANCH   5   6
ENDBRANCH   4   5
ENDBRANCH   3   4
ENDBRANCH   2   3
ENDBRANCH   1   2
BRANCH   1  20
ATOM     20  C   UNL A   1      33.084  31.266  27.390  1.00  0.00     0.261 C 
BRANCH  20  21
ATOM     21  O   UNL A   1      34.497  31.571  27.510  1.00  0.00    -0.460 OA
BRANCH  21  22
ATOM     22  C   UNL A   1      35.061  31.523  28.763  1.00  0.00     0.338 C 
ATOM     23  O   UNL A   1      34.807  32.275  29.666  1.00  0.00    -0.246 OA
BRANCH  22  24
ATOM     24  C   UNL A   1      36.088  30.423  28.812  1.00  0.00     0.060 A 
ATOM     25  C   UNL A   1      36.327  29.691  29.997  1.00  0.00     0.016 A 
ATOM     26  C   UNL A   1      36.987  30.327  27.755  1.00  0.00     0.016 A 
ATOM     27  C   UNL A   1      37.526  28.965  30.165  1.00  0.00     0.010 A 
ATOM     28  C   UNL A   1      38.200  29.709  27.966  1.00  0.00     0.010 A 
ATOM     29  C   UNL A   1      38.497  29.035  29.170  1.00  0.00    -0.014 A 
BRANCH  29  30
ATOM     30  C   UNL A   1      39.911  28.639  29.277  1.00  0.00     0.031 A 
ATOM     31  C   UNL A   1      40.261  27.286  28.843  1.00  0.00     0.074 A 
ATOM     32  C   UNL A   1      40.904  29.539  29.475  1.00  0.00     0.049 A 
ATOM     33  N   UNL A   1      41.403  26.751  29.053  1.00  0.00    -0.248 NA
ATOM     34  C   UNL A   1      39.334  26.392  28.161  1.00  0.00     0.031 C 
ATOM     35  C   UNL A   1      42.316  29.525  29.070  1.00  0.00     0.029 A 
ATOM     36  N   UNL A   1      40.801  30.728  30.147  1.00  0.00    -0.354 N 
ATOM     37  C   UNL A   1      41.490  25.639  28.261  1.00  0.00     0.074 A 
ATOM     38  C   UNL A   1      40.149  25.403  27.797  1.00  0.00     0.031 C 
ATOM     39  C   UNL A   1      42.964  30.575  29.622  1.00  0.00     0.029 A 
ATOM     40  C   UNL A   1      42.031  31.261  30.506  1.00  0.00     0.049 A 
ATOM     41  H   UNL A   1      39.941  31.160  30.356  1.00  0.00     0.167 HD
ATOM     42  C   UNL A   1      42.726  25.140  27.994  1.00  0.00     0.034 A 
ATOM     43  C   UNL A   1      42.137  31.612  31.814  1.00  0.00     0.034 A 
ATOM     44  C   UNL A   1      43.774  25.971  28.627  1.00  0.00     0.049 A 
ATOM     45  C   UNL A   1      42.944  30.437  32.430  1.00  0.00     0.074 A 
ATOM     46  C   UNL A   1      44.733  26.864  28.175  1.00  0.00     0.029 A 
ATOM     47  N   UNL A   1      43.697  26.191  29.996  1.00  0.00    -0.354 N 
ATOM     48  N   UNL A   1      43.235  29.339  31.765  1.00  0.00    -0.248 NA
ATOM     49  C   UNL A   1      43.551  30.406  33.753  1.00  0.00     0.031 C 
ATOM     50  C   UNL A   1      45.213  27.613  29.305  1.00  0.00     0.029 A 
ATOM     51  C   UNL A   1      44.557  27.171  30.444  1.00  0.00     0.049 A 
ATOM     52  H   UNL A   1      43.087  25.696  30.590  1.00  0.00     0.167 HD
ATOM     53  C   UNL A   1      44.090  28.535  32.447  1.00  0.00     0.074 A 
ATOM     54  C   UNL A   1      44.177  29.206  33.742  1.00  0.00     0.031 C 
ATOM     55  C   UNL A   1      44.659  27.412  31.887  1.00  0.00     0.034 A 
BRANCH  42  56
ATOM     56  C   UNL A   1      42.986  24.035  26.999  1.00  0.00     0.023 A 
ATOM     57  C   UNL A   1      42.344  22.800  27.184  1.00  0.00     0.031 A 
ATOM     58  C   UNL A   1      43.808  24.115  25.852  1.00  0.00     0.131 A 
ATOM     59  C   UNL A   1      42.570  21.718  26.313  1.00  0.00     0.055 A 
ATOM     60  C   UNL A   1      44.093  23.020  25.028  1.00  0.00     0.041 A 
ATOM     61  F   UNL A   1      44.312  25.272  25.408  1.00  0.00    -0.206 F 
ATOM     62  C   UNL A   1      43.468  21.809  25.254  1.00  0.00     0.022 A 
BRANCH  59  63
ATOM     63  S   UNL A   1      41.615  20.201  26.553  1.00  0.00     0.124 S 
ATOM     64  O   UNL A   1      40.254  20.713  26.674  1.00  0.00    -0.237 OA
ATOM     65  O   UNL A   1      41.918  19.449  25.340  1.00  0.00    -0.237 OA
ATOM     66  O   UNL A   1      42.176  19.639  27.782  1.00  0.00    -0.744 OA
ENDBRANCH  59  63
ENDBRANCH  42  56
BRANCH  43  67
ATOM     67  C   UNL A   1      40.800  32.282  32.257  1.00  0.00     0.023 A 
ATOM     68  C   UNL A   1      39.982  31.684  33.303  1.00  0.00     0.031 A 
ATOM     69  C   UNL A   1      40.574  33.647  32.040  1.00  0.00     0.131 A 
ATOM     70  C   UNL A   1      39.068  32.448  34.092  1.00  0.00     0.055 A 
ATOM     71  C   UNL A   1      39.675  34.395  32.831  1.00  0.00     0.041 A 
ATOM     72  F   UNL A   1      41.318  34.326  31.157  1.00  0.00    -0.206 F 
ATOM     73  C   UNL A   1      38.941  33.811  33.859  1.00  0.00     0.022 A 
BRANCH  70  74
ATOM     74  S   UNL A   1      38.235  31.878  35.653  1.00  0.00     0.124 S 
ATOM     75  O   UNL A   1      38.302  30.426  35.543  1.00  0.00    -0.237 OA
ATOM     76  O   UNL A   1      39.008  32.477  36.726  1.00  0.00    -0.237 OA
ATOM     77  O   UNL A   1      36.893  32.447  35.543  1.00  0.00    -0.744 OA
ENDBRANCH  70  74
ENDBRANCH  43  67
BRANCH  55  78
ATOM     78  C   UNL A   1      45.361  26.367  32.711  1.00  0.00     0.023 A 
ATOM     79  C   UNL A   1      44.677  25.586  33.636  1.00  0.00     0.031 A 
ATOM     80  C   UNL A   1      46.743  26.084  32.550  1.00  0.00     0.131 A 
ATOM     81  C   UNL A   1      45.290  24.456  34.189  1.00  0.00     0.055 A 
ATOM     82  C   UNL A   1      47.387  25.044  33.215  1.00  0.00     0.041 A 
ATOM     83  F   UNL A   1      47.525  26.745  31.687  1.00  0.00    -0.206 F 
ATOM     84  C   UNL A   1      46.646  24.187  34.005  1.00  0.00     0.022 A 
BRANCH  81  85
ATOM     85  S   UNL A   1      44.220  23.241  34.984  1.00  0.00     0.124 S 
ATOM     86  O   UNL A   1      44.596  23.359  36.389  1.00  0.00    -0.237 OA
ATOM     87  O   UNL A   1      42.895  23.750  34.641  1.00  0.00    -0.237 OA
ATOM     88  O   UNL A   1      44.589  21.983  34.339  1.00  0.00    -0.744 OA
ENDBRANCH  81  85
ENDBRANCH  55  78
ENDBRANCH  29  30
ENDBRANCH  22  24
ENDBRANCH  21  22
ENDBRANCH  20  21
ENDBRANCH   1  20
TORSDOF 21
ENDMDL
