MODEL 1
REMARK VINA RESULT:     -10.2      0.000      0.000
REMARK SMILES C[C@@H](Oc1ccc(N)cc1)C(=O)OCCOCCOC(=O)c1ccc(-c2c3nc(c(-c4cc(S(=O)(=O)[O-])ccc4F)c4ccc([nH]4)c(-c4cc(S(=O)(=O)[O-])ccc4F)c4nc(c(-c5cc(S(=O)(=O)[O-])ccc5F)c5ccc2[nH]5)C=C4)C=C3)cc1
REMARK SMILES IDX 16 1 15 2 14 3 13 4 11 5 12 6 2 7 1 8 3 9 4 10 5 11 10 12
REMARK SMILES IDX 6 13 9 14 7 15 8 16 17 19 18 20 19 21 20 22 21 23 22 24
REMARK SMILES IDX 23 25 84 26 24 27 83 28 25 29 26 30 27 31 77 32 28 33 82 34
REMARK SMILES IDX 76 35 78 36 29 37 81 38 75 39 74 40 30 42 62 43 42 44 61 45
REMARK SMILES IDX 43 46 46 47 60 48 79 49 44 50 45 51 59 53 80 54 47 55 31 56
REMARK SMILES IDX 32 57 40 58 33 59 39 60 41 61 38 62 34 63 35 64 36 65 37 66
REMARK SMILES IDX 63 67 64 68 72 69 65 70 71 71 73 72 70 73 66 74 67 75 68 76
REMARK SMILES IDX 69 77 48 78 49 79 57 80 50 81 56 82 58 83 55 84 51 85 52 86
REMARK SMILES IDX 53 87 54 88
REMARK H PARENT 8 17 8 18 78 41 46 52
REMARK Flexibility Score: inf
ROOT
ATOM      1  O   UNL A   1      34.258  21.232  24.870  1.00  0.00    -0.374 OA
ENDROOT
BRANCH   1   2
ATOM      2  C   UNL A   1      33.333  20.895  25.907  1.00  0.00     0.202 C 
BRANCH   2   3
ATOM      3  C   UNL A   1      33.397  21.749  27.176  1.00  0.00     0.261 C 
BRANCH   3   4
ATOM      4  O   UNL A   1      33.311  23.154  26.865  1.00  0.00    -0.461 OA
BRANCH   4   5
ATOM      5  C   UNL A   1      32.064  23.702  26.856  1.00  0.00     0.347 C 
ATOM      6  O   UNL A   1      31.137  23.347  27.578  1.00  0.00    -0.248 OA
BRANCH   5   7
ATOM      7  C   UNL A   1      31.932  24.839  25.841  1.00  0.00     0.279 C 
ATOM      8  C   UNL A   1      31.246  24.407  24.545  1.00  0.00     0.066 C 
BRANCH   7   9
ATOM      9  O   UNL A   1      31.198  25.901  26.464  1.00  0.00    -0.479 OA
BRANCH   9  10
ATOM     10  C   UNL A   1      31.971  27.020  26.607  1.00  0.00     0.120 A 
ATOM     11  C   UNL A   1      31.456  28.149  27.236  1.00  0.00     0.048 A 
ATOM     12  C   UNL A   1      33.289  26.999  26.164  1.00  0.00     0.048 A 
ATOM     13  C   UNL A   1      32.251  29.287  27.375  1.00  0.00     0.029 A 
ATOM     14  C   UNL A   1      34.085  28.136  26.325  1.00  0.00     0.029 A 
ATOM     15  C   UNL A   1      33.582  29.281  26.954  1.00  0.00     0.032 A 
BRANCH  15  16
ATOM     16  N   UNL A   1      34.348  30.434  27.042  1.00  0.00    -0.399 N 
ATOM     17  H   UNL A   1      33.951  31.262  27.399  1.00  0.00     0.156 HD
ATOM     18  H   UNL A   1      35.287  30.425  26.748  1.00  0.00     0.156 HD
ENDBRANCH  15  16
ENDBRANCH   9  10
ENDBRANCH   7   9
ENDBRANCH   5   7
ENDBRANCH   4   5
ENDBRANCH   3   4
ENDBRANCH   2   3
ENDBRANCH   1   2
BRANCH   1  19
ATOM     19  C   UNL A   1      35.537  20.608  24.911  1.00  0.00     0.202 C 
BRANCH  19  20
ATOM     20  C   UNL A   1      36.602  21.267  25.800  1.00  0.00     0.261 C 
BRANCH  20  21
ATOM     21  O   UNL A   1      37.852  21.485  25.121  1.00  0.00    -0.460 OA
BRANCH  21  22
ATOM     22  C   UNL A   1      38.950  21.193  25.863  1.00  0.00     0.338 C 
ATOM     23  O   UNL A   1      39.541  20.120  25.906  1.00  0.00    -0.246 OA
BRANCH  22  24
ATOM     24  C   UNL A   1      39.481  22.406  26.512  1.00  0.00     0.060 A 
ATOM     25  C   UNL A   1      38.991  23.640  26.065  1.00  0.00     0.016 A 
ATOM     26  C   UNL A   1      40.497  22.353  27.467  1.00  0.00     0.016 A 
ATOM     27  C   UNL A   1      39.547  24.827  26.536  1.00  0.00     0.010 A 
ATOM     28  C   UNL A   1      41.062  23.549  27.933  1.00  0.00     0.010 A 
ATOM     29  C   UNL A   1      40.613  24.790  27.445  1.00  0.00    -0.014 A 
BRANCH  29  30
ATOM     30  C   UNL A   1      41.347  26.043  27.758  1.00  0.00     0.031 A 
ATOM     31  C   UNL A   1      40.626  27.148  28.483  1.00  0.00     0.074 A 
ATOM     32  C   UNL A   1      42.646  26.181  27.439  1.00  0.00     0.049 A 
ATOM     33  N   UNL A   1      41.057  28.333  28.833  1.00  0.00    -0.248 NA
ATOM     34  C   UNL A   1      39.231  26.879  28.859  1.00  0.00     0.031 C 
ATOM     35  C   UNL A   1      43.464  25.164  26.778  1.00  0.00     0.029 A 
ATOM     36  N   UNL A   1      43.505  27.236  27.623  1.00  0.00    -0.354 N 
ATOM     37  C   UNL A   1      39.985  28.954  29.467  1.00  0.00     0.074 A 
ATOM     38  C   UNL A   1      38.876  28.026  29.418  1.00  0.00     0.031 C 
ATOM     39  C   UNL A   1      44.703  25.652  26.599  1.00  0.00     0.029 A 
ATOM     40  C   UNL A   1      44.758  27.025  27.097  1.00  0.00     0.049 A 
ATOM     41  H   UNL A   1      43.249  28.065  28.088  1.00  0.00     0.167 HD
ATOM     42  C   UNL A   1      39.935  30.181  30.044  1.00  0.00     0.034 A 
ATOM     43  C   UNL A   1      45.818  27.854  27.001  1.00  0.00     0.034 A 
ATOM     44  C   UNL A   1      41.048  31.100  30.077  1.00  0.00     0.049 A 
ATOM     45  C   UNL A   1      45.714  29.249  27.572  1.00  0.00     0.074 A 
ATOM     46  C   UNL A   1      41.113  32.357  30.655  1.00  0.00     0.029 A 
ATOM     47  N   UNL A   1      42.287  30.870  29.492  1.00  0.00    -0.354 N 
ATOM     48  N   UNL A   1      44.700  29.819  28.183  1.00  0.00    -0.248 NA
ATOM     49  C   UNL A   1      46.900  30.108  27.448  1.00  0.00     0.031 C 
ATOM     50  C   UNL A   1      42.361  32.914  30.355  1.00  0.00     0.029 A 
ATOM     51  C   UNL A   1      43.108  31.976  29.661  1.00  0.00     0.049 A 
ATOM     52  H   UNL A   1      42.545  30.043  29.026  1.00  0.00     0.167 HD
ATOM     53  C   UNL A   1      45.138  31.093  28.540  1.00  0.00     0.074 A 
ATOM     54  C   UNL A   1      46.509  31.202  28.086  1.00  0.00     0.031 C 
ATOM     55  C   UNL A   1      44.469  32.079  29.189  1.00  0.00     0.034 A 
BRANCH  42  56
ATOM     56  C   UNL A   1      38.614  30.616  30.632  1.00  0.00     0.023 A 
ATOM     57  C   UNL A   1      37.658  31.317  29.875  1.00  0.00     0.031 A 
ATOM     58  C   UNL A   1      38.320  30.355  31.983  1.00  0.00     0.131 A 
ATOM     59  C   UNL A   1      36.492  31.796  30.492  1.00  0.00     0.055 A 
ATOM     60  C   UNL A   1      37.121  30.765  32.570  1.00  0.00     0.041 A 
ATOM     61  F   UNL A   1      39.203  29.709  32.761  1.00  0.00    -0.206 F 
ATOM     62  C   UNL A   1      36.206  31.505  31.828  1.00  0.00     0.022 A 
BRANCH  59  63
ATOM     63  S   UNL A   1      35.425  32.934  29.565  1.00  0.00     0.124 S 
ATOM     64  O   UNL A   1      35.988  32.839  28.221  1.00  0.00    -0.237 OA
ATOM     65  O   UNL A   1      34.103  32.346  29.747  1.00  0.00    -0.237 OA
ATOM     66  O   UNL A   1      35.634  34.219  30.230  1.00  0.00    -0.744 OA
ENDBRANCH  59  63
ENDBRANCH  42  56
BRANCH  43  67
ATOM     67  C   UNL A   1      47.053  27.416  26.290  1.00  0.00     0.023 A 
ATOM     68  C   UNL A   1      47.270  27.728  24.939  1.00  0.00     0.031 A 
ATOM     69  C   UNL A   1      48.017  26.631  26.949  1.00  0.00     0.131 A 
ATOM     70  C   UNL A   1      48.404  27.223  24.279  1.00  0.00     0.055 A 
ATOM     71  C   UNL A   1      49.167  26.174  26.303  1.00  0.00     0.041 A 
ATOM     72  F   UNL A   1      47.856  26.301  28.240  1.00  0.00    -0.206 F 
ATOM     73  C   UNL A   1      49.358  26.460  24.955  1.00  0.00     0.022 A 
BRANCH  70  74
ATOM     74  S   UNL A   1      48.572  27.512  22.496  1.00  0.00     0.124 S 
ATOM     75  O   UNL A   1      47.378  28.297  22.207  1.00  0.00    -0.237 OA
ATOM     76  O   UNL A   1      49.843  28.227  22.424  1.00  0.00    -0.237 OA
ATOM     77  O   UNL A   1      48.587  26.164  21.932  1.00  0.00    -0.744 OA
ENDBRANCH  70  74
ENDBRANCH  43  67
BRANCH  55  78
ATOM     78  C   UNL A   1      45.232  33.349  29.487  1.00  0.00     0.023 A 
ATOM     79  C   UNL A   1      45.274  34.420  28.578  1.00  0.00     0.031 A 
ATOM     80  C   UNL A   1      45.927  33.485  30.702  1.00  0.00     0.131 A 
ATOM     81  C   UNL A   1      46.036  35.561  28.877  1.00  0.00     0.055 A 
ATOM     82  C   UNL A   1      46.635  34.644  31.019  1.00  0.00     0.041 A 
ATOM     83  F   UNL A   1      45.922  32.493  31.607  1.00  0.00    -0.206 F 
ATOM     84  C   UNL A   1      46.702  35.687  30.100  1.00  0.00     0.022 A 
BRANCH  81  85
ATOM     85  S   UNL A   1      46.210  36.851  27.614  1.00  0.00     0.124 S 
ATOM     86  O   UNL A   1      47.642  36.813  27.337  1.00  0.00    -0.237 OA
ATOM     87  O   UNL A   1      45.340  36.365  26.547  1.00  0.00    -0.237 OA
ATOM     88  O   UNL A   1      45.742  38.060  28.290  1.00  0.00    -0.744 OA
ENDBRANCH  81  85
ENDBRANCH  55  78
ENDBRANCH  29  30
ENDBRANCH  22  24
ENDBRANCH  21  22
ENDBRANCH  20  21
ENDBRANCH  19  20
ENDBRANCH   1  19
TORSDOF 20
ENDMDL
MODEL 2
REMARK VINA RESULT:     -10.0      1.530      7.869
REMARK SMILES C[C@@H](Oc1ccc(N)cc1)C(=O)OCCOCCOC(=O)c1ccc(-c2c3nc(c(-c4cc(S(=O)(=O)[O-])ccc4F)c4ccc([nH]4)c(-c4cc(S(=O)(=O)[O-])ccc4F)c4nc(c(-c5cc(S(=O)(=O)[O-])ccc5F)c5ccc2[nH]5)C=C4)C=C3)cc1
REMARK SMILES IDX 16 1 15 2 14 3 13 4 11 5 12 6 2 7 1 8 3 9 4 10 5 11 10 12
REMARK SMILES IDX 6 13 9 14 7 15 8 16 17 19 18 20 19 21 20 22 21 23 22 24
REMARK SMILES IDX 23 25 84 26 24 27 83 28 25 29 26 30 27 31 77 32 28 33 82 34
REMARK SMILES IDX 76 35 78 36 29 37 81 38 75 39 74 40 30 42 62 43 42 44 61 45
REMARK SMILES IDX 43 46 46 47 60 48 79 49 44 50 45 51 59 53 80 54 47 55 31 56
REMARK SMILES IDX 32 57 40 58 33 59 39 60 41 61 38 62 34 63 35 64 36 65 37 66
REMARK SMILES IDX 63 67 64 68 72 69 65 70 71 71 73 72 70 73 66 74 67 75 68 76
REMARK SMILES IDX 69 77 48 78 49 79 57 80 50 81 56 82 58 83 55 84 51 85 52 86
REMARK SMILES IDX 53 87 54 88
REMARK H PARENT 8 17 8 18 78 41 46 52
REMARK Flexibility Score: inf
ROOT
ATOM      1  O   UNL A   1      35.719  21.123  25.256  1.00  0.00    -0.374 OA
ENDROOT
BRANCH   1   2
ATOM      2  C   UNL A   1      34.309  21.100  25.488  1.00  0.00     0.202 C 
BRANCH   2   3
ATOM      3  C   UNL A   1      33.683  22.407  25.986  1.00  0.00     0.261 C 
BRANCH   3   4
ATOM      4  O   UNL A   1      32.285  22.233  26.293  1.00  0.00    -0.461 OA
BRANCH   4   5
ATOM      5  C   UNL A   1      31.530  23.365  26.360  1.00  0.00     0.347 C 
ATOM      6  O   UNL A   1      30.770  23.647  27.283  1.00  0.00    -0.248 OA
BRANCH   5   7
ATOM      7  C   UNL A   1      31.733  24.276  25.149  1.00  0.00     0.279 C 
ATOM      8  C   UNL A   1      31.315  23.623  23.832  1.00  0.00     0.066 C 
BRANCH   7   9
ATOM      9  O   UNL A   1      30.981  25.477  25.372  1.00  0.00    -0.479 OA
BRANCH   9  10
ATOM     10  C   UNL A   1      31.754  26.445  25.950  1.00  0.00     0.120 A 
ATOM     11  C   UNL A   1      31.214  27.280  26.924  1.00  0.00     0.048 A 
ATOM     12  C   UNL A   1      33.093  26.552  25.593  1.00  0.00     0.048 A 
ATOM     13  C   UNL A   1      32.009  28.267  27.506  1.00  0.00     0.029 A 
ATOM     14  C   UNL A   1      33.888  27.530  26.196  1.00  0.00     0.029 A 
ATOM     15  C   UNL A   1      33.361  28.379  27.175  1.00  0.00     0.032 A 
BRANCH  15  16
ATOM     16  N   UNL A   1      34.130  29.400  27.715  1.00  0.00    -0.399 N 
ATOM     17  H   UNL A   1      33.763  30.312  27.776  1.00  0.00     0.156 HD
ATOM     18  H   UNL A   1      35.040  29.213  28.037  1.00  0.00     0.156 HD
ENDBRANCH  15  16
ENDBRANCH   9  10
ENDBRANCH   7   9
ENDBRANCH   5   7
ENDBRANCH   4   5
ENDBRANCH   3   4
ENDBRANCH   2   3
ENDBRANCH   1   2
BRANCH   1  19
ATOM     19  C   UNL A   1      36.330  19.908  24.834  1.00  0.00     0.202 C 
BRANCH  19  20
ATOM     20  C   UNL A   1      37.859  19.825  24.945  1.00  0.00     0.261 C 
BRANCH  20  21
ATOM     21  O   UNL A   1      38.465  21.060  25.366  1.00  0.00    -0.460 OA
BRANCH  21  22
ATOM     22  C   UNL A   1      39.547  20.907  26.170  1.00  0.00     0.338 C 
ATOM     23  O   UNL A   1      40.219  19.891  26.308  1.00  0.00    -0.246 OA
BRANCH  22  24
ATOM     24  C   UNL A   1      39.949  22.198  26.757  1.00  0.00     0.060 A 
ATOM     25  C   UNL A   1      39.346  23.354  26.243  1.00  0.00     0.016 A 
ATOM     26  C   UNL A   1      40.956  22.295  27.720  1.00  0.00     0.016 A 
ATOM     27  C   UNL A   1      39.779  24.613  26.655  1.00  0.00     0.010 A 
ATOM     28  C   UNL A   1      41.395  23.563  28.127  1.00  0.00     0.010 A 
ATOM     29  C   UNL A   1      40.832  24.727  27.571  1.00  0.00    -0.014 A 
BRANCH  29  30
ATOM     30  C   UNL A   1      41.437  26.061  27.823  1.00  0.00     0.031 A 
ATOM     31  C   UNL A   1      42.844  26.323  27.358  1.00  0.00     0.074 A 
ATOM     32  C   UNL A   1      40.732  27.037  28.421  1.00  0.00     0.049 A 
ATOM     33  N   UNL A   1      43.579  27.396  27.493  1.00  0.00    -0.248 NA
ATOM     34  C   UNL A   1      43.510  25.222  26.645  1.00  0.00     0.031 C 
ATOM     35  C   UNL A   1      39.347  26.919  28.875  1.00  0.00     0.029 A 
ATOM     36  N   UNL A   1      41.087  28.321  28.755  1.00  0.00    -0.354 N 
ATOM     37  C   UNL A   1      44.798  27.101  26.888  1.00  0.00     0.074 A 
ATOM     38  C   UNL A   1      44.711  25.734  26.419  1.00  0.00     0.031 C 
ATOM     39  C   UNL A   1      38.974  28.080  29.443  1.00  0.00     0.029 A 
ATOM     40  C   UNL A   1      40.103  29.009  29.426  1.00  0.00     0.049 A 
ATOM     41  H   UNL A   1      41.963  28.713  28.535  1.00  0.00     0.167 HD
ATOM     42  C   UNL A   1      45.883  27.899  26.731  1.00  0.00     0.034 A 
ATOM     43  C   UNL A   1      40.120  30.235  29.988  1.00  0.00     0.034 A 
ATOM     44  C   UNL A   1      45.959  29.258  27.213  1.00  0.00     0.049 A 
ATOM     45  C   UNL A   1      41.370  31.076  29.879  1.00  0.00     0.074 A 
ATOM     46  C   UNL A   1      47.000  30.161  27.087  1.00  0.00     0.029 A 
ATOM     47  N   UNL A   1      44.959  29.904  27.929  1.00  0.00    -0.354 N 
ATOM     48  N   UNL A   1      42.509  30.791  29.291  1.00  0.00    -0.248 NA
ATOM     49  C   UNL A   1      41.332  32.406  30.502  1.00  0.00     0.031 C 
ATOM     50  C   UNL A   1      46.661  31.324  27.790  1.00  0.00     0.029 A 
ATOM     51  C   UNL A   1      45.376  31.179  28.286  1.00  0.00     0.049 A 
ATOM     52  H   UNL A   1      44.083  29.515  28.151  1.00  0.00     0.167 HD
ATOM     53  C   UNL A   1      43.312  31.919  29.450  1.00  0.00     0.074 A 
ATOM     54  C   UNL A   1      42.522  32.890  30.179  1.00  0.00     0.031 C 
ATOM     55  C   UNL A   1      44.584  32.134  29.027  1.00  0.00     0.034 A 
BRANCH  42  56
ATOM     56  C   UNL A   1      47.095  27.296  26.060  1.00  0.00     0.023 A 
ATOM     57  C   UNL A   1      48.038  26.535  26.774  1.00  0.00     0.031 A 
ATOM     58  C   UNL A   1      47.327  27.515  24.691  1.00  0.00     0.131 A 
ATOM     59  C   UNL A   1      49.203  26.086  26.134  1.00  0.00     0.055 A 
ATOM     60  C   UNL A   1      48.450  26.997  24.041  1.00  0.00     0.041 A 
ATOM     61  F   UNL A   1      46.474  28.251  23.962  1.00  0.00    -0.206 F 
ATOM     62  C   UNL A   1      49.405  26.292  24.767  1.00  0.00     0.022 A 
BRANCH  59  63
ATOM     63  S   UNL A   1      50.524  25.361  27.145  1.00  0.00     0.124 S 
ATOM     64  O   UNL A   1      51.484  24.947  26.124  1.00  0.00    -0.237 OA
ATOM     65  O   UNL A   1      50.930  26.482  27.985  1.00  0.00    -0.237 OA
ATOM     66  O   UNL A   1      49.859  24.265  27.844  1.00  0.00    -0.744 OA
ENDBRANCH  59  63
ENDBRANCH  42  56
BRANCH  43  67
ATOM     67  C   UNL A   1      38.939  30.726  30.755  1.00  0.00     0.023 A 
ATOM     68  C   UNL A   1      37.891  31.414  30.125  1.00  0.00     0.031 A 
ATOM     69  C   UNL A   1      38.870  30.553  32.150  1.00  0.00     0.131 A 
ATOM     70  C   UNL A   1      36.838  31.938  30.893  1.00  0.00     0.055 A 
ATOM     71  C   UNL A   1      37.797  31.032  32.903  1.00  0.00     0.041 A 
ATOM     72  F   UNL A   1      39.849  29.906  32.802  1.00  0.00    -0.206 F 
ATOM     73  C   UNL A   1      36.778  31.740  32.275  1.00  0.00     0.022 A 
BRANCH  70  74
ATOM     74  S   UNL A   1      35.582  32.956  30.069  1.00  0.00     0.124 S 
ATOM     75  O   UNL A   1      34.908  33.574  31.205  1.00  0.00    -0.237 OA
ATOM     76  O   UNL A   1      36.402  33.842  29.248  1.00  0.00    -0.237 OA
ATOM     77  O   UNL A   1      34.787  31.980  29.326  1.00  0.00    -0.744 OA
ENDBRANCH  70  74
ENDBRANCH  43  67
BRANCH  55  78
ATOM     78  C   UNL A   1      45.182  33.492  29.304  1.00  0.00     0.023 A 
ATOM     79  C   UNL A   1      45.049  34.561  28.400  1.00  0.00     0.031 A 
ATOM     80  C   UNL A   1      45.898  33.718  30.494  1.00  0.00     0.131 A 
ATOM     81  C   UNL A   1      45.664  35.792  28.678  1.00  0.00     0.055 A 
ATOM     82  C   UNL A   1      46.458  34.961  30.792  1.00  0.00     0.041 A 
ATOM     83  F   UNL A   1      46.058  32.734  31.392  1.00  0.00    -0.206 F 
ATOM     84  C   UNL A   1      46.352  36.004  29.876  1.00  0.00     0.022 A 
BRANCH  81  85
ATOM     85  S   UNL A   1      45.620  37.096  27.417  1.00  0.00     0.124 S 
ATOM     86  O   UNL A   1      44.186  37.267  27.208  1.00  0.00    -0.237 OA
ATOM     87  O   UNL A   1      46.304  38.200  28.084  1.00  0.00    -0.237 OA
ATOM     88  O   UNL A   1      46.345  36.510  26.291  1.00  0.00    -0.744 OA
ENDBRANCH  81  85
ENDBRANCH  55  78
ENDBRANCH  29  30
ENDBRANCH  22  24
ENDBRANCH  21  22
ENDBRANCH  20  21
ENDBRANCH  19  20
ENDBRANCH   1  19
TORSDOF 20
ENDMDL
MODEL 3
REMARK VINA RESULT:      -9.9      5.233      8.278
REMARK SMILES C[C@@H](Oc1ccc(N)cc1)C(=O)OCCOCCOC(=O)c1ccc(-c2c3nc(c(-c4cc(S(=O)(=O)[O-])ccc4F)c4ccc([nH]4)c(-c4cc(S(=O)(=O)[O-])ccc4F)c4nc(c(-c5cc(S(=O)(=O)[O-])ccc5F)c5ccc2[nH]5)C=C4)C=C3)cc1
REMARK SMILES IDX 16 1 15 2 14 3 13 4 11 5 12 6 2 7 1 8 3 9 4 10 5 11 10 12
REMARK SMILES IDX 6 13 9 14 7 15 8 16 17 19 18 20 19 21 20 22 21 23 22 24
REMARK SMILES IDX 23 25 84 26 24 27 83 28 25 29 26 30 27 31 77 32 28 33 82 34
REMARK SMILES IDX 76 35 78 36 29 37 81 38 75 39 74 40 30 42 62 43 42 44 61 45
REMARK SMILES IDX 43 46 46 47 60 48 79 49 44 50 45 51 59 53 80 54 47 55 31 56
REMARK SMILES IDX 32 57 40 58 33 59 39 60 41 61 38 62 34 63 35 64 36 65 37 66
REMARK SMILES IDX 63 67 64 68 72 69 65 70 71 71 73 72 70 73 66 74 67 75 68 76
REMARK SMILES IDX 69 77 48 78 49 79 57 80 50 81 56 82 58 83 55 84 51 85 52 86
REMARK SMILES IDX 53 87 54 88
REMARK H PARENT 8 17 8 18 78 41 46 52
REMARK Flexibility Score: inf
ROOT
ATOM      1  O   UNL A   1      32.658  30.461  25.651  1.00  0.00    -0.374 OA
ENDROOT
BRANCH   1   2
ATOM      2  C   UNL A   1      32.807  29.073  25.341  1.00  0.00     0.202 C 
BRANCH   2   3
ATOM      3  C   UNL A   1      33.539  28.747  24.035  1.00  0.00     0.261 C 
BRANCH   3   4
ATOM      4  O   UNL A   1      33.815  27.336  23.929  1.00  0.00    -0.461 OA
BRANCH   4   5
ATOM      5  C   UNL A   1      33.610  26.763  22.710  1.00  0.00     0.347 C 
ATOM      6  O   UNL A   1      34.050  27.196  21.649  1.00  0.00    -0.248 OA
BRANCH   5   7
ATOM      7  C   UNL A   1      32.767  25.489  22.797  1.00  0.00     0.279 C 
ATOM      8  C   UNL A   1      31.369  25.656  22.202  1.00  0.00     0.066 C 
BRANCH   7   9
ATOM      9  O   UNL A   1      33.478  24.446  22.116  1.00  0.00    -0.479 OA
BRANCH   9  10
ATOM     10  C   UNL A   1      33.959  23.519  22.998  1.00  0.00     0.120 A 
ATOM     11  C   UNL A   1      33.078  22.726  23.727  1.00  0.00     0.048 A 
ATOM     12  C   UNL A   1      35.332  23.342  23.120  1.00  0.00     0.048 A 
ATOM     13  C   UNL A   1      33.577  21.784  24.628  1.00  0.00     0.029 A 
ATOM     14  C   UNL A   1      35.825  22.383  24.009  1.00  0.00     0.029 A 
ATOM     15  C   UNL A   1      34.953  21.579  24.752  1.00  0.00     0.032 A 
BRANCH  15  16
ATOM     16  N   UNL A   1      35.443  20.683  25.691  1.00  0.00    -0.399 N 
ATOM     17  H   UNL A   1      35.730  19.784  25.410  1.00  0.00     0.156 HD
ATOM     18  H   UNL A   1      35.505  20.946  26.637  1.00  0.00     0.156 HD
ENDBRANCH  15  16
ENDBRANCH   9  10
ENDBRANCH   7   9
ENDBRANCH   5   7
ENDBRANCH   4   5
ENDBRANCH   3   4
ENDBRANCH   2   3
ENDBRANCH   1   2
BRANCH   1  19
ATOM     19  C   UNL A   1      31.501  30.842  26.388  1.00  0.00     0.202 C 
BRANCH  19  20
ATOM     20  C   UNL A   1      31.453  32.287  26.905  1.00  0.00     0.261 C 
BRANCH  20  21
ATOM     21  O   UNL A   1      32.679  33.008  26.688  1.00  0.00    -0.460 OA
BRANCH  21  22
ATOM     22  C   UNL A   1      33.222  33.540  27.811  1.00  0.00     0.338 C 
ATOM     23  O   UNL A   1      32.710  34.377  28.546  1.00  0.00    -0.246 OA
BRANCH  22  24
ATOM     24  C   UNL A   1      34.477  32.852  28.163  1.00  0.00     0.060 A 
ATOM     25  C   UNL A   1      34.388  31.505  28.538  1.00  0.00     0.016 A 
ATOM     26  C   UNL A   1      35.702  33.521  28.217  1.00  0.00     0.016 A 
ATOM     27  C   UNL A   1      35.513  30.834  29.014  1.00  0.00     0.010 A 
ATOM     28  C   UNL A   1      36.830  32.846  28.704  1.00  0.00     0.010 A 
ATOM     29  C   UNL A   1      36.733  31.510  29.136  1.00  0.00    -0.014 A 
BRANCH  29  30
ATOM     30  C   UNL A   1      37.858  30.859  29.858  1.00  0.00     0.031 A 
ATOM     31  C   UNL A   1      38.121  31.239  31.290  1.00  0.00     0.074 A 
ATOM     32  C   UNL A   1      38.608  29.916  29.261  1.00  0.00     0.049 A 
ATOM     33  N   UNL A   1      39.059  30.823  32.102  1.00  0.00    -0.248 NA
ATOM     34  C   UNL A   1      37.202  32.221  31.884  1.00  0.00     0.031 C 
ATOM     35  C   UNL A   1      38.421  29.432  27.894  1.00  0.00     0.029 A 
ATOM     36  N   UNL A   1      39.683  29.201  29.728  1.00  0.00    -0.354 N 
ATOM     37  C   UNL A   1      38.848  31.497  33.302  1.00  0.00     0.074 A 
ATOM     38  C   UNL A   1      37.715  32.374  33.095  1.00  0.00     0.031 C 
ATOM     39  C   UNL A   1      39.362  28.509  27.627  1.00  0.00     0.029 A 
ATOM     40  C   UNL A   1      40.237  28.363  28.789  1.00  0.00     0.049 A 
ATOM     41  H   UNL A   1      40.025  29.280  30.647  1.00  0.00     0.167 HD
ATOM     42  C   UNL A   1      39.531  31.385  34.470  1.00  0.00     0.034 A 
ATOM     43  C   UNL A   1      41.342  27.590  28.848  1.00  0.00     0.034 A 
ATOM     44  C   UNL A   1      40.665  30.513  34.658  1.00  0.00     0.049 A 
ATOM     45  C   UNL A   1      42.140  27.547  30.130  1.00  0.00     0.074 A 
ATOM     46  C   UNL A   1      41.414  30.307  35.804  1.00  0.00     0.029 A 
ATOM     47  N   UNL A   1      41.226  29.714  33.669  1.00  0.00    -0.354 N 
ATOM     48  N   UNL A   1      41.921  28.177  31.262  1.00  0.00    -0.248 NA
ATOM     49  C   UNL A   1      43.329  26.684  30.143  1.00  0.00     0.031 C 
ATOM     50  C   UNL A   1      42.470  29.443  35.489  1.00  0.00     0.029 A 
ATOM     51  C   UNL A   1      42.335  29.045  34.169  1.00  0.00     0.049 A 
ATOM     52  H   UNL A   1      40.887  29.634  32.749  1.00  0.00     0.167 HD
ATOM     53  C   UNL A   1      42.930  27.762  32.129  1.00  0.00     0.074 A 
ATOM     54  C   UNL A   1      43.749  26.821  31.393  1.00  0.00     0.031 C 
ATOM     55  C   UNL A   1      43.154  28.121  33.419  1.00  0.00     0.034 A 
BRANCH  42  56
ATOM     56  C   UNL A   1      39.099  32.276  35.610  1.00  0.00     0.023 A 
ATOM     57  C   UNL A   1      39.562  33.598  35.738  1.00  0.00     0.031 A 
ATOM     58  C   UNL A   1      38.237  31.783  36.606  1.00  0.00     0.131 A 
ATOM     59  C   UNL A   1      39.222  34.352  36.871  1.00  0.00     0.055 A 
ATOM     60  C   UNL A   1      37.838  32.566  37.691  1.00  0.00     0.041 A 
ATOM     61  F   UNL A   1      37.780  30.522  36.550  1.00  0.00    -0.206 F 
ATOM     62  C   UNL A   1      38.344  33.854  37.837  1.00  0.00     0.022 A 
BRANCH  59  63
ATOM     63  S   UNL A   1      40.062  35.938  37.143  1.00  0.00     0.124 S 
ATOM     64  O   UNL A   1      39.921  36.575  35.836  1.00  0.00    -0.237 OA
ATOM     65  O   UNL A   1      39.284  36.525  38.227  1.00  0.00    -0.237 OA
ATOM     66  O   UNL A   1      41.426  35.548  37.493  1.00  0.00    -0.744 OA
ENDBRANCH  59  63
ENDBRANCH  42  56
BRANCH  43  67
ATOM     67  C   UNL A   1      41.796  26.835  27.645  1.00  0.00     0.023 A 
ATOM     68  C   UNL A   1      41.712  25.436  27.584  1.00  0.00     0.031 A 
ATOM     69  C   UNL A   1      42.370  27.511  26.553  1.00  0.00     0.131 A 
ATOM     70  C   UNL A   1      42.231  24.753  26.471  1.00  0.00     0.055 A 
ATOM     71  C   UNL A   1      42.838  26.831  25.426  1.00  0.00     0.041 A 
ATOM     72  F   UNL A   1      42.478  28.849  26.562  1.00  0.00    -0.206 F 
ATOM     73  C   UNL A   1      42.781  25.442  25.387  1.00  0.00     0.022 A 
BRANCH  70  74
ATOM     74  S   UNL A   1      42.249  22.940  26.494  1.00  0.00     0.124 S 
ATOM     75  O   UNL A   1      42.293  22.624  25.071  1.00  0.00    -0.237 OA
ATOM     76  O   UNL A   1      43.465  22.658  27.252  1.00  0.00    -0.237 OA
ATOM     77  O   UNL A   1      41.001  22.595  27.172  1.00  0.00    -0.744 OA
ENDBRANCH  70  74
ENDBRANCH  43  67
BRANCH  55  78
ATOM     78  C   UNL A   1      44.309  27.455  34.129  1.00  0.00     0.023 A 
ATOM     79  C   UNL A   1      44.163  26.225  34.793  1.00  0.00     0.031 A 
ATOM     80  C   UNL A   1      45.576  28.066  34.140  1.00  0.00     0.131 A 
ATOM     81  C   UNL A   1      45.253  25.668  35.480  1.00  0.00     0.055 A 
ATOM     82  C   UNL A   1      46.670  27.480  34.776  1.00  0.00     0.041 A 
ATOM     83  F   UNL A   1      45.772  29.242  33.524  1.00  0.00    -0.206 F 
ATOM     84  C   UNL A   1      46.511  26.279  35.461  1.00  0.00     0.022 A 
BRANCH  81  85
ATOM     85  S   UNL A   1      44.991  24.169  36.468  1.00  0.00     0.124 S 
ATOM     86  O   UNL A   1      46.248  23.455  36.277  1.00  0.00    -0.237 OA
ATOM     87  O   UNL A   1      44.761  24.711  37.804  1.00  0.00    -0.237 OA
ATOM     88  O   UNL A   1      43.824  23.546  35.845  1.00  0.00    -0.744 OA
ENDBRANCH  81  85
ENDBRANCH  55  78
ENDBRANCH  29  30
ENDBRANCH  22  24
ENDBRANCH  21  22
ENDBRANCH  20  21
ENDBRANCH  19  20
ENDBRANCH   1  19
TORSDOF 20
ENDMDL
