MODEL 1
REMARK VINA RESULT:      -9.3      0.000      0.000
REMARK SMILES O=C(COc1cccc(C(=O)OCCOCCOC(=O)c2ccc(-c3c4nc(c(-c5cc(S(=O)(=O)[O-])ccc5F)c5ccc([nH]5)c(-c5cc(S(=O)(=O)[O-])ccc5F)c5nc(c(-c6cc(S(=O)(=O)[O-])ccc6F)c6ccc3[nH]6)C=C5)C=C4)cc2)c1)NCCc1cccs1
REMARK SMILES IDX 13 1 12 2 10 3 11 4 9 5 5 6 6 7 84 8 7 9 8 10 4 11 3 12 2 13
REMARK SMILES IDX 1 14 85 15 86 17 87 18 88 19 89 20 92 21 90 22 91 23 14 24
REMARK SMILES IDX 15 25 16 26 17 27 18 28 19 29 20 30 21 31 22 32 83 33 23 34
REMARK SMILES IDX 82 35 24 36 25 37 26 38 76 39 27 40 81 41 75 42 77 43 28 44
REMARK SMILES IDX 80 45 74 46 73 47 29 49 61 50 41 51 60 52 42 53 45 54 59 55
REMARK SMILES IDX 78 56 43 57 44 58 58 60 79 61 46 62 30 63 31 64 39 65 32 66
REMARK SMILES IDX 38 67 40 68 37 69 33 70 34 71 35 72 36 73 62 74 63 75 71 76
REMARK SMILES IDX 64 77 70 78 72 79 69 80 65 81 66 82 67 83 68 84 47 85 48 86
REMARK SMILES IDX 56 87 49 88 55 89 57 90 54 91 50 92 51 93 52 94 53 95
REMARK H PARENT 85 16 77 48 45 59
REMARK Flexibility Score: inf
ROOT
ATOM      1  C   UNL A   1      42.846  18.497  26.411  1.00  0.00     0.261 C 
ENDROOT
BRANCH   1   2
ATOM      2  O   UNL A   1      42.269  19.741  26.833  1.00  0.00    -0.460 OA
BRANCH   2   3
ATOM      3  C   UNL A   1      41.013  20.005  26.399  1.00  0.00     0.338 C 
ATOM      4  O   UNL A   1      40.235  19.221  25.874  1.00  0.00    -0.246 OA
BRANCH   3   5
ATOM      5  C   UNL A   1      40.631  21.379  26.813  1.00  0.00     0.063 A 
ATOM      6  C   UNL A   1      39.202  23.330  26.622  1.00  0.00     0.120 A 
ATOM      7  C   UNL A   1      40.042  24.021  27.495  1.00  0.00     0.046 A 
ATOM      8  C   UNL A   1      39.515  22.019  26.263  1.00  0.00     0.062 A 
ATOM      9  C   UNL A   1      41.159  23.389  28.048  1.00  0.00     0.005 A 
ATOM     10  C   UNL A   1      41.449  22.066  27.715  1.00  0.00     0.016 A 
BRANCH   6  11
ATOM     11  O   UNL A   1      38.147  24.032  26.100  1.00  0.00    -0.484 OA
BRANCH  11  12
ATOM     12  C   UNL A   1      36.963  23.260  25.879  1.00  0.00     0.329 C 
BRANCH  12  13
ATOM     13  C   UNL A   1      36.021  23.789  24.794  1.00  0.00     0.257 C 
ATOM     14  O   UNL A   1      36.182  23.540  23.604  1.00  0.00    -0.271 OA
ATOM     15  N   UNL A   1      35.029  24.603  25.285  1.00  0.00    -0.353 N 
ATOM     16  H   UNL A   1      34.921  24.654  26.262  1.00  0.00     0.163 HD
BRANCH  15  17
ATOM     17  C   UNL A   1      34.133  25.391  24.461  1.00  0.00     0.121 C 
BRANCH  17  18
ATOM     18  C   UNL A   1      33.670  26.677  25.141  1.00  0.00     0.068 C 
BRANCH  18  19
ATOM     19  C   UNL A   1      32.629  27.504  24.417  1.00  0.00     0.006 A 
ATOM     20  C   UNL A   1      31.380  27.838  24.911  1.00  0.00     0.015 A 
ATOM     21  S   UNL A   1      32.861  28.185  22.858  1.00  0.00    -0.149 S 
ATOM     22  C   UNL A   1      30.636  28.667  24.023  1.00  0.00     0.012 A 
ATOM     23  C   UNL A   1      31.334  28.942  22.871  1.00  0.00     0.065 A 
ENDBRANCH  18  19
ENDBRANCH  17  18
ENDBRANCH  15  17
ENDBRANCH  12  13
ENDBRANCH  11  12
ENDBRANCH   6  11
ENDBRANCH   3   5
ENDBRANCH   2   3
ENDBRANCH   1   2
BRANCH   1  24
ATOM     24  C   UNL A   1      43.668  18.681  25.131  1.00  0.00     0.202 C 
BRANCH  24  25
ATOM     25  O   UNL A   1      45.063  18.387  25.232  1.00  0.00    -0.374 OA
BRANCH  25  26
ATOM     26  C   UNL A   1      45.951  19.500  25.325  1.00  0.00     0.202 C 
BRANCH  26  27
ATOM     27  C   UNL A   1      45.466  20.831  24.739  1.00  0.00     0.261 C 
BRANCH  27  28
ATOM     28  O   UNL A   1      44.914  21.707  25.737  1.00  0.00    -0.460 OA
BRANCH  28  29
ATOM     29  C   UNL A   1      44.002  22.590  25.258  1.00  0.00     0.338 C 
ATOM     30  O   UNL A   1      43.002  22.332  24.608  1.00  0.00    -0.246 OA
BRANCH  29  31
ATOM     31  C   UNL A   1      44.289  23.937  25.782  1.00  0.00     0.060 A 
ATOM     32  C   UNL A   1      44.675  24.046  27.123  1.00  0.00     0.016 A 
ATOM     33  C   UNL A   1      44.106  25.078  25.001  1.00  0.00     0.016 A 
ATOM     34  C   UNL A   1      44.839  25.302  27.703  1.00  0.00     0.010 A 
ATOM     35  C   UNL A   1      44.264  26.337  25.589  1.00  0.00     0.010 A 
ATOM     36  C   UNL A   1      44.605  26.459  26.950  1.00  0.00    -0.014 A 
BRANCH  36  37
ATOM     37  C   UNL A   1      44.570  27.789  27.615  1.00  0.00     0.031 A 
ATOM     38  C   UNL A   1      43.265  28.284  28.182  1.00  0.00     0.074 A 
ATOM     39  C   UNL A   1      45.685  28.535  27.734  1.00  0.00     0.049 A 
ATOM     40  N   UNL A   1      42.987  29.428  28.752  1.00  0.00    -0.248 NA
ATOM     41  C   UNL A   1      42.119  27.368  28.083  1.00  0.00     0.031 C 
ATOM     42  C   UNL A   1      47.014  28.147  27.261  1.00  0.00     0.029 A 
ATOM     43  N   UNL A   1      45.877  29.777  28.287  1.00  0.00    -0.354 N 
ATOM     44  C   UNL A   1      41.634  29.375  29.070  1.00  0.00     0.074 A 
ATOM     45  C   UNL A   1      41.139  28.104  28.583  1.00  0.00     0.031 C 
ATOM     46  C   UNL A   1      47.883  29.133  27.544  1.00  0.00     0.029 A 
ATOM     47  C   UNL A   1      47.169  30.239  28.178  1.00  0.00     0.049 A 
ATOM     48  H   UNL A   1      45.157  30.289  28.720  1.00  0.00     0.167 HD
ATOM     49  C   UNL A   1      40.878  30.293  29.720  1.00  0.00     0.034 A 
ATOM     50  C   UNL A   1      47.708  31.425  28.530  1.00  0.00     0.034 A 
ATOM     51  C   UNL A   1      41.386  31.552  30.205  1.00  0.00     0.049 A 
ATOM     52  C   UNL A   1      46.826  32.464  29.186  1.00  0.00     0.074 A 
ATOM     53  C   UNL A   1      40.711  32.544  30.894  1.00  0.00     0.029 A 
ATOM     54  N   UNL A   1      42.691  32.000  30.045  1.00  0.00    -0.354 N 
ATOM     55  N   UNL A   1      45.549  32.395  29.488  1.00  0.00    -0.248 NA
ATOM     56  C   UNL A   1      47.462  33.735  29.559  1.00  0.00     0.031 C 
ATOM     57  C   UNL A   1      41.583  33.622  31.079  1.00  0.00     0.029 A 
ATOM     58  C   UNL A   1      42.830  33.267  30.591  1.00  0.00     0.049 A 
ATOM     59  H   UNL A   1      43.413  31.492  29.609  1.00  0.00     0.167 HD
ATOM     60  C   UNL A   1      45.244  33.597  30.124  1.00  0.00     0.074 A 
ATOM     61  C   UNL A   1      46.470  34.364  30.171  1.00  0.00     0.031 C 
ATOM     62  C   UNL A   1      44.059  34.025  30.631  1.00  0.00     0.034 A 
BRANCH  49  63
ATOM     63  C   UNL A   1      39.409  29.987  29.900  1.00  0.00     0.023 A 
ATOM     64  C   UNL A   1      38.420  30.582  29.097  1.00  0.00     0.031 A 
ATOM     65  C   UNL A   1      38.992  29.096  30.905  1.00  0.00     0.131 A 
ATOM     66  C   UNL A   1      37.064  30.329  29.356  1.00  0.00     0.055 A 
ATOM     67  C   UNL A   1      37.646  28.784  31.102  1.00  0.00     0.041 A 
ATOM     68  F   UNL A   1      39.888  28.518  31.722  1.00  0.00    -0.206 F 
ATOM     69  C   UNL A   1      36.671  29.412  30.333  1.00  0.00     0.022 A 
BRANCH  66  70
ATOM     70  S   UNL A   1      35.816  31.320  28.489  1.00  0.00     0.124 S 
ATOM     71  O   UNL A   1      36.649  32.313  27.812  1.00  0.00    -0.237 OA
ATOM     72  O   UNL A   1      35.172  30.335  27.629  1.00  0.00    -0.237 OA
ATOM     73  O   UNL A   1      34.986  31.846  29.569  1.00  0.00    -0.744 OA
ENDBRANCH  66  70
ENDBRANCH  49  63
BRANCH  50  74
ATOM     74  C   UNL A   1      49.142  31.724  28.242  1.00  0.00     0.023 A 
ATOM     75  C   UNL A   1      49.520  32.453  27.103  1.00  0.00     0.031 A 
ATOM     76  C   UNL A   1      50.163  31.219  29.067  1.00  0.00     0.131 A 
ATOM     77  C   UNL A   1      50.880  32.605  26.788  1.00  0.00     0.055 A 
ATOM     78  C   UNL A   1      51.515  31.429  28.784  1.00  0.00     0.041 A 
ATOM     79  F   UNL A   1      49.861  30.510  30.167  1.00  0.00    -0.206 F 
ATOM     80  C   UNL A   1      51.880  32.113  27.629  1.00  0.00     0.022 A 
BRANCH  77  81
ATOM     81  S   UNL A   1      51.324  33.359  25.197  1.00  0.00     0.124 S 
ATOM     82  O   UNL A   1      51.506  32.183  24.354  1.00  0.00    -0.237 OA
ATOM     83  O   UNL A   1      50.149  34.177  24.913  1.00  0.00    -0.237 OA
ATOM     84  O   UNL A   1      52.543  34.104  25.503  1.00  0.00    -0.744 OA
ENDBRANCH  77  81
ENDBRANCH  50  74
BRANCH  62  85
ATOM     85  C   UNL A   1      44.048  35.360  31.339  1.00  0.00     0.023 A 
ATOM     86  C   UNL A   1      44.175  35.468  32.735  1.00  0.00     0.031 A 
ATOM     87  C   UNL A   1      43.902  36.549  30.599  1.00  0.00     0.131 A 
ATOM     88  C   UNL A   1      44.091  36.727  33.351  1.00  0.00     0.055 A 
ATOM     89  C   UNL A   1      43.890  37.802  31.210  1.00  0.00     0.041 A 
ATOM     90  F   UNL A   1      43.774  36.508  29.262  1.00  0.00    -0.206 F 
ATOM     91  C   UNL A   1      43.970  37.896  32.596  1.00  0.00     0.022 A 
BRANCH  88  92
ATOM     92  S   UNL A   1      44.038  36.810  35.162  1.00  0.00     0.124 S 
ATOM     93  O   UNL A   1      42.844  36.026  35.466  1.00  0.00    -0.237 OA
ATOM     94  O   UNL A   1      45.310  36.205  35.539  1.00  0.00    -0.237 OA
ATOM     95  O   UNL A   1      43.926  38.241  35.437  1.00  0.00    -0.744 OA
ENDBRANCH  88  92
ENDBRANCH  62  85
ENDBRANCH  36  37
ENDBRANCH  29  31
ENDBRANCH  28  29
ENDBRANCH  27  28
ENDBRANCH  26  27
ENDBRANCH  25  26
ENDBRANCH  24  25
ENDBRANCH   1  24
TORSDOF 23
ENDMDL
MODEL 2
REMARK VINA RESULT:      -9.0      5.282     12.350
REMARK SMILES O=C(COc1cccc(C(=O)OCCOCCOC(=O)c2ccc(-c3c4nc(c(-c5cc(S(=O)(=O)[O-])ccc5F)c5ccc([nH]5)c(-c5cc(S(=O)(=O)[O-])ccc5F)c5nc(c(-c6cc(S(=O)(=O)[O-])ccc6F)c6ccc3[nH]6)C=C5)C=C4)cc2)c1)NCCc1cccs1
REMARK SMILES IDX 13 1 12 2 10 3 11 4 9 5 5 6 6 7 84 8 7 9 8 10 4 11 3 12 2 13
REMARK SMILES IDX 1 14 85 15 86 17 87 18 88 19 89 20 92 21 90 22 91 23 14 24
REMARK SMILES IDX 15 25 16 26 17 27 18 28 19 29 20 30 21 31 22 32 83 33 23 34
REMARK SMILES IDX 82 35 24 36 25 37 26 38 76 39 27 40 81 41 75 42 77 43 28 44
REMARK SMILES IDX 80 45 74 46 73 47 29 49 61 50 41 51 60 52 42 53 45 54 59 55
REMARK SMILES IDX 78 56 43 57 44 58 58 60 79 61 46 62 30 63 31 64 39 65 32 66
REMARK SMILES IDX 38 67 40 68 37 69 33 70 34 71 35 72 36 73 62 74 63 75 71 76
REMARK SMILES IDX 64 77 70 78 72 79 69 80 65 81 66 82 67 83 68 84 47 85 48 86
REMARK SMILES IDX 56 87 49 88 55 89 57 90 54 91 50 92 51 93 52 94 53 95
REMARK H PARENT 85 16 77 48 45 59
REMARK Flexibility Score: inf
ROOT
ATOM      1  C   UNL A   1      33.653  35.262  31.193  1.00  0.00     0.261 C 
ENDROOT
BRANCH   1   2
ATOM      2  O   UNL A   1      34.505  34.123  31.379  1.00  0.00    -0.460 OA
BRANCH   2   3
ATOM      3  C   UNL A   1      35.175  34.052  32.555  1.00  0.00     0.338 C 
ATOM      4  O   UNL A   1      34.697  33.860  33.664  1.00  0.00    -0.246 OA
BRANCH   3   5
ATOM      5  C   UNL A   1      36.636  34.071  32.288  1.00  0.00     0.063 A 
ATOM      6  C   UNL A   1      38.930  34.206  33.063  1.00  0.00     0.120 A 
ATOM      7  C   UNL A   1      39.366  34.269  31.740  1.00  0.00     0.046 A 
ATOM      8  C   UNL A   1      37.563  34.135  33.333  1.00  0.00     0.062 A 
ATOM      9  C   UNL A   1      38.445  34.206  30.691  1.00  0.00     0.005 A 
ATOM     10  C   UNL A   1      37.081  34.098  30.963  1.00  0.00     0.016 A 
BRANCH   6  11
ATOM     11  O   UNL A   1      39.894  34.307  34.032  1.00  0.00    -0.484 OA
BRANCH  11  12
ATOM     12  C   UNL A   1      39.660  35.328  35.006  1.00  0.00     0.329 C 
BRANCH  12  13
ATOM     13  C   UNL A   1      39.282  34.833  36.406  1.00  0.00     0.257 C 
ATOM     14  O   UNL A   1      39.283  35.568  37.387  1.00  0.00    -0.271 OA
ATOM     15  N   UNL A   1      39.003  33.488  36.449  1.00  0.00    -0.353 N 
ATOM     16  H   UNL A   1      38.926  33.008  35.593  1.00  0.00     0.163 HD
BRANCH  15  17
ATOM     17  C   UNL A   1      38.817  32.729  37.671  1.00  0.00     0.121 C 
BRANCH  17  18
ATOM     18  C   UNL A   1      37.347  32.521  38.028  1.00  0.00     0.068 C 
BRANCH  18  19
ATOM     19  C   UNL A   1      37.012  32.341  39.494  1.00  0.00     0.006 A 
ATOM     20  C   UNL A   1      35.930  31.636  39.991  1.00  0.00     0.015 A 
ATOM     21  S   UNL A   1      37.959  32.975  40.777  1.00  0.00    -0.149 S 
ATOM     22  C   UNL A   1      35.900  31.598  41.414  1.00  0.00     0.012 A 
ATOM     23  C   UNL A   1      36.957  32.280  41.969  1.00  0.00     0.065 A 
ENDBRANCH  18  19
ENDBRANCH  17  18
ENDBRANCH  15  17
ENDBRANCH  12  13
ENDBRANCH  11  12
ENDBRANCH   6  11
ENDBRANCH   3   5
ENDBRANCH   2   3
ENDBRANCH   1   2
BRANCH   1  24
ATOM     24  C   UNL A   1      33.205  35.378  29.732  1.00  0.00     0.202 C 
BRANCH  24  25
ATOM     25  O   UNL A   1      34.244  35.544  28.766  1.00  0.00    -0.374 OA
BRANCH  25  26
ATOM     26  C   UNL A   1      34.609  34.393  28.007  1.00  0.00     0.202 C 
BRANCH  26  27
ATOM     27  C   UNL A   1      33.616  33.225  27.989  1.00  0.00     0.261 C 
BRANCH  27  28
ATOM     28  O   UNL A   1      34.063  32.105  28.772  1.00  0.00    -0.460 OA
BRANCH  28  29
ATOM     29  C   UNL A   1      34.674  31.132  28.051  1.00  0.00     0.338 C 
ATOM     30  O   UNL A   1      34.366  30.739  26.938  1.00  0.00    -0.246 OA
BRANCH  29  31
ATOM     31  C   UNL A   1      35.907  30.705  28.737  1.00  0.00     0.060 A 
ATOM     32  C   UNL A   1      37.116  31.275  28.320  1.00  0.00     0.016 A 
ATOM     33  C   UNL A   1      35.893  29.707  29.712  1.00  0.00     0.016 A 
ATOM     34  C   UNL A   1      38.322  30.819  28.847  1.00  0.00     0.010 A 
ATOM     35  C   UNL A   1      37.106  29.247  30.231  1.00  0.00     0.010 A 
ATOM     36  C   UNL A   1      38.330  29.779  29.785  1.00  0.00    -0.014 A 
BRANCH  36  37
ATOM     37  C   UNL A   1      39.615  29.147  30.188  1.00  0.00     0.031 A 
ATOM     38  C   UNL A   1      40.320  29.654  31.419  1.00  0.00     0.074 A 
ATOM     39  C   UNL A   1      40.136  28.125  29.483  1.00  0.00     0.049 A 
ATOM     40  N   UNL A   1      41.471  29.295  31.925  1.00  0.00    -0.248 NA
ATOM     41  C   UNL A   1      39.636  30.716  32.174  1.00  0.00     0.031 C 
ATOM     42  C   UNL A   1      39.529  27.520  28.297  1.00  0.00     0.029 A 
ATOM     43  N   UNL A   1      41.298  27.414  29.662  1.00  0.00    -0.354 N 
ATOM     44  C   UNL A   1      41.656  30.092  33.050  1.00  0.00     0.074 A 
ATOM     45  C   UNL A   1      40.520  30.987  33.121  1.00  0.00     0.031 C 
ATOM     46  C   UNL A   1      40.325  26.531  27.855  1.00  0.00     0.029 A 
ATOM     47  C   UNL A   1      41.517  26.458  28.696  1.00  0.00     0.049 A 
ATOM     48  H   UNL A   1      41.917  27.575  30.410  1.00  0.00     0.167 HD
ATOM     49  C   UNL A   1      42.670  30.070  33.948  1.00  0.00     0.034 A 
ATOM     50  C   UNL A   1      42.568  25.634  28.503  1.00  0.00     0.034 A 
ATOM     51  C   UNL A   1      43.793  29.169  33.869  1.00  0.00     0.049 A 
ATOM     52  C   UNL A   1      43.725  25.680  29.476  1.00  0.00     0.074 A 
ATOM     53  C   UNL A   1      44.864  29.049  34.737  1.00  0.00     0.029 A 
ATOM     54  N   UNL A   1      43.998  28.238  32.857  1.00  0.00    -0.354 N 
ATOM     55  N   UNL A   1      43.881  26.434  30.541  1.00  0.00    -0.248 NA
ATOM     56  C   UNL A   1      44.840  24.757  29.228  1.00  0.00     0.031 C 
ATOM     57  C   UNL A   1      45.754  28.107  34.210  1.00  0.00     0.029 A 
ATOM     58  C   UNL A   1      45.194  27.568  33.063  1.00  0.00     0.049 A 
ATOM     59  H   UNL A   1      43.383  28.078  32.106  1.00  0.00     0.167 HD
ATOM     60  C   UNL A   1      45.092  26.042  31.110  1.00  0.00     0.074 A 
ATOM     61  C   UNL A   1      45.616  24.980  30.277  1.00  0.00     0.031 C 
ATOM     62  C   UNL A   1      45.710  26.511  32.224  1.00  0.00     0.034 A 
BRANCH  49  63
ATOM     63  C   UNL A   1      42.635  31.084  35.068  1.00  0.00     0.023 A 
ATOM     64  C   UNL A   1      42.943  32.439  34.857  1.00  0.00     0.031 A 
ATOM     65  C   UNL A   1      42.300  30.682  36.374  1.00  0.00     0.131 A 
ATOM     66  C   UNL A   1      42.974  33.327  35.943  1.00  0.00     0.055 A 
ATOM     67  C   UNL A   1      42.251  31.587  37.435  1.00  0.00     0.041 A 
ATOM     68  F   UNL A   1      42.023  29.396  36.643  1.00  0.00    -0.206 F 
ATOM     69  C   UNL A   1      42.603  32.917  37.225  1.00  0.00     0.022 A 
BRANCH  66  70
ATOM     70  S   UNL A   1      43.642  34.994  35.682  1.00  0.00     0.124 S 
ATOM     71  O   UNL A   1      43.464  35.158  34.241  1.00  0.00    -0.237 OA
ATOM     72  O   UNL A   1      42.784  35.813  36.530  1.00  0.00    -0.237 OA
ATOM     73  O   UNL A   1      45.031  34.879  36.122  1.00  0.00    -0.744 OA
ENDBRANCH  66  70
ENDBRANCH  49  63
BRANCH  50  74
ATOM     74  C   UNL A   1      42.609  24.716  27.325  1.00  0.00     0.023 A 
ATOM     75  C   UNL A   1      42.050  23.430  27.383  1.00  0.00     0.031 A 
ATOM     76  C   UNL A   1      43.277  25.089  26.145  1.00  0.00     0.131 A 
ATOM     77  C   UNL A   1      42.219  22.543  26.308  1.00  0.00     0.055 A 
ATOM     78  C   UNL A   1      43.387  24.226  25.053  1.00  0.00     0.041 A 
ATOM     79  F   UNL A   1      43.836  26.305  26.035  1.00  0.00    -0.206 F 
ATOM     80  C   UNL A   1      42.870  22.937  25.137  1.00  0.00     0.022 A 
BRANCH  77  81
ATOM     81  S   UNL A   1      41.676  20.822  26.508  1.00  0.00     0.124 S 
ATOM     82  O   UNL A   1      40.227  20.958  26.414  1.00  0.00    -0.237 OA
ATOM     83  O   UNL A   1      42.334  20.166  25.383  1.00  0.00    -0.237 OA
ATOM     84  O   UNL A   1      42.186  20.456  27.828  1.00  0.00    -0.744 OA
ENDBRANCH  77  81
ENDBRANCH  50  74
BRANCH  62  85
ATOM     85  C   UNL A   1      46.994  25.833  32.643  1.00  0.00     0.023 A 
ATOM     86  C   UNL A   1      47.015  24.779  33.574  1.00  0.00     0.031 A 
ATOM     87  C   UNL A   1      48.223  26.256  32.102  1.00  0.00     0.131 A 
ATOM     88  C   UNL A   1      48.241  24.228  33.980  1.00  0.00     0.055 A 
ATOM     89  C   UNL A   1      49.431  25.658  32.457  1.00  0.00     0.041 A 
ATOM     90  F   UNL A   1      48.266  27.261  31.210  1.00  0.00    -0.206 F 
ATOM     91  C   UNL A   1      49.446  24.647  33.413  1.00  0.00     0.022 A 
BRANCH  88  92
ATOM     92  S   UNL A   1      48.248  23.027  35.339  1.00  0.00     0.124 S 
ATOM     93  O   UNL A   1      46.911  23.196  35.900  1.00  0.00    -0.237 OA
ATOM     94  O   UNL A   1      48.492  21.769  34.641  1.00  0.00    -0.237 OA
ATOM     95  O   UNL A   1      49.342  23.483  36.194  1.00  0.00    -0.744 OA
ENDBRANCH  88  92
ENDBRANCH  62  85
ENDBRANCH  36  37
ENDBRANCH  29  31
ENDBRANCH  28  29
ENDBRANCH  27  28
ENDBRANCH  26  27
ENDBRANCH  25  26
ENDBRANCH  24  25
ENDBRANCH   1  24
TORSDOF 23
ENDMDL
MODEL 3
REMARK VINA RESULT:      -9.0      3.240      8.729
REMARK SMILES O=C(COc1cccc(C(=O)OCCOCCOC(=O)c2ccc(-c3c4nc(c(-c5cc(S(=O)(=O)[O-])ccc5F)c5ccc([nH]5)c(-c5cc(S(=O)(=O)[O-])ccc5F)c5nc(c(-c6cc(S(=O)(=O)[O-])ccc6F)c6ccc3[nH]6)C=C5)C=C4)cc2)c1)NCCc1cccs1
REMARK SMILES IDX 13 1 12 2 10 3 11 4 9 5 5 6 6 7 84 8 7 9 8 10 4 11 3 12 2 13
REMARK SMILES IDX 1 14 85 15 86 17 87 18 88 19 89 20 92 21 90 22 91 23 14 24
REMARK SMILES IDX 15 25 16 26 17 27 18 28 19 29 20 30 21 31 22 32 83 33 23 34
REMARK SMILES IDX 82 35 24 36 25 37 26 38 76 39 27 40 81 41 75 42 77 43 28 44
REMARK SMILES IDX 80 45 74 46 73 47 29 49 61 50 41 51 60 52 42 53 45 54 59 55
REMARK SMILES IDX 78 56 43 57 44 58 58 60 79 61 46 62 30 63 31 64 39 65 32 66
REMARK SMILES IDX 38 67 40 68 37 69 33 70 34 71 35 72 36 73 62 74 63 75 71 76
REMARK SMILES IDX 64 77 70 78 72 79 69 80 65 81 66 82 67 83 68 84 47 85 48 86
REMARK SMILES IDX 56 87 49 88 55 89 57 90 54 91 50 92 51 93 52 94 53 95
REMARK H PARENT 85 16 77 48 45 59
REMARK Flexibility Score: inf
ROOT
ATOM      1  C   UNL A   1      39.389  21.772  26.159  1.00  0.00     0.261 C 
ENDROOT
BRANCH   1   2
ATOM      2  O   UNL A   1      38.079  21.835  25.577  1.00  0.00    -0.460 OA
BRANCH   2   3
ATOM      3  C   UNL A   1      37.392  22.990  25.752  1.00  0.00     0.338 C 
ATOM      4  O   UNL A   1      37.837  24.060  26.145  1.00  0.00    -0.246 OA
BRANCH   3   5
ATOM      5  C   UNL A   1      36.012  22.823  25.228  1.00  0.00     0.063 A 
ATOM      6  C   UNL A   1      34.381  23.043  23.446  1.00  0.00     0.120 A 
ATOM      7  C   UNL A   1      33.375  22.650  24.329  1.00  0.00     0.046 A 
ATOM      8  C   UNL A   1      35.693  23.155  23.907  1.00  0.00     0.062 A 
ATOM      9  C   UNL A   1      33.686  22.318  25.650  1.00  0.00     0.005 A 
ATOM     10  C   UNL A   1      35.005  22.396  26.098  1.00  0.00     0.016 A 
BRANCH   6  11
ATOM     11  O   UNL A   1      33.987  23.382  22.178  1.00  0.00    -0.484 OA
BRANCH  11  12
ATOM     12  C   UNL A   1      32.871  24.275  22.117  1.00  0.00     0.329 C 
BRANCH  12  13
ATOM     13  C   UNL A   1      33.211  25.766  22.196  1.00  0.00     0.257 C 
ATOM     14  O   UNL A   1      33.652  26.392  21.238  1.00  0.00    -0.271 OA
ATOM     15  N   UNL A   1      33.026  26.300  23.448  1.00  0.00    -0.353 N 
ATOM     16  H   UNL A   1      32.569  25.744  24.120  1.00  0.00     0.163 HD
BRANCH  15  17
ATOM     17  C   UNL A   1      33.459  27.625  23.846  1.00  0.00     0.121 C 
BRANCH  17  18
ATOM     18  C   UNL A   1      32.513  28.290  24.844  1.00  0.00     0.068 C 
BRANCH  18  19
ATOM     19  C   UNL A   1      33.142  29.130  25.935  1.00  0.00     0.006 A 
ATOM     20  C   UNL A   1      34.390  28.918  26.496  1.00  0.00     0.015 A 
ATOM     21  S   UNL A   1      32.396  30.510  26.631  1.00  0.00    -0.149 S 
ATOM     22  C   UNL A   1      34.734  29.900  27.468  1.00  0.00     0.012 A 
ATOM     23  C   UNL A   1      33.739  30.835  27.630  1.00  0.00     0.065 A 
ENDBRANCH  18  19
ENDBRANCH  17  18
ENDBRANCH  15  17
ENDBRANCH  12  13
ENDBRANCH  11  12
ENDBRANCH   6  11
ENDBRANCH   3   5
ENDBRANCH   2   3
ENDBRANCH   1   2
BRANCH   1  24
ATOM     24  C   UNL A   1      40.109  20.483  25.748  1.00  0.00     0.202 C 
BRANCH  24  25
ATOM     25  O   UNL A   1      40.497  19.614  26.813  1.00  0.00    -0.374 OA
BRANCH  25  26
ATOM     26  C   UNL A   1      41.875  19.623  27.184  1.00  0.00     0.202 C 
BRANCH  26  27
ATOM     27  C   UNL A   1      42.852  18.890  26.257  1.00  0.00     0.261 C 
BRANCH  27  28
ATOM     28  O   UNL A   1      42.978  19.523  24.972  1.00  0.00    -0.460 OA
BRANCH  28  29
ATOM     29  C   UNL A   1      44.258  19.677  24.552  1.00  0.00     0.338 C 
ATOM     30  O   UNL A   1      44.928  18.871  23.928  1.00  0.00    -0.246 OA
BRANCH  29  31
ATOM     31  C   UNL A   1      44.704  21.059  24.808  1.00  0.00     0.060 A 
ATOM     32  C   UNL A   1      45.345  21.322  26.024  1.00  0.00     0.016 A 
ATOM     33  C   UNL A   1      44.429  22.092  23.913  1.00  0.00     0.016 A 
ATOM     34  C   UNL A   1      45.676  22.630  26.371  1.00  0.00     0.010 A 
ATOM     35  C   UNL A   1      44.756  23.405  24.268  1.00  0.00     0.010 A 
ATOM     36  C   UNL A   1      45.356  23.687  25.509  1.00  0.00    -0.014 A 
BRANCH  36  37
ATOM     37  C   UNL A   1      45.513  25.094  25.964  1.00  0.00     0.031 A 
ATOM     38  C   UNL A   1      46.873  25.738  25.885  1.00  0.00     0.074 A 
ATOM     39  C   UNL A   1      44.458  25.797  26.421  1.00  0.00     0.049 A 
ATOM     40  N   UNL A   1      47.254  26.926  26.274  1.00  0.00    -0.248 NA
ATOM     41  C   UNL A   1      47.947  24.924  25.295  1.00  0.00     0.031 C 
ATOM     42  C   UNL A   1      43.086  25.298  26.509  1.00  0.00     0.029 A 
ATOM     43  N   UNL A   1      44.378  27.082  26.898  1.00  0.00    -0.354 N 
ATOM     44  C   UNL A   1      48.614  27.001  25.988  1.00  0.00     0.074 A 
ATOM     45  C   UNL A   1      48.997  25.718  25.437  1.00  0.00     0.031 C 
ATOM     46  C   UNL A   1      42.301  26.267  27.012  1.00  0.00     0.029 A 
ATOM     47  C   UNL A   1      43.117  27.438  27.322  1.00  0.00     0.049 A 
ATOM     48  H   UNL A   1      45.150  27.691  26.936  1.00  0.00     0.167 HD
ATOM     49  C   UNL A   1      49.459  28.047  26.154  1.00  0.00     0.034 A 
ATOM     50  C   UNL A   1      42.678  28.570  27.910  1.00  0.00     0.034 A 
ATOM     51  C   UNL A   1      49.062  29.322  26.698  1.00  0.00     0.049 A 
ATOM     52  C   UNL A   1      43.658  29.696  28.155  1.00  0.00     0.074 A 
ATOM     53  C   UNL A   1      49.833  30.455  26.889  1.00  0.00     0.029 A 
ATOM     54  N   UNL A   1      47.785  29.634  27.147  1.00  0.00    -0.354 N 
ATOM     55  N   UNL A   1      44.939  29.755  27.870  1.00  0.00    -0.248 NA
ATOM     56  C   UNL A   1      43.129  30.911  28.789  1.00  0.00     0.031 C 
ATOM     57  C   UNL A   1      49.048  31.420  27.527  1.00  0.00     0.029 A 
ATOM     58  C   UNL A   1      47.759  30.926  27.647  1.00  0.00     0.049 A 
ATOM     59  H   UNL A   1      47.011  29.025  27.115  1.00  0.00     0.167 HD
ATOM     60  C   UNL A   1      45.355  31.030  28.252  1.00  0.00     0.074 A 
ATOM     61  C   UNL A   1      44.188  31.706  28.776  1.00  0.00     0.031 C 
ATOM     62  C   UNL A   1      46.588  31.593  28.170  1.00  0.00     0.034 A 
BRANCH  49  63
ATOM     63  C   UNL A   1      50.910  27.838  25.786  1.00  0.00     0.023 A 
ATOM     64  C   UNL A   1      51.372  27.980  24.466  1.00  0.00     0.031 A 
ATOM     65  C   UNL A   1      51.844  27.475  26.774  1.00  0.00     0.131 A 
ATOM     66  C   UNL A   1      52.712  27.697  24.160  1.00  0.00     0.055 A 
ATOM     67  C   UNL A   1      53.193  27.277  26.476  1.00  0.00     0.041 A 
ATOM     68  F   UNL A   1      51.457  27.298  28.048  1.00  0.00    -0.206 F 
ATOM     69  C   UNL A   1      53.632  27.374  25.160  1.00  0.00     0.022 A 
BRANCH  66  70
ATOM     70  S   UNL A   1      53.206  27.620  22.416  1.00  0.00     0.124 S 
ATOM     71  O   UNL A   1      54.384  26.757  22.483  1.00  0.00    -0.237 OA
ATOM     72  O   UNL A   1      52.027  27.043  21.779  1.00  0.00    -0.237 OA
ATOM     73  O   UNL A   1      53.481  29.013  22.076  1.00  0.00    -0.744 OA
ENDBRANCH  66  70
ENDBRANCH  49  63
BRANCH  50  74
ATOM     74  C   UNL A   1      41.256  28.697  28.349  1.00  0.00     0.023 A 
ATOM     75  C   UNL A   1      40.905  28.634  29.707  1.00  0.00     0.031 A 
ATOM     76  C   UNL A   1      40.218  28.809  27.406  1.00  0.00     0.131 A 
ATOM     77  C   UNL A   1      39.551  28.623  30.081  1.00  0.00     0.055 A 
ATOM     78  C   UNL A   1      38.876  28.864  27.788  1.00  0.00     0.041 A 
ATOM     79  F   UNL A   1      40.495  28.868  26.094  1.00  0.00    -0.206 F 
ATOM     80  C   UNL A   1      38.535  28.754  29.132  1.00  0.00     0.022 A 
BRANCH  77  81
ATOM     81  S   UNL A   1      39.133  28.318  31.820  1.00  0.00     0.124 S 
ATOM     82  O   UNL A   1      40.455  28.185  32.423  1.00  0.00    -0.237 OA
ATOM     83  O   UNL A   1      38.388  29.524  32.167  1.00  0.00    -0.237 OA
ATOM     84  O   UNL A   1      38.343  27.090  31.770  1.00  0.00    -0.744 OA
ENDBRANCH  77  81
ENDBRANCH  50  74
BRANCH  62  85
ATOM     85  C   UNL A   1      46.723  33.035  28.599  1.00  0.00     0.023 A 
ATOM     86  C   UNL A   1      46.512  34.103  27.710  1.00  0.00     0.031 A 
ATOM     87  C   UNL A   1      47.075  33.345  29.927  1.00  0.00     0.131 A 
ATOM     88  C   UNL A   1      46.716  35.424  28.141  1.00  0.00     0.055 A 
ATOM     89  C   UNL A   1      47.207  34.661  30.367  1.00  0.00     0.041 A 
ATOM     90  F   UNL A   1      47.291  32.366  30.821  1.00  0.00    -0.206 F 
ATOM     91  C   UNL A   1      47.042  35.710  29.468  1.00  0.00     0.022 A 
BRANCH  88  92
ATOM     92  S   UNL A   1      46.651  36.760  26.916  1.00  0.00     0.124 S 
ATOM     93  O   UNL A   1      47.030  36.065  25.689  1.00  0.00    -0.237 OA
ATOM     94  O   UNL A   1      45.260  37.193  27.000  1.00  0.00    -0.237 OA
ATOM     95  O   UNL A   1      47.631  37.726  27.410  1.00  0.00    -0.744 OA
ENDBRANCH  88  92
ENDBRANCH  62  85
ENDBRANCH  36  37
ENDBRANCH  29  31
ENDBRANCH  28  29
ENDBRANCH  27  28
ENDBRANCH  26  27
ENDBRANCH  25  26
ENDBRANCH  24  25
ENDBRANCH   1  24
TORSDOF 23
ENDMDL
