MODEL 1
REMARK VINA RESULT:     -11.8      0.000      0.000
REMARK SMILES O=C(OCCOCCOC(=O)[C@H]1O[C@@H](Oc2c(-c3cc(O)c(O)c(O)c3)oc3cc(O)cc(O)c3c2=O)[C@H](O)[C@@H](O)[C@@H]1O)c1ccc(-c2c3nc(c(-c4cc(S(=O)(=O)[O-])ccc4F)c4ccc([nH]4)c(-c4cc(S(=O)(=O)[O-])ccc4F)c4nc(c(-c5cc(S(=O)(=O)[O-])ccc5F)c5ccc2[nH]5)C=C4)C=C3)cc1
REMARK SMILES IDX 7 1 6 2 5 3 4 4 3 5 2 6 1 7 44 8 45 9 106 10 46 11 105 12
REMARK SMILES IDX 47 13 48 14 49 15 99 16 50 17 104 18 98 19 100 20 51 21
REMARK SMILES IDX 103 22 97 23 96 24 52 26 84 27 64 28 83 29 65 30 68 31 82 32
REMARK SMILES IDX 101 33 66 34 67 35 81 37 102 38 69 39 53 40 54 41 62 42
REMARK SMILES IDX 55 43 61 44 63 45 60 46 56 47 57 48 58 49 59 50 85 51 86 52
REMARK SMILES IDX 94 53 87 54 93 55 95 56 92 57 88 58 89 59 90 60 91 61 70 62
REMARK SMILES IDX 71 63 79 64 72 65 78 66 80 67 77 68 73 69 74 70 75 71 76 72
REMARK SMILES IDX 8 73 9 74 10 75 11 76 12 77 13 78 42 79 14 80 40 81 38 82
REMARK SMILES IDX 43 83 15 85 16 86 17 87 36 88 27 89 35 90 37 91 28 92 33 93
REMARK SMILES IDX 29 94 32 95 30 96 18 97 19 98 26 99 20 100 24 101 22 102
REMARK SMILES IDX 21 103 25 105 23 107 34 109 31 111 41 113 39 115
REMARK H PARENT 100 25 68 36 43 84 21 104 25 106 23 108 34 110 31 112 41 114
REMARK H PARENT 39 116
REMARK Flexibility Score: inf
ROOT
ATOM      1  C   UNL A   1      29.794  28.690  23.160  1.00  0.00     0.202 C 
ENDROOT
BRANCH   1   2
ATOM      2  O   UNL A   1      30.587  29.610  23.918  1.00  0.00    -0.374 OA
BRANCH   2   3
ATOM      3  C   UNL A   1      31.682  29.079  24.654  1.00  0.00     0.202 C 
BRANCH   3   4
ATOM      4  C   UNL A   1      31.662  29.114  26.189  1.00  0.00     0.261 C 
BRANCH   4   5
ATOM      5  O   UNL A   1      32.980  29.321  26.751  1.00  0.00    -0.460 OA
BRANCH   5   6
ATOM      6  C   UNL A   1      33.499  30.531  27.105  1.00  0.00     0.338 C 
ATOM      7  O   UNL A   1      32.862  31.567  26.976  1.00  0.00    -0.246 OA
BRANCH   6   8
ATOM      8  C   UNL A   1      34.868  30.552  27.656  1.00  0.00     0.060 A 
ATOM      9  C   UNL A   1      35.432  29.358  28.070  1.00  0.00     0.016 A 
ATOM     10  C   UNL A   1      35.589  31.730  27.814  1.00  0.00     0.016 A 
ATOM     11  C   UNL A   1      36.503  29.332  28.916  1.00  0.00     0.010 A 
ATOM     12  C   UNL A   1      36.836  31.674  28.449  1.00  0.00     0.010 A 
ATOM     13  C   UNL A   1      37.280  30.469  29.025  1.00  0.00    -0.014 A 
BRANCH  13  14
ATOM     14  C   UNL A   1      38.557  30.317  29.742  1.00  0.00     0.031 A 
ATOM     15  C   UNL A   1      39.673  29.603  29.062  1.00  0.00     0.074 A 
ATOM     16  C   UNL A   1      38.709  30.926  30.938  1.00  0.00     0.049 A 
ATOM     17  N   UNL A   1      40.789  29.165  29.566  1.00  0.00    -0.248 NA
ATOM     18  C   UNL A   1      39.507  29.335  27.623  1.00  0.00     0.031 C 
ATOM     19  C   UNL A   1      37.705  31.780  31.595  1.00  0.00     0.029 A 
ATOM     20  N   UNL A   1      39.768  30.964  31.802  1.00  0.00    -0.354 N 
ATOM     21  C   UNL A   1      41.424  28.490  28.531  1.00  0.00     0.074 A 
ATOM     22  C   UNL A   1      40.581  28.606  27.361  1.00  0.00     0.031 C 
ATOM     23  C   UNL A   1      38.220  32.303  32.713  1.00  0.00     0.029 A 
ATOM     24  C   UNL A   1      39.508  31.681  32.951  1.00  0.00     0.049 A 
ATOM     25  H   UNL A   1      40.629  30.525  31.623  1.00  0.00     0.167 HD
ATOM     26  C   UNL A   1      42.591  27.810  28.596  1.00  0.00     0.034 A 
ATOM     27  C   UNL A   1      40.190  31.738  34.109  1.00  0.00     0.034 A 
ATOM     28  C   UNL A   1      43.378  27.759  29.802  1.00  0.00     0.049 A 
ATOM     29  C   UNL A   1      41.434  30.896  34.187  1.00  0.00     0.074 A 
ATOM     30  C   UNL A   1      44.551  27.073  30.046  1.00  0.00     0.029 A 
ATOM     31  N   UNL A   1      43.057  28.436  30.978  1.00  0.00    -0.354 N 
ATOM     32  N   UNL A   1      41.985  30.159  33.246  1.00  0.00    -0.248 NA
ATOM     33  C   UNL A   1      42.127  30.858  35.475  1.00  0.00     0.031 C 
ATOM     34  C   UNL A   1      44.899  27.282  31.386  1.00  0.00     0.029 A 
ATOM     35  C   UNL A   1      43.988  28.159  31.960  1.00  0.00     0.049 A 
ATOM     36  H   UNL A   1      42.277  29.028  31.092  1.00  0.00     0.167 HD
ATOM     37  C   UNL A   1      43.095  29.569  33.830  1.00  0.00     0.074 A 
ATOM     38  C   UNL A   1      43.151  30.065  35.194  1.00  0.00     0.031 C 
ATOM     39  C   UNL A   1      43.985  28.689  33.304  1.00  0.00     0.034 A 
BRANCH  26  40
ATOM     40  C   UNL A   1      42.973  26.985  27.394  1.00  0.00     0.023 A 
ATOM     41  C   UNL A   1      42.804  25.590  27.351  1.00  0.00     0.031 A 
ATOM     42  C   UNL A   1      43.616  27.605  26.308  1.00  0.00     0.131 A 
ATOM     43  C   UNL A   1      43.343  24.856  26.282  1.00  0.00     0.055 A 
ATOM     44  C   UNL A   1      44.078  26.877  25.210  1.00  0.00     0.041 A 
ATOM     45  F   UNL A   1      43.841  28.928  26.311  1.00  0.00    -0.206 F 
ATOM     46  C   UNL A   1      43.957  25.491  25.200  1.00  0.00     0.022 A 
BRANCH  43  47
ATOM     47  S   UNL A   1      43.374  23.045  26.400  1.00  0.00     0.124 S 
ATOM     48  O   UNL A   1      44.810  22.772  26.354  1.00  0.00    -0.237 OA
ATOM     49  O   UNL A   1      42.719  22.799  27.680  1.00  0.00    -0.237 OA
ATOM     50  O   UNL A   1      42.626  22.610  25.222  1.00  0.00    -0.744 OA
ENDBRANCH  43  47
ENDBRANCH  26  40
BRANCH  27  51
ATOM     51  C   UNL A   1      39.650  32.477  35.290  1.00  0.00     0.023 A 
ATOM     52  C   UNL A   1      39.975  33.820  35.519  1.00  0.00     0.031 A 
ATOM     53  C   UNL A   1      38.829  31.834  36.242  1.00  0.00     0.131 A 
ATOM     54  C   UNL A   1      39.522  34.464  36.684  1.00  0.00     0.055 A 
ATOM     55  C   UNL A   1      38.324  32.498  37.361  1.00  0.00     0.041 A 
ATOM     56  F   UNL A   1      38.489  30.544  36.091  1.00  0.00    -0.206 F 
ATOM     57  C   UNL A   1      38.685  33.819  37.596  1.00  0.00     0.022 A 
BRANCH  54  58
ATOM     58  S   UNL A   1      40.139  36.130  37.049  1.00  0.00     0.124 S 
ATOM     59  O   UNL A   1      41.549  35.872  37.319  1.00  0.00    -0.237 OA
ATOM     60  O   UNL A   1      39.843  36.841  35.810  1.00  0.00    -0.237 OA
ATOM     61  O   UNL A   1      39.347  36.540  38.208  1.00  0.00    -0.744 OA
ENDBRANCH  54  58
ENDBRANCH  27  51
BRANCH  39  62
ATOM     62  C   UNL A   1      45.100  28.258  34.213  1.00  0.00     0.023 A 
ATOM     63  C   UNL A   1      44.978  27.125  35.031  1.00  0.00     0.031 A 
ATOM     64  C   UNL A   1      46.297  28.992  34.251  1.00  0.00     0.131 A 
ATOM     65  C   UNL A   1      46.025  26.779  35.891  1.00  0.00     0.055 A 
ATOM     66  C   UNL A   1      47.361  28.605  35.062  1.00  0.00     0.041 A 
ATOM     67  F   UNL A   1      46.453  30.085  33.487  1.00  0.00    -0.206 F 
ATOM     68  C   UNL A   1      47.224  27.499  35.896  1.00  0.00     0.022 A 
BRANCH  65  69
ATOM     69  S   UNL A   1      45.774  25.415  37.057  1.00  0.00     0.124 S 
ATOM     70  O   UNL A   1      45.659  24.270  36.160  1.00  0.00    -0.237 OA
ATOM     71  O   UNL A   1      46.984  25.469  37.869  1.00  0.00    -0.237 OA
ATOM     72  O   UNL A   1      44.543  25.785  37.754  1.00  0.00    -0.744 OA
ENDBRANCH  65  69
ENDBRANCH  39  62
ENDBRANCH  13  14
ENDBRANCH   6   8
ENDBRANCH   5   6
ENDBRANCH   4   5
ENDBRANCH   3   4
ENDBRANCH   2   3
ENDBRANCH   1   2
BRANCH   1  73
ATOM     73  C   UNL A   1      30.694  27.739  22.382  1.00  0.00     0.261 C 
BRANCH  73  74
ATOM     74  O   UNL A   1      30.496  26.416  22.904  1.00  0.00    -0.461 OA
BRANCH  74  75
ATOM     75  C   UNL A   1      31.418  25.493  22.498  1.00  0.00     0.338 C 
ATOM     76  O   UNL A   1      32.079  25.559  21.469  1.00  0.00    -0.249 OA
BRANCH  75  77
ATOM     77  C   UNL A   1      31.533  24.406  23.555  1.00  0.00     0.263 C 
ATOM     78  O   UNL A   1      32.916  24.084  23.665  1.00  0.00    -0.322 OA
ATOM     79  C   UNL A   1      31.048  24.922  24.912  1.00  0.00     0.186 C 
ATOM     80  C   UNL A   1      33.134  22.933  24.460  1.00  0.00     0.340 C 
ATOM     81  C   UNL A   1      31.293  23.888  26.006  1.00  0.00     0.181 C 
ATOM     82  C   UNL A   1      32.630  23.160  25.898  1.00  0.00     0.214 C 
BRANCH  79  83
ATOM     83  O   UNL A   1      29.641  25.199  24.948  1.00  0.00    -0.387 OA
ATOM     84  H   UNL A   1      29.235  24.717  25.686  1.00  0.00     0.211 HD
ENDBRANCH  79  83
BRANCH  80  85
ATOM     85  O   UNL A   1      34.511  22.504  24.487  1.00  0.00    -0.454 OA
BRANCH  85  86
ATOM     86  C   UNL A   1      34.739  21.135  24.450  1.00  0.00     0.214 A 
ATOM     87  C   UNL A   1      35.888  20.571  24.879  1.00  0.00     0.181 A 
ATOM     88  C   UNL A   1      33.598  20.231  24.094  1.00  0.00     0.239 A 
ATOM     89  O   UNL A   1      36.125  19.217  24.945  1.00  0.00    -0.452 OA
ATOM     90  C   UNL A   1      33.814  18.773  24.316  1.00  0.00     0.111 A 
ATOM     91  O   UNL A   1      32.536  20.700  23.700  1.00  0.00    -0.285 OA
ATOM     92  C   UNL A   1      35.073  18.361  24.755  1.00  0.00     0.146 A 
ATOM     93  C   UNL A   1      32.816  17.800  24.147  1.00  0.00     0.134 A 
ATOM     94  C   UNL A   1      35.332  17.021  25.053  1.00  0.00     0.094 A 
ATOM     95  C   UNL A   1      33.069  16.454  24.448  1.00  0.00     0.093 A 
ATOM     96  C   UNL A   1      34.325  16.080  24.911  1.00  0.00     0.123 A 
BRANCH  87  97
ATOM     97  C   UNL A   1      37.072  21.369  25.246  1.00  0.00     0.029 A 
ATOM     98  C   UNL A   1      36.901  22.731  25.562  1.00  0.00     0.062 A 
ATOM     99  C   UNL A   1      38.325  20.765  25.446  1.00  0.00     0.062 A 
ATOM    100  C   UNL A   1      37.933  23.429  26.181  1.00  0.00     0.162 A 
ATOM    101  C   UNL A   1      39.351  21.491  26.039  1.00  0.00     0.162 A 
ATOM    102  C   UNL A   1      39.156  22.814  26.417  1.00  0.00     0.200 A 
BRANCH 100 103
ATOM    103  O   UNL A   1      37.684  24.688  26.644  1.00  0.00    -0.504 OA
ATOM    104  H   UNL A   1      38.382  25.205  26.993  1.00  0.00     0.293 HD
ENDBRANCH 100 103
BRANCH 101 105
ATOM    105  O   UNL A   1      40.535  20.868  26.310  1.00  0.00    -0.504 OA
ATOM    106  H   UNL A   1      40.838  20.176  25.755  1.00  0.00     0.293 HD
ENDBRANCH 101 105
BRANCH 102 107
ATOM    107  O   UNL A   1      40.180  23.480  27.033  1.00  0.00    -0.502 OA
ATOM    108  H   UNL A   1      40.893  23.001  27.405  1.00  0.00     0.293 HD
ENDBRANCH 102 107
ENDBRANCH  87  97
BRANCH  93 109
ATOM    109  O   UNL A   1      31.564  18.137  23.720  1.00  0.00    -0.507 OA
ATOM    110  H   UNL A   1      30.865  17.516  23.777  1.00  0.00     0.293 HD
ENDBRANCH  93 109
BRANCH  96 111
ATOM    111  O   UNL A   1      34.611  14.794  25.259  1.00  0.00    -0.508 OA
ATOM    112  H   UNL A   1      35.471  14.451  25.119  1.00  0.00     0.293 HD
ENDBRANCH  96 111
ENDBRANCH  85  86
ENDBRANCH  80  85
BRANCH  81 113
ATOM    113  O   UNL A   1      31.229  24.507  27.317  1.00  0.00    -0.387 OA
ATOM    114  H   UNL A   1      30.491  25.136  27.342  1.00  0.00     0.211 HD
ENDBRANCH  81 113
BRANCH  82 115
ATOM    115  O   UNL A   1      32.524  21.907  26.594  1.00  0.00    -0.384 OA
ATOM    116  H   UNL A   1      33.116  21.914  27.362  1.00  0.00     0.211 HD
ENDBRANCH  82 115
ENDBRANCH  75  77
ENDBRANCH  74  75
ENDBRANCH  73  74
ENDBRANCH   1  73
TORSDOF 28
ENDMDL
MODEL 2
REMARK VINA RESULT:     -11.3      4.497      9.991
REMARK SMILES O=C(OCCOCCOC(=O)[C@H]1O[C@@H](Oc2c(-c3cc(O)c(O)c(O)c3)oc3cc(O)cc(O)c3c2=O)[C@H](O)[C@@H](O)[C@@H]1O)c1ccc(-c2c3nc(c(-c4cc(S(=O)(=O)[O-])ccc4F)c4ccc([nH]4)c(-c4cc(S(=O)(=O)[O-])ccc4F)c4nc(c(-c5cc(S(=O)(=O)[O-])ccc5F)c5ccc2[nH]5)C=C4)C=C3)cc1
REMARK SMILES IDX 7 1 6 2 5 3 4 4 3 5 2 6 1 7 44 8 45 9 106 10 46 11 105 12
REMARK SMILES IDX 47 13 48 14 49 15 99 16 50 17 104 18 98 19 100 20 51 21
REMARK SMILES IDX 103 22 97 23 96 24 52 26 84 27 64 28 83 29 65 30 68 31 82 32
REMARK SMILES IDX 101 33 66 34 67 35 81 37 102 38 69 39 53 40 54 41 62 42
REMARK SMILES IDX 55 43 61 44 63 45 60 46 56 47 57 48 58 49 59 50 85 51 86 52
REMARK SMILES IDX 94 53 87 54 93 55 95 56 92 57 88 58 89 59 90 60 91 61 70 62
REMARK SMILES IDX 71 63 79 64 72 65 78 66 80 67 77 68 73 69 74 70 75 71 76 72
REMARK SMILES IDX 8 73 9 74 10 75 11 76 12 77 13 78 42 79 14 80 40 81 38 82
REMARK SMILES IDX 43 83 15 85 16 86 17 87 36 88 27 89 35 90 37 91 28 92 33 93
REMARK SMILES IDX 29 94 32 95 30 96 18 97 19 98 26 99 20 100 24 101 22 102
REMARK SMILES IDX 21 103 25 105 23 107 34 109 31 111 41 113 39 115
REMARK H PARENT 100 25 68 36 43 84 21 104 25 106 23 108 34 110 31 112 41 114
REMARK H PARENT 39 116
REMARK Flexibility Score: inf
ROOT
ATOM      1  C   UNL A   1      34.586  20.771  24.518  1.00  0.00     0.202 C 
ENDROOT
BRANCH   1   2
ATOM      2  O   UNL A   1      34.990  22.019  23.944  1.00  0.00    -0.374 OA
BRANCH   2   3
ATOM      3  C   UNL A   1      36.386  22.274  23.848  1.00  0.00     0.202 C 
BRANCH   3   4
ATOM      4  C   UNL A   1      37.381  21.383  24.603  1.00  0.00     0.261 C 
BRANCH   4   5
ATOM      5  O   UNL A   1      37.933  22.040  25.770  1.00  0.00    -0.460 OA
BRANCH   5   6
ATOM      6  C   UNL A   1      39.207  21.881  26.229  1.00  0.00     0.338 C 
ATOM      7  O   UNL A   1      39.810  20.825  26.100  1.00  0.00    -0.246 OA
BRANCH   6   8
ATOM      8  C   UNL A   1      39.843  23.036  26.891  1.00  0.00     0.060 A 
ATOM      9  C   UNL A   1      39.496  24.310  26.477  1.00  0.00     0.016 A 
ATOM     10  C   UNL A   1      40.808  22.888  27.881  1.00  0.00     0.016 A 
ATOM     11  C   UNL A   1      40.284  25.389  26.754  1.00  0.00     0.010 A 
ATOM     12  C   UNL A   1      41.442  24.033  28.377  1.00  0.00     0.010 A 
ATOM     13  C   UNL A   1      41.194  25.287  27.789  1.00  0.00    -0.014 A 
BRANCH  13  14
ATOM     14  C   UNL A   1      41.835  26.542  28.215  1.00  0.00     0.031 A 
ATOM     15  C   UNL A   1      41.050  27.493  29.051  1.00  0.00     0.074 A 
ATOM     16  C   UNL A   1      43.142  26.735  27.933  1.00  0.00     0.049 A 
ATOM     17  N   UNL A   1      41.321  28.728  29.354  1.00  0.00    -0.248 NA
ATOM     18  C   UNL A   1      39.785  26.990  29.613  1.00  0.00     0.031 C 
ATOM     19  C   UNL A   1      44.019  25.768  27.251  1.00  0.00     0.029 A 
ATOM     20  N   UNL A   1      43.980  27.779  28.211  1.00  0.00    -0.354 N 
ATOM     21  C   UNL A   1      40.221  29.185  30.068  1.00  0.00     0.074 A 
ATOM     22  C   UNL A   1      39.293  28.080  30.181  1.00  0.00     0.031 C 
ATOM     23  C   UNL A   1      45.272  26.236  27.226  1.00  0.00     0.029 A 
ATOM     24  C   UNL A   1      45.254  27.601  27.714  1.00  0.00     0.049 A 
ATOM     25  H   UNL A   1      43.703  28.577  28.714  1.00  0.00     0.167 HD
ATOM     26  C   UNL A   1      40.017  30.435  30.541  1.00  0.00     0.034 A 
ATOM     27  C   UNL A   1      46.259  28.484  27.574  1.00  0.00     0.034 A 
ATOM     28  C   UNL A   1      41.005  31.475  30.400  1.00  0.00     0.049 A 
ATOM     29  C   UNL A   1      45.973  29.890  28.021  1.00  0.00     0.074 A 
ATOM     30  C   UNL A   1      40.931  32.801  30.775  1.00  0.00     0.029 A 
ATOM     31  N   UNL A   1      42.263  31.289  29.828  1.00  0.00    -0.354 N 
ATOM     32  N   UNL A   1      44.887  30.363  28.595  1.00  0.00    -0.248 NA
ATOM     33  C   UNL A   1      47.014  30.888  27.773  1.00  0.00     0.031 C 
ATOM     34  C   UNL A   1      42.115  33.429  30.369  1.00  0.00     0.029 A 
ATOM     35  C   UNL A   1      42.961  32.481  29.809  1.00  0.00     0.049 A 
ATOM     36  H   UNL A   1      42.605  30.430  29.486  1.00  0.00     0.167 HD
ATOM     37  C   UNL A   1      45.116  31.717  28.782  1.00  0.00     0.074 A 
ATOM     38  C   UNL A   1      46.458  31.975  28.288  1.00  0.00     0.031 C 
ATOM     39  C   UNL A   1      44.300  32.670  29.299  1.00  0.00     0.034 A 
BRANCH  26  40
ATOM     40  C   UNL A   1      38.653  30.743  31.103  1.00  0.00     0.023 A 
ATOM     41  C   UNL A   1      37.708  31.517  30.409  1.00  0.00     0.031 A 
ATOM     42  C   UNL A   1      38.337  30.333  32.411  1.00  0.00     0.131 A 
ATOM     43  C   UNL A   1      36.528  31.922  31.056  1.00  0.00     0.055 A 
ATOM     44  C   UNL A   1      37.127  30.672  33.020  1.00  0.00     0.041 A 
ATOM     45  F   UNL A   1      39.217  29.626  33.138  1.00  0.00    -0.206 F 
ATOM     46  C   UNL A   1      36.220  31.484  32.347  1.00  0.00     0.022 A 
BRANCH  43  47
ATOM     47  S   UNL A   1      35.474  33.159  30.248  1.00  0.00     0.124 S 
ATOM     48  O   UNL A   1      35.431  34.214  31.260  1.00  0.00    -0.237 OA
ATOM     49  O   UNL A   1      36.222  33.469  29.036  1.00  0.00    -0.237 OA
ATOM     50  O   UNL A   1      34.212  32.453  30.040  1.00  0.00    -0.744 OA
ENDBRANCH  43  47
ENDBRANCH  26  40
BRANCH  27  51
ATOM     51  C   UNL A   1      47.526  28.110  26.874  1.00  0.00     0.023 A 
ATOM     52  C   UNL A   1      47.579  27.993  25.478  1.00  0.00     0.031 A 
ATOM     53  C   UNL A   1      48.702  27.818  27.597  1.00  0.00     0.131 A 
ATOM     54  C   UNL A   1      48.761  27.556  24.854  1.00  0.00     0.055 A 
ATOM     55  C   UNL A   1      49.893  27.453  26.968  1.00  0.00     0.041 A 
ATOM     56  F   UNL A   1      48.718  27.898  28.937  1.00  0.00    -0.206 F 
ATOM     57  C   UNL A   1      49.922  27.304  25.587  1.00  0.00     0.022 A 
BRANCH  54  58
ATOM     58  S   UNL A   1      48.725  27.213  23.074  1.00  0.00     0.124 S 
ATOM     59  O   UNL A   1      48.442  25.782  23.053  1.00  0.00    -0.237 OA
ATOM     60  O   UNL A   1      47.649  28.087  22.619  1.00  0.00    -0.237 OA
ATOM     61  O   UNL A   1      50.065  27.590  22.627  1.00  0.00    -0.744 OA
ENDBRANCH  54  58
ENDBRANCH  27  51
BRANCH  39  62
ATOM     62  C   UNL A   1      44.875  34.055  29.381  1.00  0.00     0.023 A 
ATOM     63  C   UNL A   1      44.585  35.023  28.407  1.00  0.00     0.031 A 
ATOM     64  C   UNL A   1      45.715  34.405  30.451  1.00  0.00     0.131 A 
ATOM     65  C   UNL A   1      45.170  36.290  28.499  1.00  0.00     0.055 A 
ATOM     66  C   UNL A   1      46.243  35.688  30.571  1.00  0.00     0.041 A 
ATOM     67  F   UNL A   1      46.020  33.507  31.402  1.00  0.00    -0.206 F 
ATOM     68  C   UNL A   1      45.980  36.635  29.586  1.00  0.00     0.022 A 
BRANCH  65  69
ATOM     69  S   UNL A   1      44.917  37.461  27.140  1.00  0.00     0.124 S 
ATOM     70  O   UNL A   1      46.055  37.169  26.275  1.00  0.00    -0.237 OA
ATOM     71  O   UNL A   1      43.609  37.068  26.626  1.00  0.00    -0.237 OA
ATOM     72  O   UNL A   1      44.956  38.764  27.801  1.00  0.00    -0.744 OA
ENDBRANCH  65  69
ENDBRANCH  39  62
ENDBRANCH  13  14
ENDBRANCH   6   8
ENDBRANCH   5   6
ENDBRANCH   4   5
ENDBRANCH   3   4
ENDBRANCH   2   3
ENDBRANCH   1   2
BRANCH   1  73
ATOM     73  C   UNL A   1      33.103  20.535  24.269  1.00  0.00     0.261 C 
BRANCH  73  74
ATOM     74  O   UNL A   1      32.495  21.804  23.979  1.00  0.00    -0.461 OA
BRANCH  74  75
ATOM     75  C   UNL A   1      31.987  21.923  22.717  1.00  0.00     0.338 C 
ATOM     76  O   UNL A   1      31.756  20.992  21.956  1.00  0.00    -0.249 OA
BRANCH  75  77
ATOM     77  C   UNL A   1      31.698  23.389  22.433  1.00  0.00     0.263 C 
ATOM     78  O   UNL A   1      31.246  23.963  23.655  1.00  0.00    -0.322 OA
ATOM     79  C   UNL A   1      32.975  24.115  22.002  1.00  0.00     0.186 C 
ATOM     80  C   UNL A   1      30.738  25.271  23.473  1.00  0.00     0.340 C 
ATOM     81  C   UNL A   1      32.726  25.612  21.854  1.00  0.00     0.181 C 
ATOM     82  C   UNL A   1      31.833  26.213  22.936  1.00  0.00     0.214 C 
BRANCH  79  83
ATOM     83  O   UNL A   1      33.479  23.678  20.732  1.00  0.00    -0.387 OA
ATOM     84  H   UNL A   1      34.379  23.332  20.843  1.00  0.00     0.211 HD
ENDBRANCH  79  83
BRANCH  80  85
ATOM     85  O   UNL A   1      30.153  25.833  24.667  1.00  0.00    -0.454 OA
BRANCH  85  86
ATOM     86  C   UNL A   1      30.946  26.705  25.400  1.00  0.00     0.214 A 
ATOM     87  C   UNL A   1      31.991  26.294  26.149  1.00  0.00     0.181 A 
ATOM     88  C   UNL A   1      30.750  28.179  25.209  1.00  0.00     0.239 A 
ATOM     89  O   UNL A   1      32.856  27.128  26.819  1.00  0.00    -0.452 OA
ATOM     90  C   UNL A   1      31.782  29.068  25.812  1.00  0.00     0.111 A 
ATOM     91  O   UNL A   1      29.813  28.597  24.537  1.00  0.00    -0.285 OA
ATOM     92  C   UNL A   1      32.793  28.472  26.568  1.00  0.00     0.146 A 
ATOM     93  C   UNL A   1      31.818  30.460  25.633  1.00  0.00     0.134 A 
ATOM     94  C   UNL A   1      33.836  29.230  27.106  1.00  0.00     0.094 A 
ATOM     95  C   UNL A   1      32.864  31.226  26.167  1.00  0.00     0.093 A 
ATOM     96  C   UNL A   1      33.872  30.598  26.890  1.00  0.00     0.123 A 
BRANCH  87  97
ATOM     97  C   UNL A   1      32.268  24.869  26.405  1.00  0.00     0.029 A 
ATOM     98  C   UNL A   1      33.600  24.415  26.345  1.00  0.00     0.062 A 
ATOM     99  C   UNL A   1      31.261  24.002  26.865  1.00  0.00     0.062 A 
ATOM    100  C   UNL A   1      33.923  23.162  26.855  1.00  0.00     0.162 A 
ATOM    101  C   UNL A   1      31.605  22.744  27.343  1.00  0.00     0.162 A 
ATOM    102  C   UNL A   1      32.930  22.325  27.350  1.00  0.00     0.200 A 
BRANCH 100 103
ATOM    103  O   UNL A   1      35.240  22.818  26.956  1.00  0.00    -0.504 OA
ATOM    104  H   UNL A   1      35.491  22.070  27.460  1.00  0.00     0.293 HD
ENDBRANCH 100 103
BRANCH 101 105
ATOM    105  O   UNL A   1      30.631  21.944  27.870  1.00  0.00    -0.504 OA
ATOM    106  H   UNL A   1      30.389  21.151  27.432  1.00  0.00     0.293 HD
ENDBRANCH 101 105
BRANCH 102 107
ATOM    107  O   UNL A   1      33.229  21.093  27.864  1.00  0.00    -0.502 OA
ATOM    108  H   UNL A   1      33.498  21.012  28.758  1.00  0.00     0.293 HD
ENDBRANCH 102 107
ENDBRANCH  87  97
BRANCH  93 109
ATOM    109  O   UNL A   1      30.858  31.104  24.905  1.00  0.00    -0.507 OA
ATOM    110  H   UNL A   1      30.127  30.627  24.565  1.00  0.00     0.293 HD
ENDBRANCH  93 109
BRANCH  96 111
ATOM    111  O   UNL A   1      34.932  31.288  27.394  1.00  0.00    -0.508 OA
ATOM    112  H   UNL A   1      35.676  31.466  26.853  1.00  0.00     0.293 HD
ENDBRANCH  96 111
ENDBRANCH  85  86
ENDBRANCH  80  85
BRANCH  81 113
ATOM    113  O   UNL A   1      33.981  26.342  21.859  1.00  0.00    -0.387 OA
ATOM    114  H   UNL A   1      33.979  26.993  21.140  1.00  0.00     0.211 HD
ENDBRANCH  81 113
BRANCH  82 115
ATOM    115  O   UNL A   1      31.247  27.420  22.425  1.00  0.00    -0.384 OA
ATOM    116  H   UNL A   1      31.079  28.033  23.158  1.00  0.00     0.211 HD
ENDBRANCH  82 115
ENDBRANCH  75  77
ENDBRANCH  74  75
ENDBRANCH  73  74
ENDBRANCH   1  73
TORSDOF 28
ENDMDL
MODEL 3
REMARK VINA RESULT:     -11.2      1.742      2.070
REMARK SMILES O=C(OCCOCCOC(=O)[C@H]1O[C@@H](Oc2c(-c3cc(O)c(O)c(O)c3)oc3cc(O)cc(O)c3c2=O)[C@H](O)[C@@H](O)[C@@H]1O)c1ccc(-c2c3nc(c(-c4cc(S(=O)(=O)[O-])ccc4F)c4ccc([nH]4)c(-c4cc(S(=O)(=O)[O-])ccc4F)c4nc(c(-c5cc(S(=O)(=O)[O-])ccc5F)c5ccc2[nH]5)C=C4)C=C3)cc1
REMARK SMILES IDX 7 1 6 2 5 3 4 4 3 5 2 6 1 7 44 8 45 9 106 10 46 11 105 12
REMARK SMILES IDX 47 13 48 14 49 15 99 16 50 17 104 18 98 19 100 20 51 21
REMARK SMILES IDX 103 22 97 23 96 24 52 26 84 27 64 28 83 29 65 30 68 31 82 32
REMARK SMILES IDX 101 33 66 34 67 35 81 37 102 38 69 39 53 40 54 41 62 42
REMARK SMILES IDX 55 43 61 44 63 45 60 46 56 47 57 48 58 49 59 50 85 51 86 52
REMARK SMILES IDX 94 53 87 54 93 55 95 56 92 57 88 58 89 59 90 60 91 61 70 62
REMARK SMILES IDX 71 63 79 64 72 65 78 66 80 67 77 68 73 69 74 70 75 71 76 72
REMARK SMILES IDX 8 73 9 74 10 75 11 76 12 77 13 78 42 79 14 80 40 81 38 82
REMARK SMILES IDX 43 83 15 85 16 86 17 87 36 88 27 89 35 90 37 91 28 92 33 93
REMARK SMILES IDX 29 94 32 95 30 96 18 97 19 98 26 99 20 100 24 101 22 102
REMARK SMILES IDX 21 103 25 105 23 107 34 109 31 111 41 113 39 115
REMARK H PARENT 100 25 68 36 43 84 21 104 25 106 23 108 34 110 31 112 41 114
REMARK H PARENT 39 116
REMARK Flexibility Score: inf
ROOT
ATOM      1  C   UNL A   1      29.806  28.362  23.446  1.00  0.00     0.202 C 
ENDROOT
BRANCH   1   2
ATOM      2  O   UNL A   1      30.747  29.401  23.741  1.00  0.00    -0.374 OA
BRANCH   2   3
ATOM      3  C   UNL A   1      31.751  29.119  24.708  1.00  0.00     0.202 C 
BRANCH   3   4
ATOM      4  C   UNL A   1      31.885  30.006  25.954  1.00  0.00     0.261 C 
BRANCH   4   5
ATOM      5  O   UNL A   1      33.267  30.221  26.329  1.00  0.00    -0.460 OA
BRANCH   5   6
ATOM      6  C   UNL A   1      33.705  31.194  27.179  1.00  0.00     0.338 C 
ATOM      7  O   UNL A   1      33.138  32.275  27.267  1.00  0.00    -0.246 OA
BRANCH   6   8
ATOM      8  C   UNL A   1      34.896  30.899  27.999  1.00  0.00     0.060 A 
ATOM      9  C   UNL A   1      35.708  31.949  28.387  1.00  0.00     0.016 A 
ATOM     10  C   UNL A   1      35.252  29.603  28.354  1.00  0.00     0.016 A 
ATOM     11  C   UNL A   1      36.991  31.742  28.805  1.00  0.00     0.010 A 
ATOM     12  C   UNL A   1      36.458  29.402  29.037  1.00  0.00     0.010 A 
ATOM     13  C   UNL A   1      37.342  30.478  29.239  1.00  0.00    -0.014 A 
BRANCH  13  14
ATOM     14  C   UNL A   1      38.645  30.362  29.913  1.00  0.00     0.031 A 
ATOM     15  C   UNL A   1      39.752  29.659  29.206  1.00  0.00     0.074 A 
ATOM     16  C   UNL A   1      38.827  30.996  31.092  1.00  0.00     0.049 A 
ATOM     17  N   UNL A   1      40.893  29.252  29.677  1.00  0.00    -0.248 NA
ATOM     18  C   UNL A   1      39.541  29.363  27.778  1.00  0.00     0.031 C 
ATOM     19  C   UNL A   1      37.829  31.841  31.770  1.00  0.00     0.029 A 
ATOM     20  N   UNL A   1      39.915  31.069  31.918  1.00  0.00    -0.354 N 
ATOM     21  C   UNL A   1      41.505  28.572  28.632  1.00  0.00     0.074 A 
ATOM     22  C   UNL A   1      40.619  28.651  27.491  1.00  0.00     0.031 C 
ATOM     23  C   UNL A   1      38.373  32.393  32.861  1.00  0.00     0.029 A 
ATOM     24  C   UNL A   1      39.681  31.800  33.063  1.00  0.00     0.049 A 
ATOM     25  H   UNL A   1      40.778  30.643  31.716  1.00  0.00     0.167 HD
ATOM     26  C   UNL A   1      42.687  27.916  28.667  1.00  0.00     0.034 A 
ATOM     27  C   UNL A   1      40.401  31.890  34.195  1.00  0.00     0.034 A 
ATOM     28  C   UNL A   1      43.517  27.902  29.846  1.00  0.00     0.049 A 
ATOM     29  C   UNL A   1      41.664  31.075  34.243  1.00  0.00     0.074 A 
ATOM     30  C   UNL A   1      44.711  27.243  30.059  1.00  0.00     0.029 A 
ATOM     31  N   UNL A   1      43.223  28.592  31.020  1.00  0.00    -0.354 N 
ATOM     32  N   UNL A   1      42.196  30.332  33.296  1.00  0.00    -0.248 NA
ATOM     33  C   UNL A   1      42.402  31.073  35.507  1.00  0.00     0.031 C 
ATOM     34  C   UNL A   1      45.102  27.482  31.382  1.00  0.00     0.029 A 
ATOM     35  C   UNL A   1      44.194  28.350  31.973  1.00  0.00     0.049 A 
ATOM     36  H   UNL A   1      42.436  29.170  31.152  1.00  0.00     0.167 HD
ATOM     37  C   UNL A   1      43.338  29.774  33.850  1.00  0.00     0.074 A 
ATOM     38  C   UNL A   1      43.432  30.296  35.203  1.00  0.00     0.031 C 
ATOM     39  C   UNL A   1      44.227  28.903  33.308  1.00  0.00     0.034 A 
BRANCH  26  40
ATOM     40  C   UNL A   1      43.043  27.078  27.467  1.00  0.00     0.023 A 
ATOM     41  C   UNL A   1      42.944  25.676  27.468  1.00  0.00     0.031 A 
ATOM     42  C   UNL A   1      43.592  27.699  26.330  1.00  0.00     0.131 A 
ATOM     43  C   UNL A   1      43.460  24.940  26.388  1.00  0.00     0.055 A 
ATOM     44  C   UNL A   1      44.029  26.965  25.226  1.00  0.00     0.041 A 
ATOM     45  F   UNL A   1      43.748  29.032  26.287  1.00  0.00    -0.206 F 
ATOM     46  C   UNL A   1      43.979  25.575  25.257  1.00  0.00     0.022 A 
BRANCH  43  47
ATOM     47  S   UNL A   1      43.591  23.137  26.549  1.00  0.00     0.124 S 
ATOM     48  O   UNL A   1      43.034  22.920  27.884  1.00  0.00    -0.237 OA
ATOM     49  O   UNL A   1      42.779  22.660  25.435  1.00  0.00    -0.237 OA
ATOM     50  O   UNL A   1      45.025  22.883  26.430  1.00  0.00    -0.744 OA
ENDBRANCH  43  47
ENDBRANCH  26  40
BRANCH  27  51
ATOM     51  C   UNL A   1      39.888  32.639  35.382  1.00  0.00     0.023 A 
ATOM     52  C   UNL A   1      39.140  31.998  36.379  1.00  0.00     0.031 A 
ATOM     53  C   UNL A   1      40.101  34.028  35.519  1.00  0.00     0.131 A 
ATOM     54  C   UNL A   1      38.597  32.745  37.440  1.00  0.00     0.055 A 
ATOM     55  C   UNL A   1      39.620  34.752  36.611  1.00  0.00     0.041 A 
ATOM     56  F   UNL A   1      40.798  34.706  34.594  1.00  0.00    -0.206 F 
ATOM     57  C   UNL A   1      38.847  34.113  37.572  1.00  0.00     0.022 A 
BRANCH  54  58
ATOM     58  S   UNL A   1      37.461  31.922  38.588  1.00  0.00     0.124 S 
ATOM     59  O   UNL A   1      36.281  32.777  38.503  1.00  0.00    -0.237 OA
ATOM     60  O   UNL A   1      37.336  30.596  37.991  1.00  0.00    -0.237 OA
ATOM     61  O   UNL A   1      38.173  31.966  39.864  1.00  0.00    -0.744 OA
ENDBRANCH  54  58
ENDBRANCH  27  51
BRANCH  39  62
ATOM     62  C   UNL A   1      45.381  28.511  34.184  1.00  0.00     0.023 A 
ATOM     63  C   UNL A   1      46.547  29.289  34.246  1.00  0.00     0.031 A 
ATOM     64  C   UNL A   1      45.304  27.347  34.967  1.00  0.00     0.131 A 
ATOM     65  C   UNL A   1      47.615  28.869  35.046  1.00  0.00     0.055 A 
ATOM     66  C   UNL A   1      46.346  26.968  35.810  1.00  0.00     0.041 A 
ATOM     67  F   UNL A   1      44.208  26.572  34.933  1.00  0.00    -0.206 F 
ATOM     68  C   UNL A   1      47.513  27.725  35.845  1.00  0.00     0.022 A 
BRANCH  65  69
ATOM     69  S   UNL A   1      49.168  29.799  34.975  1.00  0.00     0.124 S 
ATOM     70  O   UNL A   1      49.894  29.259  36.120  1.00  0.00    -0.237 OA
ATOM     71  O   UNL A   1      49.691  29.438  33.662  1.00  0.00    -0.237 OA
ATOM     72  O   UNL A   1      48.739  31.190  35.110  1.00  0.00    -0.744 OA
ENDBRANCH  65  69
ENDBRANCH  39  62
ENDBRANCH  13  14
ENDBRANCH   6   8
ENDBRANCH   5   6
ENDBRANCH   4   5
ENDBRANCH   3   4
ENDBRANCH   2   3
ENDBRANCH   1   2
BRANCH   1  73
ATOM     73  C   UNL A   1      30.356  27.451  22.357  1.00  0.00     0.261 C 
BRANCH  73  74
ATOM     74  O   UNL A   1      30.365  26.108  22.868  1.00  0.00    -0.461 OA
BRANCH  74  75
ATOM     75  C   UNL A   1      31.531  25.424  22.667  1.00  0.00     0.338 C 
ATOM     76  O   UNL A   1      32.370  25.691  21.817  1.00  0.00    -0.249 OA
BRANCH  75  77
ATOM     77  C   UNL A   1      31.645  24.319  23.707  1.00  0.00     0.263 C 
ATOM     78  O   UNL A   1      33.027  23.998  23.816  1.00  0.00    -0.322 OA
ATOM     79  C   UNL A   1      31.154  24.812  25.071  1.00  0.00     0.186 C 
ATOM     80  C   UNL A   1      33.245  22.835  24.592  1.00  0.00     0.340 C 
ATOM     81  C   UNL A   1      31.398  23.760  26.148  1.00  0.00     0.181 C 
ATOM     82  C   UNL A   1      32.736  23.037  26.032  1.00  0.00     0.214 C 
BRANCH  79  83
ATOM     83  O   UNL A   1      29.747  25.086  25.107  1.00  0.00    -0.387 OA
ATOM     84  H   UNL A   1      29.547  25.828  24.515  1.00  0.00     0.211 HD
ENDBRANCH  79  83
BRANCH  80  85
ATOM     85  O   UNL A   1      34.623  22.407  24.615  1.00  0.00    -0.454 OA
BRANCH  85  86
ATOM     86  C   UNL A   1      34.854  21.040  24.548  1.00  0.00     0.214 A 
ATOM     87  C   UNL A   1      36.016  20.472  24.934  1.00  0.00     0.181 A 
ATOM     88  C   UNL A   1      33.705  20.138  24.208  1.00  0.00     0.239 A 
ATOM     89  O   UNL A   1      36.258  19.118  24.969  1.00  0.00    -0.452 OA
ATOM     90  C   UNL A   1      33.931  18.678  24.397  1.00  0.00     0.111 A 
ATOM     91  O   UNL A   1      32.631  20.611  23.852  1.00  0.00    -0.285 OA
ATOM     92  C   UNL A   1      35.204  18.262  24.793  1.00  0.00     0.146 A 
ATOM     93  C   UNL A   1      32.933  17.705  24.239  1.00  0.00     0.134 A 
ATOM     94  C   UNL A   1      35.475  16.918  25.060  1.00  0.00     0.094 A 
ATOM     95  C   UNL A   1      33.197  16.354  24.509  1.00  0.00     0.093 A 
ATOM     96  C   UNL A   1      34.467  15.976  24.930  1.00  0.00     0.123 A 
BRANCH  87  97
ATOM     97  C   UNL A   1      37.207  21.268  25.283  1.00  0.00     0.029 A 
ATOM     98  C   UNL A   1      37.051  22.641  25.555  1.00  0.00     0.062 A 
ATOM     99  C   UNL A   1      38.453  20.655  25.507  1.00  0.00     0.062 A 
ATOM    100  C   UNL A   1      38.088  23.345  26.158  1.00  0.00     0.162 A 
ATOM    101  C   UNL A   1      39.483  21.387  26.083  1.00  0.00     0.162 A 
ATOM    102  C   UNL A   1      39.303  22.723  26.418  1.00  0.00     0.200 A 
BRANCH 100 103
ATOM    103  O   UNL A   1      37.851  24.621  26.581  1.00  0.00    -0.504 OA
ATOM    104  H   UNL A   1      38.569  25.199  26.749  1.00  0.00     0.293 HD
ENDBRANCH 100 103
BRANCH 101 105
ATOM    105  O   UNL A   1      40.660  20.759  26.379  1.00  0.00    -0.504 OA
ATOM    106  H   UNL A   1      41.378  21.250  26.726  1.00  0.00     0.293 HD
ENDBRANCH 101 105
BRANCH 102 107
ATOM    107  O   UNL A   1      40.332  23.396  27.019  1.00  0.00    -0.502 OA
ATOM    108  H   UNL A   1      40.425  24.319  26.891  1.00  0.00     0.293 HD
ENDBRANCH 102 107
ENDBRANCH  87  97
BRANCH  93 109
ATOM    109  O   UNL A   1      31.667  18.045  23.853  1.00  0.00    -0.507 OA
ATOM    110  H   UNL A   1      30.973  18.063  24.482  1.00  0.00     0.293 HD
ENDBRANCH  93 109
BRANCH  96 111
ATOM    111  O   UNL A   1      34.765  14.685  25.246  1.00  0.00    -0.508 OA
ATOM    112  H   UNL A   1      35.659  14.407  25.284  1.00  0.00     0.293 HD
ENDBRANCH  96 111
ENDBRANCH  85  86
ENDBRANCH  80  85
BRANCH  81 113
ATOM    113  O   UNL A   1      31.329  24.357  27.469  1.00  0.00    -0.387 OA
ATOM    114  H   UNL A   1      30.437  24.709  27.619  1.00  0.00     0.211 HD
ENDBRANCH  81 113
BRANCH  82 115
ATOM    115  O   UNL A   1      32.630  21.772  26.706  1.00  0.00    -0.384 OA
ATOM    116  H   UNL A   1      32.941  21.066  26.117  1.00  0.00     0.211 HD
ENDBRANCH  82 115
ENDBRANCH  75  77
ENDBRANCH  74  75
ENDBRANCH  73  74
ENDBRANCH   1  73
TORSDOF 28
ENDMDL
