MODEL 1
REMARK VINA RESULT:     -11.7      0.000      0.000
REMARK SMILES Cc1cc(C)c2c(c1)C=C(C(=O)OCCOCCOC(=O)c1ccc(-c3c4nc(c(-c5cc(S(=O)(=O)[O-])ccc5F)c5ccc([nH]5)c(-c5cc(S(=O)(=O)[O-])ccc5F)c5nc(c(-c6cc(S(=O)(=O)[O-])ccc6F)c6ccc3[nH]6)C=C5)C=C4)cc1)[C@@H](C(F)(F)F)O2
REMARK SMILES IDX 17 1 16 2 15 3 14 4 13 5 11 6 12 7 10 8 1 9 2 10 3 11 8 12
REMARK SMILES IDX 4 13 7 14 5 15 6 16 9 17 90 18 85 19 86 20 87 21 88 22 89 23
REMARK SMILES IDX 18 24 19 25 20 26 21 27 22 28 23 29 84 30 24 31 83 32 25 33
REMARK SMILES IDX 26 34 27 35 77 36 28 37 82 38 76 39 78 40 29 41 81 42 75 43
REMARK SMILES IDX 74 44 30 46 62 47 42 48 61 49 43 50 46 51 60 52 79 53 44 54
REMARK SMILES IDX 45 55 59 57 80 58 47 59 31 60 32 61 40 62 33 63 39 64 41 65
REMARK SMILES IDX 38 66 34 67 35 68 36 69 37 70 63 71 64 72 72 73 65 74 71 75
REMARK SMILES IDX 73 76 70 77 66 78 67 79 68 80 69 81 48 82 49 83 57 84 50 85
REMARK SMILES IDX 56 86 58 87 55 88 51 89 52 90 53 91 54 92
REMARK H PARENT 78 45 46 56
REMARK Flexibility Score: inf
ROOT
ATOM      1  C   UNL A   1      31.303  31.377  26.267  1.00  0.00     0.202 C 
ENDROOT
BRANCH   1   2
ATOM      2  O   UNL A   1      32.094  30.271  26.708  1.00  0.00    -0.374 OA
BRANCH   2   3
ATOM      3  C   UNL A   1      33.317  30.008  26.027  1.00  0.00     0.202 C 
BRANCH   3   4
ATOM      4  C   UNL A   1      33.657  28.544  25.732  1.00  0.00     0.261 C 
BRANCH   4   5
ATOM      5  O   UNL A   1      33.718  28.275  24.323  1.00  0.00    -0.460 OA
BRANCH   5   6
ATOM      6  C   UNL A   1      33.081  27.144  23.942  1.00  0.00     0.338 C 
ATOM      7  O   UNL A   1      33.533  26.008  23.943  1.00  0.00    -0.246 OA
BRANCH   6   8
ATOM      8  C   UNL A   1      31.670  27.445  23.634  1.00  0.00     0.087 C 
ATOM      9  C   UNL A   1      28.274  31.980  21.234  1.00  0.00     0.044 C 
ATOM     10  C   UNL A   1      28.544  30.671  21.915  1.00  0.00    -0.050 A 
ATOM     11  C   UNL A   1      27.489  29.918  22.446  1.00  0.00     0.010 A 
ATOM     12  C   UNL A   1      29.848  30.185  22.030  1.00  0.00     0.015 A 
ATOM     13  C   UNL A   1      27.727  28.691  23.088  1.00  0.00    -0.008 A 
ATOM     14  C   UNL A   1      30.100  28.974  22.686  1.00  0.00     0.018 A 
ATOM     15  C   UNL A   1      26.581  27.919  23.681  1.00  0.00     0.048 C 
ATOM     16  C   UNL A   1      29.043  28.215  23.191  1.00  0.00     0.130 A 
ATOM     17  C   UNL A   1      31.469  28.550  22.908  1.00  0.00     0.027 C 
ATOM     18  O   UNL A   1      29.222  26.998  23.791  1.00  0.00    -0.475 OA
ATOM     19  C   UNL A   1      30.566  26.564  24.144  1.00  0.00     0.316 C 
BRANCH  19  20
ATOM     20  C   UNL A   1      30.619  26.369  25.667  1.00  0.00     0.430 C 
ATOM     21  F   UNL A   1      31.569  25.467  26.012  1.00  0.00    -0.167 F 
ATOM     22  F   UNL A   1      30.918  27.518  26.313  1.00  0.00    -0.167 F 
ATOM     23  F   UNL A   1      29.440  25.922  26.157  1.00  0.00    -0.167 F 
ENDBRANCH  19  20
ENDBRANCH   6   8
ENDBRANCH   5   6
ENDBRANCH   4   5
ENDBRANCH   3   4
ENDBRANCH   2   3
ENDBRANCH   1   2
BRANCH   1  24
ATOM     24  C   UNL A   1      31.821  32.794  26.543  1.00  0.00     0.261 C 
BRANCH  24  25
ATOM     25  O   UNL A   1      32.277  32.959  27.898  1.00  0.00    -0.460 OA
BRANCH  25  26
ATOM     26  C   UNL A   1      33.297  33.838  28.050  1.00  0.00     0.338 C 
ATOM     27  O   UNL A   1      33.218  35.059  28.096  1.00  0.00    -0.246 OA
BRANCH  26  28
ATOM     28  C   UNL A   1      34.539  33.110  28.360  1.00  0.00     0.060 A 
ATOM     29  C   UNL A   1      34.425  31.856  28.974  1.00  0.00     0.016 A 
ATOM     30  C   UNL A   1      35.793  33.681  28.130  1.00  0.00     0.016 A 
ATOM     31  C   UNL A   1      35.569  31.180  29.389  1.00  0.00     0.010 A 
ATOM     32  C   UNL A   1      36.939  33.004  28.560  1.00  0.00     0.010 A 
ATOM     33  C   UNL A   1      36.830  31.766  29.220  1.00  0.00    -0.014 A 
BRANCH  33  34
ATOM     34  C   UNL A   1      38.002  31.145  29.886  1.00  0.00     0.031 A 
ATOM     35  C   UNL A   1      38.288  31.496  31.321  1.00  0.00     0.074 A 
ATOM     36  C   UNL A   1      38.740  30.217  29.251  1.00  0.00     0.049 A 
ATOM     37  N   UNL A   1      39.221  31.039  32.114  1.00  0.00    -0.248 NA
ATOM     38  C   UNL A   1      37.400  32.490  31.947  1.00  0.00     0.031 C 
ATOM     39  C   UNL A   1      38.520  29.757  27.881  1.00  0.00     0.029 A 
ATOM     40  N   UNL A   1      39.813  29.478  29.685  1.00  0.00    -0.354 N 
ATOM     41  C   UNL A   1      39.023  31.672  33.334  1.00  0.00     0.074 A 
ATOM     42  C   UNL A   1      37.913  32.585  33.164  1.00  0.00     0.031 C 
ATOM     43  C   UNL A   1      39.417  28.797  27.594  1.00  0.00     0.029 A 
ATOM     44  C   UNL A   1      40.295  28.597  28.745  1.00  0.00     0.049 A 
ATOM     45  H   UNL A   1      40.202  29.571  30.584  1.00  0.00     0.167 HD
ATOM     46  C   UNL A   1      39.690  31.490  34.500  1.00  0.00     0.034 A 
ATOM     47  C   UNL A   1      41.328  27.732  28.806  1.00  0.00     0.034 A 
ATOM     48  C   UNL A   1      40.790  30.579  34.662  1.00  0.00     0.049 A 
ATOM     49  C   UNL A   1      42.132  27.638  30.080  1.00  0.00     0.074 A 
ATOM     50  C   UNL A   1      41.528  30.318  35.802  1.00  0.00     0.029 A 
ATOM     51  N   UNL A   1      41.315  29.783  33.654  1.00  0.00    -0.354 N 
ATOM     52  N   UNL A   1      41.938  28.252  31.223  1.00  0.00    -0.248 NA
ATOM     53  C   UNL A   1      43.298  26.741  30.071  1.00  0.00     0.031 C 
ATOM     54  C   UNL A   1      42.539  29.414  35.470  1.00  0.00     0.029 A 
ATOM     55  C   UNL A   1      42.393  29.061  34.138  1.00  0.00     0.049 A 
ATOM     56  H   UNL A   1      40.973  29.738  32.732  1.00  0.00     0.167 HD
ATOM     57  C   UNL A   1      42.945  27.803  32.073  1.00  0.00     0.074 A 
ATOM     58  C   UNL A   1      43.742  26.861  31.315  1.00  0.00     0.031 C 
ATOM     59  C   UNL A   1      43.184  28.137  33.365  1.00  0.00     0.034 A 
BRANCH  46  60
ATOM     60  C   UNL A   1      39.257  32.307  35.686  1.00  0.00     0.023 A 
ATOM     61  C   UNL A   1      38.483  31.747  36.716  1.00  0.00     0.031 A 
ATOM     62  C   UNL A   1      39.649  33.653  35.804  1.00  0.00     0.131 A 
ATOM     63  C   UNL A   1      38.093  32.540  37.803  1.00  0.00     0.055 A 
ATOM     64  C   UNL A   1      39.307  34.420  36.919  1.00  0.00     0.041 A 
ATOM     65  F   UNL A   1      40.374  34.240  34.839  1.00  0.00    -0.206 F 
ATOM     66  C   UNL A   1      38.519  33.866  37.924  1.00  0.00     0.022 A 
BRANCH  63  67
ATOM     67  S   UNL A   1      36.957  31.836  39.028  1.00  0.00     0.124 S 
ATOM     68  O   UNL A   1      37.666  32.107  40.277  1.00  0.00    -0.237 OA
ATOM     69  O   UNL A   1      35.736  32.604  38.809  1.00  0.00    -0.237 OA
ATOM     70  O   UNL A   1      36.881  30.425  38.654  1.00  0.00    -0.744 OA
ENDBRANCH  63  67
ENDBRANCH  46  60
BRANCH  47  71
ATOM     71  C   UNL A   1      41.684  26.902  27.622  1.00  0.00     0.023 A 
ATOM     72  C   UNL A   1      41.410  25.525  27.594  1.00  0.00     0.031 A 
ATOM     73  C   UNL A   1      42.327  27.471  26.508  1.00  0.00     0.131 A 
ATOM     74  C   UNL A   1      41.800  24.758  26.485  1.00  0.00     0.055 A 
ATOM     75  C   UNL A   1      42.675  26.712  25.390  1.00  0.00     0.041 A 
ATOM     76  F   UNL A   1      42.612  28.783  26.486  1.00  0.00    -0.206 F 
ATOM     77  C   UNL A   1      42.419  25.345  25.377  1.00  0.00     0.022 A 
BRANCH  74  78
ATOM     78  S   UNL A   1      41.525  22.966  26.524  1.00  0.00     0.124 S 
ATOM     79  O   UNL A   1      40.071  22.888  26.436  1.00  0.00    -0.237 OA
ATOM     80  O   UNL A   1      42.266  22.518  25.350  1.00  0.00    -0.237 OA
ATOM     81  O   UNL A   1      42.096  22.562  27.808  1.00  0.00    -0.744 OA
ENDBRANCH  74  78
ENDBRANCH  47  71
BRANCH  59  82
ATOM     82  C   UNL A   1      44.352  27.485  34.057  1.00  0.00     0.023 A 
ATOM     83  C   UNL A   1      44.191  26.300  34.792  1.00  0.00     0.031 A 
ATOM     84  C   UNL A   1      45.650  28.001  33.895  1.00  0.00     0.131 A 
ATOM     85  C   UNL A   1      45.313  25.670  35.349  1.00  0.00     0.055 A 
ATOM     86  C   UNL A   1      46.767  27.348  34.417  1.00  0.00     0.041 A 
ATOM     87  F   UNL A   1      45.855  29.127  33.192  1.00  0.00    -0.206 F 
ATOM     88  C   UNL A   1      46.601  26.175  35.149  1.00  0.00     0.022 A 
BRANCH  85  89
ATOM     89  S   UNL A   1      45.069  24.172  36.340  1.00  0.00     0.124 S 
ATOM     90  O   UNL A   1      44.287  24.677  37.465  1.00  0.00    -0.237 OA
ATOM     91  O   UNL A   1      44.361  23.291  35.418  1.00  0.00    -0.237 OA
ATOM     92  O   UNL A   1      46.430  23.753  36.670  1.00  0.00    -0.744 OA
ENDBRANCH  85  89
ENDBRANCH  59  82
ENDBRANCH  33  34
ENDBRANCH  26  28
ENDBRANCH  25  26
ENDBRANCH  24  25
ENDBRANCH   1  24
TORSDOF 18
ENDMDL
MODEL 2
REMARK VINA RESULT:     -11.6      2.351      3.723
REMARK SMILES Cc1cc(C)c2c(c1)C=C(C(=O)OCCOCCOC(=O)c1ccc(-c3c4nc(c(-c5cc(S(=O)(=O)[O-])ccc5F)c5ccc([nH]5)c(-c5cc(S(=O)(=O)[O-])ccc5F)c5nc(c(-c6cc(S(=O)(=O)[O-])ccc6F)c6ccc3[nH]6)C=C5)C=C4)cc1)[C@@H](C(F)(F)F)O2
REMARK SMILES IDX 17 1 16 2 15 3 14 4 13 5 11 6 12 7 10 8 1 9 2 10 3 11 8 12
REMARK SMILES IDX 4 13 7 14 5 15 6 16 9 17 90 18 85 19 86 20 87 21 88 22 89 23
REMARK SMILES IDX 18 24 19 25 20 26 21 27 22 28 23 29 84 30 24 31 83 32 25 33
REMARK SMILES IDX 26 34 27 35 77 36 28 37 82 38 76 39 78 40 29 41 81 42 75 43
REMARK SMILES IDX 74 44 30 46 62 47 42 48 61 49 43 50 46 51 60 52 79 53 44 54
REMARK SMILES IDX 45 55 59 57 80 58 47 59 31 60 32 61 40 62 33 63 39 64 41 65
REMARK SMILES IDX 38 66 34 67 35 68 36 69 37 70 63 71 64 72 72 73 65 74 71 75
REMARK SMILES IDX 73 76 70 77 66 78 67 79 68 80 69 81 48 82 49 83 57 84 50 85
REMARK SMILES IDX 56 86 58 87 55 88 51 89 52 90 53 91 54 92
REMARK H PARENT 78 45 46 56
REMARK Flexibility Score: inf
ROOT
ATOM      1  C   UNL A   1      31.401  31.542  26.323  1.00  0.00     0.202 C 
ENDROOT
BRANCH   1   2
ATOM      2  O   UNL A   1      32.409  30.537  26.450  1.00  0.00    -0.374 OA
BRANCH   2   3
ATOM      3  C   UNL A   1      32.081  29.343  27.155  1.00  0.00     0.202 C 
BRANCH   3   4
ATOM      4  C   UNL A   1      32.815  28.062  26.749  1.00  0.00     0.261 C 
BRANCH   4   5
ATOM      5  O   UNL A   1      32.196  27.416  25.625  1.00  0.00    -0.460 OA
BRANCH   5   6
ATOM      6  C   UNL A   1      33.065  26.951  24.699  1.00  0.00     0.338 C 
ATOM      7  O   UNL A   1      33.778  27.614  23.960  1.00  0.00    -0.246 OA
BRANCH   6   8
ATOM      8  C   UNL A   1      33.147  25.481  24.785  1.00  0.00     0.087 C 
ATOM      9  C   UNL A   1      37.406  21.044  25.011  1.00  0.00     0.044 C 
ATOM     10  C   UNL A   1      36.028  21.630  24.917  1.00  0.00    -0.050 A 
ATOM     11  C   UNL A   1      34.923  20.807  24.668  1.00  0.00     0.010 A 
ATOM     12  C   UNL A   1      35.827  23.004  25.076  1.00  0.00     0.015 A 
ATOM     13  C   UNL A   1      33.627  21.342  24.576  1.00  0.00    -0.008 A 
ATOM     14  C   UNL A   1      34.544  23.552  24.965  1.00  0.00     0.018 A 
ATOM     15  C   UNL A   1      32.462  20.442  24.272  1.00  0.00     0.048 C 
ATOM     16  C   UNL A   1      33.442  22.723  24.742  1.00  0.00     0.130 A 
ATOM     17  C   UNL A   1      34.373  24.991  25.005  1.00  0.00     0.027 C 
ATOM     18  O   UNL A   1      32.159  23.194  24.681  1.00  0.00    -0.475 OA
ATOM     19  C   UNL A   1      31.925  24.628  24.603  1.00  0.00     0.316 C 
BRANCH  19  20
ATOM     20  C   UNL A   1      31.190  24.920  23.285  1.00  0.00     0.430 C 
ATOM     21  F   UNL A   1      30.700  26.183  23.268  1.00  0.00    -0.167 F 
ATOM     22  F   UNL A   1      32.007  24.804  22.215  1.00  0.00    -0.167 F 
ATOM     23  F   UNL A   1      30.148  24.078  23.094  1.00  0.00    -0.167 F 
ENDBRANCH  19  20
ENDBRANCH   6   8
ENDBRANCH   5   6
ENDBRANCH   4   5
ENDBRANCH   3   4
ENDBRANCH   2   3
ENDBRANCH   1   2
BRANCH   1  24
ATOM     24  C   UNL A   1      31.782  32.994  26.638  1.00  0.00     0.261 C 
BRANCH  24  25
ATOM     25  O   UNL A   1      32.296  33.151  27.973  1.00  0.00    -0.460 OA
BRANCH  25  26
ATOM     26  C   UNL A   1      33.334  34.014  28.084  1.00  0.00     0.338 C 
ATOM     27  O   UNL A   1      33.279  35.237  28.094  1.00  0.00    -0.246 OA
BRANCH  26  28
ATOM     28  C   UNL A   1      34.566  33.271  28.399  1.00  0.00     0.060 A 
ATOM     29  C   UNL A   1      34.436  32.014  29.000  1.00  0.00     0.016 A 
ATOM     30  C   UNL A   1      35.827  33.833  28.186  1.00  0.00     0.016 A 
ATOM     31  C   UNL A   1      35.569  31.322  29.419  1.00  0.00     0.010 A 
ATOM     32  C   UNL A   1      36.963  33.142  28.621  1.00  0.00     0.010 A 
ATOM     33  C   UNL A   1      36.837  31.899  29.268  1.00  0.00    -0.014 A 
BRANCH  33  34
ATOM     34  C   UNL A   1      37.996  31.261  29.939  1.00  0.00     0.031 A 
ATOM     35  C   UNL A   1      38.293  31.622  31.370  1.00  0.00     0.074 A 
ATOM     36  C   UNL A   1      38.714  30.311  29.315  1.00  0.00     0.049 A 
ATOM     37  N   UNL A   1      39.216  31.154  32.167  1.00  0.00    -0.248 NA
ATOM     38  C   UNL A   1      37.427  32.642  31.986  1.00  0.00     0.031 C 
ATOM     39  C   UNL A   1      38.481  29.840  27.950  1.00  0.00     0.029 A 
ATOM     40  N   UNL A   1      39.772  29.554  29.755  1.00  0.00    -0.354 N 
ATOM     41  C   UNL A   1      39.034  31.806  33.380  1.00  0.00     0.074 A 
ATOM     42  C   UNL A   1      37.944  32.740  33.201  1.00  0.00     0.031 C 
ATOM     43  C   UNL A   1      39.358  28.858  27.672  1.00  0.00     0.029 A 
ATOM     44  C   UNL A   1      40.233  28.652  28.824  1.00  0.00     0.049 A 
ATOM     45  H   UNL A   1      40.164  29.649  30.653  1.00  0.00     0.167 HD
ATOM     46  C   UNL A   1      39.699  31.623  34.546  1.00  0.00     0.034 A 
ATOM     47  C   UNL A   1      41.248  27.767  28.894  1.00  0.00     0.034 A 
ATOM     48  C   UNL A   1      40.780  30.691  34.717  1.00  0.00     0.049 A 
ATOM     49  C   UNL A   1      42.052  27.670  30.168  1.00  0.00     0.074 A 
ATOM     50  C   UNL A   1      41.515  30.428  35.860  1.00  0.00     0.029 A 
ATOM     51  N   UNL A   1      41.287  29.873  33.718  1.00  0.00    -0.354 N 
ATOM     52  N   UNL A   1      41.873  28.301  31.304  1.00  0.00    -0.248 NA
ATOM     53  C   UNL A   1      43.199  26.749  30.167  1.00  0.00     0.031 C 
ATOM     54  C   UNL A   1      42.506  29.499  35.537  1.00  0.00     0.029 A 
ATOM     55  C   UNL A   1      42.350  29.134  34.208  1.00  0.00     0.049 A 
ATOM     56  H   UNL A   1      40.942  29.825  32.798  1.00  0.00     0.167 HD
ATOM     57  C   UNL A   1      42.872  27.841  32.157  1.00  0.00     0.074 A 
ATOM     58  C   UNL A   1      43.648  26.873  31.409  1.00  0.00     0.031 C 
ATOM     59  C   UNL A   1      43.121  28.185  33.445  1.00  0.00     0.034 A 
BRANCH  46  60
ATOM     60  C   UNL A   1      39.286  32.463  35.724  1.00  0.00     0.023 A 
ATOM     61  C   UNL A   1      39.736  33.785  35.874  1.00  0.00     0.031 A 
ATOM     62  C   UNL A   1      38.406  31.946  36.692  1.00  0.00     0.131 A 
ATOM     63  C   UNL A   1      39.336  34.535  36.987  1.00  0.00     0.055 A 
ATOM     64  C   UNL A   1      37.963  32.719  37.766  1.00  0.00     0.041 A 
ATOM     65  F   UNL A   1      37.961  30.682  36.604  1.00  0.00    -0.206 F 
ATOM     66  C   UNL A   1      38.433  34.019  37.922  1.00  0.00     0.022 A 
BRANCH  63  67
ATOM     67  S   UNL A   1      40.067  36.174  37.238  1.00  0.00     0.124 S 
ATOM     68  O   UNL A   1      41.428  35.831  37.645  1.00  0.00    -0.237 OA
ATOM     69  O   UNL A   1      39.931  36.789  35.923  1.00  0.00    -0.237 OA
ATOM     70  O   UNL A   1      39.238  36.762  38.289  1.00  0.00    -0.744 OA
ENDBRANCH  63  67
ENDBRANCH  46  60
BRANCH  47  71
ATOM     71  C   UNL A   1      41.585  26.916  27.719  1.00  0.00     0.023 A 
ATOM     72  C   UNL A   1      41.264  25.549  27.699  1.00  0.00     0.031 A 
ATOM     73  C   UNL A   1      42.255  27.454  26.606  1.00  0.00     0.131 A 
ATOM     74  C   UNL A   1      41.636  24.761  26.598  1.00  0.00     0.055 A 
ATOM     75  C   UNL A   1      42.586  26.675  25.496  1.00  0.00     0.041 A 
ATOM     76  F   UNL A   1      42.586  28.755  26.577  1.00  0.00    -0.206 F 
ATOM     77  C   UNL A   1      42.283  25.317  25.491  1.00  0.00     0.022 A 
BRANCH  74  78
ATOM     78  S   UNL A   1      41.299  22.979  26.649  1.00  0.00     0.124 S 
ATOM     79  O   UNL A   1      39.851  22.947  26.481  1.00  0.00    -0.237 OA
ATOM     80  O   UNL A   1      42.088  22.488  25.524  1.00  0.00    -0.237 OA
ATOM     81  O   UNL A   1      41.784  22.579  27.968  1.00  0.00    -0.744 OA
ENDBRANCH  74  78
ENDBRANCH  47  71
BRANCH  59  82
ATOM     82  C   UNL A   1      44.275  27.516  34.142  1.00  0.00     0.023 A 
ATOM     83  C   UNL A   1      44.114  26.283  34.794  1.00  0.00     0.031 A 
ATOM     84  C   UNL A   1      45.565  28.071  34.068  1.00  0.00     0.131 A 
ATOM     85  C   UNL A   1      45.228  25.644  35.357  1.00  0.00     0.055 A 
ATOM     86  C   UNL A   1      46.676  27.411  34.594  1.00  0.00     0.041 A 
ATOM     87  F   UNL A   1      45.770  29.243  33.447  1.00  0.00    -0.206 F 
ATOM     88  C   UNL A   1      46.510  26.190  35.244  1.00  0.00     0.022 A 
BRANCH  85  89
ATOM     89  S   UNL A   1      44.983  24.081  36.241  1.00  0.00     0.124 S 
ATOM     90  O   UNL A   1      46.284  23.437  36.085  1.00  0.00    -0.237 OA
ATOM     91  O   UNL A   1      44.651  24.526  37.590  1.00  0.00    -0.237 OA
ATOM     92  O   UNL A   1      43.885  23.444  35.515  1.00  0.00    -0.744 OA
ENDBRANCH  85  89
ENDBRANCH  59  82
ENDBRANCH  33  34
ENDBRANCH  26  28
ENDBRANCH  25  26
ENDBRANCH  24  25
ENDBRANCH   1  24
TORSDOF 18
ENDMDL
MODEL 3
REMARK VINA RESULT:     -11.5      2.453      3.942
REMARK SMILES Cc1cc(C)c2c(c1)C=C(C(=O)OCCOCCOC(=O)c1ccc(-c3c4nc(c(-c5cc(S(=O)(=O)[O-])ccc5F)c5ccc([nH]5)c(-c5cc(S(=O)(=O)[O-])ccc5F)c5nc(c(-c6cc(S(=O)(=O)[O-])ccc6F)c6ccc3[nH]6)C=C5)C=C4)cc1)[C@@H](C(F)(F)F)O2
REMARK SMILES IDX 17 1 16 2 15 3 14 4 13 5 11 6 12 7 10 8 1 9 2 10 3 11 8 12
REMARK SMILES IDX 4 13 7 14 5 15 6 16 9 17 90 18 85 19 86 20 87 21 88 22 89 23
REMARK SMILES IDX 18 24 19 25 20 26 21 27 22 28 23 29 84 30 24 31 83 32 25 33
REMARK SMILES IDX 26 34 27 35 77 36 28 37 82 38 76 39 78 40 29 41 81 42 75 43
REMARK SMILES IDX 74 44 30 46 62 47 42 48 61 49 43 50 46 51 60 52 79 53 44 54
REMARK SMILES IDX 45 55 59 57 80 58 47 59 31 60 32 61 40 62 33 63 39 64 41 65
REMARK SMILES IDX 38 66 34 67 35 68 36 69 37 70 63 71 64 72 72 73 65 74 71 75
REMARK SMILES IDX 73 76 70 77 66 78 67 79 68 80 69 81 48 82 49 83 57 84 50 85
REMARK SMILES IDX 56 86 58 87 55 88 51 89 52 90 53 91 54 92
REMARK H PARENT 78 45 46 56
REMARK Flexibility Score: inf
ROOT
ATOM      1  C   UNL A   1      31.918  29.198  26.074  1.00  0.00     0.202 C 
ENDROOT
BRANCH   1   2
ATOM      2  O   UNL A   1      31.475  28.831  24.767  1.00  0.00    -0.374 OA
BRANCH   2   3
ATOM      3  C   UNL A   1      30.681  27.655  24.633  1.00  0.00     0.202 C 
BRANCH   3   4
ATOM      4  C   UNL A   1      30.486  27.095  23.220  1.00  0.00     0.261 C 
BRANCH   4   5
ATOM      5  O   UNL A   1      30.944  25.739  23.107  1.00  0.00    -0.460 OA
BRANCH   5   6
ATOM      6  C   UNL A   1      32.096  25.594  22.413  1.00  0.00     0.338 C 
ATOM      7  O   UNL A   1      32.521  26.326  21.531  1.00  0.00    -0.246 OA
BRANCH   6   8
ATOM      8  C   UNL A   1      32.874  24.469  22.964  1.00  0.00     0.087 C 
ATOM      9  C   UNL A   1      32.278  18.428  23.977  1.00  0.00     0.044 C 
ATOM     10  C   UNL A   1      32.926  19.780  24.038  1.00  0.00    -0.050 A 
ATOM     11  C   UNL A   1      34.081  19.978  24.804  1.00  0.00     0.010 A 
ATOM     12  C   UNL A   1      32.387  20.859  23.333  1.00  0.00     0.015 A 
ATOM     13  C   UNL A   1      34.698  21.238  24.871  1.00  0.00    -0.008 A 
ATOM     14  C   UNL A   1      32.981  22.124  23.409  1.00  0.00     0.018 A 
ATOM     15  C   UNL A   1      35.917  21.433  25.730  1.00  0.00     0.048 C 
ATOM     16  C   UNL A   1      34.147  22.311  24.154  1.00  0.00     0.130 A 
ATOM     17  C   UNL A   1      32.335  23.258  22.776  1.00  0.00     0.027 C 
ATOM     18  O   UNL A   1      34.803  23.510  24.220  1.00  0.00    -0.475 OA
ATOM     19  C   UNL A   1      34.158  24.709  23.704  1.00  0.00     0.316 C 
BRANCH  19  20
ATOM     20  C   UNL A   1      33.997  25.701  24.865  1.00  0.00     0.430 C 
ATOM     21  F   UNL A   1      33.988  26.980  24.419  1.00  0.00    -0.167 F 
ATOM     22  F   UNL A   1      32.837  25.512  25.533  1.00  0.00    -0.167 F 
ATOM     23  F   UNL A   1      35.004  25.593  25.762  1.00  0.00    -0.167 F 
ENDBRANCH  19  20
ENDBRANCH   6   8
ENDBRANCH   5   6
ENDBRANCH   4   5
ENDBRANCH   3   4
ENDBRANCH   2   3
ENDBRANCH   1   2
BRANCH   1  24
ATOM     24  C   UNL A   1      32.238  30.674  26.343  1.00  0.00     0.261 C 
BRANCH  24  25
ATOM     25  O   UNL A   1      32.864  30.878  27.622  1.00  0.00    -0.460 OA
BRANCH  25  26
ATOM     26  C   UNL A   1      33.718  31.929  27.675  1.00  0.00     0.338 C 
ATOM     27  O   UNL A   1      33.425  33.118  27.656  1.00  0.00    -0.246 OA
BRANCH  26  28
ATOM     28  C   UNL A   1      35.079  31.450  27.966  1.00  0.00     0.060 A 
ATOM     29  C   UNL A   1      35.251  30.083  28.217  1.00  0.00     0.016 A 
ATOM     30  C   UNL A   1      36.154  32.336  28.074  1.00  0.00     0.016 A 
ATOM     31  C   UNL A   1      36.498  29.600  28.607  1.00  0.00     0.010 A 
ATOM     32  C   UNL A   1      37.401  31.849  28.479  1.00  0.00     0.010 A 
ATOM     33  C   UNL A   1      37.570  30.484  28.778  1.00  0.00    -0.014 A 
BRANCH  33  34
ATOM     34  C   UNL A   1      38.809  29.988  29.426  1.00  0.00     0.031 A 
ATOM     35  C   UNL A   1      39.167  30.504  30.793  1.00  0.00     0.074 A 
ATOM     36  C   UNL A   1      39.550  29.027  28.846  1.00  0.00     0.049 A 
ATOM     37  N   UNL A   1      40.167  30.174  31.566  1.00  0.00    -0.248 NA
ATOM     38  C   UNL A   1      38.273  31.523  31.369  1.00  0.00     0.031 C 
ATOM     39  C   UNL A   1      39.267  28.412  27.549  1.00  0.00     0.029 A 
ATOM     40  N   UNL A   1      40.682  28.384  29.282  1.00  0.00    -0.354 N 
ATOM     41  C   UNL A   1      40.016  30.928  32.723  1.00  0.00     0.074 A 
ATOM     42  C   UNL A   1      38.855  31.771  32.532  1.00  0.00     0.031 C 
ATOM     43  C   UNL A   1      40.190  27.465  27.306  1.00  0.00     0.029 A 
ATOM     44  C   UNL A   1      41.146  27.427  28.410  1.00  0.00     0.049 A 
ATOM     45  H   UNL A   1      41.121  28.590  30.139  1.00  0.00     0.167 HD
ATOM     46  C   UNL A   1      40.761  30.901  33.854  1.00  0.00     0.034 A 
ATOM     47  C   UNL A   1      42.221  26.617  28.494  1.00  0.00     0.034 A 
ATOM     48  C   UNL A   1      41.912  30.059  34.038  1.00  0.00     0.049 A 
ATOM     49  C   UNL A   1      43.106  26.694  29.714  1.00  0.00     0.074 A 
ATOM     50  C   UNL A   1      42.731  29.954  35.148  1.00  0.00     0.029 A 
ATOM     51  N   UNL A   1      42.411  29.180  33.088  1.00  0.00    -0.354 N 
ATOM     52  N   UNL A   1      42.954  27.421  30.796  1.00  0.00    -0.248 NA
ATOM     53  C   UNL A   1      44.311  25.851  29.722  1.00  0.00     0.031 C 
ATOM     54  C   UNL A   1      43.762  29.061  34.847  1.00  0.00     0.029 A 
ATOM     55  C   UNL A   1      43.550  28.560  33.572  1.00  0.00     0.049 A 
ATOM     56  H   UNL A   1      42.015  29.021  32.201  1.00  0.00     0.167 HD
ATOM     57  C   UNL A   1      44.032  27.108  31.619  1.00  0.00     0.074 A 
ATOM     58  C   UNL A   1      44.825  26.123  30.914  1.00  0.00     0.031 C 
ATOM     59  C   UNL A   1      44.335  27.590  32.850  1.00  0.00     0.034 A 
BRANCH  46  60
ATOM     60  C   UNL A   1      40.364  31.824  34.974  1.00  0.00     0.023 A 
ATOM     61  C   UNL A   1      39.395  31.451  35.919  1.00  0.00     0.031 A 
ATOM     62  C   UNL A   1      40.985  33.078  35.116  1.00  0.00     0.131 A 
ATOM     63  C   UNL A   1      39.045  32.339  36.945  1.00  0.00     0.055 A 
ATOM     64  C   UNL A   1      40.675  33.932  36.175  1.00  0.00     0.041 A 
ATOM     65  F   UNL A   1      41.905  33.489  34.228  1.00  0.00    -0.206 F 
ATOM     66  C   UNL A   1      39.695  33.568  37.094  1.00  0.00     0.022 A 
BRANCH  63  67
ATOM     67  S   UNL A   1      37.675  31.898  38.046  1.00  0.00     0.124 S 
ATOM     68  O   UNL A   1      37.410  30.517  37.648  1.00  0.00    -0.237 OA
ATOM     69  O   UNL A   1      38.258  32.078  39.370  1.00  0.00    -0.237 OA
ATOM     70  O   UNL A   1      36.628  32.854  37.691  1.00  0.00    -0.744 OA
ENDBRANCH  63  67
ENDBRANCH  46  60
BRANCH  47  71
ATOM     71  C   UNL A   1      42.542  25.678  27.383  1.00  0.00     0.023 A 
ATOM     72  C   UNL A   1      42.045  24.365  27.378  1.00  0.00     0.031 A 
ATOM     73  C   UNL A   1      43.374  26.074  26.320  1.00  0.00     0.131 A 
ATOM     74  C   UNL A   1      42.403  23.487  26.342  1.00  0.00     0.055 A 
ATOM     75  C   UNL A   1      43.693  25.210  25.272  1.00  0.00     0.041 A 
ATOM     76  F   UNL A   1      43.877  27.318  26.280  1.00  0.00    -0.206 F 
ATOM     77  C   UNL A   1      43.213  23.905  25.283  1.00  0.00     0.022 A 
BRANCH  74  78
ATOM     78  S   UNL A   1      41.828  21.769  26.419  1.00  0.00     0.124 S 
ATOM     79  O   UNL A   1      42.086  21.432  27.815  1.00  0.00    -0.237 OA
ATOM     80  O   UNL A   1      40.425  21.899  26.038  1.00  0.00    -0.237 OA
ATOM     81  O   UNL A   1      42.673  21.083  25.444  1.00  0.00    -0.744 OA
ENDBRANCH  74  78
ENDBRANCH  47  71
BRANCH  59  82
ATOM     82  C   UNL A   1      45.573  27.066  33.527  1.00  0.00     0.023 A 
ATOM     83  C   UNL A   1      45.552  25.860  34.246  1.00  0.00     0.031 A 
ATOM     84  C   UNL A   1      46.803  27.728  33.368  1.00  0.00     0.131 A 
ATOM     85  C   UNL A   1      46.741  25.354  34.790  1.00  0.00     0.055 A 
ATOM     86  C   UNL A   1      47.990  27.199  33.875  1.00  0.00     0.041 A 
ATOM     87  F   UNL A   1      46.875  28.879  32.680  1.00  0.00    -0.206 F 
ATOM     88  C   UNL A   1      47.963  26.005  34.592  1.00  0.00     0.022 A 
BRANCH  85  89
ATOM     89  S   UNL A   1      46.675  23.825  35.761  1.00  0.00     0.124 S 
ATOM     90  O   UNL A   1      46.437  22.821  34.728  1.00  0.00    -0.237 OA
ATOM     91  O   UNL A   1      47.991  23.790  36.390  1.00  0.00    -0.237 OA
ATOM     92  O   UNL A   1      45.559  24.049  36.678  1.00  0.00    -0.744 OA
ENDBRANCH  85  89
ENDBRANCH  59  82
ENDBRANCH  33  34
ENDBRANCH  26  28
ENDBRANCH  25  26
ENDBRANCH  24  25
ENDBRANCH   1  24
TORSDOF 18
ENDMDL
