MODEL 1
REMARK VINA RESULT:     -11.1      0.000      0.000
REMARK SMILES O=C(OCCOCCOC(=O)[C@@H]1C=C[C@H](NC(=O)c2ccc(Cl)cc2[N+](=O)[O-])C1)c1ccc(-c2c3nc(c(-c4cc(S(=O)(=O)[O-])ccc4F)c4ccc([nH]4)c(-c4cc(S(=O)(=O)[O-])ccc4F)c4nc(c(-c5cc(S(=O)(=O)[O-])ccc5F)c5ccc2[nH]5)C=C4)C=C3)cc1
REMARK SMILES IDX 6 1 5 2 4 3 3 4 2 5 1 6 30 7 31 8 92 9 32 10 91 11 33 12
REMARK SMILES IDX 34 13 35 14 85 15 36 16 90 17 84 18 86 19 37 20 89 21 83 22
REMARK SMILES IDX 82 23 38 25 70 26 50 27 69 28 51 29 54 30 68 31 87 32 52 33
REMARK SMILES IDX 53 34 67 36 88 37 55 38 39 39 40 40 48 41 41 42 47 43 49 44
REMARK SMILES IDX 46 45 42 46 43 47 44 48 45 49 71 50 72 51 80 52 73 53 79 54
REMARK SMILES IDX 81 55 78 56 74 57 75 58 76 59 77 60 56 61 57 62 65 63 58 64
REMARK SMILES IDX 64 65 66 66 63 67 59 68 60 69 61 70 62 71 7 72 8 73 9 74
REMARK SMILES IDX 10 75 11 76 12 77 13 78 29 79 14 80 15 81 16 82 17 83 18 85
REMARK SMILES IDX 19 86 20 87 25 88 21 89 24 90 22 91 23 92 26 93 27 94 28 95
REMARK H PARENT 86 24 54 35 16 84
REMARK Flexibility Score: inf
ROOT
ATOM      1  O   UNL A   1      31.762  29.821  26.998  1.00  0.00    -0.374 OA
ENDROOT
BRANCH   1   2
ATOM      2  C   UNL A   1      31.441  30.998  26.264  1.00  0.00     0.202 C 
BRANCH   2   3
ATOM      3  C   UNL A   1      31.502  32.412  26.894  1.00  0.00     0.261 C 
BRANCH   3   4
ATOM      4  O   UNL A   1      32.791  33.067  26.908  1.00  0.00    -0.460 OA
BRANCH   4   5
ATOM      5  C   UNL A   1      33.417  33.560  28.016  1.00  0.00     0.338 C 
ATOM      6  O   UNL A   1      32.972  34.500  28.654  1.00  0.00    -0.246 OA
BRANCH   5   7
ATOM      7  C   UNL A   1      34.690  32.923  28.401  1.00  0.00     0.060 A 
ATOM      8  C   UNL A   1      34.679  31.582  28.746  1.00  0.00     0.016 A 
ATOM      9  C   UNL A   1      35.884  33.636  28.469  1.00  0.00     0.016 A 
ATOM     10  C   UNL A   1      35.696  31.049  29.487  1.00  0.00     0.010 A 
ATOM     11  C   UNL A   1      37.019  33.000  28.982  1.00  0.00     0.010 A 
ATOM     12  C   UNL A   1      36.910  31.717  29.546  1.00  0.00    -0.014 A 
BRANCH  12  13
ATOM     13  C   UNL A   1      38.012  31.022  30.239  1.00  0.00     0.031 A 
ATOM     14  C   UNL A   1      38.167  31.209  31.714  1.00  0.00     0.074 A 
ATOM     15  C   UNL A   1      38.751  30.126  29.552  1.00  0.00     0.049 A 
ATOM     16  N   UNL A   1      39.127  30.806  32.499  1.00  0.00    -0.248 NA
ATOM     17  C   UNL A   1      37.105  31.964  32.396  1.00  0.00     0.031 C 
ATOM     18  C   UNL A   1      38.565  29.782  28.132  1.00  0.00     0.029 A 
ATOM     19  N   UNL A   1      39.758  29.293  29.949  1.00  0.00    -0.354 N 
ATOM     20  C   UNL A   1      38.828  31.327  33.753  1.00  0.00     0.074 A 
ATOM     21  C   UNL A   1      37.593  32.069  33.621  1.00  0.00     0.031 C 
ATOM     22  C   UNL A   1      39.348  28.745  27.816  1.00  0.00     0.029 A 
ATOM     23  C   UNL A   1      40.217  28.468  28.945  1.00  0.00     0.049 A 
ATOM     24  H   UNL A   1      40.121  29.282  30.864  1.00  0.00     0.167 HD
ATOM     25  C   UNL A   1      39.551  31.204  34.892  1.00  0.00     0.034 A 
ATOM     26  C   UNL A   1      41.271  27.633  28.923  1.00  0.00     0.034 A 
ATOM     27  C   UNL A   1      40.768  30.432  34.947  1.00  0.00     0.049 A 
ATOM     28  C   UNL A   1      42.105  27.580  30.172  1.00  0.00     0.074 A 
ATOM     29  C   UNL A   1      41.655  30.273  35.995  1.00  0.00     0.029 A 
ATOM     30  N   UNL A   1      41.267  29.676  33.886  1.00  0.00    -0.354 N 
ATOM     31  N   UNL A   1      41.906  28.187  31.321  1.00  0.00    -0.248 NA
ATOM     32  C   UNL A   1      43.315  26.760  30.117  1.00  0.00     0.031 C 
ATOM     33  C   UNL A   1      42.717  29.477  35.547  1.00  0.00     0.029 A 
ATOM     34  C   UNL A   1      42.455  29.065  34.247  1.00  0.00     0.049 A 
ATOM     35  H   UNL A   1      40.834  29.588  33.006  1.00  0.00     0.167 HD
ATOM     36  C   UNL A   1      42.958  27.807  32.140  1.00  0.00     0.074 A 
ATOM     37  C   UNL A   1      43.776  26.900  31.351  1.00  0.00     0.031 C 
ATOM     38  C   UNL A   1      43.233  28.168  33.420  1.00  0.00     0.034 A 
BRANCH  25  39
ATOM     39  C   UNL A   1      39.097  32.026  36.077  1.00  0.00     0.023 A 
ATOM     40  C   UNL A   1      38.380  31.466  37.150  1.00  0.00     0.031 A 
ATOM     41  C   UNL A   1      39.259  33.423  36.058  1.00  0.00     0.131 A 
ATOM     42  C   UNL A   1      37.751  32.305  38.085  1.00  0.00     0.055 A 
ATOM     43  C   UNL A   1      38.717  34.245  37.049  1.00  0.00     0.041 A 
ATOM     44  F   UNL A   1      39.906  34.024  35.047  1.00  0.00    -0.206 F 
ATOM     45  C   UNL A   1      37.934  33.690  38.057  1.00  0.00     0.022 A 
BRANCH  42  46
ATOM     46  S   UNL A   1      36.516  31.582  39.205  1.00  0.00     0.124 S 
ATOM     47  O   UNL A   1      35.390  32.497  39.029  1.00  0.00    -0.237 OA
ATOM     48  O   UNL A   1      36.341  30.242  38.657  1.00  0.00    -0.237 OA
ATOM     49  O   UNL A   1      37.162  31.643  40.514  1.00  0.00    -0.744 OA
ENDBRANCH  42  46
ENDBRANCH  25  39
BRANCH  26  50
ATOM     50  C   UNL A   1      41.634  26.884  27.685  1.00  0.00     0.023 A 
ATOM     51  C   UNL A   1      41.446  25.497  27.594  1.00  0.00     0.031 A 
ATOM     52  C   UNL A   1      42.193  27.541  26.570  1.00  0.00     0.131 A 
ATOM     53  C   UNL A   1      41.838  24.810  26.432  1.00  0.00     0.055 A 
ATOM     54  C   UNL A   1      42.524  26.862  25.396  1.00  0.00     0.041 A 
ATOM     55  F   UNL A   1      42.403  28.867  26.595  1.00  0.00    -0.206 F 
ATOM     56  C   UNL A   1      42.360  25.486  25.327  1.00  0.00     0.022 A 
BRANCH  53  57
ATOM     57  S   UNL A   1      41.732  22.998  26.416  1.00  0.00     0.124 S 
ATOM     58  O   UNL A   1      42.360  22.676  25.139  1.00  0.00    -0.237 OA
ATOM     59  O   UNL A   1      42.488  22.640  27.612  1.00  0.00    -0.237 OA
ATOM     60  O   UNL A   1      40.296  22.741  26.488  1.00  0.00    -0.744 OA
ENDBRANCH  53  57
ENDBRANCH  26  50
BRANCH  38  61
ATOM     61  C   UNL A   1      44.435  27.515  34.045  1.00  0.00     0.023 A 
ATOM     62  C   UNL A   1      44.348  26.276  34.700  1.00  0.00     0.031 A 
ATOM     63  C   UNL A   1      45.681  28.165  34.003  1.00  0.00     0.131 A 
ATOM     64  C   UNL A   1      45.474  25.756  35.349  1.00  0.00     0.055 A 
ATOM     65  C   UNL A   1      46.816  27.606  34.587  1.00  0.00     0.041 A 
ATOM     66  F   UNL A   1      45.812  29.354  33.393  1.00  0.00    -0.206 F 
ATOM     67  C   UNL A   1      46.713  26.401  35.278  1.00  0.00     0.022 A 
BRANCH  64  68
ATOM     68  S   UNL A   1      45.272  24.282  36.384  1.00  0.00     0.124 S 
ATOM     69  O   UNL A   1      44.978  24.868  37.689  1.00  0.00    -0.237 OA
ATOM     70  O   UNL A   1      44.166  23.591  35.731  1.00  0.00    -0.237 OA
ATOM     71  O   UNL A   1      46.567  23.613  36.283  1.00  0.00    -0.744 OA
ENDBRANCH  64  68
ENDBRANCH  38  61
ENDBRANCH  12  13
ENDBRANCH   5   7
ENDBRANCH   4   5
ENDBRANCH   3   4
ENDBRANCH   2   3
ENDBRANCH   1   2
BRANCH   1  72
ATOM     72  C   UNL A   1      32.094  28.624  26.303  1.00  0.00     0.202 C 
BRANCH  72  73
ATOM     73  C   UNL A   1      32.862  28.947  25.026  1.00  0.00     0.261 C 
BRANCH  73  74
ATOM     74  O   UNL A   1      33.039  27.719  24.292  1.00  0.00    -0.463 OA
BRANCH  74  75
ATOM     75  C   UNL A   1      32.783  27.785  22.961  1.00  0.00     0.312 C 
ATOM     76  O   UNL A   1      33.508  28.308  22.123  1.00  0.00    -0.252 OA
BRANCH  75  77
ATOM     77  C   UNL A   1      31.521  27.017  22.581  1.00  0.00     0.124 C 
ATOM     78  C   UNL A   1      30.236  27.462  23.198  1.00  0.00    -0.014 C 
ATOM     79  C   UNL A   1      31.632  25.561  23.048  1.00  0.00     0.048 C 
ATOM     80  C   UNL A   1      29.623  26.478  23.866  1.00  0.00    -0.006 C 
ATOM     81  C   UNL A   1      30.401  25.197  23.888  1.00  0.00     0.106 C 
BRANCH  81  82
ATOM     82  N   UNL A   1      30.701  24.915  25.284  1.00  0.00    -0.346 N 
ATOM     83  C   UNL A   1      31.701  24.280  25.971  1.00  0.00     0.258 C 
ATOM     84  H   UNL A   1      30.009  25.270  25.887  1.00  0.00     0.164 HD
ATOM     85  O   UNL A   1      31.498  24.109  27.173  1.00  0.00    -0.269 OA
BRANCH  83  86
ATOM     86  C   UNL A   1      33.045  23.899  25.442  1.00  0.00     0.117 A 
ATOM     87  C   UNL A   1      34.184  24.677  25.670  1.00  0.00     0.022 A 
ATOM     88  C   UNL A   1      33.261  22.586  24.966  1.00  0.00     0.283 A 
ATOM     89  C   UNL A   1      35.475  24.147  25.514  1.00  0.00     0.022 A 
ATOM     90  C   UNL A   1      34.548  22.037  24.820  1.00  0.00     0.107 A 
ATOM     91  C   UNL A   1      35.650  22.824  25.119  1.00  0.00     0.047 A 
ATOM     92  Cl  UNL A   1      37.235  22.178  24.991  1.00  0.00    -0.084 Cl
BRANCH  88  93
ATOM     93  N   UNL A   1      32.152  21.773  24.493  1.00  0.00     0.063 N 
ATOM     94  O   UNL A   1      31.612  22.107  23.430  1.00  0.00    -0.258 OA
ATOM     95  O   UNL A   1      31.747  20.889  25.264  1.00  0.00    -0.258 OA
ENDBRANCH  88  93
ENDBRANCH  83  86
ENDBRANCH  81  82
ENDBRANCH  75  77
ENDBRANCH  74  75
ENDBRANCH  73  74
ENDBRANCH  72  73
ENDBRANCH   1  72
TORSDOF 20
ENDMDL
MODEL 2
REMARK VINA RESULT:     -10.9      2.183      2.652
REMARK SMILES O=C(OCCOCCOC(=O)[C@@H]1C=C[C@H](NC(=O)c2ccc(Cl)cc2[N+](=O)[O-])C1)c1ccc(-c2c3nc(c(-c4cc(S(=O)(=O)[O-])ccc4F)c4ccc([nH]4)c(-c4cc(S(=O)(=O)[O-])ccc4F)c4nc(c(-c5cc(S(=O)(=O)[O-])ccc5F)c5ccc2[nH]5)C=C4)C=C3)cc1
REMARK SMILES IDX 6 1 5 2 4 3 3 4 2 5 1 6 30 7 31 8 92 9 32 10 91 11 33 12
REMARK SMILES IDX 34 13 35 14 85 15 36 16 90 17 84 18 86 19 37 20 89 21 83 22
REMARK SMILES IDX 82 23 38 25 70 26 50 27 69 28 51 29 54 30 68 31 87 32 52 33
REMARK SMILES IDX 53 34 67 36 88 37 55 38 39 39 40 40 48 41 41 42 47 43 49 44
REMARK SMILES IDX 46 45 42 46 43 47 44 48 45 49 71 50 72 51 80 52 73 53 79 54
REMARK SMILES IDX 81 55 78 56 74 57 75 58 76 59 77 60 56 61 57 62 65 63 58 64
REMARK SMILES IDX 64 65 66 66 63 67 59 68 60 69 61 70 62 71 7 72 8 73 9 74
REMARK SMILES IDX 10 75 11 76 12 77 13 78 29 79 14 80 15 81 16 82 17 83 18 85
REMARK SMILES IDX 19 86 20 87 25 88 21 89 24 90 22 91 23 92 26 93 27 94 28 95
REMARK H PARENT 86 24 54 35 16 84
REMARK Flexibility Score: inf
ROOT
ATOM      1  O   UNL A   1      33.055  30.654  26.485  1.00  0.00    -0.374 OA
ENDROOT
BRANCH   1   2
ATOM      2  C   UNL A   1      31.779  31.227  26.754  1.00  0.00     0.202 C 
BRANCH   2   3
ATOM      3  C   UNL A   1      31.569  32.754  26.900  1.00  0.00     0.261 C 
BRANCH   3   4
ATOM      4  O   UNL A   1      32.745  33.555  27.160  1.00  0.00    -0.460 OA
BRANCH   4   5
ATOM      5  C   UNL A   1      33.201  33.916  28.394  1.00  0.00     0.338 C 
ATOM      6  O   UNL A   1      32.603  34.706  29.105  1.00  0.00    -0.246 OA
BRANCH   5   7
ATOM      7  C   UNL A   1      34.481  33.327  28.831  1.00  0.00     0.060 A 
ATOM      8  C   UNL A   1      34.515  31.979  29.140  1.00  0.00     0.016 A 
ATOM      9  C   UNL A   1      35.634  34.093  28.980  1.00  0.00     0.016 A 
ATOM     10  C   UNL A   1      35.516  31.473  29.921  1.00  0.00     0.010 A 
ATOM     11  C   UNL A   1      36.770  33.496  29.537  1.00  0.00     0.010 A 
ATOM     12  C   UNL A   1      36.693  32.194  30.062  1.00  0.00    -0.014 A 
BRANCH  12  13
ATOM     13  C   UNL A   1      37.789  31.532  30.795  1.00  0.00     0.031 A 
ATOM     14  C   UNL A   1      37.968  31.832  32.249  1.00  0.00     0.074 A 
ATOM     15  C   UNL A   1      38.499  30.569  30.173  1.00  0.00     0.049 A 
ATOM     16  N   UNL A   1      38.929  31.470  33.052  1.00  0.00    -0.248 NA
ATOM     17  C   UNL A   1      36.931  32.661  32.882  1.00  0.00     0.031 C 
ATOM     18  C   UNL A   1      38.287  30.117  28.787  1.00  0.00     0.029 A 
ATOM     19  N   UNL A   1      39.494  29.747  30.623  1.00  0.00    -0.354 N 
ATOM     20  C   UNL A   1      38.658  32.096  34.264  1.00  0.00     0.074 A 
ATOM     21  C   UNL A   1      37.438  32.852  34.088  1.00  0.00     0.031 C 
ATOM     22  C   UNL A   1      39.044  29.042  28.545  1.00  0.00     0.029 A 
ATOM     23  C   UNL A   1      39.921  28.836  29.683  1.00  0.00     0.049 A 
ATOM     24  H   UNL A   1      39.868  29.801  31.531  1.00  0.00     0.167 HD
ATOM     25  C   UNL A   1      39.393  32.047  35.401  1.00  0.00     0.034 A 
ATOM     26  C   UNL A   1      40.957  27.978  29.715  1.00  0.00     0.034 A 
ATOM     27  C   UNL A   1      40.594  31.254  35.504  1.00  0.00     0.049 A 
ATOM     28  C   UNL A   1      41.807  28.006  30.954  1.00  0.00     0.074 A 
ATOM     29  C   UNL A   1      41.491  31.159  36.550  1.00  0.00     0.029 A 
ATOM     30  N   UNL A   1      41.062  30.406  34.500  1.00  0.00    -0.354 N 
ATOM     31  N   UNL A   1      41.635  28.706  32.054  1.00  0.00    -0.248 NA
ATOM     32  C   UNL A   1      42.998  27.157  30.951  1.00  0.00     0.031 C 
ATOM     33  C   UNL A   1      42.530  30.307  36.154  1.00  0.00     0.029 A 
ATOM     34  C   UNL A   1      42.242  29.800  34.894  1.00  0.00     0.049 A 
ATOM     35  H   UNL A   1      40.617  30.259  33.635  1.00  0.00     0.167 HD
ATOM     36  C   UNL A   1      42.690  28.368  32.888  1.00  0.00     0.074 A 
ATOM     37  C   UNL A   1      43.478  27.383  32.164  1.00  0.00     0.031 C 
ATOM     38  C   UNL A   1      42.990  28.823  34.132  1.00  0.00     0.034 A 
BRANCH  25  39
ATOM     39  C   UNL A   1      38.972  32.970  36.522  1.00  0.00     0.023 A 
ATOM     40  C   UNL A   1      39.468  34.281  36.644  1.00  0.00     0.031 A 
ATOM     41  C   UNL A   1      38.172  32.475  37.568  1.00  0.00     0.131 A 
ATOM     42  C   UNL A   1      39.263  34.999  37.834  1.00  0.00     0.055 A 
ATOM     43  C   UNL A   1      37.887  33.234  38.705  1.00  0.00     0.041 A 
ATOM     44  F   UNL A   1      37.692  31.221  37.529  1.00  0.00    -0.206 F 
ATOM     45  C   UNL A   1      38.455  34.495  38.856  1.00  0.00     0.022 A 
BRANCH  42  46
ATOM     46  S   UNL A   1      40.242  36.503  38.116  1.00  0.00     0.124 S 
ATOM     47  O   UNL A   1      39.288  37.341  38.841  1.00  0.00    -0.237 OA
ATOM     48  O   UNL A   1      41.370  36.003  38.893  1.00  0.00    -0.237 OA
ATOM     49  O   UNL A   1      40.565  36.962  36.768  1.00  0.00    -0.744 OA
ENDBRANCH  42  46
ENDBRANCH  25  39
BRANCH  26  50
ATOM     50  C   UNL A   1      41.288  27.125  28.535  1.00  0.00     0.023 A 
ATOM     51  C   UNL A   1      42.299  27.491  27.635  1.00  0.00     0.031 A 
ATOM     52  C   UNL A   1      40.584  25.932  28.276  1.00  0.00     0.131 A 
ATOM     53  C   UNL A   1      42.558  26.692  26.508  1.00  0.00     0.055 A 
ATOM     54  C   UNL A   1      40.886  25.111  27.188  1.00  0.00     0.041 A 
ATOM     55  F   UNL A   1      39.600  25.528  29.097  1.00  0.00    -0.206 F 
ATOM     56  C   UNL A   1      41.871  25.497  26.289  1.00  0.00     0.022 A 
BRANCH  53  57
ATOM     57  S   UNL A   1      43.758  27.282  25.281  1.00  0.00     0.124 S 
ATOM     58  O   UNL A   1      44.479  28.300  26.037  1.00  0.00    -0.237 OA
ATOM     59  O   UNL A   1      44.501  26.064  24.975  1.00  0.00    -0.237 OA
ATOM     60  O   UNL A   1      42.917  27.786  24.198  1.00  0.00    -0.744 OA
ENDBRANCH  53  57
ENDBRANCH  26  50
BRANCH  38  61
ATOM     61  C   UNL A   1      44.186  28.195  34.793  1.00  0.00     0.023 A 
ATOM     62  C   UNL A   1      44.079  27.020  35.554  1.00  0.00     0.031 A 
ATOM     63  C   UNL A   1      45.447  28.805  34.676  1.00  0.00     0.131 A 
ATOM     64  C   UNL A   1      45.204  26.528  36.229  1.00  0.00     0.055 A 
ATOM     65  C   UNL A   1      46.577  28.269  35.289  1.00  0.00     0.041 A 
ATOM     66  F   UNL A   1      45.597  29.934  33.964  1.00  0.00    -0.206 F 
ATOM     67  C   UNL A   1      46.456  27.132  36.084  1.00  0.00     0.022 A 
BRANCH  64  68
ATOM     68  S   UNL A   1      44.982  25.154  37.390  1.00  0.00     0.124 S 
ATOM     69  O   UNL A   1      46.320  24.570  37.424  1.00  0.00    -0.237 OA
ATOM     70  O   UNL A   1      44.554  25.838  38.605  1.00  0.00    -0.237 OA
ATOM     71  O   UNL A   1      43.961  24.328  36.750  1.00  0.00    -0.744 OA
ENDBRANCH  64  68
ENDBRANCH  38  61
ENDBRANCH  12  13
ENDBRANCH   5   7
ENDBRANCH   4   5
ENDBRANCH   3   4
ENDBRANCH   2   3
ENDBRANCH   1   2
BRANCH   1  72
ATOM     72  C   UNL A   1      33.140  29.340  25.944  1.00  0.00     0.202 C 
BRANCH  72  73
ATOM     73  C   UNL A   1      32.788  28.305  27.006  1.00  0.00     0.261 C 
BRANCH  73  74
ATOM     74  O   UNL A   1      32.797  27.007  26.380  1.00  0.00    -0.463 OA
BRANCH  74  75
ATOM     75  C   UNL A   1      31.588  26.533  25.986  1.00  0.00     0.312 C 
ATOM     76  O   UNL A   1      30.603  26.415  26.705  1.00  0.00    -0.252 OA
BRANCH  75  77
ATOM     77  C   UNL A   1      31.538  26.264  24.485  1.00  0.00     0.124 C 
ATOM     78  C   UNL A   1      30.216  25.890  23.899  1.00  0.00    -0.014 C 
ATOM     79  C   UNL A   1      32.413  25.052  24.140  1.00  0.00     0.048 C 
ATOM     80  C   UNL A   1      30.255  24.717  23.258  1.00  0.00    -0.006 C 
ATOM     81  C   UNL A   1      31.588  24.036  23.341  1.00  0.00     0.106 C 
BRANCH  81  82
ATOM     82  N   UNL A   1      31.370  22.775  24.035  1.00  0.00    -0.346 N 
ATOM     83  C   UNL A   1      32.148  21.870  24.705  1.00  0.00     0.258 C 
ATOM     84  H   UNL A   1      30.423  22.506  24.018  1.00  0.00     0.164 HD
ATOM     85  O   UNL A   1      31.592  20.817  25.018  1.00  0.00    -0.269 OA
BRANCH  83  86
ATOM     86  C   UNL A   1      33.541  22.082  25.200  1.00  0.00     0.117 A 
ATOM     87  C   UNL A   1      34.658  21.921  24.373  1.00  0.00     0.022 A 
ATOM     88  C   UNL A   1      33.753  22.753  26.425  1.00  0.00     0.283 A 
ATOM     89  C   UNL A   1      35.903  22.475  24.712  1.00  0.00     0.022 A 
ATOM     90  C   UNL A   1      34.990  23.327  26.769  1.00  0.00     0.107 A 
ATOM     91  C   UNL A   1      36.055  23.198  25.891  1.00  0.00     0.047 A 
ATOM     92  Cl  UNL A   1      37.570  23.918  26.256  1.00  0.00    -0.084 Cl
BRANCH  88  93
ATOM     93  N   UNL A   1      32.718  22.783  27.447  1.00  0.00     0.063 N 
ATOM     94  O   UNL A   1      31.681  23.410  27.191  1.00  0.00    -0.258 OA
ATOM     95  O   UNL A   1      33.013  22.292  28.547  1.00  0.00    -0.258 OA
ENDBRANCH  88  93
ENDBRANCH  83  86
ENDBRANCH  81  82
ENDBRANCH  75  77
ENDBRANCH  74  75
ENDBRANCH  73  74
ENDBRANCH  72  73
ENDBRANCH   1  72
TORSDOF 20
ENDMDL
MODEL 3
REMARK VINA RESULT:     -10.6      1.643      7.714
REMARK SMILES O=C(OCCOCCOC(=O)[C@@H]1C=C[C@H](NC(=O)c2ccc(Cl)cc2[N+](=O)[O-])C1)c1ccc(-c2c3nc(c(-c4cc(S(=O)(=O)[O-])ccc4F)c4ccc([nH]4)c(-c4cc(S(=O)(=O)[O-])ccc4F)c4nc(c(-c5cc(S(=O)(=O)[O-])ccc5F)c5ccc2[nH]5)C=C4)C=C3)cc1
REMARK SMILES IDX 6 1 5 2 4 3 3 4 2 5 1 6 30 7 31 8 92 9 32 10 91 11 33 12
REMARK SMILES IDX 34 13 35 14 85 15 36 16 90 17 84 18 86 19 37 20 89 21 83 22
REMARK SMILES IDX 82 23 38 25 70 26 50 27 69 28 51 29 54 30 68 31 87 32 52 33
REMARK SMILES IDX 53 34 67 36 88 37 55 38 39 39 40 40 48 41 41 42 47 43 49 44
REMARK SMILES IDX 46 45 42 46 43 47 44 48 45 49 71 50 72 51 80 52 73 53 79 54
REMARK SMILES IDX 81 55 78 56 74 57 75 58 76 59 77 60 56 61 57 62 65 63 58 64
REMARK SMILES IDX 64 65 66 66 63 67 59 68 60 69 61 70 62 71 7 72 8 73 9 74
REMARK SMILES IDX 10 75 11 76 12 77 13 78 29 79 14 80 15 81 16 82 17 83 18 85
REMARK SMILES IDX 19 86 20 87 25 88 21 89 24 90 22 91 23 92 26 93 27 94 28 95
REMARK H PARENT 86 24 54 35 16 84
REMARK Flexibility Score: inf
ROOT
ATOM      1  O   UNL A   1      33.231  30.196  25.932  1.00  0.00    -0.374 OA
ENDROOT
BRANCH   1   2
ATOM      2  C   UNL A   1      31.966  30.509  26.508  1.00  0.00     0.202 C 
BRANCH   2   3
ATOM      3  C   UNL A   1      31.528  31.963  26.810  1.00  0.00     0.261 C 
BRANCH   3   4
ATOM      4  O   UNL A   1      32.565  32.972  26.812  1.00  0.00    -0.460 OA
BRANCH   4   5
ATOM      5  C   UNL A   1      33.136  33.519  27.924  1.00  0.00     0.338 C 
ATOM      6  O   UNL A   1      32.618  34.437  28.539  1.00  0.00    -0.246 OA
BRANCH   5   7
ATOM      7  C   UNL A   1      34.438  32.969  28.345  1.00  0.00     0.060 A 
ATOM      8  C   UNL A   1      34.476  31.687  28.865  1.00  0.00     0.016 A 
ATOM      9  C   UNL A   1      35.612  33.714  28.275  1.00  0.00     0.016 A 
ATOM     10  C   UNL A   1      35.531  31.282  29.633  1.00  0.00     0.010 A 
ATOM     11  C   UNL A   1      36.782  33.179  28.827  1.00  0.00     0.010 A 
ATOM     12  C   UNL A   1      36.727  31.981  29.560  1.00  0.00    -0.014 A 
BRANCH  12  13
ATOM     13  C   UNL A   1      37.870  31.411  30.299  1.00  0.00     0.031 A 
ATOM     14  C   UNL A   1      38.830  30.526  29.570  1.00  0.00     0.074 A 
ATOM     15  C   UNL A   1      38.098  31.823  31.563  1.00  0.00     0.049 A 
ATOM     16  N   UNL A   1      39.820  29.820  30.042  1.00  0.00    -0.248 NA
ATOM     17  C   UNL A   1      38.643  30.409  28.116  1.00  0.00     0.031 C 
ATOM     18  C   UNL A   1      37.279  32.801  32.299  1.00  0.00     0.029 A 
ATOM     19  N   UNL A   1      39.107  31.534  32.438  1.00  0.00    -0.354 N 
ATOM     20  C   UNL A   1      40.322  29.110  28.957  1.00  0.00     0.074 A 
ATOM     21  C   UNL A   1      39.531  29.479  27.804  1.00  0.00     0.031 C 
ATOM     22  C   UNL A   1      37.877  33.106  33.456  1.00  0.00     0.029 A 
ATOM     23  C   UNL A   1      39.014  32.221  33.629  1.00  0.00     0.049 A 
ATOM     24  H   UNL A   1      39.830  30.898  32.238  1.00  0.00     0.167 HD
ATOM     25  C   UNL A   1      41.340  28.216  28.956  1.00  0.00     0.034 A 
ATOM     26  C   UNL A   1      39.730  32.094  34.761  1.00  0.00     0.034 A 
ATOM     27  C   UNL A   1      42.095  27.912  30.147  1.00  0.00     0.049 A 
ATOM     28  C   UNL A   1      40.797  31.036  34.760  1.00  0.00     0.074 A 
ATOM     29  C   UNL A   1      43.096  26.979  30.331  1.00  0.00     0.029 A 
ATOM     30  N   UNL A   1      41.921  28.556  31.372  1.00  0.00    -0.354 N 
ATOM     31  N   UNL A   1      41.182  30.257  33.773  1.00  0.00    -0.248 NA
ATOM     32  C   UNL A   1      41.503  30.817  36.021  1.00  0.00     0.031 C 
ATOM     33  C   UNL A   1      43.481  27.015  31.679  1.00  0.00     0.029 A 
ATOM     34  C   UNL A   1      42.781  28.030  32.319  1.00  0.00     0.049 A 
ATOM     35  H   UNL A   1      41.278  29.283  31.538  1.00  0.00     0.167 HD
ATOM     36  C   UNL A   1      42.195  29.463  34.288  1.00  0.00     0.074 A 
ATOM     37  C   UNL A   1      42.370  29.878  35.671  1.00  0.00     0.031 C 
ATOM     38  C   UNL A   1      42.916  28.481  33.687  1.00  0.00     0.034 A 
BRANCH  25  39
ATOM     39  C   UNL A   1      41.565  27.446  27.674  1.00  0.00     0.023 A 
ATOM     40  C   UNL A   1      41.404  26.050  27.597  1.00  0.00     0.031 A 
ATOM     41  C   UNL A   1      42.093  28.105  26.549  1.00  0.00     0.131 A 
ATOM     42  C   UNL A   1      41.879  25.352  26.474  1.00  0.00     0.055 A 
ATOM     43  C   UNL A   1      42.470  27.414  25.395  1.00  0.00     0.041 A 
ATOM     44  F   UNL A   1      42.302  29.431  26.568  1.00  0.00    -0.206 F 
ATOM     45  C   UNL A   1      42.389  26.026  25.362  1.00  0.00     0.022 A 
BRANCH  42  46
ATOM     46  S   UNL A   1      42.024  23.543  26.578  1.00  0.00     0.124 S 
ATOM     47  O   UNL A   1      40.652  23.159  26.904  1.00  0.00    -0.237 OA
ATOM     48  O   UNL A   1      42.485  23.188  25.241  1.00  0.00    -0.237 OA
ATOM     49  O   UNL A   1      42.994  23.336  27.650  1.00  0.00    -0.744 OA
ENDBRANCH  42  46
ENDBRANCH  25  39
BRANCH  26  50
ATOM     50  C   UNL A   1      39.402  32.901  35.973  1.00  0.00     0.023 A 
ATOM     51  C   UNL A   1      38.597  32.380  36.996  1.00  0.00     0.031 A 
ATOM     52  C   UNL A   1      39.877  34.220  36.124  1.00  0.00     0.131 A 
ATOM     53  C   UNL A   1      38.267  33.178  38.105  1.00  0.00     0.055 A 
ATOM     54  C   UNL A   1      39.597  34.986  37.257  1.00  0.00     0.041 A 
ATOM     55  F   UNL A   1      40.649  34.779  35.178  1.00  0.00    -0.206 F 
ATOM     56  C   UNL A   1      38.776  34.470  38.250  1.00  0.00     0.022 A 
BRANCH  53  57
ATOM     57  S   UNL A   1      37.091  32.528  39.325  1.00  0.00     0.124 S 
ATOM     58  O   UNL A   1      37.285  33.446  40.442  1.00  0.00    -0.237 OA
ATOM     59  O   UNL A   1      35.822  32.641  38.613  1.00  0.00    -0.237 OA
ATOM     60  O   UNL A   1      37.557  31.162  39.552  1.00  0.00    -0.744 OA
ENDBRANCH  53  57
ENDBRANCH  26  50
BRANCH  38  61
ATOM     61  C   UNL A   1      43.998  27.853  34.522  1.00  0.00     0.023 A 
ATOM     62  C   UNL A   1      45.297  28.384  34.572  1.00  0.00     0.031 A 
ATOM     63  C   UNL A   1      43.721  26.686  35.257  1.00  0.00     0.131 A 
ATOM     64  C   UNL A   1      46.293  27.708  35.288  1.00  0.00     0.055 A 
ATOM     65  C   UNL A   1      44.699  26.060  36.026  1.00  0.00     0.041 A 
ATOM     66  F   UNL A   1      42.496  26.139  35.235  1.00  0.00    -0.206 F 
ATOM     67  C   UNL A   1      45.998  26.562  36.033  1.00  0.00     0.022 A 
BRANCH  64  68
ATOM     68  S   UNL A   1      48.005  28.282  35.137  1.00  0.00     0.124 S 
ATOM     69  O   UNL A   1      48.566  27.317  34.197  1.00  0.00    -0.237 OA
ATOM     70  O   UNL A   1      47.837  29.640  34.633  1.00  0.00    -0.237 OA
ATOM     71  O   UNL A   1      48.518  28.187  36.503  1.00  0.00    -0.744 OA
ENDBRANCH  64  68
ENDBRANCH  38  61
ENDBRANCH  12  13
ENDBRANCH   5   7
ENDBRANCH   4   5
ENDBRANCH   3   4
ENDBRANCH   2   3
ENDBRANCH   1   2
BRANCH   1  72
ATOM     72  C   UNL A   1      33.790  28.900  26.117  1.00  0.00     0.202 C 
BRANCH  72  73
ATOM     73  C   UNL A   1      32.757  27.958  26.726  1.00  0.00     0.261 C 
BRANCH  73  74
ATOM     74  O   UNL A   1      32.594  26.841  25.829  1.00  0.00    -0.463 OA
BRANCH  74  75
ATOM     75  C   UNL A   1      31.630  26.980  24.884  1.00  0.00     0.312 C 
ATOM     76  O   UNL A   1      30.427  27.053  25.101  1.00  0.00    -0.252 OA
BRANCH  75  77
ATOM     77  C   UNL A   1      32.218  27.159  23.487  1.00  0.00     0.124 C 
ATOM     78  C   UNL A   1      31.287  27.013  22.328  1.00  0.00    -0.014 C 
ATOM     79  C   UNL A   1      33.266  26.073  23.216  1.00  0.00     0.048 C 
ATOM     80  C   UNL A   1      31.691  26.074  21.464  1.00  0.00    -0.006 C 
ATOM     81  C   UNL A   1      32.933  25.357  21.900  1.00  0.00     0.106 C 
BRANCH  81  82
ATOM     82  N   UNL A   1      32.571  23.957  22.064  1.00  0.00    -0.346 N 
ATOM     83  C   UNL A   1      33.145  22.848  22.624  1.00  0.00     0.258 C 
ATOM     84  H   UNL A   1      31.690  23.758  21.672  1.00  0.00     0.164 HD
ATOM     85  O   UNL A   1      32.571  21.781  22.405  1.00  0.00    -0.269 OA
BRANCH  83  86
ATOM     86  C   UNL A   1      34.305  22.821  23.565  1.00  0.00     0.117 A 
ATOM     87  C   UNL A   1      35.627  22.946  23.123  1.00  0.00     0.022 A 
ATOM     88  C   UNL A   1      34.084  22.982  24.951  1.00  0.00     0.283 A 
ATOM     89  C   UNL A   1      36.661  23.298  24.005  1.00  0.00     0.022 A 
ATOM     90  C   UNL A   1      35.108  23.351  25.842  1.00  0.00     0.107 A 
ATOM     91  C   UNL A   1      36.392  23.527  25.350  1.00  0.00     0.047 A 
ATOM     92  Cl  UNL A   1      37.661  24.015  26.399  1.00  0.00    -0.084 Cl
BRANCH  88  93
ATOM     93  N   UNL A   1      32.795  22.661  25.542  1.00  0.00     0.063 N 
ATOM     94  O   UNL A   1      32.521  21.463  25.699  1.00  0.00    -0.258 OA
ATOM     95  O   UNL A   1      32.014  23.610  25.716  1.00  0.00    -0.258 OA
ENDBRANCH  88  93
ENDBRANCH  83  86
ENDBRANCH  81  82
ENDBRANCH  75  77
ENDBRANCH  74  75
ENDBRANCH  73  74
ENDBRANCH  72  73
ENDBRANCH   1  72
TORSDOF 20
ENDMDL
