MODEL 1
REMARK VINA RESULT:     -11.1      0.000      0.000
REMARK SMILES CC(=O)OCC1=C(C(=O)OCCOCCOC(=O)c2ccc(-c3c4nc(c(-c5cc(S(=O)(=O)[O-])ccc5F)c5ccc([nH]5)c(-c5cc(S(=O)(=O)[O-])ccc5F)c5nc(c(-c6cc(S(=O)(=O)[O-])ccc6F)c6ccc3[nH]6)C=C5)C=C4)cc2)N2C(=O)[C@H](NC(=O)C3CCCCC3)[C@@H]2SC1
REMARK SMILES IDX 13 1 12 2 11 3 10 4 8 5 9 6 7 7 6 8 97 9 82 10 96 11 83 12
REMARK SMILES IDX 95 13 84 14 85 15 5 16 4 17 2 18 1 19 3 20 86 21 87 22 88 24
REMARK SMILES IDX 89 25 90 26 94 27 91 28 93 29 92 30 14 31 15 32 16 33 17 34
REMARK SMILES IDX 18 35 19 36 20 37 81 38 21 39 80 40 22 41 23 42 24 43 74 44
REMARK SMILES IDX 25 45 79 46 73 47 75 48 26 49 78 50 72 51 71 52 27 54 59 55
REMARK SMILES IDX 39 56 58 57 40 58 43 59 57 60 76 61 41 62 42 63 56 65 77 66
REMARK SMILES IDX 44 67 28 68 29 69 37 70 30 71 36 72 38 73 35 74 31 75 32 76
REMARK SMILES IDX 33 77 34 78 60 79 61 80 69 81 62 82 68 83 70 84 67 85 63 86
REMARK SMILES IDX 64 87 65 88 66 89 45 90 46 91 54 92 47 93 53 94 55 95 52 96
REMARK SMILES IDX 48 97 49 98 50 99 51 100
REMARK H PARENT 86 23 75 53 43 64
REMARK Flexibility Score: inf
ROOT
ATOM      1  O   UNL A   1      46.011  40.667  26.949  1.00  0.00    -0.374 OA
ENDROOT
BRANCH   1   2
ATOM      2  C   UNL A   1      46.938  41.017  25.921  1.00  0.00     0.202 C 
BRANCH   2   3
ATOM      3  C   UNL A   1      46.376  40.906  24.505  1.00  0.00     0.261 C 
BRANCH   3   4
ATOM      4  O   UNL A   1      46.796  42.042  23.730  1.00  0.00    -0.459 OA
BRANCH   4   5
ATOM      5  C   UNL A   1      46.794  41.886  22.389  1.00  0.00     0.355 C 
ATOM      6  O   UNL A   1      46.759  40.825  21.782  1.00  0.00    -0.244 OA
BRANCH   5   7
ATOM      7  C   UNL A   1      46.774  43.216  21.690  1.00  0.00     0.134 C 
ATOM      8  C   UNL A   1      47.887  43.952  21.441  1.00  0.00     0.008 C 
ATOM      9  C   UNL A   1      47.904  45.173  20.531  1.00  0.00     0.108 C 
ATOM     10  N   UNL A   1      45.572  43.607  21.182  1.00  0.00    -0.289 N 
ATOM     11  S   UNL A   1      46.591  45.147  19.278  1.00  0.00    -0.129 SA
ATOM     12  C   UNL A   1      44.295  43.182  21.166  1.00  0.00     0.253 C 
ATOM     13  C   UNL A   1      45.324  44.872  20.528  1.00  0.00     0.181 C 
ATOM     14  O   UNL A   1      43.688  42.310  21.745  1.00  0.00    -0.272 OA
ATOM     15  C   UNL A   1      43.975  44.259  20.062  1.00  0.00     0.205 C 
BRANCH   8  16
ATOM     16  C   UNL A   1      49.264  43.672  22.001  1.00  0.00     0.267 C 
BRANCH  16  17
ATOM     17  O   UNL A   1      50.288  44.488  21.431  1.00  0.00    -0.461 OA
BRANCH  17  18
ATOM     18  C   UNL A   1      51.389  43.870  20.934  1.00  0.00     0.302 C 
ATOM     19  C   UNL A   1      50.997  43.076  19.741  1.00  0.00     0.139 C 
ATOM     20  O   UNL A   1      52.525  43.934  21.379  1.00  0.00    -0.253 OA
ENDBRANCH  17  18
ENDBRANCH  16  17
ENDBRANCH   8  16
BRANCH  15  21
ATOM     21  N   UNL A   1      43.928  43.709  18.680  1.00  0.00    -0.342 N 
ATOM     22  C   UNL A   1      43.617  44.341  17.511  1.00  0.00     0.223 C 
ATOM     23  H   UNL A   1      44.154  42.754  18.596  1.00  0.00     0.164 HD
ATOM     24  O   UNL A   1      43.697  43.714  16.455  1.00  0.00    -0.275 OA
BRANCH  22  25
ATOM     25  C   UNL A   1      43.192  45.800  17.574  1.00  0.00     0.078 C 
ATOM     26  C   UNL A   1      44.322  46.726  17.101  1.00  0.00     0.013 C 
ATOM     27  C   UNL A   1      41.933  46.030  16.726  1.00  0.00     0.013 C 
ATOM     28  C   UNL A   1      43.894  48.191  17.124  1.00  0.00     0.001 C 
ATOM     29  C   UNL A   1      41.492  47.488  16.792  1.00  0.00     0.001 C 
ATOM     30  C   UNL A   1      42.608  48.419  16.333  1.00  0.00     0.000 C 
ENDBRANCH  22  25
ENDBRANCH  15  21
ENDBRANCH   5   7
ENDBRANCH   4   5
ENDBRANCH   3   4
ENDBRANCH   2   3
ENDBRANCH   1   2
BRANCH   1  31
ATOM     31  C   UNL A   1      45.715  39.274  27.069  1.00  0.00     0.202 C 
BRANCH  31  32
ATOM     32  C   UNL A   1      46.184  38.629  28.383  1.00  0.00     0.261 C 
BRANCH  32  33
ATOM     33  O   UNL A   1      46.909  37.402  28.160  1.00  0.00    -0.460 OA
BRANCH  33  34
ATOM     34  C   UNL A   1      47.105  36.600  29.242  1.00  0.00     0.338 C 
ATOM     35  O   UNL A   1      47.579  36.929  30.315  1.00  0.00    -0.246 OA
BRANCH  34  36
ATOM     36  C   UNL A   1      46.424  35.302  28.996  1.00  0.00     0.060 A 
ATOM     37  C   UNL A   1      46.626  34.262  29.912  1.00  0.00     0.016 A 
ATOM     38  C   UNL A   1      45.535  35.123  27.935  1.00  0.00     0.016 A 
ATOM     39  C   UNL A   1      45.927  33.053  29.779  1.00  0.00     0.010 A 
ATOM     40  C   UNL A   1      44.810  33.925  27.826  1.00  0.00     0.010 A 
ATOM     41  C   UNL A   1      45.009  32.867  28.735  1.00  0.00    -0.014 A 
BRANCH  41  42
ATOM     42  C   UNL A   1      44.358  31.537  28.508  1.00  0.00     0.031 A 
ATOM     43  C   UNL A   1      45.076  30.499  27.680  1.00  0.00     0.074 A 
ATOM     44  C   UNL A   1      43.154  31.223  29.032  1.00  0.00     0.049 A 
ATOM     45  N   UNL A   1      44.687  29.302  27.318  1.00  0.00    -0.248 NA
ATOM     46  C   UNL A   1      46.405  30.877  27.180  1.00  0.00     0.031 C 
ATOM     47  C   UNL A   1      42.342  32.095  29.879  1.00  0.00     0.029 A 
ATOM     48  N   UNL A   1      42.403  30.073  28.927  1.00  0.00    -0.354 N 
ATOM     49  C   UNL A   1      45.721  28.788  26.540  1.00  0.00     0.074 A 
ATOM     50  C   UNL A   1      46.710  29.838  26.423  1.00  0.00     0.031 C 
ATOM     51  C   UNL A   1      41.223  31.440  30.237  1.00  0.00     0.029 A 
ATOM     52  C   UNL A   1      41.207  30.119  29.607  1.00  0.00     0.049 A 
ATOM     53  H   UNL A   1      42.696  29.287  28.412  1.00  0.00     0.167 HD
ATOM     54  C   UNL A   1      45.856  27.551  25.995  1.00  0.00     0.034 A 
ATOM     55  C   UNL A   1      40.205  29.216  29.703  1.00  0.00     0.034 A 
ATOM     56  C   UNL A   1      44.873  26.502  26.107  1.00  0.00     0.049 A 
ATOM     57  C   UNL A   1      40.312  27.893  28.978  1.00  0.00     0.074 A 
ATOM     58  C   UNL A   1      44.939  25.207  25.622  1.00  0.00     0.029 A 
ATOM     59  N   UNL A   1      43.637  26.627  26.725  1.00  0.00    -0.354 N 
ATOM     60  N   UNL A   1      41.310  27.411  28.274  1.00  0.00    -0.248 NA
ATOM     61  C   UNL A   1      39.151  26.992  29.059  1.00  0.00     0.031 C 
ATOM     62  C   UNL A   1      43.710  24.583  25.861  1.00  0.00     0.029 A 
ATOM     63  C   UNL A   1      42.909  25.455  26.578  1.00  0.00     0.049 A 
ATOM     64  H   UNL A   1      43.322  27.430  27.200  1.00  0.00     0.167 HD
ATOM     65  C   UNL A   1      40.904  26.145  27.851  1.00  0.00     0.074 A 
ATOM     66  C   UNL A   1      39.578  25.930  28.389  1.00  0.00     0.031 C 
ATOM     67  C   UNL A   1      41.575  25.243  27.090  1.00  0.00     0.034 A 
BRANCH  54  68
ATOM     68  C   UNL A   1      47.107  27.294  25.187  1.00  0.00     0.023 A 
ATOM     69  C   UNL A   1      47.278  27.838  23.903  1.00  0.00     0.031 A 
ATOM     70  C   UNL A   1      48.110  26.438  25.675  1.00  0.00     0.131 A 
ATOM     71  C   UNL A   1      48.353  27.425  23.106  1.00  0.00     0.055 A 
ATOM     72  C   UNL A   1      49.238  26.118  24.917  1.00  0.00     0.041 A 
ATOM     73  F   UNL A   1      47.997  25.871  26.887  1.00  0.00    -0.206 F 
ATOM     74  C   UNL A   1      49.352  26.592  23.614  1.00  0.00     0.022 A 
BRANCH  71  75
ATOM     75  S   UNL A   1      48.305  27.811  21.333  1.00  0.00     0.124 S 
ATOM     76  O   UNL A   1      46.912  28.221  21.161  1.00  0.00    -0.237 OA
ATOM     77  O   UNL A   1      49.302  28.869  21.215  1.00  0.00    -0.237 OA
ATOM     78  O   UNL A   1      48.655  26.544  20.696  1.00  0.00    -0.744 OA
ENDBRANCH  71  75
ENDBRANCH  54  68
BRANCH  55  79
ATOM     79  C   UNL A   1      38.976  29.530  30.495  1.00  0.00     0.023 A 
ATOM     80  C   UNL A   1      38.007  30.420  30.004  1.00  0.00     0.031 A 
ATOM     81  C   UNL A   1      38.782  28.988  31.778  1.00  0.00     0.131 A 
ATOM     82  C   UNL A   1      36.904  30.765  30.802  1.00  0.00     0.055 A 
ATOM     83  C   UNL A   1      37.656  29.293  32.546  1.00  0.00     0.041 A 
ATOM     84  F   UNL A   1      39.683  28.143  32.302  1.00  0.00    -0.206 F 
ATOM     85  C   UNL A   1      36.713  30.194  32.062  1.00  0.00     0.022 A 
BRANCH  82  86
ATOM     86  S   UNL A   1      35.753  32.033  30.199  1.00  0.00     0.124 S 
ATOM     87  O   UNL A   1      36.648  33.164  29.981  1.00  0.00    -0.237 OA
ATOM     88  O   UNL A   1      35.208  31.403  29.002  1.00  0.00    -0.237 OA
ATOM     89  O   UNL A   1      34.809  32.187  31.304  1.00  0.00    -0.744 OA
ENDBRANCH  82  86
ENDBRANCH  55  79
BRANCH  67  90
ATOM     90  C   UNL A   1      40.898  23.921  26.800  1.00  0.00     0.023 A 
ATOM     91  C   UNL A   1      41.586  22.699  26.910  1.00  0.00     0.031 A 
ATOM     92  C   UNL A   1      39.540  23.880  26.436  1.00  0.00     0.131 A 
ATOM     93  C   UNL A   1      40.924  21.493  26.624  1.00  0.00     0.055 A 
ATOM     94  C   UNL A   1      38.871  22.675  26.213  1.00  0.00     0.041 A 
ATOM     95  F   UNL A   1      38.831  25.013  26.310  1.00  0.00    -0.206 F 
ATOM     96  C   UNL A   1      39.565  21.472  26.299  1.00  0.00     0.022 A 
BRANCH  93  97
ATOM     97  S   UNL A   1      41.881  19.951  26.616  1.00  0.00     0.124 S 
ATOM     98  O   UNL A   1      41.786  19.529  28.010  1.00  0.00    -0.237 OA
ATOM     99  O   UNL A   1      41.152  19.134  25.652  1.00  0.00    -0.237 OA
ATOM    100  O   UNL A   1      43.212  20.376  26.187  1.00  0.00    -0.744 OA
ENDBRANCH  93  97
ENDBRANCH  67  90
ENDBRANCH  41  42
ENDBRANCH  34  36
ENDBRANCH  33  34
ENDBRANCH  32  33
ENDBRANCH  31  32
ENDBRANCH   1  31
TORSDOF 22
ENDMDL
MODEL 2
REMARK VINA RESULT:     -11.0      7.445     16.286
REMARK SMILES CC(=O)OCC1=C(C(=O)OCCOCCOC(=O)c2ccc(-c3c4nc(c(-c5cc(S(=O)(=O)[O-])ccc5F)c5ccc([nH]5)c(-c5cc(S(=O)(=O)[O-])ccc5F)c5nc(c(-c6cc(S(=O)(=O)[O-])ccc6F)c6ccc3[nH]6)C=C5)C=C4)cc2)N2C(=O)[C@H](NC(=O)C3CCCCC3)[C@@H]2SC1
REMARK SMILES IDX 13 1 12 2 11 3 10 4 8 5 9 6 7 7 6 8 97 9 82 10 96 11 83 12
REMARK SMILES IDX 95 13 84 14 85 15 5 16 4 17 2 18 1 19 3 20 86 21 87 22 88 24
REMARK SMILES IDX 89 25 90 26 94 27 91 28 93 29 92 30 14 31 15 32 16 33 17 34
REMARK SMILES IDX 18 35 19 36 20 37 81 38 21 39 80 40 22 41 23 42 24 43 74 44
REMARK SMILES IDX 25 45 79 46 73 47 75 48 26 49 78 50 72 51 71 52 27 54 59 55
REMARK SMILES IDX 39 56 58 57 40 58 43 59 57 60 76 61 41 62 42 63 56 65 77 66
REMARK SMILES IDX 44 67 28 68 29 69 37 70 30 71 36 72 38 73 35 74 31 75 32 76
REMARK SMILES IDX 33 77 34 78 60 79 61 80 69 81 62 82 68 83 70 84 67 85 63 86
REMARK SMILES IDX 64 87 65 88 66 89 45 90 46 91 54 92 47 93 53 94 55 95 52 96
REMARK SMILES IDX 48 97 49 98 50 99 51 100
REMARK H PARENT 86 23 75 53 43 64
REMARK Flexibility Score: inf
ROOT
ATOM      1  O   UNL A   1      38.642  23.527  26.613  1.00  0.00    -0.374 OA
ENDROOT
BRANCH   1   2
ATOM      2  C   UNL A   1      37.998  22.974  25.465  1.00  0.00     0.202 C 
BRANCH   2   3
ATOM      3  C   UNL A   1      36.472  22.984  25.536  1.00  0.00     0.261 C 
BRANCH   3   4
ATOM      4  O   UNL A   1      35.953  23.939  24.594  1.00  0.00    -0.459 OA
BRANCH   4   5
ATOM      5  C   UNL A   1      35.376  23.433  23.483  1.00  0.00     0.355 C 
ATOM      6  O   UNL A   1      35.957  22.987  22.504  1.00  0.00    -0.244 OA
BRANCH   5   7
ATOM      7  C   UNL A   1      33.880  23.415  23.611  1.00  0.00     0.134 C 
ATOM      8  C   UNL A   1      33.183  22.382  24.152  1.00  0.00     0.008 C 
ATOM      9  C   UNL A   1      31.703  22.456  24.502  1.00  0.00     0.108 C 
ATOM     10  N   UNL A   1      33.237  24.567  23.276  1.00  0.00    -0.289 N 
ATOM     11  S   UNL A   1      31.132  24.146  24.834  1.00  0.00    -0.129 SA
ATOM     12  C   UNL A   1      33.531  25.777  22.764  1.00  0.00     0.253 C 
ATOM     13  C   UNL A   1      31.801  24.741  23.272  1.00  0.00     0.181 C 
ATOM     14  O   UNL A   1      34.520  26.264  22.265  1.00  0.00    -0.272 OA
ATOM     15  C   UNL A   1      32.081  26.264  23.142  1.00  0.00     0.205 C 
BRANCH   8  16
ATOM     16  C   UNL A   1      33.758  21.027  24.502  1.00  0.00     0.267 C 
BRANCH  16  17
ATOM     17  O   UNL A   1      33.000  19.934  23.982  1.00  0.00    -0.461 OA
BRANCH  17  18
ATOM     18  C   UNL A   1      32.979  18.781  24.695  1.00  0.00     0.302 C 
ATOM     19  C   UNL A   1      34.180  17.978  24.348  1.00  0.00     0.139 C 
ATOM     20  O   UNL A   1      32.123  18.434  25.495  1.00  0.00    -0.253 OA
ENDBRANCH  17  18
ENDBRANCH  16  17
ENDBRANCH   8  16
BRANCH  15  21
ATOM     21  N   UNL A   1      32.022  27.068  24.393  1.00  0.00    -0.342 N 
ATOM     22  C   UNL A   1      31.209  28.118  24.705  1.00  0.00     0.223 C 
ATOM     23  H   UNL A   1      32.659  26.804  25.096  1.00  0.00     0.164 HD
ATOM     24  O   UNL A   1      31.278  28.611  25.829  1.00  0.00    -0.275 OA
BRANCH  22  25
ATOM     25  C   UNL A   1      30.247  28.623  23.640  1.00  0.00     0.078 C 
ATOM     26  C   UNL A   1      28.912  27.865  23.696  1.00  0.00     0.013 C 
ATOM     27  C   UNL A   1      30.004  30.130  23.806  1.00  0.00     0.013 C 
ATOM     28  C   UNL A   1      27.926  28.389  22.656  1.00  0.00     0.001 C 
ATOM     29  C   UNL A   1      29.050  30.647  22.736  1.00  0.00     0.001 C 
ATOM     30  C   UNL A   1      27.724  29.897  22.775  1.00  0.00     0.000 C 
ENDBRANCH  22  25
ENDBRANCH  15  21
ENDBRANCH   5   7
ENDBRANCH   4   5
ENDBRANCH   3   4
ENDBRANCH   2   3
ENDBRANCH   1   2
BRANCH   1  31
ATOM     31  C   UNL A   1      40.071  23.559  26.566  1.00  0.00     0.202 C 
BRANCH  31  32
ATOM     32  C   UNL A   1      40.766  22.555  27.500  1.00  0.00     0.261 C 
BRANCH  32  33
ATOM     33  O   UNL A   1      42.202  22.694  27.478  1.00  0.00    -0.460 OA
BRANCH  33  34
ATOM     34  C   UNL A   1      42.781  22.864  26.258  1.00  0.00     0.338 C 
ATOM     35  O   UNL A   1      42.482  22.294  25.224  1.00  0.00    -0.246 OA
BRANCH  34  36
ATOM     36  C   UNL A   1      43.689  24.039  26.326  1.00  0.00     0.060 A 
ATOM     37  C   UNL A   1      43.966  24.735  25.143  1.00  0.00     0.016 A 
ATOM     38  C   UNL A   1      44.197  24.510  27.538  1.00  0.00     0.016 A 
ATOM     39  C   UNL A   1      44.734  25.908  25.173  1.00  0.00     0.010 A 
ATOM     40  C   UNL A   1      44.935  25.704  27.569  1.00  0.00     0.010 A 
ATOM     41  C   UNL A   1      45.229  26.411  26.386  1.00  0.00    -0.014 A 
BRANCH  41  42
ATOM     42  C   UNL A   1      46.157  27.586  26.411  1.00  0.00     0.031 A 
ATOM     43  C   UNL A   1      47.644  27.351  26.300  1.00  0.00     0.074 A 
ATOM     44  C   UNL A   1      45.712  28.856  26.516  1.00  0.00     0.049 A 
ATOM     45  N   UNL A   1      48.633  28.209  26.344  1.00  0.00    -0.248 NA
ATOM     46  C   UNL A   1      48.067  25.953  26.137  1.00  0.00     0.031 C 
ATOM     47  C   UNL A   1      44.310  29.261  26.600  1.00  0.00     0.029 A 
ATOM     48  N   UNL A   1      46.403  30.047  26.565  1.00  0.00    -0.354 N 
ATOM     49  C   UNL A   1      49.795  27.453  26.222  1.00  0.00     0.074 A 
ATOM     50  C   UNL A   1      49.383  26.066  26.184  1.00  0.00     0.031 C 
ATOM     51  C   UNL A   1      44.245  30.603  26.664  1.00  0.00     0.029 A 
ATOM     52  C   UNL A   1      45.598  31.159  26.676  1.00  0.00     0.049 A 
ATOM     53  H   UNL A   1      47.385  30.099  26.524  1.00  0.00     0.167 HD
ATOM     54  C   UNL A   1      51.085  27.866  26.121  1.00  0.00     0.034 A 
ATOM     55  C   UNL A   1      45.908  32.470  26.791  1.00  0.00     0.034 A 
ATOM     56  C   UNL A   1      51.502  29.246  26.160  1.00  0.00     0.049 A 
ATOM     57  C   UNL A   1      47.357  32.903  26.811  1.00  0.00     0.074 A 
ATOM     58  C   UNL A   1      52.780  29.762  26.027  1.00  0.00     0.029 A 
ATOM     59  N   UNL A   1      50.660  30.330  26.368  1.00  0.00    -0.354 N 
ATOM     60  N   UNL A   1      48.441  32.178  26.663  1.00  0.00    -0.248 NA
ATOM     61  C   UNL A   1      47.622  34.336  27.021  1.00  0.00     0.031 C 
ATOM     62  C   UNL A   1      52.724  31.142  26.251  1.00  0.00     0.029 A 
ATOM     63  C   UNL A   1      51.399  31.502  26.430  1.00  0.00     0.049 A 
ATOM     64  H   UNL A   1      49.682  30.274  26.458  1.00  0.00     0.167 HD
ATOM     65  C   UNL A   1      49.511  33.070  26.738  1.00  0.00     0.074 A 
ATOM     66  C   UNL A   1      48.944  34.388  26.929  1.00  0.00     0.031 C 
ATOM     67  C   UNL A   1      50.842  32.818  26.648  1.00  0.00     0.034 A 
BRANCH  54  68
ATOM     68  C   UNL A   1      52.140  26.790  26.003  1.00  0.00     0.023 A 
ATOM     69  C   UNL A   1      53.003  26.487  27.070  1.00  0.00     0.031 A 
ATOM     70  C   UNL A   1      52.333  26.108  24.789  1.00  0.00     0.131 A 
ATOM     71  C   UNL A   1      54.091  25.627  26.866  1.00  0.00     0.055 A 
ATOM     72  C   UNL A   1      53.352  25.167  24.627  1.00  0.00     0.041 A 
ATOM     73  F   UNL A   1      51.553  26.365  23.727  1.00  0.00    -0.206 F 
ATOM     74  C   UNL A   1      54.255  24.941  25.662  1.00  0.00     0.022 A 
BRANCH  71  75
ATOM     75  S   UNL A   1      55.405  25.596  28.118  1.00  0.00     0.124 S 
ATOM     76  O   UNL A   1      54.650  25.866  29.341  1.00  0.00    -0.237 OA
ATOM     77  O   UNL A   1      55.938  24.246  27.980  1.00  0.00    -0.237 OA
ATOM     78  O   UNL A   1      56.302  26.672  27.700  1.00  0.00    -0.744 OA
ENDBRANCH  71  75
ENDBRANCH  54  68
BRANCH  55  79
ATOM     79  C   UNL A   1      44.826  33.493  26.930  1.00  0.00     0.023 A 
ATOM     80  C   UNL A   1      44.307  33.831  28.190  1.00  0.00     0.031 A 
ATOM     81  C   UNL A   1      44.257  34.107  25.799  1.00  0.00     0.131 A 
ATOM     82  C   UNL A   1      43.234  34.731  28.288  1.00  0.00     0.055 A 
ATOM     83  C   UNL A   1      43.226  35.042  25.906  1.00  0.00     0.041 A 
ATOM     84  F   UNL A   1      44.705  33.811  24.569  1.00  0.00    -0.206 F 
ATOM     85  C   UNL A   1      42.702  35.352  27.157  1.00  0.00     0.022 A 
BRANCH  82  86
ATOM     86  S   UNL A   1      42.490  35.027  29.917  1.00  0.00     0.124 S 
ATOM     87  O   UNL A   1      43.020  33.911  30.691  1.00  0.00    -0.237 OA
ATOM     88  O   UNL A   1      43.009  36.348  30.254  1.00  0.00    -0.237 OA
ATOM     89  O   UNL A   1      41.054  34.975  29.648  1.00  0.00    -0.744 OA
ENDBRANCH  82  86
ENDBRANCH  55  79
BRANCH  67  90
ATOM     90  C   UNL A   1      51.792  33.991  26.739  1.00  0.00     0.023 A 
ATOM     91  C   UNL A   1      52.070  34.807  25.627  1.00  0.00     0.031 A 
ATOM     92  C   UNL A   1      52.408  34.317  27.962  1.00  0.00     0.131 A 
ATOM     93  C   UNL A   1      52.964  35.883  25.751  1.00  0.00     0.055 A 
ATOM     94  C   UNL A   1      53.248  35.425  28.095  1.00  0.00     0.041 A 
ATOM     95  F   UNL A   1      52.186  33.574  29.058  1.00  0.00    -0.206 F 
ATOM     96  C   UNL A   1      53.537  36.210  26.984  1.00  0.00     0.022 A 
BRANCH  93  97
ATOM     97  S   UNL A   1      53.426  36.812  24.263  1.00  0.00     0.124 S 
ATOM     98  O   UNL A   1      54.839  36.474  24.121  1.00  0.00    -0.237 OA
ATOM     99  O   UNL A   1      52.532  36.254  23.254  1.00  0.00    -0.237 OA
ATOM    100  O   UNL A   1      53.156  38.202  24.629  1.00  0.00    -0.744 OA
ENDBRANCH  93  97
ENDBRANCH  67  90
ENDBRANCH  41  42
ENDBRANCH  34  36
ENDBRANCH  33  34
ENDBRANCH  32  33
ENDBRANCH  31  32
ENDBRANCH   1  31
TORSDOF 22
ENDMDL
MODEL 3
REMARK VINA RESULT:     -10.6     10.079     14.816
REMARK SMILES CC(=O)OCC1=C(C(=O)OCCOCCOC(=O)c2ccc(-c3c4nc(c(-c5cc(S(=O)(=O)[O-])ccc5F)c5ccc([nH]5)c(-c5cc(S(=O)(=O)[O-])ccc5F)c5nc(c(-c6cc(S(=O)(=O)[O-])ccc6F)c6ccc3[nH]6)C=C5)C=C4)cc2)N2C(=O)[C@H](NC(=O)C3CCCCC3)[C@@H]2SC1
REMARK SMILES IDX 13 1 12 2 11 3 10 4 8 5 9 6 7 7 6 8 97 9 82 10 96 11 83 12
REMARK SMILES IDX 95 13 84 14 85 15 5 16 4 17 2 18 1 19 3 20 86 21 87 22 88 24
REMARK SMILES IDX 89 25 90 26 94 27 91 28 93 29 92 30 14 31 15 32 16 33 17 34
REMARK SMILES IDX 18 35 19 36 20 37 81 38 21 39 80 40 22 41 23 42 24 43 74 44
REMARK SMILES IDX 25 45 79 46 73 47 75 48 26 49 78 50 72 51 71 52 27 54 59 55
REMARK SMILES IDX 39 56 58 57 40 58 43 59 57 60 76 61 41 62 42 63 56 65 77 66
REMARK SMILES IDX 44 67 28 68 29 69 37 70 30 71 36 72 38 73 35 74 31 75 32 76
REMARK SMILES IDX 33 77 34 78 60 79 61 80 69 81 62 82 68 83 70 84 67 85 63 86
REMARK SMILES IDX 64 87 65 88 66 89 45 90 46 91 54 92 47 93 53 94 55 95 52 96
REMARK SMILES IDX 48 97 49 98 50 99 51 100
REMARK H PARENT 86 23 75 53 43 64
REMARK Flexibility Score: inf
ROOT
ATOM      1  O   UNL A   1      37.456  30.759  28.591  1.00  0.00    -0.374 OA
ENDROOT
BRANCH   1   2
ATOM      2  C   UNL A   1      38.190  31.845  29.156  1.00  0.00     0.202 C 
BRANCH   2   3
ATOM      3  C   UNL A   1      37.418  33.163  29.211  1.00  0.00     0.261 C 
BRANCH   3   4
ATOM      4  O   UNL A   1      37.040  33.444  30.569  1.00  0.00    -0.459 OA
BRANCH   4   5
ATOM      5  C   UNL A   1      37.734  34.418  31.196  1.00  0.00     0.355 C 
ATOM      6  O   UNL A   1      38.559  35.163  30.686  1.00  0.00    -0.244 OA
BRANCH   5   7
ATOM      7  C   UNL A   1      37.318  34.538  32.634  1.00  0.00     0.134 C 
ATOM      8  C   UNL A   1      36.050  34.817  33.030  1.00  0.00     0.008 C 
ATOM      9  C   UNL A   1      35.573  34.703  34.472  1.00  0.00     0.108 C 
ATOM     10  N   UNL A   1      38.264  34.216  33.559  1.00  0.00    -0.289 N 
ATOM     11  S   UNL A   1      36.541  33.522  35.453  1.00  0.00    -0.129 SA
ATOM     12  C   UNL A   1      39.564  33.867  33.596  1.00  0.00     0.253 C 
ATOM     13  C   UNL A   1      38.089  34.319  34.991  1.00  0.00     0.181 C 
ATOM     14  O   UNL A   1      40.453  33.836  32.777  1.00  0.00    -0.272 OA
ATOM     15  C   UNL A   1      39.393  33.484  35.115  1.00  0.00     0.205 C 
BRANCH   8  16
ATOM     16  C   UNL A   1      34.925  35.257  32.119  1.00  0.00     0.267 C 
BRANCH  16  17
ATOM     17  O   UNL A   1      34.361  34.190  31.354  1.00  0.00    -0.461 OA
BRANCH  17  18
ATOM     18  C   UNL A   1      33.758  34.503  30.180  1.00  0.00     0.302 C 
ATOM     19  C   UNL A   1      32.998  35.768  30.351  1.00  0.00     0.139 C 
ATOM     20  O   UNL A   1      33.811  33.863  29.140  1.00  0.00    -0.253 OA
ENDBRANCH  17  18
ENDBRANCH  16  17
ENDBRANCH   8  16
BRANCH  15  21
ATOM     21  N   UNL A   1      39.236  32.023  35.355  1.00  0.00    -0.342 N 
ATOM     22  C   UNL A   1      40.169  31.109  35.748  1.00  0.00     0.223 C 
ATOM     23  H   UNL A   1      38.330  31.666  35.210  1.00  0.00     0.164 HD
ATOM     24  O   UNL A   1      39.818  29.948  35.950  1.00  0.00    -0.275 OA
BRANCH  22  25
ATOM     25  C   UNL A   1      41.606  31.579  35.924  1.00  0.00     0.078 C 
ATOM     26  C   UNL A   1      42.312  30.793  37.038  1.00  0.00     0.013 C 
ATOM     27  C   UNL A   1      42.382  31.438  34.607  1.00  0.00     0.013 C 
ATOM     28  C   UNL A   1      43.765  31.230  37.198  1.00  0.00     0.001 C 
ATOM     29  C   UNL A   1      43.820  31.917  34.770  1.00  0.00     0.001 C 
ATOM     30  C   UNL A   1      44.531  31.151  35.880  1.00  0.00     0.000 C 
ENDBRANCH  22  25
ENDBRANCH  15  21
ENDBRANCH   5   7
ENDBRANCH   4   5
ENDBRANCH   3   4
ENDBRANCH   2   3
ENDBRANCH   1   2
BRANCH   1  31
ATOM     31  C   UNL A   1      36.393  30.244  29.397  1.00  0.00     0.202 C 
BRANCH  31  32
ATOM     32  C   UNL A   1      36.793  29.078  30.316  1.00  0.00     0.261 C 
BRANCH  32  33
ATOM     33  O   UNL A   1      36.426  29.318  31.691  1.00  0.00    -0.460 OA
BRANCH  33  34
ATOM     34  C   UNL A   1      37.215  30.176  32.394  1.00  0.00     0.338 C 
ATOM     35  O   UNL A   1      36.843  31.117  33.073  1.00  0.00    -0.246 OA
BRANCH  34  36
ATOM     36  C   UNL A   1      38.602  29.642  32.403  1.00  0.00     0.060 A 
ATOM     37  C   UNL A   1      38.784  28.265  32.582  1.00  0.00     0.016 A 
ATOM     38  C   UNL A   1      39.708  30.457  32.156  1.00  0.00     0.016 A 
ATOM     39  C   UNL A   1      40.065  27.701  32.497  1.00  0.00     0.010 A 
ATOM     40  C   UNL A   1      40.985  29.884  32.036  1.00  0.00     0.010 A 
ATOM     41  C   UNL A   1      41.184  28.502  32.222  1.00  0.00    -0.014 A 
BRANCH  41  42
ATOM     42  C   UNL A   1      42.568  27.931  32.260  1.00  0.00     0.031 A 
ATOM     43  C   UNL A   1      43.200  27.622  33.595  1.00  0.00     0.074 A 
ATOM     44  C   UNL A   1      43.271  27.667  31.138  1.00  0.00     0.049 A 
ATOM     45  N   UNL A   1      44.397  27.167  33.870  1.00  0.00    -0.248 NA
ATOM     46  C   UNL A   1      42.368  27.881  34.778  1.00  0.00     0.031 C 
ATOM     47  C   UNL A   1      42.800  27.875  29.770  1.00  0.00     0.029 A 
ATOM     48  N   UNL A   1      44.542  27.158  30.975  1.00  0.00    -0.354 N 
ATOM     49  C   UNL A   1      44.465  27.094  35.258  1.00  0.00     0.074 A 
ATOM     50  C   UNL A   1      43.216  27.627  35.761  1.00  0.00     0.031 C 
ATOM     51  C   UNL A   1      43.755  27.474  28.912  1.00  0.00     0.029 A 
ATOM     52  C   UNL A   1      44.929  27.025  29.660  1.00  0.00     0.049 A 
ATOM     53  H   UNL A   1      45.121  26.911  31.731  1.00  0.00     0.167 HD
ATOM     54  C   UNL A   1      45.455  26.604  36.048  1.00  0.00     0.034 A 
ATOM     55  C   UNL A   1      46.095  26.609  29.117  1.00  0.00     0.034 A 
ATOM     56  C   UNL A   1      46.701  26.074  35.554  1.00  0.00     0.049 A 
ATOM     57  C   UNL A   1      47.239  26.193  30.015  1.00  0.00     0.074 A 
ATOM     58  C   UNL A   1      47.747  25.521  36.275  1.00  0.00     0.029 A 
ATOM     59  N   UNL A   1      47.086  26.048  34.221  1.00  0.00    -0.354 N 
ATOM     60  N   UNL A   1      47.274  26.100  31.324  1.00  0.00    -0.248 NA
ATOM     61  C   UNL A   1      48.505  25.830  29.358  1.00  0.00     0.031 C 
ATOM     62  C   UNL A   1      48.797  25.252  35.392  1.00  0.00     0.029 A 
ATOM     63  C   UNL A   1      48.376  25.547  34.106  1.00  0.00     0.049 A 
ATOM     64  H   UNL A   1      46.526  26.340  33.466  1.00  0.00     0.167 HD
ATOM     65  C   UNL A   1      48.554  25.646  31.641  1.00  0.00     0.074 A 
ATOM     66  C   UNL A   1      49.257  25.469  30.389  1.00  0.00     0.031 C 
ATOM     67  C   UNL A   1      49.093  25.393  32.861  1.00  0.00     0.034 A 
BRANCH  54  68
ATOM     68  C   UNL A   1      45.232  26.669  37.542  1.00  0.00     0.023 A 
ATOM     69  C   UNL A   1      45.388  27.869  38.257  1.00  0.00     0.031 A 
ATOM     70  C   UNL A   1      44.932  25.505  38.271  1.00  0.00     0.131 A 
ATOM     71  C   UNL A   1      45.367  27.856  39.658  1.00  0.00     0.055 A 
ATOM     72  C   UNL A   1      44.800  25.521  39.661  1.00  0.00     0.041 A 
ATOM     73  F   UNL A   1      44.789  24.324  37.649  1.00  0.00    -0.206 F 
ATOM     74  C   UNL A   1      45.044  26.696  40.365  1.00  0.00     0.022 A 
BRANCH  71  75
ATOM     75  S   UNL A   1      45.987  29.317  40.538  1.00  0.00     0.124 S 
ATOM     76  O   UNL A   1      44.863  30.242  40.397  1.00  0.00    -0.237 OA
ATOM     77  O   UNL A   1      46.223  28.798  41.880  1.00  0.00    -0.237 OA
ATOM     78  O   UNL A   1      47.184  29.687  39.787  1.00  0.00    -0.744 OA
ENDBRANCH  71  75
ENDBRANCH  54  68
BRANCH  55  79
ATOM     79  C   UNL A   1      46.273  26.588  27.632  1.00  0.00     0.023 A 
ATOM     80  C   UNL A   1      46.103  25.402  26.900  1.00  0.00     0.031 A 
ATOM     81  C   UNL A   1      46.670  27.742  26.933  1.00  0.00     0.131 A 
ATOM     82  C   UNL A   1      46.359  25.387  25.519  1.00  0.00     0.055 A 
ATOM     83  C   UNL A   1      46.872  27.735  25.550  1.00  0.00     0.041 A 
ATOM     84  F   UNL A   1      46.861  28.899  27.584  1.00  0.00    -0.206 F 
ATOM     85  C   UNL A   1      46.725  26.549  24.837  1.00  0.00     0.022 A 
BRANCH  82  86
ATOM     86  S   UNL A   1      46.278  23.805  24.633  1.00  0.00     0.124 S 
ATOM     87  O   UNL A   1      46.633  22.860  25.685  1.00  0.00    -0.237 OA
ATOM     88  O   UNL A   1      44.890  23.778  24.185  1.00  0.00    -0.237 OA
ATOM     89  O   UNL A   1      47.271  23.960  23.571  1.00  0.00    -0.744 OA
ENDBRANCH  82  86
ENDBRANCH  55  79
BRANCH  67  90
ATOM     90  C   UNL A   1      50.515  24.879  32.914  1.00  0.00     0.023 A 
ATOM     91  C   UNL A   1      50.803  23.502  32.943  1.00  0.00     0.031 A 
ATOM     92  C   UNL A   1      51.599  25.776  32.906  1.00  0.00     0.131 A 
ATOM     93  C   UNL A   1      52.137  23.065  32.999  1.00  0.00     0.055 A 
ATOM     94  C   UNL A   1      52.923  25.335  32.899  1.00  0.00     0.041 A 
ATOM     95  F   UNL A   1      51.388  27.102  32.884  1.00  0.00    -0.206 F 
ATOM     96  C   UNL A   1      53.199  23.972  32.955  1.00  0.00     0.022 A 
BRANCH  93  97
ATOM     97  S   UNL A   1      52.468  21.293  33.201  1.00  0.00     0.124 S 
ATOM     98  O   UNL A   1      53.531  21.070  32.225  1.00  0.00    -0.237 OA
ATOM     99  O   UNL A   1      52.861  21.204  34.603  1.00  0.00    -0.237 OA
ATOM    100  O   UNL A   1      51.188  20.665  32.875  1.00  0.00    -0.744 OA
ENDBRANCH  93  97
ENDBRANCH  67  90
ENDBRANCH  41  42
ENDBRANCH  34  36
ENDBRANCH  33  34
ENDBRANCH  32  33
ENDBRANCH  31  32
ENDBRANCH   1  31
TORSDOF 22
ENDMDL
