MODEL 1
REMARK VINA RESULT:     -11.1      0.000      0.000
REMARK SMILES O=C(OCCOCCOC(=O)[C@@H]1C=C[C@@H](NS(=O)(=O)c2ccc(F)c(F)c2F)C1)c1ccc(-c2c3nc(c(-c4cc(S(=O)(=O)[O-])ccc4F)c4ccc([nH]4)c(-c4cc(S(=O)(=O)[O-])ccc4F)c4nc(c(-c5cc(S(=O)(=O)[O-])ccc5F)c5ccc2[nH]5)C=C4)C=C3)cc1
REMARK SMILES IDX 6 1 5 2 4 3 3 4 2 5 1 6 30 7 31 8 92 9 32 10 91 11 33 12
REMARK SMILES IDX 34 13 35 14 85 15 36 16 90 17 84 18 86 19 37 20 89 21 83 22
REMARK SMILES IDX 82 23 38 25 70 26 50 27 69 28 51 29 54 30 68 31 87 32 52 33
REMARK SMILES IDX 53 34 67 36 88 37 55 38 39 39 40 40 48 41 41 42 47 43 49 44
REMARK SMILES IDX 46 45 42 46 43 47 44 48 45 49 71 50 72 51 80 52 73 53 79 54
REMARK SMILES IDX 81 55 78 56 74 57 75 58 76 59 77 60 56 61 57 62 65 63 58 64
REMARK SMILES IDX 64 65 66 66 63 67 59 68 60 69 61 70 62 71 7 72 8 73 9 74
REMARK SMILES IDX 10 75 11 76 12 77 13 78 29 79 14 80 15 81 16 82 17 84 18 85
REMARK SMILES IDX 19 86 20 87 21 88 27 89 22 90 25 91 28 92 23 93 26 94 24 95
REMARK H PARENT 86 24 54 35 16 83
REMARK Flexibility Score: inf
ROOT
ATOM      1  O   UNL A   1      35.696  23.596  25.798  1.00  0.00    -0.374 OA
ENDROOT
BRANCH   1   2
ATOM      2  C   UNL A   1      35.842  22.782  24.639  1.00  0.00     0.202 C 
BRANCH   2   3
ATOM      3  C   UNL A   1      36.431  21.392  24.875  1.00  0.00     0.261 C 
BRANCH   3   4
ATOM      4  O   UNL A   1      37.235  21.389  26.060  1.00  0.00    -0.460 OA
BRANCH   4   5
ATOM      5  C   UNL A   1      38.586  21.475  26.113  1.00  0.00     0.338 C 
ATOM      6  O   UNL A   1      39.257  20.511  25.750  1.00  0.00    -0.246 OA
BRANCH   5   7
ATOM      7  C   UNL A   1      39.299  22.696  26.586  1.00  0.00     0.060 A 
ATOM      8  C   UNL A   1      40.380  22.681  27.469  1.00  0.00     0.016 A 
ATOM      9  C   UNL A   1      38.925  23.921  26.018  1.00  0.00     0.016 A 
ATOM     10  C   UNL A   1      41.055  23.832  27.820  1.00  0.00     0.010 A 
ATOM     11  C   UNL A   1      39.632  25.087  26.326  1.00  0.00     0.010 A 
ATOM     12  C   UNL A   1      40.707  25.033  27.222  1.00  0.00    -0.014 A 
BRANCH  12  13
ATOM     13  C   UNL A   1      41.488  26.220  27.589  1.00  0.00     0.031 A 
ATOM     14  C   UNL A   1      40.826  27.277  28.406  1.00  0.00     0.074 A 
ATOM     15  C   UNL A   1      42.796  26.256  27.273  1.00  0.00     0.049 A 
ATOM     16  N   UNL A   1      41.268  28.455  28.738  1.00  0.00    -0.248 NA
ATOM     17  C   UNL A   1      39.485  26.958  28.925  1.00  0.00     0.031 C 
ATOM     18  C   UNL A   1      43.533  25.173  26.610  1.00  0.00     0.029 A 
ATOM     19  N   UNL A   1      43.743  27.222  27.476  1.00  0.00    -0.354 N 
ATOM     20  C   UNL A   1      40.241  29.044  29.464  1.00  0.00     0.074 A 
ATOM     21  C   UNL A   1      39.163  28.084  29.542  1.00  0.00     0.031 C 
ATOM     22  C   UNL A   1      44.815  25.539  26.463  1.00  0.00     0.029 A 
ATOM     23  C   UNL A   1      44.965  26.911  26.924  1.00  0.00     0.049 A 
ATOM     24  H   UNL A   1      43.567  28.057  27.967  1.00  0.00     0.167 HD
ATOM     25  C   UNL A   1      40.216  30.293  29.983  1.00  0.00     0.034 A 
ATOM     26  C   UNL A   1      46.051  27.689  26.749  1.00  0.00     0.034 A 
ATOM     27  C   UNL A   1      41.327  31.201  29.862  1.00  0.00     0.049 A 
ATOM     28  C   UNL A   1      45.952  29.114  27.236  1.00  0.00     0.074 A 
ATOM     29  C   UNL A   1      41.433  32.505  30.302  1.00  0.00     0.029 A 
ATOM     30  N   UNL A   1      42.531  30.889  29.234  1.00  0.00    -0.354 N 
ATOM     31  N   UNL A   1      44.959  29.698  27.873  1.00  0.00    -0.248 NA
ATOM     32  C   UNL A   1      47.096  29.991  26.968  1.00  0.00     0.031 C 
ATOM     33  C   UNL A   1      42.669  33.004  29.876  1.00  0.00     0.029 A 
ATOM     34  C   UNL A   1      43.367  31.990  29.236  1.00  0.00     0.049 A 
ATOM     35  H   UNL A   1      42.754  30.012  28.847  1.00  0.00     0.167 HD
ATOM     36  C   UNL A   1      45.362  31.010  28.085  1.00  0.00     0.074 A 
ATOM     37  C   UNL A   1      46.701  31.120  27.537  1.00  0.00     0.031 C 
ATOM     38  C   UNL A   1      44.695  32.040  28.667  1.00  0.00     0.034 A 
BRANCH  25  39
ATOM     39  C   UNL A   1      38.920  30.759  30.591  1.00  0.00     0.023 A 
ATOM     40  C   UNL A   1      37.885  31.322  29.825  1.00  0.00     0.031 A 
ATOM     41  C   UNL A   1      38.754  30.705  31.987  1.00  0.00     0.131 A 
ATOM     42  C   UNL A   1      36.759  31.864  30.466  1.00  0.00     0.055 A 
ATOM     43  C   UNL A   1      37.602  31.180  32.612  1.00  0.00     0.041 A 
ATOM     44  F   UNL A   1      39.727  30.213  32.771  1.00  0.00    -0.206 F 
ATOM     45  C   UNL A   1      36.600  31.776  31.852  1.00  0.00     0.022 A 
BRANCH  42  46
ATOM     46  S   UNL A   1      35.564  32.808  29.480  1.00  0.00     0.124 S 
ATOM     47  O   UNL A   1      34.318  32.546  30.198  1.00  0.00    -0.237 OA
ATOM     48  O   UNL A   1      36.081  34.169  29.573  1.00  0.00    -0.237 OA
ATOM     49  O   UNL A   1      35.651  32.198  28.155  1.00  0.00    -0.744 OA
ENDBRANCH  42  46
ENDBRANCH  25  39
BRANCH  26  50
ATOM     50  C   UNL A   1      47.242  27.198  25.993  1.00  0.00     0.023 A 
ATOM     51  C   UNL A   1      48.283  26.506  26.634  1.00  0.00     0.031 A 
ATOM     52  C   UNL A   1      47.395  27.475  24.620  1.00  0.00     0.131 A 
ATOM     53  C   UNL A   1      49.444  26.165  25.919  1.00  0.00     0.055 A 
ATOM     54  C   UNL A   1      48.522  27.074  23.899  1.00  0.00     0.041 A 
ATOM     55  F   UNL A   1      46.445  28.147  23.951  1.00  0.00    -0.206 F 
ATOM     56  C   UNL A   1      49.563  26.429  24.553  1.00  0.00     0.022 A 
BRANCH  53  57
ATOM     57  S   UNL A   1      50.857  25.483  26.833  1.00  0.00     0.124 S 
ATOM     58  O   UNL A   1      50.217  24.453  27.642  1.00  0.00    -0.237 OA
ATOM     59  O   UNL A   1      51.715  25.011  25.752  1.00  0.00    -0.237 OA
ATOM     60  O   UNL A   1      51.366  26.633  27.577  1.00  0.00    -0.744 OA
ENDBRANCH  53  57
ENDBRANCH  26  50
BRANCH  38  61
ATOM     61  C   UNL A   1      45.429  33.350  28.750  1.00  0.00     0.023 A 
ATOM     62  C   UNL A   1      46.246  33.658  29.849  1.00  0.00     0.031 A 
ATOM     63  C   UNL A   1      45.325  34.284  27.706  1.00  0.00     0.131 A 
ATOM     64  C   UNL A   1      46.898  34.895  29.899  1.00  0.00     0.055 A 
ATOM     65  C   UNL A   1      46.024  35.488  27.734  1.00  0.00     0.041 A 
ATOM     66  F   UNL A   1      44.554  34.030  26.636  1.00  0.00    -0.206 F 
ATOM     67  C   UNL A   1      46.810  35.804  28.841  1.00  0.00     0.022 A 
BRANCH  64  68
ATOM     68  S   UNL A   1      47.818  35.330  31.399  1.00  0.00     0.124 S 
ATOM     69  O   UNL A   1      47.436  36.724  31.595  1.00  0.00    -0.237 OA
ATOM     70  O   UNL A   1      47.292  34.383  32.377  1.00  0.00    -0.237 OA
ATOM     71  O   UNL A   1      49.213  35.115  31.019  1.00  0.00    -0.744 OA
ENDBRANCH  64  68
ENDBRANCH  38  61
ENDBRANCH  12  13
ENDBRANCH   5   7
ENDBRANCH   4   5
ENDBRANCH   3   4
ENDBRANCH   2   3
ENDBRANCH   1   2
BRANCH   1  72
ATOM     72  C   UNL A   1      34.371  23.782  26.303  1.00  0.00     0.202 C 
BRANCH  72  73
ATOM     73  C   UNL A   1      34.095  22.683  27.331  1.00  0.00     0.261 C 
BRANCH  73  74
ATOM     74  O   UNL A   1      32.900  22.004  26.909  1.00  0.00    -0.463 OA
BRANCH  74  75
ATOM     75  C   UNL A   1      31.848  22.835  26.646  1.00  0.00     0.312 C 
ATOM     76  O   UNL A   1      31.502  23.791  27.326  1.00  0.00    -0.252 OA
BRANCH  75  77
ATOM     77  C   UNL A   1      31.154  22.363  25.375  1.00  0.00     0.123 C 
ATOM     78  C   UNL A   1      32.045  21.610  24.427  1.00  0.00    -0.015 C 
ATOM     79  C   UNL A   1      30.791  23.585  24.544  1.00  0.00     0.043 C 
ATOM     80  C   UNL A   1      32.492  22.394  23.441  1.00  0.00    -0.011 C 
ATOM     81  C   UNL A   1      32.002  23.785  23.618  1.00  0.00     0.093 C 
BRANCH  81  82
ATOM     82  N   UNL A   1      31.543  24.367  22.377  1.00  0.00    -0.204 NA
ATOM     83  H   UNL A   1      30.556  24.588  22.511  1.00  0.00     0.142 HD
BRANCH  82  84
ATOM     84  S   UNL A   1      32.247  25.737  21.744  1.00  0.00     0.244 S 
ATOM     85  O   UNL A   1      33.684  25.565  21.851  1.00  0.00    -0.207 OA
ATOM     86  O   UNL A   1      31.629  25.956  20.461  1.00  0.00    -0.207 OA
BRANCH  84  87
ATOM     87  C   UNL A   1      31.804  27.093  22.773  1.00  0.00     0.121 A 
ATOM     88  C   UNL A   1      30.472  27.534  22.739  1.00  0.00     0.028 A 
ATOM     89  C   UNL A   1      32.743  27.760  23.551  1.00  0.00     0.181 A 
ATOM     90  C   UNL A   1      30.089  28.647  23.488  1.00  0.00     0.044 A 
ATOM     91  C   UNL A   1      32.362  28.884  24.276  1.00  0.00     0.195 A 
ATOM     92  F   UNL A   1      34.020  27.360  23.611  1.00  0.00    -0.202 F 
ATOM     93  C   UNL A   1      31.042  29.319  24.247  1.00  0.00     0.161 A 
ATOM     94  F   UNL A   1      33.272  29.548  25.002  1.00  0.00    -0.200 F 
ATOM     95  F   UNL A   1      30.671  30.390  24.961  1.00  0.00    -0.204 F 
ENDBRANCH  84  87
ENDBRANCH  82  84
ENDBRANCH  81  82
ENDBRANCH  75  77
ENDBRANCH  74  75
ENDBRANCH  73  74
ENDBRANCH  72  73
ENDBRANCH   1  72
TORSDOF 20
ENDMDL
MODEL 2
REMARK VINA RESULT:     -11.1      5.418     10.300
REMARK SMILES O=C(OCCOCCOC(=O)[C@@H]1C=C[C@@H](NS(=O)(=O)c2ccc(F)c(F)c2F)C1)c1ccc(-c2c3nc(c(-c4cc(S(=O)(=O)[O-])ccc4F)c4ccc([nH]4)c(-c4cc(S(=O)(=O)[O-])ccc4F)c4nc(c(-c5cc(S(=O)(=O)[O-])ccc5F)c5ccc2[nH]5)C=C4)C=C3)cc1
REMARK SMILES IDX 6 1 5 2 4 3 3 4 2 5 1 6 30 7 31 8 92 9 32 10 91 11 33 12
REMARK SMILES IDX 34 13 35 14 85 15 36 16 90 17 84 18 86 19 37 20 89 21 83 22
REMARK SMILES IDX 82 23 38 25 70 26 50 27 69 28 51 29 54 30 68 31 87 32 52 33
REMARK SMILES IDX 53 34 67 36 88 37 55 38 39 39 40 40 48 41 41 42 47 43 49 44
REMARK SMILES IDX 46 45 42 46 43 47 44 48 45 49 71 50 72 51 80 52 73 53 79 54
REMARK SMILES IDX 81 55 78 56 74 57 75 58 76 59 77 60 56 61 57 62 65 63 58 64
REMARK SMILES IDX 64 65 66 66 63 67 59 68 60 69 61 70 62 71 7 72 8 73 9 74
REMARK SMILES IDX 10 75 11 76 12 77 13 78 29 79 14 80 15 81 16 82 17 84 18 85
REMARK SMILES IDX 19 86 20 87 21 88 27 89 22 90 25 91 28 92 23 93 26 94 24 95
REMARK H PARENT 86 24 54 35 16 83
REMARK Flexibility Score: inf
ROOT
ATOM      1  O   UNL A   1      31.703  30.089  26.292  1.00  0.00    -0.374 OA
ENDROOT
BRANCH   1   2
ATOM      2  C   UNL A   1      31.728  31.496  26.514  1.00  0.00     0.202 C 
BRANCH   2   3
ATOM      3  C   UNL A   1      32.925  32.021  27.304  1.00  0.00     0.261 C 
BRANCH   3   4
ATOM      4  O   UNL A   1      32.781  33.425  27.548  1.00  0.00    -0.460 OA
BRANCH   4   5
ATOM      5  C   UNL A   1      33.256  34.106  28.619  1.00  0.00     0.338 C 
ATOM      6  O   UNL A   1      32.657  35.110  28.997  1.00  0.00    -0.246 OA
BRANCH   5   7
ATOM      7  C   UNL A   1      34.475  33.684  29.367  1.00  0.00     0.060 A 
ATOM      8  C   UNL A   1      34.473  32.752  30.407  1.00  0.00     0.016 A 
ATOM      9  C   UNL A   1      35.709  34.175  28.921  1.00  0.00     0.016 A 
ATOM     10  C   UNL A   1      35.637  32.337  31.020  1.00  0.00     0.010 A 
ATOM     11  C   UNL A   1      36.898  33.725  29.500  1.00  0.00     0.010 A 
ATOM     12  C   UNL A   1      36.855  32.794  30.546  1.00  0.00    -0.014 A 
BRANCH  12  13
ATOM     13  C   UNL A   1      38.067  32.284  31.198  1.00  0.00     0.031 A 
ATOM     14  C   UNL A   1      38.813  31.177  30.534  1.00  0.00     0.074 A 
ATOM     15  C   UNL A   1      38.518  32.905  32.303  1.00  0.00     0.049 A 
ATOM     16  N   UNL A   1      39.824  30.487  30.977  1.00  0.00    -0.248 NA
ATOM     17  C   UNL A   1      38.364  30.803  29.182  1.00  0.00     0.031 C 
ATOM     18  C   UNL A   1      37.909  34.098  32.906  1.00  0.00     0.029 A 
ATOM     19  N   UNL A   1      39.591  32.642  33.108  1.00  0.00    -0.354 N 
ATOM     20  C   UNL A   1      40.103  29.559  29.982  1.00  0.00     0.074 A 
ATOM     21  C   UNL A   1      39.170  29.791  28.903  1.00  0.00     0.031 C 
ATOM     22  C   UNL A   1      38.621  34.458  33.985  1.00  0.00     0.029 A 
ATOM     23  C   UNL A   1      39.667  33.470  34.205  1.00  0.00     0.049 A 
ATOM     24  H   UNL A   1      40.245  31.930  32.921  1.00  0.00     0.167 HD
ATOM     25  C   UNL A   1      41.045  28.588  30.008  1.00  0.00     0.034 A 
ATOM     26  C   UNL A   1      40.450  33.379  35.297  1.00  0.00     0.034 A 
ATOM     27  C   UNL A   1      41.940  28.411  31.122  1.00  0.00     0.049 A 
ATOM     28  C   UNL A   1      41.412  32.218  35.349  1.00  0.00     0.074 A 
ATOM     29  C   UNL A   1      42.916  27.452  31.305  1.00  0.00     0.029 A 
ATOM     30  N   UNL A   1      41.951  29.218  32.257  1.00  0.00    -0.354 N 
ATOM     31  N   UNL A   1      41.641  31.299  34.435  1.00  0.00    -0.248 NA
ATOM     32  C   UNL A   1      42.202  32.060  36.574  1.00  0.00     0.031 C 
ATOM     33  C   UNL A   1      43.464  27.635  32.580  1.00  0.00     0.029 A 
ATOM     34  C   UNL A   1      42.884  28.752  33.164  1.00  0.00     0.049 A 
ATOM     35  H   UNL A   1      41.376  30.007  32.393  1.00  0.00     0.167 HD
ATOM     36  C   UNL A   1      42.606  30.458  34.974  1.00  0.00     0.074 A 
ATOM     37  C   UNL A   1      42.938  30.999  36.279  1.00  0.00     0.031 C 
ATOM     38  C   UNL A   1      43.167  29.334  34.456  1.00  0.00     0.034 A 
BRANCH  25  39
ATOM     39  C   UNL A   1      41.046  27.601  28.872  1.00  0.00     0.023 A 
ATOM     40  C   UNL A   1      41.997  27.639  27.838  1.00  0.00     0.031 A 
ATOM     41  C   UNL A   1      40.018  26.644  28.787  1.00  0.00     0.131 A 
ATOM     42  C   UNL A   1      41.864  26.780  26.735  1.00  0.00     0.055 A 
ATOM     43  C   UNL A   1      39.932  25.745  27.725  1.00  0.00     0.041 A 
ATOM     44  F   UNL A   1      39.060  26.587  29.726  1.00  0.00    -0.206 F 
ATOM     45  C   UNL A   1      40.851  25.818  26.683  1.00  0.00     0.022 A 
BRANCH  42  46
ATOM     46  S   UNL A   1      42.950  27.023  25.303  1.00  0.00     0.124 S 
ATOM     47  O   UNL A   1      42.843  25.731  24.628  1.00  0.00    -0.237 OA
ATOM     48  O   UNL A   1      42.327  28.153  24.621  1.00  0.00    -0.237 OA
ATOM     49  O   UNL A   1      44.255  27.299  25.901  1.00  0.00    -0.744 OA
ENDBRANCH  42  46
ENDBRANCH  25  39
BRANCH  26  50
ATOM     50  C   UNL A   1      40.277  34.309  36.454  1.00  0.00     0.023 A 
ATOM     51  C   UNL A   1      39.752  33.866  37.678  1.00  0.00     0.031 A 
ATOM     52  C   UNL A   1      40.571  35.682  36.331  1.00  0.00     0.131 A 
ATOM     53  C   UNL A   1      39.489  34.789  38.705  1.00  0.00     0.055 A 
ATOM     54  C   UNL A   1      40.371  36.584  37.378  1.00  0.00     0.041 A 
ATOM     55  F   UNL A   1      41.060  36.174  35.181  1.00  0.00    -0.206 F 
ATOM     56  C   UNL A   1      39.811  36.141  38.570  1.00  0.00     0.022 A 
BRANCH  53  57
ATOM     57  S   UNL A   1      38.599  34.217  40.179  1.00  0.00     0.124 S 
ATOM     58  O   UNL A   1      38.418  35.462  40.918  1.00  0.00    -0.237 OA
ATOM     59  O   UNL A   1      37.395  33.634  39.597  1.00  0.00    -0.237 OA
ATOM     60  O   UNL A   1      39.524  33.263  40.786  1.00  0.00    -0.744 OA
ENDBRANCH  53  57
ENDBRANCH  26  50
BRANCH  38  61
ATOM     61  C   UNL A   1      44.205  28.653  35.304  1.00  0.00     0.023 A 
ATOM     62  C   UNL A   1      43.852  27.651  36.221  1.00  0.00     0.031 A 
ATOM     63  C   UNL A   1      45.560  28.999  35.173  1.00  0.00     0.131 A 
ATOM     64  C   UNL A   1      44.844  27.053  37.007  1.00  0.00     0.055 A 
ATOM     65  C   UNL A   1      46.550  28.358  35.915  1.00  0.00     0.041 A 
ATOM     66  F   UNL A   1      45.942  29.953  34.309  1.00  0.00    -0.206 F 
ATOM     67  C   UNL A   1      46.192  27.385  36.846  1.00  0.00     0.022 A 
BRANCH  64  68
ATOM     68  S   UNL A   1      44.342  25.876  38.290  1.00  0.00     0.124 S 
ATOM     69  O   UNL A   1      42.934  26.214  38.475  1.00  0.00    -0.237 OA
ATOM     70  O   UNL A   1      44.610  24.589  37.659  1.00  0.00    -0.237 OA
ATOM     71  O   UNL A   1      45.213  26.206  39.417  1.00  0.00    -0.744 OA
ENDBRANCH  64  68
ENDBRANCH  38  61
ENDBRANCH  12  13
ENDBRANCH   5   7
ENDBRANCH   4   5
ENDBRANCH   3   4
ENDBRANCH   2   3
ENDBRANCH   1   2
BRANCH   1  72
ATOM     72  C   UNL A   1      32.675  29.553  25.390  1.00  0.00     0.202 C 
BRANCH  72  73
ATOM     73  C   UNL A   1      31.968  29.209  24.078  1.00  0.00     0.261 C 
BRANCH  73  74
ATOM     74  O   UNL A   1      30.753  28.522  24.424  1.00  0.00    -0.463 OA
BRANCH  74  75
ATOM     75  C   UNL A   1      30.582  27.329  23.780  1.00  0.00     0.312 C 
ATOM     76  O   UNL A   1      30.665  27.147  22.574  1.00  0.00    -0.252 OA
BRANCH  75  77
ATOM     77  C   UNL A   1      30.246  26.258  24.810  1.00  0.00     0.123 C 
ATOM     78  C   UNL A   1      30.886  26.470  26.154  1.00  0.00    -0.015 C 
ATOM     79  C   UNL A   1      30.890  24.951  24.372  1.00  0.00     0.043 C 
ATOM     80  C   UNL A   1      31.988  25.729  26.299  1.00  0.00    -0.011 C 
ATOM     81  C   UNL A   1      32.264  24.957  25.061  1.00  0.00     0.093 C 
BRANCH  81  82
ATOM     82  N   UNL A   1      32.646  23.590  25.339  1.00  0.00    -0.204 NA
ATOM     83  H   UNL A   1      31.800  23.113  25.651  1.00  0.00     0.142 HD
BRANCH  82  84
ATOM     84  S   UNL A   1      33.329  22.621  24.171  1.00  0.00     0.244 S 
ATOM     85  O   UNL A   1      32.677  21.327  24.256  1.00  0.00    -0.207 OA
ATOM     86  O   UNL A   1      33.298  23.378  22.945  1.00  0.00    -0.207 OA
BRANCH  84  87
ATOM     87  C   UNL A   1      35.021  22.382  24.593  1.00  0.00     0.121 A 
ATOM     88  C   UNL A   1      35.489  21.064  24.701  1.00  0.00     0.028 A 
ATOM     89  C   UNL A   1      35.863  23.451  24.876  1.00  0.00     0.181 A 
ATOM     90  C   UNL A   1      36.806  20.826  25.097  1.00  0.00     0.044 A 
ATOM     91  C   UNL A   1      37.166  23.207  25.295  1.00  0.00     0.195 A 
ATOM     92  F   UNL A   1      35.448  24.721  24.776  1.00  0.00    -0.202 F 
ATOM     93  C   UNL A   1      37.634  21.902  25.399  1.00  0.00     0.161 A 
ATOM     94  F   UNL A   1      37.971  24.234  25.601  1.00  0.00    -0.200 F 
ATOM     95  F   UNL A   1      38.895  21.668  25.784  1.00  0.00    -0.204 F 
ENDBRANCH  84  87
ENDBRANCH  82  84
ENDBRANCH  81  82
ENDBRANCH  75  77
ENDBRANCH  74  75
ENDBRANCH  73  74
ENDBRANCH  72  73
ENDBRANCH   1  72
TORSDOF 20
ENDMDL
MODEL 3
REMARK VINA RESULT:     -10.8      5.130     10.114
REMARK SMILES O=C(OCCOCCOC(=O)[C@@H]1C=C[C@@H](NS(=O)(=O)c2ccc(F)c(F)c2F)C1)c1ccc(-c2c3nc(c(-c4cc(S(=O)(=O)[O-])ccc4F)c4ccc([nH]4)c(-c4cc(S(=O)(=O)[O-])ccc4F)c4nc(c(-c5cc(S(=O)(=O)[O-])ccc5F)c5ccc2[nH]5)C=C4)C=C3)cc1
REMARK SMILES IDX 6 1 5 2 4 3 3 4 2 5 1 6 30 7 31 8 92 9 32 10 91 11 33 12
REMARK SMILES IDX 34 13 35 14 85 15 36 16 90 17 84 18 86 19 37 20 89 21 83 22
REMARK SMILES IDX 82 23 38 25 70 26 50 27 69 28 51 29 54 30 68 31 87 32 52 33
REMARK SMILES IDX 53 34 67 36 88 37 55 38 39 39 40 40 48 41 41 42 47 43 49 44
REMARK SMILES IDX 46 45 42 46 43 47 44 48 45 49 71 50 72 51 80 52 73 53 79 54
REMARK SMILES IDX 81 55 78 56 74 57 75 58 76 59 77 60 56 61 57 62 65 63 58 64
REMARK SMILES IDX 64 65 66 66 63 67 59 68 60 69 61 70 62 71 7 72 8 73 9 74
REMARK SMILES IDX 10 75 11 76 12 77 13 78 29 79 14 80 15 81 16 82 17 84 18 85
REMARK SMILES IDX 19 86 20 87 21 88 27 89 22 90 25 91 28 92 23 93 26 94 24 95
REMARK H PARENT 86 24 54 35 16 83
REMARK Flexibility Score: inf
ROOT
ATOM      1  O   UNL A   1      30.129  29.734  24.012  1.00  0.00    -0.374 OA
ENDROOT
BRANCH   1   2
ATOM      2  C   UNL A   1      30.842  30.651  24.837  1.00  0.00     0.202 C 
BRANCH   2   3
ATOM      3  C   UNL A   1      31.533  30.044  26.057  1.00  0.00     0.261 C 
BRANCH   3   4
ATOM      4  O   UNL A   1      32.907  30.448  26.101  1.00  0.00    -0.460 OA
BRANCH   4   5
ATOM      5  C   UNL A   1      33.473  31.271  27.015  1.00  0.00     0.338 C 
ATOM      6  O   UNL A   1      32.885  32.304  27.329  1.00  0.00    -0.246 OA
BRANCH   5   7
ATOM      7  C   UNL A   1      34.780  30.973  27.669  1.00  0.00     0.060 A 
ATOM      8  C   UNL A   1      35.730  31.941  28.000  1.00  0.00     0.016 A 
ATOM      9  C   UNL A   1      35.013  29.652  28.071  1.00  0.00     0.016 A 
ATOM     10  C   UNL A   1      36.893  31.626  28.672  1.00  0.00     0.010 A 
ATOM     11  C   UNL A   1      36.163  29.328  28.796  1.00  0.00     0.010 A 
ATOM     12  C   UNL A   1      37.097  30.325  29.103  1.00  0.00    -0.014 A 
BRANCH  12  13
ATOM     13  C   UNL A   1      38.325  30.050  29.859  1.00  0.00     0.031 A 
ATOM     14  C   UNL A   1      39.352  29.165  29.239  1.00  0.00     0.074 A 
ATOM     15  C   UNL A   1      38.525  30.693  31.024  1.00  0.00     0.049 A 
ATOM     16  N   UNL A   1      40.443  28.683  29.759  1.00  0.00    -0.248 NA
ATOM     17  C   UNL A   1      39.121  28.777  27.836  1.00  0.00     0.031 C 
ATOM     18  C   UNL A   1      37.618  31.694  31.600  1.00  0.00     0.029 A 
ATOM     19  N   UNL A   1      39.551  30.621  31.924  1.00  0.00    -0.354 N 
ATOM     20  C   UNL A   1      41.008  27.892  28.769  1.00  0.00     0.074 A 
ATOM     21  C   UNL A   1      40.151  27.976  27.608  1.00  0.00     0.031 C 
ATOM     22  C   UNL A   1      38.133  32.139  32.757  1.00  0.00     0.029 A 
ATOM     23  C   UNL A   1      39.343  31.386  33.051  1.00  0.00     0.049 A 
ATOM     24  H   UNL A   1      40.358  30.076  31.782  1.00  0.00     0.167 HD
ATOM     25  C   UNL A   1      42.132  27.144  28.858  1.00  0.00     0.034 A 
ATOM     26  C   UNL A   1      40.022  31.406  34.213  1.00  0.00     0.034 A 
ATOM     27  C   UNL A   1      42.937  27.102  30.051  1.00  0.00     0.049 A 
ATOM     28  C   UNL A   1      41.206  30.475  34.325  1.00  0.00     0.074 A 
ATOM     29  C   UNL A   1      44.077  26.365  30.302  1.00  0.00     0.029 A 
ATOM     30  N   UNL A   1      42.667  27.830  31.207  1.00  0.00    -0.354 N 
ATOM     31  N   UNL A   1      41.712  29.676  33.409  1.00  0.00    -0.248 NA
ATOM     32  C   UNL A   1      41.894  30.424  35.618  1.00  0.00     0.031 C 
ATOM     33  C   UNL A   1      44.452  26.591  31.631  1.00  0.00     0.029 A 
ATOM     34  C   UNL A   1      43.591  27.526  32.188  1.00  0.00     0.049 A 
ATOM     35  H   UNL A   1      41.924  28.469  31.310  1.00  0.00     0.167 HD
ATOM     36  C   UNL A   1      42.783  29.033  34.016  1.00  0.00     0.074 A 
ATOM     37  C   UNL A   1      42.867  29.561  35.365  1.00  0.00     0.031 C 
ATOM     38  C   UNL A   1      43.620  28.084  33.521  1.00  0.00     0.034 A 
BRANCH  25  39
ATOM     39  C   UNL A   1      42.452  26.242  27.696  1.00  0.00     0.023 A 
ATOM     40  C   UNL A   1      42.076  24.888  27.664  1.00  0.00     0.031 A 
ATOM     41  C   UNL A   1      43.221  26.738  26.628  1.00  0.00     0.131 A 
ATOM     42  C   UNL A   1      42.523  24.064  26.619  1.00  0.00     0.055 A 
ATOM     43  C   UNL A   1      43.602  25.933  25.556  1.00  0.00     0.041 A 
ATOM     44  F   UNL A   1      43.641  28.014  26.625  1.00  0.00    -0.206 F 
ATOM     45  C   UNL A   1      43.264  24.583  25.552  1.00  0.00     0.022 A 
BRANCH  42  46
ATOM     46  S   UNL A   1      42.241  22.276  26.734  1.00  0.00     0.124 S 
ATOM     47  O   UNL A   1      43.555  21.797  27.159  1.00  0.00    -0.237 OA
ATOM     48  O   UNL A   1      41.177  22.186  27.728  1.00  0.00    -0.237 OA
ATOM     49  O   UNL A   1      41.858  21.898  25.375  1.00  0.00    -0.744 OA
ENDBRANCH  42  46
ENDBRANCH  25  39
BRANCH  26  50
ATOM     50  C   UNL A   1      39.546  32.213  35.376  1.00  0.00     0.023 A 
ATOM     51  C   UNL A   1      38.846  31.624  36.440  1.00  0.00     0.031 A 
ATOM     52  C   UNL A   1      39.722  33.612  35.408  1.00  0.00     0.131 A 
ATOM     53  C   UNL A   1      38.306  32.429  37.458  1.00  0.00     0.055 A 
ATOM     54  C   UNL A   1      39.242  34.399  36.457  1.00  0.00     0.041 A 
ATOM     55  F   UNL A   1      40.368  34.241  34.414  1.00  0.00    -0.206 F 
ATOM     56  C   UNL A   1      38.513  33.810  37.482  1.00  0.00     0.022 A 
BRANCH  53  57
ATOM     57  S   UNL A   1      37.214  31.659  38.687  1.00  0.00     0.124 S 
ATOM     58  O   UNL A   1      36.053  32.541  38.645  1.00  0.00    -0.237 OA
ATOM     59  O   UNL A   1      37.028  30.323  38.130  1.00  0.00    -0.237 OA
ATOM     60  O   UNL A   1      37.996  31.718  39.920  1.00  0.00    -0.744 OA
ENDBRANCH  53  57
ENDBRANCH  26  50
BRANCH  38  61
ATOM     61  C   UNL A   1      44.698  27.596  34.448  1.00  0.00     0.023 A 
ATOM     62  C   UNL A   1      44.520  26.442  35.229  1.00  0.00     0.031 A 
ATOM     63  C   UNL A   1      45.922  28.281  34.531  1.00  0.00     0.131 A 
ATOM     64  C   UNL A   1      45.540  26.030  36.094  1.00  0.00     0.055 A 
ATOM     65  C   UNL A   1      46.955  27.831  35.349  1.00  0.00     0.041 A 
ATOM     66  F   UNL A   1      46.135  29.389  33.802  1.00  0.00    -0.206 F 
ATOM     67  C   UNL A   1      46.763  26.703  36.144  1.00  0.00     0.022 A 
BRANCH  64  68
ATOM     68  S   UNL A   1      45.222  24.631  37.202  1.00  0.00     0.124 S 
ATOM     69  O   UNL A   1      46.340  24.725  38.135  1.00  0.00    -0.237 OA
ATOM     70  O   UNL A   1      43.909  24.955  37.749  1.00  0.00    -0.237 OA
ATOM     71  O   UNL A   1      45.252  23.474  36.310  1.00  0.00    -0.744 OA
ENDBRANCH  64  68
ENDBRANCH  38  61
ENDBRANCH  12  13
ENDBRANCH   5   7
ENDBRANCH   4   5
ENDBRANCH   3   4
ENDBRANCH   2   3
ENDBRANCH   1   2
BRANCH   1  72
ATOM     72  C   UNL A   1      30.768  29.310  22.804  1.00  0.00     0.202 C 
BRANCH  72  73
ATOM     73  C   UNL A   1      30.277  27.899  22.476  1.00  0.00     0.261 C 
BRANCH  73  74
ATOM     74  O   UNL A   1      29.852  27.304  23.714  1.00  0.00    -0.463 OA
BRANCH  74  75
ATOM     75  C   UNL A   1      30.788  26.496  24.296  1.00  0.00     0.312 C 
ATOM     76  O   UNL A   1      31.128  26.524  25.470  1.00  0.00    -0.252 OA
BRANCH  75  77
ATOM     77  C   UNL A   1      31.361  25.564  23.236  1.00  0.00     0.123 C 
ATOM     78  C   UNL A   1      30.653  24.241  23.127  1.00  0.00    -0.015 C 
ATOM     79  C   UNL A   1      32.750  25.128  23.679  1.00  0.00     0.043 C 
ATOM     80  C   UNL A   1      31.303  23.278  23.786  1.00  0.00    -0.011 C 
ATOM     81  C   UNL A   1      32.506  23.829  24.462  1.00  0.00     0.093 C 
BRANCH  81  82
ATOM     82  N   UNL A   1      33.662  22.973  24.309  1.00  0.00    -0.204 NA
ATOM     83  H   UNL A   1      34.421  23.572  23.983  1.00  0.00     0.142 HD
BRANCH  82  84
ATOM     84  S   UNL A   1      34.272  22.095  25.585  1.00  0.00     0.244 S 
ATOM     85  O   UNL A   1      35.660  22.487  25.747  1.00  0.00    -0.207 OA
ATOM     86  O   UNL A   1      33.336  22.250  26.670  1.00  0.00    -0.207 OA
BRANCH  84  87
ATOM     87  C   UNL A   1      34.258  20.397  25.124  1.00  0.00     0.121 A 
ATOM     88  C   UNL A   1      35.492  19.741  25.001  1.00  0.00     0.028 A 
ATOM     89  C   UNL A   1      33.076  19.730  24.823  1.00  0.00     0.181 A 
ATOM     90  C   UNL A   1      35.533  18.413  24.574  1.00  0.00     0.044 A 
ATOM     91  C   UNL A   1      33.125  18.415  24.373  1.00  0.00     0.195 A 
ATOM     92  F   UNL A   1      31.882  20.326  24.936  1.00  0.00    -0.202 F 
ATOM     93  C   UNL A   1      34.346  17.761  24.255  1.00  0.00     0.161 A 
ATOM     94  F   UNL A   1      31.990  17.778  24.051  1.00  0.00    -0.200 F 
ATOM     95  F   UNL A   1      34.391  16.489  23.841  1.00  0.00    -0.204 F 
ENDBRANCH  84  87
ENDBRANCH  82  84
ENDBRANCH  81  82
ENDBRANCH  75  77
ENDBRANCH  74  75
ENDBRANCH  73  74
ENDBRANCH  72  73
ENDBRANCH   1  72
TORSDOF 20
ENDMDL
