MODEL 1
REMARK VINA RESULT:     -11.7      0.000      0.000
REMARK SMILES O=C(C[NH+]1CCN(C(=O)c2ccc(F)c(F)c2F)CC1)OCCOCCOC(=O)c1ccc(-c2c3nc(c(-c4cc(S(=O)(=O)[O-])ccc4F)c4ccc([nH]4)c(-c4cc(S(=O)(=O)[O-])ccc4F)c4nc(c(-c5cc(S(=O)(=O)[O-])ccc5F)c5ccc2[nH]5)C=C4)C=C3)cc1
REMARK SMILES IDX 25 1 24 2 23 3 22 4 21 5 2 6 1 7 3 8 4 9 5 10 20 11 6 13
REMARK SMILES IDX 19 14 7 15 8 16 9 17 10 18 11 19 17 20 12 21 15 22 18 23
REMARK SMILES IDX 13 24 16 25 14 26 26 27 27 28 28 29 29 30 30 31 31 32 92 33
REMARK SMILES IDX 32 34 91 35 33 36 34 37 35 38 85 39 36 40 90 41 84 42 86 43
REMARK SMILES IDX 37 44 89 45 83 46 82 47 38 49 70 50 50 51 69 52 51 53 54 54
REMARK SMILES IDX 68 55 87 56 52 57 53 58 67 60 88 61 55 62 39 63 40 64 48 65
REMARK SMILES IDX 41 66 47 67 49 68 46 69 42 70 43 71 44 72 45 73 71 74 72 75
REMARK SMILES IDX 80 76 73 77 79 78 81 79 78 80 74 81 75 82 76 83 77 84 56 85
REMARK SMILES IDX 57 86 65 87 58 88 64 89 66 90 63 91 59 92 60 93 61 94 62 95
REMARK H PARENT 4 12 86 48 54 59
REMARK Flexibility Score: inf
ROOT
ATOM      1  C   UNL A   1      32.582  29.408  25.521  1.00  0.00     0.202 C 
ENDROOT
BRANCH   1   2
ATOM      2  O   UNL A   1      31.914  29.047  24.305  1.00  0.00    -0.374 OA
BRANCH   2   3
ATOM      3  C   UNL A   1      30.626  29.623  24.094  1.00  0.00     0.202 C 
BRANCH   3   4
ATOM      4  C   UNL A   1      29.855  29.226  22.838  1.00  0.00     0.261 C 
BRANCH   4   5
ATOM      5  O   UNL A   1      29.851  27.812  22.573  1.00  0.00    -0.459 OA
BRANCH   5   6
ATOM      6  C   UNL A   1      29.266  26.878  23.358  1.00  0.00     0.361 C 
ATOM      7  O   UNL A   1      28.100  27.033  23.728  1.00  0.00    -0.245 OA
BRANCH   6   8
ATOM      8  C   UNL A   1      30.069  25.687  23.861  1.00  0.00     0.386 C 
BRANCH   8   9
ATOM      9  N   UNL A   1      31.167  26.063  24.763  1.00  0.00    -0.323 N 
ATOM     10  C   UNL A   1      30.882  25.661  26.156  1.00  0.00     0.284 C 
ATOM     11  C   UNL A   1      32.457  25.517  24.305  1.00  0.00     0.284 C 
ATOM     12  H   UNL A   1      31.240  27.080  24.742  1.00  0.00     0.348 HD
ATOM     13  C   UNL A   1      30.987  24.145  26.393  1.00  0.00     0.181 C 
ATOM     14  C   UNL A   1      32.555  23.994  24.490  1.00  0.00     0.181 C 
ATOM     15  N   UNL A   1      32.269  23.644  25.889  1.00  0.00    -0.327 N 
ATOM     16  C   UNL A   1      33.124  22.988  26.759  1.00  0.00     0.257 C 
ATOM     17  O   UNL A   1      32.848  22.703  27.920  1.00  0.00    -0.269 OA
BRANCH  16  18
ATOM     18  C   UNL A   1      34.461  22.635  26.271  1.00  0.00     0.079 A 
ATOM     19  C   UNL A   1      35.472  23.607  26.208  1.00  0.00     0.020 A 
ATOM     20  C   UNL A   1      34.702  21.326  25.867  1.00  0.00     0.174 A 
ATOM     21  C   UNL A   1      36.718  23.264  25.685  1.00  0.00     0.043 A 
ATOM     22  C   UNL A   1      35.952  20.987  25.371  1.00  0.00     0.195 A 
ATOM     23  F   UNL A   1      33.733  20.401  25.913  1.00  0.00    -0.203 F 
ATOM     24  C   UNL A   1      36.949  21.953  25.273  1.00  0.00     0.161 A 
ATOM     25  F   UNL A   1      36.193  19.731  24.967  1.00  0.00    -0.200 F 
ATOM     26  F   UNL A   1      38.148  21.630  24.770  1.00  0.00    -0.204 F 
ENDBRANCH  16  18
ENDBRANCH   8   9
ENDBRANCH   6   8
ENDBRANCH   5   6
ENDBRANCH   4   5
ENDBRANCH   3   4
ENDBRANCH   2   3
ENDBRANCH   1   2
BRANCH   1  27
ATOM     27  C   UNL A   1      32.049  30.631  26.268  1.00  0.00     0.261 C 
BRANCH  27  28
ATOM     28  O   UNL A   1      32.722  30.812  27.519  1.00  0.00    -0.460 OA
BRANCH  28  29
ATOM     29  C   UNL A   1      33.509  31.913  27.568  1.00  0.00     0.338 C 
ATOM     30  O   UNL A   1      33.142  33.078  27.524  1.00  0.00    -0.246 OA
BRANCH  29  31
ATOM     31  C   UNL A   1      34.880  31.510  27.937  1.00  0.00     0.060 A 
ATOM     32  C   UNL A   1      35.138  30.136  28.025  1.00  0.00     0.016 A 
ATOM     33  C   UNL A   1      35.889  32.443  28.187  1.00  0.00     0.016 A 
ATOM     34  C   UNL A   1      36.379  29.692  28.456  1.00  0.00     0.010 A 
ATOM     35  C   UNL A   1      37.137  31.995  28.622  1.00  0.00     0.010 A 
ATOM     36  C   UNL A   1      37.363  30.621  28.811  1.00  0.00    -0.014 A 
BRANCH  36  37
ATOM     37  C   UNL A   1      38.542  30.145  29.569  1.00  0.00     0.031 A 
ATOM     38  C   UNL A   1      38.739  30.648  30.973  1.00  0.00     0.074 A 
ATOM     39  C   UNL A   1      39.356  29.214  29.044  1.00  0.00     0.049 A 
ATOM     40  N   UNL A   1      39.672  30.351  31.838  1.00  0.00    -0.248 NA
ATOM     41  C   UNL A   1      37.751  31.623  31.464  1.00  0.00     0.031 C 
ATOM     42  C   UNL A   1      39.221  28.636  27.706  1.00  0.00     0.029 A 
ATOM     43  N   UNL A   1      40.451  28.586  29.575  1.00  0.00    -0.354 N 
ATOM     44  C   UNL A   1      39.378  31.091  32.979  1.00  0.00     0.074 A 
ATOM     45  C   UNL A   1      38.217  31.898  32.672  1.00  0.00     0.031 C 
ATOM     46  C   UNL A   1      40.200  27.735  27.522  1.00  0.00     0.029 A 
ATOM     47  C   UNL A   1      41.049  27.700  28.711  1.00  0.00     0.049 A 
ATOM     48  H   UNL A   1      40.779  28.753  30.488  1.00  0.00     0.167 HD
ATOM     49  C   UNL A   1      40.007  31.080  34.179  1.00  0.00     0.034 A 
ATOM     50  C   UNL A   1      42.167  26.962  28.861  1.00  0.00     0.034 A 
ATOM     51  C   UNL A   1      41.173  30.279  34.454  1.00  0.00     0.049 A 
ATOM     52  C   UNL A   1      42.899  27.029  30.180  1.00  0.00     0.074 A 
ATOM     53  C   UNL A   1      41.909  30.195  35.622  1.00  0.00     0.029 A 
ATOM     54  N   UNL A   1      41.782  29.424  33.541  1.00  0.00    -0.354 N 
ATOM     55  N   UNL A   1      42.610  27.732  31.254  1.00  0.00    -0.248 NA
ATOM     56  C   UNL A   1      44.093  26.188  30.314  1.00  0.00     0.031 C 
ATOM     57  C   UNL A   1      43.000  29.349  35.394  1.00  0.00     0.029 A 
ATOM     58  C   UNL A   1      42.897  28.832  34.112  1.00  0.00     0.049 A 
ATOM     59  H   UNL A   1      41.466  29.264  32.622  1.00  0.00     0.167 HD
ATOM     60  C   UNL A   1      43.575  27.393  32.200  1.00  0.00     0.074 A 
ATOM     61  C   UNL A   1      44.429  26.401  31.577  1.00  0.00     0.031 C 
ATOM     62  C   UNL A   1      43.746  27.857  33.466  1.00  0.00     0.034 A 
BRANCH  49  63
ATOM     63  C   UNL A   1      39.464  31.988  35.257  1.00  0.00     0.023 A 
ATOM     64  C   UNL A   1      39.902  33.318  35.392  1.00  0.00     0.031 A 
ATOM     65  C   UNL A   1      38.515  31.512  36.179  1.00  0.00     0.131 A 
ATOM     66  C   UNL A   1      39.442  34.102  36.462  1.00  0.00     0.055 A 
ATOM     67  C   UNL A   1      38.000  32.323  37.191  1.00  0.00     0.041 A 
ATOM     68  F   UNL A   1      38.081  30.243  36.120  1.00  0.00    -0.206 F 
ATOM     69  C   UNL A   1      38.472  33.624  37.346  1.00  0.00     0.022 A 
BRANCH  66  70
ATOM     70  S   UNL A   1      40.233  35.706  36.765  1.00  0.00     0.124 S 
ATOM     71  O   UNL A   1      39.658  36.525  35.700  1.00  0.00    -0.237 OA
ATOM     72  O   UNL A   1      39.795  36.023  38.120  1.00  0.00    -0.237 OA
ATOM     73  O   UNL A   1      41.658  35.419  36.621  1.00  0.00    -0.744 OA
ENDBRANCH  66  70
ENDBRANCH  49  63
BRANCH  50  74
ATOM     74  C   UNL A   1      42.687  26.138  27.733  1.00  0.00     0.023 A 
ATOM     75  C   UNL A   1      42.193  24.849  27.477  1.00  0.00     0.031 A 
ATOM     76  C   UNL A   1      43.740  26.609  26.927  1.00  0.00     0.131 A 
ATOM     77  C   UNL A   1      42.788  24.057  26.482  1.00  0.00     0.055 A 
ATOM     78  C   UNL A   1      44.284  25.843  25.896  1.00  0.00     0.041 A 
ATOM     79  F   UNL A   1      44.253  27.834  27.126  1.00  0.00    -0.206 F 
ATOM     80  C   UNL A   1      43.819  24.550  25.679  1.00  0.00     0.022 A 
BRANCH  77  81
ATOM     81  S   UNL A   1      42.269  22.325  26.324  1.00  0.00     0.124 S 
ATOM     82  O   UNL A   1      40.824  22.462  26.177  1.00  0.00    -0.237 OA
ATOM     83  O   UNL A   1      42.998  21.901  25.133  1.00  0.00    -0.237 OA
ATOM     84  O   UNL A   1      42.716  21.720  27.576  1.00  0.00    -0.744 OA
ENDBRANCH  77  81
ENDBRANCH  50  74
BRANCH  62  85
ATOM     85  C   UNL A   1      44.882  27.258  34.262  1.00  0.00     0.023 A 
ATOM     86  C   UNL A   1      44.734  26.050  34.965  1.00  0.00     0.031 A 
ATOM     87  C   UNL A   1      46.115  27.928  34.354  1.00  0.00     0.131 A 
ATOM     88  C   UNL A   1      45.766  25.596  35.799  1.00  0.00     0.055 A 
ATOM     89  C   UNL A   1      47.169  27.426  35.119  1.00  0.00     0.041 A 
ATOM     90  F   UNL A   1      46.315  29.086  33.706  1.00  0.00    -0.206 F 
ATOM     91  C   UNL A   1      46.990  26.265  35.866  1.00  0.00     0.022 A 
BRANCH  88  92
ATOM     92  S   UNL A   1      45.431  24.200  36.908  1.00  0.00     0.124 S 
ATOM     93  O   UNL A   1      46.766  23.643  37.103  1.00  0.00    -0.237 OA
ATOM     94  O   UNL A   1      44.840  24.860  38.068  1.00  0.00    -0.237 OA
ATOM     95  O   UNL A   1      44.514  23.362  36.137  1.00  0.00    -0.744 OA
ENDBRANCH  88  92
ENDBRANCH  62  85
ENDBRANCH  36  37
ENDBRANCH  29  31
ENDBRANCH  28  29
ENDBRANCH  27  28
ENDBRANCH   1  27
TORSDOF 19
ENDMDL
MODEL 2
REMARK VINA RESULT:     -11.6      4.790     10.110
REMARK SMILES O=C(C[NH+]1CCN(C(=O)c2ccc(F)c(F)c2F)CC1)OCCOCCOC(=O)c1ccc(-c2c3nc(c(-c4cc(S(=O)(=O)[O-])ccc4F)c4ccc([nH]4)c(-c4cc(S(=O)(=O)[O-])ccc4F)c4nc(c(-c5cc(S(=O)(=O)[O-])ccc5F)c5ccc2[nH]5)C=C4)C=C3)cc1
REMARK SMILES IDX 25 1 24 2 23 3 22 4 21 5 2 6 1 7 3 8 4 9 5 10 20 11 6 13
REMARK SMILES IDX 19 14 7 15 8 16 9 17 10 18 11 19 17 20 12 21 15 22 18 23
REMARK SMILES IDX 13 24 16 25 14 26 26 27 27 28 28 29 29 30 30 31 31 32 92 33
REMARK SMILES IDX 32 34 91 35 33 36 34 37 35 38 85 39 36 40 90 41 84 42 86 43
REMARK SMILES IDX 37 44 89 45 83 46 82 47 38 49 70 50 50 51 69 52 51 53 54 54
REMARK SMILES IDX 68 55 87 56 52 57 53 58 67 60 88 61 55 62 39 63 40 64 48 65
REMARK SMILES IDX 41 66 47 67 49 68 46 69 42 70 43 71 44 72 45 73 71 74 72 75
REMARK SMILES IDX 80 76 73 77 79 78 81 79 78 80 74 81 75 82 76 83 77 84 56 85
REMARK SMILES IDX 57 86 65 87 58 88 64 89 66 90 63 91 59 92 60 93 61 94 62 95
REMARK H PARENT 4 12 86 48 54 59
REMARK Flexibility Score: inf
ROOT
ATOM      1  C   UNL A   1      36.055  20.833  24.899  1.00  0.00     0.202 C 
ENDROOT
BRANCH   1   2
ATOM      2  O   UNL A   1      35.869  22.244  24.731  1.00  0.00    -0.374 OA
BRANCH   2   3
ATOM      3  C   UNL A   1      35.036  22.650  23.646  1.00  0.00     0.202 C 
BRANCH   3   4
ATOM      4  C   UNL A   1      34.414  24.043  23.696  1.00  0.00     0.261 C 
BRANCH   4   5
ATOM      5  O   UNL A   1      34.244  24.657  22.406  1.00  0.00    -0.459 OA
BRANCH   5   6
ATOM      6  C   UNL A   1      33.080  25.161  21.935  1.00  0.00     0.361 C 
ATOM      7  O   UNL A   1      33.035  25.636  20.798  1.00  0.00    -0.245 OA
BRANCH   6   8
ATOM      8  C   UNL A   1      31.854  25.230  22.834  1.00  0.00     0.386 C 
BRANCH   8   9
ATOM      9  N   UNL A   1      31.416  26.604  23.118  1.00  0.00    -0.323 N 
ATOM     10  C   UNL A   1      30.371  26.633  24.163  1.00  0.00     0.284 C 
ATOM     11  C   UNL A   1      32.551  27.473  23.478  1.00  0.00     0.284 C 
ATOM     12  H   UNL A   1      31.008  26.975  22.260  1.00  0.00     0.348 HD
ATOM     13  C   UNL A   1      30.904  26.335  25.575  1.00  0.00     0.181 C 
ATOM     14  C   UNL A   1      33.125  27.152  24.868  1.00  0.00     0.181 C 
ATOM     15  N   UNL A   1      32.053  27.196  25.871  1.00  0.00    -0.327 N 
ATOM     16  C   UNL A   1      32.003  28.026  26.979  1.00  0.00     0.257 C 
ATOM     17  O   UNL A   1      31.094  28.030  27.803  1.00  0.00    -0.269 OA
BRANCH  16  18
ATOM     18  C   UNL A   1      33.095  28.987  27.166  1.00  0.00     0.079 A 
ATOM     19  C   UNL A   1      34.421  28.539  27.281  1.00  0.00     0.020 A 
ATOM     20  C   UNL A   1      32.790  30.342  27.236  1.00  0.00     0.174 A 
ATOM     21  C   UNL A   1      35.436  29.465  27.518  1.00  0.00     0.043 A 
ATOM     22  C   UNL A   1      33.808  31.258  27.448  1.00  0.00     0.195 A 
ATOM     23  F   UNL A   1      31.522  30.769  27.141  1.00  0.00    -0.203 F 
ATOM     24  C   UNL A   1      35.120  30.820  27.597  1.00  0.00     0.161 A 
ATOM     25  F   UNL A   1      33.525  32.566  27.528  1.00  0.00    -0.200 F 
ATOM     26  F   UNL A   1      36.100  31.705  27.826  1.00  0.00    -0.204 F 
ENDBRANCH  16  18
ENDBRANCH   8   9
ENDBRANCH   6   8
ENDBRANCH   5   6
ENDBRANCH   4   5
ENDBRANCH   3   4
ENDBRANCH   2   3
ENDBRANCH   1   2
BRANCH   1  27
ATOM     27  C   UNL A   1      37.496  20.329  24.993  1.00  0.00     0.261 C 
BRANCH  27  28
ATOM     28  O   UNL A   1      38.412  21.407  25.214  1.00  0.00    -0.460 OA
BRANCH  28  29
ATOM     29  C   UNL A   1      39.412  21.113  26.078  1.00  0.00     0.338 C 
ATOM     30  O   UNL A   1      40.037  20.065  26.145  1.00  0.00    -0.246 OA
BRANCH  29  31
ATOM     31  C   UNL A   1      39.819  22.345  26.781  1.00  0.00     0.060 A 
ATOM     32  C   UNL A   1      39.166  23.530  26.419  1.00  0.00     0.016 A 
ATOM     33  C   UNL A   1      40.809  22.347  27.768  1.00  0.00     0.016 A 
ATOM     34  C   UNL A   1      39.566  24.737  26.975  1.00  0.00     0.010 A 
ATOM     35  C   UNL A   1      41.210  23.562  28.326  1.00  0.00     0.010 A 
ATOM     36  C   UNL A   1      40.628  24.763  27.887  1.00  0.00    -0.014 A 
BRANCH  36  37
ATOM     37  C   UNL A   1      41.247  26.067  28.211  1.00  0.00     0.031 A 
ATOM     38  C   UNL A   1      42.644  26.336  27.722  1.00  0.00     0.074 A 
ATOM     39  C   UNL A   1      40.537  27.018  28.842  1.00  0.00     0.049 A 
ATOM     40  N   UNL A   1      43.378  27.409  27.853  1.00  0.00    -0.248 NA
ATOM     41  C   UNL A   1      43.304  25.242  26.991  1.00  0.00     0.031 C 
ATOM     42  C   UNL A   1      39.161  26.864  29.318  1.00  0.00     0.029 A 
ATOM     43  N   UNL A   1      40.872  28.301  29.184  1.00  0.00    -0.354 N 
ATOM     44  C   UNL A   1      44.578  27.126  27.211  1.00  0.00     0.074 A 
ATOM     45  C   UNL A   1      44.498  25.758  26.748  1.00  0.00     0.031 C 
ATOM     46  C   UNL A   1      38.770  28.015  29.891  1.00  0.00     0.029 A 
ATOM     47  C   UNL A   1      39.876  28.968  29.856  1.00  0.00     0.049 A 
ATOM     48  H   UNL A   1      41.742  28.707  28.969  1.00  0.00     0.167 HD
ATOM     49  C   UNL A   1      45.642  27.941  27.008  1.00  0.00     0.034 A 
ATOM     50  C   UNL A   1      39.871  30.203  30.397  1.00  0.00     0.034 A 
ATOM     51  C   UNL A   1      45.705  29.296  27.496  1.00  0.00     0.049 A 
ATOM     52  C   UNL A   1      41.100  31.064  30.229  1.00  0.00     0.074 A 
ATOM     53  C   UNL A   1      46.732  30.213  27.370  1.00  0.00     0.029 A 
ATOM     54  N   UNL A   1      44.694  29.929  28.214  1.00  0.00    -0.354 N 
ATOM     55  N   UNL A   1      42.230  30.786  29.618  1.00  0.00    -0.248 NA
ATOM     56  C   UNL A   1      41.043  32.411  30.806  1.00  0.00     0.031 C 
ATOM     57  C   UNL A   1      46.374  31.370  28.071  1.00  0.00     0.029 A 
ATOM     58  C   UNL A   1      45.087  31.212  28.559  1.00  0.00     0.049 A 
ATOM     59  H   UNL A   1      43.828  29.522  28.443  1.00  0.00     0.167 HD
ATOM     60  C   UNL A   1      43.008  31.938  29.715  1.00  0.00     0.074 A 
ATOM     61  C   UNL A   1      42.201  32.919  30.413  1.00  0.00     0.031 C 
ATOM     62  C   UNL A   1      44.272  32.169  29.272  1.00  0.00     0.034 A 
BRANCH  49  63
ATOM     63  C   UNL A   1      46.825  27.368  26.264  1.00  0.00     0.023 A 
ATOM     64  C   UNL A   1      47.891  26.745  26.938  1.00  0.00     0.031 A 
ATOM     65  C   UNL A   1      46.902  27.469  24.863  1.00  0.00     0.131 A 
ATOM     66  C   UNL A   1      49.014  26.307  26.219  1.00  0.00     0.055 A 
ATOM     67  C   UNL A   1      47.986  26.957  24.147  1.00  0.00     0.041 A 
ATOM     68  F   UNL A   1      45.931  28.079  24.167  1.00  0.00    -0.206 F 
ATOM     69  C   UNL A   1      49.058  26.383  24.825  1.00  0.00     0.022 A 
BRANCH  66  70
ATOM     70  S   UNL A   1      50.479  25.767  27.143  1.00  0.00     0.124 S 
ATOM     71  O   UNL A   1      51.538  25.953  26.153  1.00  0.00    -0.237 OA
ATOM     72  O   UNL A   1      50.495  26.686  28.276  1.00  0.00    -0.237 OA
ATOM     73  O   UNL A   1      50.182  24.375  27.474  1.00  0.00    -0.744 OA
ENDBRANCH  66  70
ENDBRANCH  49  63
BRANCH  50  74
ATOM     74  C   UNL A   1      38.695  30.682  31.178  1.00  0.00     0.023 A 
ATOM     75  C   UNL A   1      37.780  31.600  30.638  1.00  0.00     0.031 A 
ATOM     76  C   UNL A   1      38.505  30.272  32.510  1.00  0.00     0.131 A 
ATOM     77  C   UNL A   1      36.753  32.119  31.443  1.00  0.00     0.055 A 
ATOM     78  C   UNL A   1      37.444  30.741  33.286  1.00  0.00     0.041 A 
ATOM     79  F   UNL A   1      39.349  29.397  33.080  1.00  0.00    -0.206 F 
ATOM     80  C   UNL A   1      36.570  31.684  32.758  1.00  0.00     0.022 A 
BRANCH  77  81
ATOM     81  S   UNL A   1      35.724  33.458  30.781  1.00  0.00     0.124 S 
ATOM     82  O   UNL A   1      36.464  33.836  29.582  1.00  0.00    -0.237 OA
ATOM     83  O   UNL A   1      34.451  32.779  30.562  1.00  0.00    -0.237 OA
ATOM     84  O   UNL A   1      35.723  34.449  31.854  1.00  0.00    -0.744 OA
ENDBRANCH  77  81
ENDBRANCH  50  74
BRANCH  62  85
ATOM     85  C   UNL A   1      44.832  33.553  29.504  1.00  0.00     0.023 A 
ATOM     86  C   UNL A   1      44.675  34.580  28.557  1.00  0.00     0.031 A 
ATOM     87  C   UNL A   1      45.570  33.835  30.667  1.00  0.00     0.131 A 
ATOM     88  C   UNL A   1      45.321  35.810  28.747  1.00  0.00     0.055 A 
ATOM     89  C   UNL A   1      46.141  35.089  30.890  1.00  0.00     0.041 A 
ATOM     90  F   UNL A   1      45.754  32.894  31.606  1.00  0.00    -0.206 F 
ATOM     91  C   UNL A   1      46.037  36.078  29.916  1.00  0.00     0.022 A 
BRANCH  88  92
ATOM     92  S   UNL A   1      45.338  37.000  27.378  1.00  0.00     0.124 S 
ATOM     93  O   UNL A   1      45.886  36.198  26.289  1.00  0.00    -0.237 OA
ATOM     94  O   UNL A   1      43.928  37.357  27.259  1.00  0.00    -0.237 OA
ATOM     95  O   UNL A   1      46.209  38.068  27.863  1.00  0.00    -0.744 OA
ENDBRANCH  88  92
ENDBRANCH  62  85
ENDBRANCH  36  37
ENDBRANCH  29  31
ENDBRANCH  28  29
ENDBRANCH  27  28
ENDBRANCH   1  27
TORSDOF 19
ENDMDL
MODEL 3
REMARK VINA RESULT:     -11.5      1.415      7.536
REMARK SMILES O=C(C[NH+]1CCN(C(=O)c2ccc(F)c(F)c2F)CC1)OCCOCCOC(=O)c1ccc(-c2c3nc(c(-c4cc(S(=O)(=O)[O-])ccc4F)c4ccc([nH]4)c(-c4cc(S(=O)(=O)[O-])ccc4F)c4nc(c(-c5cc(S(=O)(=O)[O-])ccc5F)c5ccc2[nH]5)C=C4)C=C3)cc1
REMARK SMILES IDX 25 1 24 2 23 3 22 4 21 5 2 6 1 7 3 8 4 9 5 10 20 11 6 13
REMARK SMILES IDX 19 14 7 15 8 16 9 17 10 18 11 19 17 20 12 21 15 22 18 23
REMARK SMILES IDX 13 24 16 25 14 26 26 27 27 28 28 29 29 30 30 31 31 32 92 33
REMARK SMILES IDX 32 34 91 35 33 36 34 37 35 38 85 39 36 40 90 41 84 42 86 43
REMARK SMILES IDX 37 44 89 45 83 46 82 47 38 49 70 50 50 51 69 52 51 53 54 54
REMARK SMILES IDX 68 55 87 56 52 57 53 58 67 60 88 61 55 62 39 63 40 64 48 65
REMARK SMILES IDX 41 66 47 67 49 68 46 69 42 70 43 71 44 72 45 73 71 74 72 75
REMARK SMILES IDX 80 76 73 77 79 78 81 79 78 80 74 81 75 82 76 83 77 84 56 85
REMARK SMILES IDX 57 86 65 87 58 88 64 89 66 90 63 91 59 92 60 93 61 94 62 95
REMARK H PARENT 4 12 86 48 54 59
REMARK Flexibility Score: inf
ROOT
ATOM      1  C   UNL A   1      32.385  29.469  25.296  1.00  0.00     0.202 C 
ENDROOT
BRANCH   1   2
ATOM      2  O   UNL A   1      31.585  28.981  24.211  1.00  0.00    -0.374 OA
BRANCH   2   3
ATOM      3  C   UNL A   1      30.426  29.746  23.884  1.00  0.00     0.202 C 
BRANCH   3   4
ATOM      4  C   UNL A   1      29.326  29.075  23.065  1.00  0.00     0.261 C 
BRANCH   4   5
ATOM      5  O   UNL A   1      29.589  27.696  22.747  1.00  0.00    -0.459 OA
BRANCH   5   6
ATOM      6  C   UNL A   1      29.152  26.637  23.466  1.00  0.00     0.361 C 
ATOM      7  O   UNL A   1      27.999  26.628  23.903  1.00  0.00    -0.245 OA
BRANCH   6   8
ATOM      8  C   UNL A   1      30.105  25.503  23.817  1.00  0.00     0.386 C 
BRANCH   8   9
ATOM      9  N   UNL A   1      31.233  25.928  24.657  1.00  0.00    -0.323 N 
ATOM     10  C   UNL A   1      30.989  25.627  26.083  1.00  0.00     0.284 C 
ATOM     11  C   UNL A   1      32.504  25.338  24.200  1.00  0.00     0.284 C 
ATOM     12  H   UNL A   1      31.315  26.941  24.563  1.00  0.00     0.348 HD
ATOM     13  C   UNL A   1      31.087  24.130  26.421  1.00  0.00     0.181 C 
ATOM     14  C   UNL A   1      32.594  23.831  24.487  1.00  0.00     0.181 C 
ATOM     15  N   UNL A   1      32.348  23.581  25.915  1.00  0.00    -0.327 N 
ATOM     16  C   UNL A   1      33.223  22.977  26.802  1.00  0.00     0.257 C 
ATOM     17  O   UNL A   1      32.981  22.777  27.987  1.00  0.00    -0.269 OA
BRANCH  16  18
ATOM     18  C   UNL A   1      34.542  22.577  26.300  1.00  0.00     0.079 A 
ATOM     19  C   UNL A   1      35.594  23.505  26.250  1.00  0.00     0.020 A 
ATOM     20  C   UNL A   1      34.725  21.267  25.868  1.00  0.00     0.174 A 
ATOM     21  C   UNL A   1      36.822  23.120  25.713  1.00  0.00     0.043 A 
ATOM     22  C   UNL A   1      35.955  20.884  25.358  1.00  0.00     0.195 A 
ATOM     23  F   UNL A   1      33.717  20.384  25.902  1.00  0.00    -0.203 F 
ATOM     24  C   UNL A   1      36.993  21.808  25.274  1.00  0.00     0.161 A 
ATOM     25  F   UNL A   1      36.140  19.628  24.929  1.00  0.00    -0.200 F 
ATOM     26  F   UNL A   1      38.174  21.443  24.758  1.00  0.00    -0.204 F 
ENDBRANCH  16  18
ENDBRANCH   8   9
ENDBRANCH   6   8
ENDBRANCH   5   6
ENDBRANCH   4   5
ENDBRANCH   3   4
ENDBRANCH   2   3
ENDBRANCH   1   2
BRANCH   1  27
ATOM     27  C   UNL A   1      31.849  30.678  26.063  1.00  0.00     0.261 C 
BRANCH  27  28
ATOM     28  O   UNL A   1      32.492  30.816  27.335  1.00  0.00    -0.460 OA
BRANCH  28  29
ATOM     29  C   UNL A   1      33.273  31.917  27.443  1.00  0.00     0.338 C 
ATOM     30  O   UNL A   1      32.907  33.082  27.397  1.00  0.00    -0.246 OA
BRANCH  29  31
ATOM     31  C   UNL A   1      34.624  31.510  27.877  1.00  0.00     0.060 A 
ATOM     32  C   UNL A   1      34.816  30.154  28.173  1.00  0.00     0.016 A 
ATOM     33  C   UNL A   1      35.676  32.421  27.992  1.00  0.00     0.016 A 
ATOM     34  C   UNL A   1      36.035  29.722  28.675  1.00  0.00     0.010 A 
ATOM     35  C   UNL A   1      36.902  31.986  28.497  1.00  0.00     0.010 A 
ATOM     36  C   UNL A   1      37.062  30.647  28.893  1.00  0.00    -0.014 A 
BRANCH  36  37
ATOM     37  C   UNL A   1      38.217  30.236  29.722  1.00  0.00     0.031 A 
ATOM     38  C   UNL A   1      39.210  29.271  29.135  1.00  0.00     0.074 A 
ATOM     39  C   UNL A   1      38.416  30.788  30.931  1.00  0.00     0.049 A 
ATOM     40  N   UNL A   1      40.310  28.794  29.653  1.00  0.00    -0.248 NA
ATOM     41  C   UNL A   1      38.919  28.776  27.779  1.00  0.00     0.031 C 
ATOM     42  C   UNL A   1      37.529  31.763  31.567  1.00  0.00     0.029 A 
ATOM     43  N   UNL A   1      39.431  30.614  31.834  1.00  0.00    -0.354 N 
ATOM     44  C   UNL A   1      40.849  27.953  28.685  1.00  0.00     0.074 A 
ATOM     45  C   UNL A   1      39.922  27.937  27.575  1.00  0.00     0.031 C 
ATOM     46  C   UNL A   1      38.043  32.102  32.762  1.00  0.00     0.029 A 
ATOM     47  C   UNL A   1      39.270  31.343  32.988  1.00  0.00     0.049 A 
ATOM     48  H   UNL A   1      40.202  30.025  31.672  1.00  0.00     0.167 HD
ATOM     49  C   UNL A   1      42.021  27.273  28.713  1.00  0.00     0.034 A 
ATOM     50  C   UNL A   1      40.021  31.373  34.107  1.00  0.00     0.034 A 
ATOM     51  C   UNL A   1      42.920  27.292  29.840  1.00  0.00     0.049 A 
ATOM     52  C   UNL A   1      41.282  30.542  34.147  1.00  0.00     0.074 A 
ATOM     53  C   UNL A   1      44.126  26.632  29.994  1.00  0.00     0.029 A 
ATOM     54  N   UNL A   1      42.705  28.005  31.015  1.00  0.00    -0.354 N 
ATOM     55  N   UNL A   1      41.783  29.751  33.223  1.00  0.00    -0.248 NA
ATOM     56  C   UNL A   1      42.087  30.627  35.370  1.00  0.00     0.031 C 
ATOM     57  C   UNL A   1      44.603  26.888  31.285  1.00  0.00     0.029 A 
ATOM     58  C   UNL A   1      43.742  27.779  31.906  1.00  0.00     0.049 A 
ATOM     59  H   UNL A   1      41.929  28.585  31.187  1.00  0.00     0.167 HD
ATOM     60  C   UNL A   1      42.978  29.265  33.748  1.00  0.00     0.074 A 
ATOM     61  C   UNL A   1      43.134  29.880  35.052  1.00  0.00     0.031 C 
ATOM     62  C   UNL A   1      43.868  28.391  33.209  1.00  0.00     0.034 A 
BRANCH  49  63
ATOM     63  C   UNL A   1      42.366  26.431  27.507  1.00  0.00     0.023 A 
ATOM     64  C   UNL A   1      41.972  25.084  27.409  1.00  0.00     0.031 A 
ATOM     65  C   UNL A   1      43.121  26.973  26.452  1.00  0.00     0.131 A 
ATOM     66  C   UNL A   1      42.389  24.310  26.315  1.00  0.00     0.055 A 
ATOM     67  C   UNL A   1      43.463  26.219  25.327  1.00  0.00     0.041 A 
ATOM     68  F   UNL A   1      43.552  28.243  26.501  1.00  0.00    -0.206 F 
ATOM     69  C   UNL A   1      43.108  24.874  25.260  1.00  0.00     0.022 A 
BRANCH  66  70
ATOM     70  S   UNL A   1      42.100  22.519  26.359  1.00  0.00     0.124 S 
ATOM     71  O   UNL A   1      42.749  22.086  25.124  1.00  0.00    -0.237 OA
ATOM     72  O   UNL A   1      42.758  22.124  27.600  1.00  0.00    -0.237 OA
ATOM     73  O   UNL A   1      40.643  22.407  26.363  1.00  0.00    -0.744 OA
ENDBRANCH  66  70
ENDBRANCH  49  63
BRANCH  50  74
ATOM     74  C   UNL A   1      39.589  32.173  35.288  1.00  0.00     0.023 A 
ATOM     75  C   UNL A   1      38.870  31.593  36.345  1.00  0.00     0.031 A 
ATOM     76  C   UNL A   1      39.838  33.557  35.345  1.00  0.00     0.131 A 
ATOM     77  C   UNL A   1      38.377  32.401  37.382  1.00  0.00     0.055 A 
ATOM     78  C   UNL A   1      39.402  34.345  36.411  1.00  0.00     0.041 A 
ATOM     79  F   UNL A   1      40.520  34.167  34.362  1.00  0.00    -0.206 F 
ATOM     80  C   UNL A   1      38.652  33.770  37.430  1.00  0.00     0.022 A 
BRANCH  77  81
ATOM     81  S   UNL A   1      37.273  31.656  38.614  1.00  0.00     0.124 S 
ATOM     82  O   UNL A   1      38.079  31.746  39.827  1.00  0.00    -0.237 OA
ATOM     83  O   UNL A   1      36.111  32.537  38.548  1.00  0.00    -0.237 OA
ATOM     84  O   UNL A   1      37.058  30.304  38.105  1.00  0.00    -0.744 OA
ENDBRANCH  77  81
ENDBRANCH  50  74
BRANCH  62  85
ATOM     85  C   UNL A   1      45.103  28.087  34.025  1.00  0.00     0.023 A 
ATOM     86  C   UNL A   1      45.082  27.156  35.078  1.00  0.00     0.031 A 
ATOM     87  C   UNL A   1      46.306  28.771  33.775  1.00  0.00     0.131 A 
ATOM     88  C   UNL A   1      46.209  26.999  35.896  1.00  0.00     0.055 A 
ATOM     89  C   UNL A   1      47.451  28.549  34.541  1.00  0.00     0.041 A 
ATOM     90  F   UNL A   1      46.387  29.673  32.785  1.00  0.00    -0.206 F 
ATOM     91  C   UNL A   1      47.400  27.675  35.623  1.00  0.00     0.022 A 
BRANCH  88  92
ATOM     92  S   UNL A   1      46.049  26.013  37.410  1.00  0.00     0.124 S 
ATOM     93  O   UNL A   1      46.942  24.891  37.135  1.00  0.00    -0.237 OA
ATOM     94  O   UNL A   1      46.497  26.947  38.438  1.00  0.00    -0.237 OA
ATOM     95  O   UNL A   1      44.627  25.679  37.453  1.00  0.00    -0.744 OA
ENDBRANCH  88  92
ENDBRANCH  62  85
ENDBRANCH  36  37
ENDBRANCH  29  31
ENDBRANCH  28  29
ENDBRANCH  27  28
ENDBRANCH   1  27
TORSDOF 19
ENDMDL
