MODEL 1
REMARK VINA RESULT:      -9.9      0.000      0.000
REMARK SMILES C[C@H]1CCC[C@@H]1n1c(SCC(=O)OCCOCCOC(=O)c2ccc(-c3c4nc(c(-c5cc(S(=O)(=O)[O-])ccc5F)c5ccc([nH]5)c(-c5cc(S(=O)(=O)[O-])ccc5F)c5nc(c(-c6cc(S(=O)(=O)[O-])ccc6F)c6ccc3[nH]6)C=C5)C=C4)cc2)nc2cnccc21
REMARK SMILES IDX 16 1 15 2 14 3 13 4 11 5 12 6 10 7 9 8 8 9 7 10 91 11 85 12
REMARK SMILES IDX 86 13 90 14 87 15 89 16 88 17 6 18 1 19 2 20 3 21 4 22 5 23
REMARK SMILES IDX 17 24 18 25 19 26 20 27 21 28 22 29 23 30 84 31 24 32 83 33
REMARK SMILES IDX 25 34 26 35 27 36 77 37 28 38 82 39 76 40 78 41 29 42 81 43
REMARK SMILES IDX 75 44 74 45 30 47 62 48 42 49 61 50 43 51 46 52 60 53 79 54
REMARK SMILES IDX 44 55 45 56 59 58 80 59 47 60 31 61 32 62 40 63 33 64 39 65
REMARK SMILES IDX 41 66 38 67 34 68 35 69 36 70 37 71 63 72 64 73 72 74 65 75
REMARK SMILES IDX 71 76 73 77 70 78 66 79 67 80 68 81 69 82 48 83 49 84 57 85
REMARK SMILES IDX 50 86 56 87 58 88 55 89 51 90 52 91 53 92 54 93
REMARK H PARENT 78 46 46 57
REMARK Flexibility Score: inf
ROOT
ATOM      1  O   UNL A   1      33.862  35.591  29.577  1.00  0.00    -0.374 OA
ENDROOT
BRANCH   1   2
ATOM      2  C   UNL A   1      32.870  35.969  30.531  1.00  0.00     0.202 C 
BRANCH   2   3
ATOM      3  C   UNL A   1      32.990  35.470  31.976  1.00  0.00     0.261 C 
BRANCH   3   4
ATOM      4  O   UNL A   1      34.354  35.558  32.433  1.00  0.00    -0.463 OA
BRANCH   4   5
ATOM      5  C   UNL A   1      34.672  34.841  33.542  1.00  0.00     0.316 C 
ATOM      6  O   UNL A   1      34.924  35.335  34.638  1.00  0.00    -0.251 OA
BRANCH   5   7
ATOM      7  C   UNL A   1      34.653  33.330  33.329  1.00  0.00     0.200 C 
BRANCH   7   8
ATOM      8  S   UNL A   1      36.103  32.680  32.476  1.00  0.00    -0.076 SA
BRANCH   8   9
ATOM      9  C   UNL A   1      37.543  33.652  32.841  1.00  0.00     0.169 A 
ATOM     10  N   UNL A   1      38.772  33.114  33.273  1.00  0.00    -0.315 N 
ATOM     11  C   UNL A   1      39.663  33.346  32.219  1.00  0.00     0.072 A 
ATOM     12  N   UNL A   1      37.787  34.605  31.957  1.00  0.00    -0.221 NA
ATOM     13  C   UNL A   1      39.018  34.299  31.431  1.00  0.00     0.108 A 
ATOM     14  C   UNL A   1      40.919  32.846  31.853  1.00  0.00     0.049 A 
ATOM     15  C   UNL A   1      39.642  34.757  30.265  1.00  0.00     0.141 A 
ATOM     16  C   UNL A   1      41.456  33.359  30.680  1.00  0.00     0.113 A 
ATOM     17  N   UNL A   1      40.866  34.289  29.903  1.00  0.00    -0.262 NA
BRANCH  10  18
ATOM     18  C   UNL A   1      39.190  32.975  34.682  1.00  0.00     0.093 C 
ATOM     19  C   UNL A   1      38.289  30.816  35.812  1.00  0.00     0.010 C 
ATOM     20  C   UNL A   1      38.183  32.333  35.683  1.00  0.00     0.009 C 
ATOM     21  C   UNL A   1      38.450  33.012  37.028  1.00  0.00     0.005 C 
ATOM     22  C   UNL A   1      38.753  34.436  36.638  1.00  0.00     0.002 C 
ATOM     23  C   UNL A   1      39.571  34.295  35.366  1.00  0.00     0.026 C 
ENDBRANCH  10  18
ENDBRANCH   8   9
ENDBRANCH   7   8
ENDBRANCH   5   7
ENDBRANCH   4   5
ENDBRANCH   3   4
ENDBRANCH   2   3
ENDBRANCH   1   2
BRANCH   1  24
ATOM     24  C   UNL A   1      33.517  34.519  28.712  1.00  0.00     0.202 C 
BRANCH  24  25
ATOM     25  C   UNL A   1      34.612  33.739  27.963  1.00  0.00     0.261 C 
BRANCH  25  26
ATOM     26  O   UNL A   1      35.402  32.928  28.820  1.00  0.00    -0.460 OA
BRANCH  26  27
ATOM     27  C   UNL A   1      35.300  31.600  28.562  1.00  0.00     0.338 C 
ATOM     28  O   UNL A   1      34.300  30.974  28.237  1.00  0.00    -0.246 OA
BRANCH  27  29
ATOM     29  C   UNL A   1      36.685  31.201  28.301  1.00  0.00     0.060 A 
ATOM     30  C   UNL A   1      36.935  29.979  27.666  1.00  0.00     0.016 A 
ATOM     31  C   UNL A   1      37.659  31.854  29.071  1.00  0.00     0.016 A 
ATOM     32  C   UNL A   1      38.141  29.351  27.923  1.00  0.00     0.010 A 
ATOM     33  C   UNL A   1      38.868  31.224  29.315  1.00  0.00     0.010 A 
ATOM     34  C   UNL A   1      39.083  29.952  28.784  1.00  0.00    -0.014 A 
BRANCH  34  35
ATOM     35  C   UNL A   1      40.370  29.277  28.910  1.00  0.00     0.031 A 
ATOM     36  C   UNL A   1      40.660  28.916  30.324  1.00  0.00     0.074 A 
ATOM     37  C   UNL A   1      41.185  28.858  27.925  1.00  0.00     0.049 A 
ATOM     38  N   UNL A   1      41.596  29.356  31.096  1.00  0.00    -0.248 NA
ATOM     39  C   UNL A   1      39.639  28.098  30.997  1.00  0.00     0.031 C 
ATOM     40  C   UNL A   1      40.936  28.768  26.487  1.00  0.00     0.029 A 
ATOM     41  N   UNL A   1      42.425  28.310  28.061  1.00  0.00    -0.354 N 
ATOM     42  C   UNL A   1      41.362  28.764  32.334  1.00  0.00     0.074 A 
ATOM     43  C   UNL A   1      40.064  28.144  32.254  1.00  0.00     0.031 C 
ATOM     44  C   UNL A   1      41.902  28.007  25.919  1.00  0.00     0.029 A 
ATOM     45  C   UNL A   1      42.888  27.662  26.930  1.00  0.00     0.049 A 
ATOM     46  H   UNL A   1      42.947  28.370  28.893  1.00  0.00     0.167 HD
ATOM     47  C   UNL A   1      42.308  28.679  33.311  1.00  0.00     0.034 A 
ATOM     48  C   UNL A   1      43.937  26.806  26.872  1.00  0.00     0.034 A 
ATOM     49  C   UNL A   1      43.417  29.553  33.065  1.00  0.00     0.049 A 
ATOM     50  C   UNL A   1      44.780  27.012  28.076  1.00  0.00     0.074 A 
ATOM     51  C   UNL A   1      43.579  30.923  33.030  1.00  0.00     0.029 A 
ATOM     52  N   UNL A   1      44.528  29.024  32.457  1.00  0.00    -0.354 N 
ATOM     53  N   UNL A   1      45.499  28.075  28.302  1.00  0.00    -0.248 NA
ATOM     54  C   UNL A   1      44.500  26.190  29.244  1.00  0.00     0.031 C 
ATOM     55  C   UNL A   1      44.540  31.155  32.005  1.00  0.00     0.029 A 
ATOM     56  C   UNL A   1      44.928  29.915  31.493  1.00  0.00     0.049 A 
ATOM     57  H   UNL A   1      44.959  28.166  32.673  1.00  0.00     0.167 HD
ATOM     58  C   UNL A   1      45.395  28.288  29.669  1.00  0.00     0.074 A 
ATOM     59  C   UNL A   1      44.863  27.039  30.208  1.00  0.00     0.031 C 
ATOM     60  C   UNL A   1      45.486  29.540  30.207  1.00  0.00     0.034 A 
BRANCH  47  61
ATOM     61  C   UNL A   1      42.313  27.601  34.358  1.00  0.00     0.023 A 
ATOM     62  C   UNL A   1      43.077  26.425  34.216  1.00  0.00     0.031 A 
ATOM     63  C   UNL A   1      41.706  27.792  35.610  1.00  0.00     0.131 A 
ATOM     64  C   UNL A   1      43.158  25.470  35.233  1.00  0.00     0.055 A 
ATOM     65  C   UNL A   1      41.853  26.876  36.661  1.00  0.00     0.041 A 
ATOM     66  F   UNL A   1      40.986  28.896  35.867  1.00  0.00    -0.206 F 
ATOM     67  C   UNL A   1      42.573  25.701  36.472  1.00  0.00     0.022 A 
BRANCH  64  68
ATOM     68  S   UNL A   1      44.016  23.901  34.937  1.00  0.00     0.124 S 
ATOM     69  O   UNL A   1      44.904  24.249  33.833  1.00  0.00    -0.237 OA
ATOM     70  O   UNL A   1      44.664  23.667  36.224  1.00  0.00    -0.237 OA
ATOM     71  O   UNL A   1      42.932  22.975  34.618  1.00  0.00    -0.744 OA
ENDBRANCH  64  68
ENDBRANCH  47  61
BRANCH  48  72
ATOM     72  C   UNL A   1      43.958  25.531  26.119  1.00  0.00     0.023 A 
ATOM     73  C   UNL A   1      43.039  24.516  26.446  1.00  0.00     0.031 A 
ATOM     74  C   UNL A   1      45.045  25.181  25.302  1.00  0.00     0.131 A 
ATOM     75  C   UNL A   1      43.235  23.204  26.002  1.00  0.00     0.055 A 
ATOM     76  C   UNL A   1      45.233  23.870  24.845  1.00  0.00     0.041 A 
ATOM     77  F   UNL A   1      45.979  26.091  24.985  1.00  0.00    -0.206 F 
ATOM     78  C   UNL A   1      44.331  22.872  25.205  1.00  0.00     0.022 A 
BRANCH  75  79
ATOM     79  S   UNL A   1      42.101  21.886  26.519  1.00  0.00     0.124 S 
ATOM     80  O   UNL A   1      42.464  20.796  25.618  1.00  0.00    -0.237 OA
ATOM     81  O   UNL A   1      42.480  21.702  27.916  1.00  0.00    -0.237 OA
ATOM     82  O   UNL A   1      40.780  22.463  26.288  1.00  0.00    -0.744 OA
ENDBRANCH  75  79
ENDBRANCH  48  72
BRANCH  60  83
ATOM     83  C   UNL A   1      45.938  30.686  29.325  1.00  0.00     0.023 A 
ATOM     84  C   UNL A   1      44.990  31.240  28.446  1.00  0.00     0.031 A 
ATOM     85  C   UNL A   1      47.284  31.063  29.150  1.00  0.00     0.131 A 
ATOM     86  C   UNL A   1      45.398  32.093  27.412  1.00  0.00     0.055 A 
ATOM     87  C   UNL A   1      47.676  31.974  28.165  1.00  0.00     0.041 A 
ATOM     88  F   UNL A   1      48.267  30.495  29.859  1.00  0.00    -0.206 F 
ATOM     89  C   UNL A   1      46.733  32.479  27.277  1.00  0.00     0.022 A 
BRANCH  86  90
ATOM     90  S   UNL A   1      44.231  32.583  26.116  1.00  0.00     0.124 S 
ATOM     91  O   UNL A   1      43.417  31.381  25.960  1.00  0.00    -0.237 OA
ATOM     92  O   UNL A   1      43.552  33.724  26.728  1.00  0.00    -0.237 OA
ATOM     93  O   UNL A   1      45.083  32.912  24.977  1.00  0.00    -0.744 OA
ENDBRANCH  86  90
ENDBRANCH  60  83
ENDBRANCH  34  35
ENDBRANCH  27  29
ENDBRANCH  26  27
ENDBRANCH  25  26
ENDBRANCH  24  25
ENDBRANCH   1  24
TORSDOF 20
ENDMDL
MODEL 2
REMARK VINA RESULT:      -9.8      4.490      7.263
REMARK SMILES C[C@H]1CCC[C@@H]1n1c(SCC(=O)OCCOCCOC(=O)c2ccc(-c3c4nc(c(-c5cc(S(=O)(=O)[O-])ccc5F)c5ccc([nH]5)c(-c5cc(S(=O)(=O)[O-])ccc5F)c5nc(c(-c6cc(S(=O)(=O)[O-])ccc6F)c6ccc3[nH]6)C=C5)C=C4)cc2)nc2cnccc21
REMARK SMILES IDX 16 1 15 2 14 3 13 4 11 5 12 6 10 7 9 8 8 9 7 10 91 11 85 12
REMARK SMILES IDX 86 13 90 14 87 15 89 16 88 17 6 18 1 19 2 20 3 21 4 22 5 23
REMARK SMILES IDX 17 24 18 25 19 26 20 27 21 28 22 29 23 30 84 31 24 32 83 33
REMARK SMILES IDX 25 34 26 35 27 36 77 37 28 38 82 39 76 40 78 41 29 42 81 43
REMARK SMILES IDX 75 44 74 45 30 47 62 48 42 49 61 50 43 51 46 52 60 53 79 54
REMARK SMILES IDX 44 55 45 56 59 58 80 59 47 60 31 61 32 62 40 63 33 64 39 65
REMARK SMILES IDX 41 66 38 67 34 68 35 69 36 70 37 71 63 72 64 73 72 74 65 75
REMARK SMILES IDX 71 76 73 77 70 78 66 79 67 80 68 81 69 82 48 83 49 84 57 85
REMARK SMILES IDX 50 86 56 87 58 88 55 89 51 90 52 91 53 92 54 93
REMARK H PARENT 78 46 46 57
REMARK Flexibility Score: inf
ROOT
ATOM      1  O   UNL A   1      31.793  29.551  26.847  1.00  0.00    -0.374 OA
ENDROOT
BRANCH   1   2
ATOM      2  C   UNL A   1      31.772  28.128  26.735  1.00  0.00     0.202 C 
BRANCH   2   3
ATOM      3  C   UNL A   1      31.080  27.480  25.530  1.00  0.00     0.261 C 
BRANCH   3   4
ATOM      4  O   UNL A   1      30.280  26.356  25.947  1.00  0.00    -0.463 OA
BRANCH   4   5
ATOM      5  C   UNL A   1      30.377  25.228  25.197  1.00  0.00     0.316 C 
ATOM      6  O   UNL A   1      30.167  25.179  23.988  1.00  0.00    -0.251 OA
BRANCH   5   7
ATOM      7  C   UNL A   1      30.818  23.996  25.983  1.00  0.00     0.200 C 
BRANCH   7   8
ATOM      8  S   UNL A   1      32.489  24.101  26.655  1.00  0.00    -0.076 SA
BRANCH   8   9
ATOM      9  C   UNL A   1      33.695  24.148  25.354  1.00  0.00     0.169 A 
ATOM     10  N   UNL A   1      33.607  23.396  24.165  1.00  0.00    -0.315 N 
ATOM     11  C   UNL A   1      33.406  24.340  23.150  1.00  0.00     0.072 A 
ATOM     12  N   UNL A   1      34.114  25.367  25.052  1.00  0.00    -0.221 NA
ATOM     13  C   UNL A   1      33.754  25.553  23.740  1.00  0.00     0.108 A 
ATOM     14  C   UNL A   1      32.962  24.289  21.823  1.00  0.00     0.049 A 
ATOM     15  C   UNL A   1      33.659  26.730  22.989  1.00  0.00     0.141 A 
ATOM     16  C   UNL A   1      32.898  25.507  21.160  1.00  0.00     0.113 A 
ATOM     17  N   UNL A   1      33.239  26.696  21.696  1.00  0.00    -0.262 NA
BRANCH  10  18
ATOM     18  C   UNL A   1      34.234  22.078  23.945  1.00  0.00     0.093 C 
ATOM     19  C   UNL A   1      32.535  20.114  23.977  1.00  0.00     0.010 C 
ATOM     20  C   UNL A   1      33.650  20.854  24.710  1.00  0.00     0.009 C 
ATOM     21  C   UNL A   1      34.837  19.925  24.971  1.00  0.00     0.005 C 
ATOM     22  C   UNL A   1      35.964  20.884  25.262  1.00  0.00     0.002 C 
ATOM     23  C   UNL A   1      35.731  22.022  24.283  1.00  0.00     0.026 C 
ENDBRANCH  10  18
ENDBRANCH   8   9
ENDBRANCH   7   8
ENDBRANCH   5   7
ENDBRANCH   4   5
ENDBRANCH   3   4
ENDBRANCH   2   3
ENDBRANCH   1   2
BRANCH   1  24
ATOM     24  C   UNL A   1      33.078  30.152  26.904  1.00  0.00     0.202 C 
BRANCH  24  25
ATOM     25  C   UNL A   1      33.274  31.507  27.607  1.00  0.00     0.261 C 
BRANCH  25  26
ATOM     26  O   UNL A   1      34.352  31.503  28.529  1.00  0.00    -0.460 OA
BRANCH  26  27
ATOM     27  C   UNL A   1      35.484  32.077  28.049  1.00  0.00     0.338 C 
ATOM     28  O   UNL A   1      35.626  33.217  27.625  1.00  0.00    -0.246 OA
BRANCH  27  29
ATOM     29  C   UNL A   1      36.548  31.222  28.580  1.00  0.00     0.060 A 
ATOM     30  C   UNL A   1      37.635  31.811  29.234  1.00  0.00     0.016 A 
ATOM     31  C   UNL A   1      36.616  29.931  28.035  1.00  0.00     0.016 A 
ATOM     32  C   UNL A   1      38.843  31.136  29.219  1.00  0.00     0.010 A 
ATOM     33  C   UNL A   1      37.826  29.257  28.032  1.00  0.00     0.010 A 
ATOM     34  C   UNL A   1      38.947  29.884  28.577  1.00  0.00    -0.014 A 
BRANCH  34  35
ATOM     35  C   UNL A   1      40.225  29.194  28.705  1.00  0.00     0.031 A 
ATOM     36  C   UNL A   1      40.538  28.887  30.127  1.00  0.00     0.074 A 
ATOM     37  C   UNL A   1      41.013  28.722  27.723  1.00  0.00     0.049 A 
ATOM     38  N   UNL A   1      41.497  29.344  30.861  1.00  0.00    -0.248 NA
ATOM     39  C   UNL A   1      39.519  28.115  30.854  1.00  0.00     0.031 C 
ATOM     40  C   UNL A   1      40.734  28.576  26.295  1.00  0.00     0.029 A 
ATOM     41  N   UNL A   1      42.247  28.159  27.858  1.00  0.00    -0.354 N 
ATOM     42  C   UNL A   1      41.279  28.807  32.128  1.00  0.00     0.074 A 
ATOM     43  C   UNL A   1      39.969  28.206  32.100  1.00  0.00     0.031 C 
ATOM     44  C   UNL A   1      41.675  27.776  25.740  1.00  0.00     0.029 A 
ATOM     45  C   UNL A   1      42.676  27.457  26.745  1.00  0.00     0.049 A 
ATOM     46  H   UNL A   1      42.787  28.245  28.676  1.00  0.00     0.167 HD
ATOM     47  C   UNL A   1      42.242  28.748  33.089  1.00  0.00     0.034 A 
ATOM     48  C   UNL A   1      43.711  26.583  26.703  1.00  0.00     0.034 A 
ATOM     49  C   UNL A   1      43.360  29.592  32.784  1.00  0.00     0.049 A 
ATOM     50  C   UNL A   1      44.581  26.824  27.880  1.00  0.00     0.074 A 
ATOM     51  C   UNL A   1      43.543  30.956  32.688  1.00  0.00     0.029 A 
ATOM     52  N   UNL A   1      44.450  29.020  32.177  1.00  0.00    -0.354 N 
ATOM     53  N   UNL A   1      45.321  27.884  28.047  1.00  0.00    -0.248 NA
ATOM     54  C   UNL A   1      44.313  26.056  29.087  1.00  0.00     0.031 C 
ATOM     55  C   UNL A   1      44.486  31.131  31.637  1.00  0.00     0.029 A 
ATOM     56  C   UNL A   1      44.844  29.864  31.169  1.00  0.00     0.049 A 
ATOM     57  H   UNL A   1      44.872  28.165  32.421  1.00  0.00     0.167 HD
ATOM     58  C   UNL A   1      45.248  28.156  29.406  1.00  0.00     0.074 A 
ATOM     59  C   UNL A   1      44.709  26.939  30.007  1.00  0.00     0.031 C 
ATOM     60  C   UNL A   1      45.370  29.427  29.890  1.00  0.00     0.034 A 
BRANCH  47  61
ATOM     61  C   UNL A   1      42.253  27.714  34.179  1.00  0.00     0.023 A 
ATOM     62  C   UNL A   1      43.011  26.530  34.081  1.00  0.00     0.031 A 
ATOM     63  C   UNL A   1      41.656  27.959  35.427  1.00  0.00     0.131 A 
ATOM     64  C   UNL A   1      43.098  25.618  35.136  1.00  0.00     0.055 A 
ATOM     65  C   UNL A   1      41.808  27.087  36.514  1.00  0.00     0.041 A 
ATOM     66  F   UNL A   1      40.941  29.075  35.643  1.00  0.00    -0.206 F 
ATOM     67  C   UNL A   1      42.522  25.902  36.368  1.00  0.00     0.022 A 
BRANCH  64  68
ATOM     68  S   UNL A   1      43.948  24.035  34.899  1.00  0.00     0.124 S 
ATOM     69  O   UNL A   1      42.874  23.194  34.379  1.00  0.00    -0.237 OA
ATOM     70  O   UNL A   1      44.991  24.397  33.942  1.00  0.00    -0.237 OA
ATOM     71  O   UNL A   1      44.429  23.703  36.237  1.00  0.00    -0.744 OA
ENDBRANCH  64  68
ENDBRANCH  47  61
BRANCH  48  72
ATOM     72  C   UNL A   1      43.697  25.277  26.003  1.00  0.00     0.023 A 
ATOM     73  C   UNL A   1      42.771  24.291  26.392  1.00  0.00     0.031 A 
ATOM     74  C   UNL A   1      44.760  24.876  25.178  1.00  0.00     0.131 A 
ATOM     75  C   UNL A   1      42.937  22.959  25.999  1.00  0.00     0.055 A 
ATOM     76  C   UNL A   1      44.919  23.545  24.773  1.00  0.00     0.041 A 
ATOM     77  F   UNL A   1      45.700  25.758  24.805  1.00  0.00    -0.206 F 
ATOM     78  C   UNL A   1      44.011  22.577  25.194  1.00  0.00     0.022 A 
BRANCH  75  79
ATOM     79  S   UNL A   1      41.796  21.681  26.595  1.00  0.00     0.124 S 
ATOM     80  O   UNL A   1      42.046  20.585  25.663  1.00  0.00    -0.237 OA
ATOM     81  O   UNL A   1      42.273  21.472  27.958  1.00  0.00    -0.237 OA
ATOM     82  O   UNL A   1      40.484  22.310  26.469  1.00  0.00    -0.744 OA
ENDBRANCH  75  79
ENDBRANCH  48  72
BRANCH  60  83
ATOM     83  C   UNL A   1      45.821  30.527  28.951  1.00  0.00     0.023 A 
ATOM     84  C   UNL A   1      47.163  30.941  29.034  1.00  0.00     0.031 A 
ATOM     85  C   UNL A   1      44.944  31.320  28.187  1.00  0.00     0.131 A 
ATOM     86  C   UNL A   1      47.577  32.127  28.415  1.00  0.00     0.055 A 
ATOM     87  C   UNL A   1      45.378  32.462  27.507  1.00  0.00     0.041 A 
ATOM     88  F   UNL A   1      43.628  31.073  28.151  1.00  0.00    -0.206 F 
ATOM     89  C   UNL A   1      46.697  32.882  27.635  1.00  0.00     0.022 A 
BRANCH  86  90
ATOM     90  S   UNL A   1      49.222  32.809  28.748  1.00  0.00     0.124 S 
ATOM     91  O   UNL A   1      49.336  33.855  27.735  1.00  0.00    -0.237 OA
ATOM     92  O   UNL A   1      49.086  33.283  30.124  1.00  0.00    -0.237 OA
ATOM     93  O   UNL A   1      50.120  31.671  28.574  1.00  0.00    -0.744 OA
ENDBRANCH  86  90
ENDBRANCH  60  83
ENDBRANCH  34  35
ENDBRANCH  27  29
ENDBRANCH  26  27
ENDBRANCH  25  26
ENDBRANCH  24  25
ENDBRANCH   1  24
TORSDOF 20
ENDMDL
MODEL 3
REMARK VINA RESULT:      -9.7      4.905      7.818
REMARK SMILES C[C@H]1CCC[C@@H]1n1c(SCC(=O)OCCOCCOC(=O)c2ccc(-c3c4nc(c(-c5cc(S(=O)(=O)[O-])ccc5F)c5ccc([nH]5)c(-c5cc(S(=O)(=O)[O-])ccc5F)c5nc(c(-c6cc(S(=O)(=O)[O-])ccc6F)c6ccc3[nH]6)C=C5)C=C4)cc2)nc2cnccc21
REMARK SMILES IDX 16 1 15 2 14 3 13 4 11 5 12 6 10 7 9 8 8 9 7 10 91 11 85 12
REMARK SMILES IDX 86 13 90 14 87 15 89 16 88 17 6 18 1 19 2 20 3 21 4 22 5 23
REMARK SMILES IDX 17 24 18 25 19 26 20 27 21 28 22 29 23 30 84 31 24 32 83 33
REMARK SMILES IDX 25 34 26 35 27 36 77 37 28 38 82 39 76 40 78 41 29 42 81 43
REMARK SMILES IDX 75 44 74 45 30 47 62 48 42 49 61 50 43 51 46 52 60 53 79 54
REMARK SMILES IDX 44 55 45 56 59 58 80 59 47 60 31 61 32 62 40 63 33 64 39 65
REMARK SMILES IDX 41 66 38 67 34 68 35 69 36 70 37 71 63 72 64 73 72 74 65 75
REMARK SMILES IDX 71 76 73 77 70 78 66 79 67 80 68 81 69 82 48 83 49 84 57 85
REMARK SMILES IDX 50 86 56 87 58 88 55 89 51 90 52 91 53 92 54 93
REMARK H PARENT 78 46 46 57
REMARK Flexibility Score: inf
ROOT
ATOM      1  O   UNL A   1      33.047  28.317  26.412  1.00  0.00    -0.374 OA
ENDROOT
BRANCH   1   2
ATOM      2  C   UNL A   1      32.174  27.576  25.560  1.00  0.00     0.202 C 
BRANCH   2   3
ATOM      3  C   UNL A   1      31.004  26.800  26.175  1.00  0.00     0.261 C 
BRANCH   3   4
ATOM      4  O   UNL A   1      31.477  25.617  26.850  1.00  0.00    -0.463 OA
BRANCH   4   5
ATOM      5  C   UNL A   1      30.878  24.445  26.515  1.00  0.00     0.316 C 
ATOM      6  O   UNL A   1      30.085  23.842  27.233  1.00  0.00    -0.251 OA
BRANCH   5   7
ATOM      7  C   UNL A   1      31.244  23.937  25.123  1.00  0.00     0.200 C 
BRANCH   7   8
ATOM      8  S   UNL A   1      31.055  22.157  24.907  1.00  0.00    -0.076 SA
BRANCH   8   9
ATOM      9  C   UNL A   1      32.516  21.445  24.193  1.00  0.00     0.169 A 
ATOM     10  N   UNL A   1      33.474  20.709  24.918  1.00  0.00    -0.315 N 
ATOM     11  C   UNL A   1      33.369  19.399  24.436  1.00  0.00     0.072 A 
ATOM     12  N   UNL A   1      32.309  20.842  23.034  1.00  0.00    -0.221 NA
ATOM     13  C   UNL A   1      32.653  19.530  23.247  1.00  0.00     0.108 A 
ATOM     14  C   UNL A   1      33.790  18.140  24.884  1.00  0.00     0.049 A 
ATOM     15  C   UNL A   1      32.358  18.385  22.498  1.00  0.00     0.141 A 
ATOM     16  C   UNL A   1      33.448  17.065  24.075  1.00  0.00     0.113 A 
ATOM     17  N   UNL A   1      32.769  17.158  22.914  1.00  0.00    -0.262 NA
BRANCH  10  18
ATOM     18  C   UNL A   1      34.706  21.267  25.509  1.00  0.00     0.093 C 
ATOM     19  C   UNL A   1      34.281  22.612  27.690  1.00  0.00     0.010 C 
ATOM     20  C   UNL A   1      34.618  22.659  26.203  1.00  0.00     0.009 C 
ATOM     21  C   UNL A   1      35.979  23.320  25.976  1.00  0.00     0.005 C 
ATOM     22  C   UNL A   1      36.343  22.882  24.579  1.00  0.00     0.002 C 
ATOM     23  C   UNL A   1      35.865  21.442  24.518  1.00  0.00     0.026 C 
ENDBRANCH  10  18
ENDBRANCH   8   9
ENDBRANCH   7   8
ENDBRANCH   5   7
ENDBRANCH   4   5
ENDBRANCH   3   4
ENDBRANCH   2   3
ENDBRANCH   1   2
BRANCH   1  24
ATOM     24  C   UNL A   1      32.438  29.334  27.193  1.00  0.00     0.202 C 
BRANCH  24  25
ATOM     25  C   UNL A   1      33.147  30.683  27.406  1.00  0.00     0.261 C 
BRANCH  25  26
ATOM     26  O   UNL A   1      34.562  30.571  27.416  1.00  0.00    -0.460 OA
BRANCH  26  27
ATOM     27  C   UNL A   1      35.166  31.354  28.345  1.00  0.00     0.338 C 
ATOM     28  O   UNL A   1      34.667  31.851  29.345  1.00  0.00    -0.246 OA
BRANCH  27  29
ATOM     29  C   UNL A   1      36.590  31.077  28.145  1.00  0.00     0.060 A 
ATOM     30  C   UNL A   1      36.971  29.944  27.418  1.00  0.00     0.016 A 
ATOM     31  C   UNL A   1      37.462  31.717  29.039  1.00  0.00     0.016 A 
ATOM     32  C   UNL A   1      38.202  29.378  27.699  1.00  0.00     0.010 A 
ATOM     33  C   UNL A   1      38.698  31.150  29.307  1.00  0.00     0.010 A 
ATOM     34  C   UNL A   1      39.040  29.954  28.676  1.00  0.00    -0.014 A 
BRANCH  34  35
ATOM     35  C   UNL A   1      40.363  29.359  28.828  1.00  0.00     0.031 A 
ATOM     36  C   UNL A   1      40.642  29.006  30.247  1.00  0.00     0.074 A 
ATOM     37  C   UNL A   1      41.225  28.999  27.861  1.00  0.00     0.049 A 
ATOM     38  N   UNL A   1      41.531  29.498  31.043  1.00  0.00    -0.248 NA
ATOM     39  C   UNL A   1      39.659  28.121  30.890  1.00  0.00     0.031 C 
ATOM     40  C   UNL A   1      41.016  28.905  26.416  1.00  0.00     0.029 A 
ATOM     41  N   UNL A   1      42.493  28.528  28.022  1.00  0.00    -0.354 N 
ATOM     42  C   UNL A   1      41.306  28.883  32.272  1.00  0.00     0.074 A 
ATOM     43  C   UNL A   1      40.051  28.184  32.158  1.00  0.00     0.031 C 
ATOM     44  C   UNL A   1      42.039  28.209  25.866  1.00  0.00     0.029 A 
ATOM     45  C   UNL A   1      43.022  27.919  26.898  1.00  0.00     0.049 A 
ATOM     46  H   UNL A   1      42.992  28.614  28.867  1.00  0.00     0.167 HD
ATOM     47  C   UNL A   1      42.232  28.850  33.270  1.00  0.00     0.034 A 
ATOM     48  C   UNL A   1      44.124  27.130  26.860  1.00  0.00     0.034 A 
ATOM     49  C   UNL A   1      43.290  29.793  33.055  1.00  0.00     0.049 A 
ATOM     50  C   UNL A   1      44.924  27.379  28.084  1.00  0.00     0.074 A 
ATOM     51  C   UNL A   1      43.368  31.170  33.032  1.00  0.00     0.029 A 
ATOM     52  N   UNL A   1      44.446  29.338  32.471  1.00  0.00    -0.354 N 
ATOM     53  N   UNL A   1      45.570  28.483  28.333  1.00  0.00    -0.248 NA
ATOM     54  C   UNL A   1      44.669  26.532  29.241  1.00  0.00     0.031 C 
ATOM     55  C   UNL A   1      44.335  31.470  32.032  1.00  0.00     0.029 A 
ATOM     56  C   UNL A   1      44.812  30.260  31.521  1.00  0.00     0.049 A 
ATOM     57  H   UNL A   1      44.925  28.507  32.691  1.00  0.00     0.167 HD
ATOM     58  C   UNL A   1      45.421  28.679  29.699  1.00  0.00     0.074 A 
ATOM     59  C   UNL A   1      44.956  27.396  30.218  1.00  0.00     0.031 C 
ATOM     60  C   UNL A   1      45.422  29.930  30.247  1.00  0.00     0.034 A 
BRANCH  47  61
ATOM     61  C   UNL A   1      42.281  27.766  34.310  1.00  0.00     0.023 A 
ATOM     62  C   UNL A   1      43.079  26.615  34.154  1.00  0.00     0.031 A 
ATOM     63  C   UNL A   1      41.680  27.932  35.569  1.00  0.00     0.131 A 
ATOM     64  C   UNL A   1      43.200  25.657  35.165  1.00  0.00     0.055 A 
ATOM     65  C   UNL A   1      41.865  27.015  36.613  1.00  0.00     0.041 A 
ATOM     66  F   UNL A   1      40.929  29.011  35.839  1.00  0.00    -0.206 F 
ATOM     67  C   UNL A   1      42.619  25.863  36.410  1.00  0.00     0.022 A 
BRANCH  64  68
ATOM     68  S   UNL A   1      44.102  24.117  34.851  1.00  0.00     0.124 S 
ATOM     69  O   UNL A   1      43.178  23.117  35.373  1.00  0.00    -0.237 OA
ATOM     70  O   UNL A   1      44.249  24.148  33.398  1.00  0.00    -0.237 OA
ATOM     71  O   UNL A   1      45.344  24.292  35.598  1.00  0.00    -0.744 OA
ENDBRANCH  64  68
ENDBRANCH  47  61
BRANCH  48  72
ATOM     72  C   UNL A   1      44.241  25.864  26.100  1.00  0.00     0.023 A 
ATOM     73  C   UNL A   1      43.335  24.817  26.351  1.00  0.00     0.031 A 
ATOM     74  C   UNL A   1      45.396  25.558  25.361  1.00  0.00     0.131 A 
ATOM     75  C   UNL A   1      43.605  23.517  25.911  1.00  0.00     0.055 A 
ATOM     76  C   UNL A   1      45.659  24.259  24.909  1.00  0.00     0.041 A 
ATOM     77  F   UNL A   1      46.320  26.501  25.122  1.00  0.00    -0.206 F 
ATOM     78  C   UNL A   1      44.767  23.228  25.194  1.00  0.00     0.022 A 
BRANCH  75  79
ATOM     79  S   UNL A   1      42.481  22.158  26.333  1.00  0.00     0.124 S 
ATOM     80  O   UNL A   1      42.854  21.866  27.715  1.00  0.00    -0.237 OA
ATOM     81  O   UNL A   1      41.177  22.785  26.150  1.00  0.00    -0.237 OA
ATOM     82  O   UNL A   1      42.827  21.117  25.369  1.00  0.00    -0.744 OA
ENDBRANCH  75  79
ENDBRANCH  48  72
BRANCH  60  83
ATOM     83  C   UNL A   1      45.821  31.108  29.382  1.00  0.00     0.023 A 
ATOM     84  C   UNL A   1      44.890  31.558  28.429  1.00  0.00     0.031 A 
ATOM     85  C   UNL A   1      47.132  31.616  29.300  1.00  0.00     0.131 A 
ATOM     86  C   UNL A   1      45.287  32.439  27.415  1.00  0.00     0.055 A 
ATOM     87  C   UNL A   1      47.503  32.554  28.332  1.00  0.00     0.041 A 
ATOM     88  F   UNL A   1      48.113  31.155  30.086  1.00  0.00    -0.206 F 
ATOM     89  C   UNL A   1      46.584  32.956  27.370  1.00  0.00     0.022 A 
BRANCH  86  90
ATOM     90  S   UNL A   1      44.176  32.800  26.030  1.00  0.00     0.124 S 
ATOM     91  O   UNL A   1      45.113  33.088  24.947  1.00  0.00    -0.237 OA
ATOM     92  O   UNL A   1      43.432  31.549  25.897  1.00  0.00    -0.237 OA
ATOM     93  O   UNL A   1      43.389  33.939  26.494  1.00  0.00    -0.744 OA
ENDBRANCH  86  90
ENDBRANCH  60  83
ENDBRANCH  34  35
ENDBRANCH  27  29
ENDBRANCH  26  27
ENDBRANCH  25  26
ENDBRANCH  24  25
ENDBRANCH   1  24
TORSDOF 20
ENDMDL
