MODEL 1
REMARK VINA RESULT:     -10.6      0.000      0.000
REMARK SMILES O=C(OCCOCCOC(=O)[C@@H]1CC[C@@H](CNC(=O)c2ccno2)O1)c1ccc(-c2c3nc(c(-c4cc(S(=O)(=O)[O-])ccc4F)c4ccc([nH]4)c(-c4cc(S(=O)(=O)[O-])ccc4F)c4nc(c(-c5cc(S(=O)(=O)[O-])ccc5F)c5ccc2[nH]5)C=C4)C=C3)cc1
REMARK SMILES IDX 6 1 5 2 4 3 3 4 2 5 1 6 26 7 27 8 88 9 28 10 87 11 29 12
REMARK SMILES IDX 30 13 31 14 81 15 32 16 86 17 80 18 82 19 33 20 85 21 79 22
REMARK SMILES IDX 78 23 34 25 66 26 46 27 65 28 47 29 50 30 64 31 83 32 48 33
REMARK SMILES IDX 49 34 63 36 84 37 51 38 35 39 36 40 44 41 37 42 43 43 45 44
REMARK SMILES IDX 42 45 38 46 39 47 40 48 41 49 67 50 68 51 76 52 69 53 75 54
REMARK SMILES IDX 77 55 74 56 70 57 71 58 72 59 73 60 52 61 53 62 61 63 54 64
REMARK SMILES IDX 60 65 62 66 59 67 55 68 56 69 57 70 58 71 7 72 8 73 9 74
REMARK SMILES IDX 10 75 11 76 12 77 13 78 25 79 14 80 15 81 16 82 17 83 18 84
REMARK SMILES IDX 19 86 20 87 21 88 24 89 22 90 23 91
REMARK H PARENT 82 24 50 35 17 85
REMARK Flexibility Score: inf
ROOT
ATOM      1  O   UNL A   1      33.231  30.042  26.402  1.00  0.00    -0.374 OA
ENDROOT
BRANCH   1   2
ATOM      2  C   UNL A   1      32.060  30.652  26.943  1.00  0.00     0.202 C 
BRANCH   2   3
ATOM      3  C   UNL A   1      31.956  32.162  26.703  1.00  0.00     0.261 C 
BRANCH   3   4
ATOM      4  O   UNL A   1      32.509  32.883  27.819  1.00  0.00    -0.460 OA
BRANCH   4   5
ATOM      5  C   UNL A   1      33.722  33.477  27.920  1.00  0.00     0.338 C 
ATOM      6  O   UNL A   1      33.813  34.663  27.603  1.00  0.00    -0.246 OA
BRANCH   5   7
ATOM      7  C   UNL A   1      34.954  32.788  28.416  1.00  0.00     0.060 A 
ATOM      8  C   UNL A   1      34.998  31.496  28.936  1.00  0.00     0.016 A 
ATOM      9  C   UNL A   1      36.172  33.481  28.287  1.00  0.00     0.016 A 
ATOM     10  C   UNL A   1      36.178  30.921  29.367  1.00  0.00     0.010 A 
ATOM     11  C   UNL A   1      37.379  32.901  28.695  1.00  0.00     0.010 A 
ATOM     12  C   UNL A   1      37.372  31.622  29.257  1.00  0.00    -0.014 A 
BRANCH  12  13
ATOM     13  C   UNL A   1      38.540  31.008  29.905  1.00  0.00     0.031 A 
ATOM     14  C   UNL A   1      38.767  31.308  31.354  1.00  0.00     0.074 A 
ATOM     15  C   UNL A   1      39.208  30.037  29.257  1.00  0.00     0.049 A 
ATOM     16  N   UNL A   1      39.666  30.830  32.168  1.00  0.00    -0.248 NA
ATOM     17  C   UNL A   1      37.832  32.260  31.975  1.00  0.00     0.031 C 
ATOM     18  C   UNL A   1      38.914  29.585  27.893  1.00  0.00     0.029 A 
ATOM     19  N   UNL A   1      40.218  29.215  29.670  1.00  0.00    -0.354 N 
ATOM     20  C   UNL A   1      39.421  31.440  33.393  1.00  0.00     0.074 A 
ATOM     21  C   UNL A   1      38.295  32.328  33.212  1.00  0.00     0.031 C 
ATOM     22  C   UNL A   1      39.700  28.536  27.600  1.00  0.00     0.029 A 
ATOM     23  C   UNL A   1      40.600  28.294  28.721  1.00  0.00     0.049 A 
ATOM     24  H   UNL A   1      40.633  29.274  30.560  1.00  0.00     0.167 HD
ATOM     25  C   UNL A   1      40.093  31.272  34.557  1.00  0.00     0.034 A 
ATOM     26  C   UNL A   1      41.588  27.378  28.761  1.00  0.00     0.034 A 
ATOM     27  C   UNL A   1      41.223  30.385  34.675  1.00  0.00     0.049 A 
ATOM     28  C   UNL A   1      42.401  27.301  30.028  1.00  0.00     0.074 A 
ATOM     29  C   UNL A   1      42.061  30.183  35.754  1.00  0.00     0.029 A 
ATOM     30  N   UNL A   1      41.676  29.549  33.656  1.00  0.00    -0.354 N 
ATOM     31  N   UNL A   1      42.232  27.954  31.158  1.00  0.00    -0.248 NA
ATOM     32  C   UNL A   1      43.538  26.377  30.027  1.00  0.00     0.031 C 
ATOM     33  C   UNL A   1      43.058  29.279  35.365  1.00  0.00     0.029 A 
ATOM     34  C   UNL A   1      42.797  28.853  34.070  1.00  0.00     0.049 A 
ATOM     35  H   UNL A   1      41.257  29.466  32.769  1.00  0.00     0.167 HD
ATOM     36  C   UNL A   1      43.232  27.502  32.011  1.00  0.00     0.074 A 
ATOM     37  C   UNL A   1      43.981  26.503  31.269  1.00  0.00     0.031 C 
ATOM     38  C   UNL A   1      43.516  27.872  33.288  1.00  0.00     0.034 A 
BRANCH  25  39
ATOM     39  C   UNL A   1      39.687  32.159  35.709  1.00  0.00     0.023 A 
ATOM     40  C   UNL A   1      38.868  31.701  36.757  1.00  0.00     0.031 A 
ATOM     41  C   UNL A   1      40.024  33.525  35.686  1.00  0.00     0.131 A 
ATOM     42  C   UNL A   1      38.339  32.617  37.683  1.00  0.00     0.055 A 
ATOM     43  C   UNL A   1      39.564  34.414  36.659  1.00  0.00     0.041 A 
ATOM     44  F   UNL A   1      40.770  34.028  34.691  1.00  0.00    -0.206 F 
ATOM     45  C   UNL A   1      38.700  33.966  37.654  1.00  0.00     0.022 A 
BRANCH  42  46
ATOM     46  S   UNL A   1      37.028  32.058  38.809  1.00  0.00     0.124 S 
ATOM     47  O   UNL A   1      36.937  30.639  38.475  1.00  0.00    -0.237 OA
ATOM     48  O   UNL A   1      37.581  32.372  40.120  1.00  0.00    -0.237 OA
ATOM     49  O   UNL A   1      35.871  32.858  38.411  1.00  0.00    -0.744 OA
ENDBRANCH  42  46
ENDBRANCH  25  39
BRANCH  26  50
ATOM     50  C   UNL A   1      41.904  26.534  27.570  1.00  0.00     0.023 A 
ATOM     51  C   UNL A   1      41.527  25.183  27.503  1.00  0.00     0.031 A 
ATOM     52  C   UNL A   1      42.646  27.058  26.493  1.00  0.00     0.131 A 
ATOM     53  C   UNL A   1      41.925  24.395  26.408  1.00  0.00     0.055 A 
ATOM     54  C   UNL A   1      42.990  26.287  25.380  1.00  0.00     0.041 A 
ATOM     55  F   UNL A   1      43.048  28.339  26.502  1.00  0.00    -0.206 F 
ATOM     56  C   UNL A   1      42.641  24.943  25.341  1.00  0.00     0.022 A 
BRANCH  53  57
ATOM     57  S   UNL A   1      41.581  22.614  26.443  1.00  0.00     0.124 S 
ATOM     58  O   UNL A   1      42.271  22.154  25.243  1.00  0.00    -0.237 OA
ATOM     59  O   UNL A   1      42.172  22.216  27.716  1.00  0.00    -0.237 OA
ATOM     60  O   UNL A   1      40.122  22.548  26.388  1.00  0.00    -0.744 OA
ENDBRANCH  53  57
ENDBRANCH  26  50
BRANCH  38  61
ATOM     61  C   UNL A   1      44.660  27.151  33.954  1.00  0.00     0.023 A 
ATOM     62  C   UNL A   1      44.478  25.914  34.593  1.00  0.00     0.031 A 
ATOM     63  C   UNL A   1      45.943  27.724  33.960  1.00  0.00     0.131 A 
ATOM     64  C   UNL A   1      45.549  25.321  35.275  1.00  0.00     0.055 A 
ATOM     65  C   UNL A   1      47.021  27.095  34.582  1.00  0.00     0.041 A 
ATOM     66  F   UNL A   1      46.168  28.905  33.363  1.00  0.00    -0.206 F 
ATOM     67  C   UNL A   1      46.823  25.893  35.257  1.00  0.00     0.022 A 
BRANCH  64  68
ATOM     68  S   UNL A   1      45.226  23.845  36.277  1.00  0.00     0.124 S 
ATOM     69  O   UNL A   1      46.542  23.217  36.325  1.00  0.00    -0.237 OA
ATOM     70  O   UNL A   1      44.746  24.418  37.530  1.00  0.00    -0.237 OA
ATOM     71  O   UNL A   1      44.220  23.120  35.503  1.00  0.00    -0.744 OA
ENDBRANCH  64  68
ENDBRANCH  38  61
ENDBRANCH  12  13
ENDBRANCH   5   7
ENDBRANCH   4   5
ENDBRANCH   3   4
ENDBRANCH   2   3
ENDBRANCH   1   2
BRANCH   1  72
ATOM     72  C   UNL A   1      33.052  29.340  25.170  1.00  0.00     0.202 C 
BRANCH  72  73
ATOM     73  C   UNL A   1      31.778  28.502  25.222  1.00  0.00     0.261 C 
BRANCH  73  74
ATOM     74  O   UNL A   1      32.127  27.120  25.024  1.00  0.00    -0.461 OA
BRANCH  74  75
ATOM     75  C   UNL A   1      31.846  26.273  26.054  1.00  0.00     0.335 C 
ATOM     76  O   UNL A   1      31.393  26.612  27.140  1.00  0.00    -0.249 OA
BRANCH  75  77
ATOM     77  C   UNL A   1      32.075  24.809  25.653  1.00  0.00     0.228 C 
ATOM     78  C   UNL A   1      30.833  23.921  25.679  1.00  0.00     0.047 C 
ATOM     79  O   UNL A   1      33.052  24.156  26.497  1.00  0.00    -0.361 OA
ATOM     80  C   UNL A   1      31.422  22.564  25.984  1.00  0.00     0.037 C 
ATOM     81  C   UNL A   1      32.480  22.935  27.005  1.00  0.00     0.138 C 
BRANCH  81  82
ATOM     82  C   UNL A   1      33.584  21.913  27.326  1.00  0.00     0.148 C 
BRANCH  82  83
ATOM     83  N   UNL A   1      33.447  20.649  26.621  1.00  0.00    -0.347 N 
ATOM     84  C   UNL A   1      34.025  20.275  25.432  1.00  0.00     0.289 C 
ATOM     85  H   UNL A   1      32.868  19.978  27.050  1.00  0.00     0.164 HD
ATOM     86  O   UNL A   1      33.511  19.320  24.835  1.00  0.00    -0.266 OA
BRANCH  84  87
ATOM     87  C   UNL A   1      35.162  21.000  24.941  1.00  0.00     0.224 A 
ATOM     88  C   UNL A   1      35.307  22.204  24.287  1.00  0.00     0.079 A 
ATOM     89  O   UNL A   1      36.400  20.473  25.164  1.00  0.00    -0.351 OA
ATOM     90  C   UNL A   1      36.692  22.332  24.096  1.00  0.00     0.159 A 
ATOM     91  N   UNL A   1      37.365  21.301  24.611  1.00  0.00    -0.088 NA
ENDBRANCH  84  87
ENDBRANCH  82  83
ENDBRANCH  81  82
ENDBRANCH  75  77
ENDBRANCH  74  75
ENDBRANCH  73  74
ENDBRANCH  72  73
ENDBRANCH   1  72
TORSDOF 20
ENDMDL
MODEL 2
REMARK VINA RESULT:     -10.3      2.072      2.363
REMARK SMILES O=C(OCCOCCOC(=O)[C@@H]1CC[C@@H](CNC(=O)c2ccno2)O1)c1ccc(-c2c3nc(c(-c4cc(S(=O)(=O)[O-])ccc4F)c4ccc([nH]4)c(-c4cc(S(=O)(=O)[O-])ccc4F)c4nc(c(-c5cc(S(=O)(=O)[O-])ccc5F)c5ccc2[nH]5)C=C4)C=C3)cc1
REMARK SMILES IDX 6 1 5 2 4 3 3 4 2 5 1 6 26 7 27 8 88 9 28 10 87 11 29 12
REMARK SMILES IDX 30 13 31 14 81 15 32 16 86 17 80 18 82 19 33 20 85 21 79 22
REMARK SMILES IDX 78 23 34 25 66 26 46 27 65 28 47 29 50 30 64 31 83 32 48 33
REMARK SMILES IDX 49 34 63 36 84 37 51 38 35 39 36 40 44 41 37 42 43 43 45 44
REMARK SMILES IDX 42 45 38 46 39 47 40 48 41 49 67 50 68 51 76 52 69 53 75 54
REMARK SMILES IDX 77 55 74 56 70 57 71 58 72 59 73 60 52 61 53 62 61 63 54 64
REMARK SMILES IDX 60 65 62 66 59 67 55 68 56 69 57 70 58 71 7 72 8 73 9 74
REMARK SMILES IDX 10 75 11 76 12 77 13 78 25 79 14 80 15 81 16 82 17 83 18 84
REMARK SMILES IDX 19 86 20 87 21 88 24 89 22 90 23 91
REMARK H PARENT 82 24 50 35 17 85
REMARK Flexibility Score: inf
ROOT
ATOM      1  O   UNL A   1      33.219  29.796  27.231  1.00  0.00    -0.374 OA
ENDROOT
BRANCH   1   2
ATOM      2  C   UNL A   1      32.023  30.573  27.174  1.00  0.00     0.202 C 
BRANCH   2   3
ATOM      3  C   UNL A   1      32.164  31.909  26.436  1.00  0.00     0.261 C 
BRANCH   3   4
ATOM      4  O   UNL A   1      32.082  33.003  27.366  1.00  0.00    -0.460 OA
BRANCH   4   5
ATOM      5  C   UNL A   1      33.092  33.647  28.000  1.00  0.00     0.338 C 
ATOM      6  O   UNL A   1      32.976  34.858  28.188  1.00  0.00    -0.246 OA
BRANCH   5   7
ATOM      7  C   UNL A   1      34.327  32.974  28.508  1.00  0.00     0.060 A 
ATOM      8  C   UNL A   1      34.350  31.895  29.391  1.00  0.00     0.016 A 
ATOM      9  C   UNL A   1      35.559  33.430  28.003  1.00  0.00     0.016 A 
ATOM     10  C   UNL A   1      35.534  31.318  29.809  1.00  0.00     0.010 A 
ATOM     11  C   UNL A   1      36.765  32.837  28.397  1.00  0.00     0.010 A 
ATOM     12  C   UNL A   1      36.746  31.791  29.323  1.00  0.00    -0.014 A 
BRANCH  12  13
ATOM     13  C   UNL A   1      37.952  31.241  29.959  1.00  0.00     0.031 A 
ATOM     14  C   UNL A   1      38.189  31.575  31.399  1.00  0.00     0.074 A 
ATOM     15  C   UNL A   1      38.653  30.292  29.315  1.00  0.00     0.049 A 
ATOM     16  N   UNL A   1      39.123  31.152  32.205  1.00  0.00    -0.248 NA
ATOM     17  C   UNL A   1      37.222  32.493  32.022  1.00  0.00     0.031 C 
ATOM     18  C   UNL A   1      38.357  29.805  27.963  1.00  0.00     0.029 A 
ATOM     19  N   UNL A   1      39.707  29.524  29.721  1.00  0.00    -0.354 N 
ATOM     20  C   UNL A   1      38.871  31.770  33.424  1.00  0.00     0.074 A 
ATOM     21  C   UNL A   1      37.703  32.602  33.249  1.00  0.00     0.031 C 
ATOM     22  C   UNL A   1      39.185  28.789  27.672  1.00  0.00     0.029 A 
ATOM     23  C   UNL A   1      40.114  28.606  28.781  1.00  0.00     0.049 A 
ATOM     24  H   UNL A   1      40.134  29.617  30.603  1.00  0.00     0.167 HD
ATOM     25  C   UNL A   1      39.570  31.651  34.578  1.00  0.00     0.034 A 
ATOM     26  C   UNL A   1      41.144  27.738  28.816  1.00  0.00     0.034 A 
ATOM     27  C   UNL A   1      40.742  30.819  34.690  1.00  0.00     0.049 A 
ATOM     28  C   UNL A   1      41.982  27.718  30.070  1.00  0.00     0.074 A 
ATOM     29  C   UNL A   1      41.606  30.673  35.757  1.00  0.00     0.029 A 
ATOM     30  N   UNL A   1      41.215  29.989  33.676  1.00  0.00    -0.354 N 
ATOM     31  N   UNL A   1      41.802  28.380  31.193  1.00  0.00    -0.248 NA
ATOM     32  C   UNL A   1      43.160  26.848  30.063  1.00  0.00     0.031 C 
ATOM     33  C   UNL A   1      42.637  29.810  35.364  1.00  0.00     0.029 A 
ATOM     34  C   UNL A   1      42.374  29.351  34.081  1.00  0.00     0.049 A 
ATOM     35  H   UNL A   1      40.785  29.872  32.798  1.00  0.00     0.167 HD
ATOM     36  C   UNL A   1      42.836  27.988  32.035  1.00  0.00     0.074 A 
ATOM     37  C   UNL A   1      43.617  27.014  31.295  1.00  0.00     0.031 C 
ATOM     38  C   UNL A   1      43.124  28.392  33.301  1.00  0.00     0.034 A 
BRANCH  25  39
ATOM     39  C   UNL A   1      39.143  32.538  35.723  1.00  0.00     0.023 A 
ATOM     40  C   UNL A   1      39.565  33.875  35.835  1.00  0.00     0.031 A 
ATOM     41  C   UNL A   1      38.403  31.991  36.787  1.00  0.00     0.131 A 
ATOM     42  C   UNL A   1      39.325  34.588  37.022  1.00  0.00     0.055 A 
ATOM     43  C   UNL A   1      38.094  32.733  37.928  1.00  0.00     0.041 A 
ATOM     44  F   UNL A   1      38.005  30.710  36.755  1.00  0.00    -0.206 F 
ATOM     45  C   UNL A   1      38.573  34.033  38.061  1.00  0.00     0.022 A 
BRANCH  42  46
ATOM     46  S   UNL A   1      40.168  36.178  37.269  1.00  0.00     0.124 S 
ATOM     47  O   UNL A   1      41.521  35.746  37.609  1.00  0.00    -0.237 OA
ATOM     48  O   UNL A   1      40.010  36.825  35.973  1.00  0.00    -0.237 OA
ATOM     49  O   UNL A   1      39.425  36.792  38.369  1.00  0.00    -0.744 OA
ENDBRANCH  42  46
ENDBRANCH  25  39
BRANCH  26  50
ATOM     50  C   UNL A   1      41.479  26.890  27.633  1.00  0.00     0.023 A 
ATOM     51  C   UNL A   1      41.256  25.503  27.633  1.00  0.00     0.031 A 
ATOM     52  C   UNL A   1      42.085  27.453  26.493  1.00  0.00     0.131 A 
ATOM     53  C   UNL A   1      41.672  24.724  26.539  1.00  0.00     0.055 A 
ATOM     54  C   UNL A   1      42.443  26.683  25.384  1.00  0.00     0.041 A 
ATOM     55  F   UNL A   1      42.336  28.770  26.435  1.00  0.00    -0.206 F 
ATOM     56  C   UNL A   1      42.250  25.308  25.409  1.00  0.00     0.022 A 
BRANCH  53  57
ATOM     57  S   UNL A   1      41.538  22.918  26.651  1.00  0.00     0.124 S 
ATOM     58  O   UNL A   1      42.087  22.661  27.978  1.00  0.00    -0.237 OA
ATOM     59  O   UNL A   1      40.103  22.710  26.498  1.00  0.00    -0.237 OA
ATOM     60  O   UNL A   1      42.356  22.447  25.535  1.00  0.00    -0.744 OA
ENDBRANCH  53  57
ENDBRANCH  26  50
BRANCH  38  61
ATOM     61  C   UNL A   1      44.311  27.735  33.957  1.00  0.00     0.023 A 
ATOM     62  C   UNL A   1      45.600  28.284  33.866  1.00  0.00     0.031 A 
ATOM     63  C   UNL A   1      44.146  26.532  34.666  1.00  0.00     0.131 A 
ATOM     64  C   UNL A   1      46.689  27.595  34.417  1.00  0.00     0.055 A 
ATOM     65  C   UNL A   1      45.223  25.886  35.270  1.00  0.00     0.041 A 
ATOM     66  F   UNL A   1      42.933  25.966  34.780  1.00  0.00    -0.206 F 
ATOM     67  C   UNL A   1      46.506  26.410  35.134  1.00  0.00     0.022 A 
BRANCH  64  68
ATOM     68  S   UNL A   1      48.361  28.213  34.087  1.00  0.00     0.124 S 
ATOM     69  O   UNL A   1      48.333  28.409  32.641  1.00  0.00    -0.237 OA
ATOM     70  O   UNL A   1      48.408  29.428  34.894  1.00  0.00    -0.237 OA
ATOM     71  O   UNL A   1      49.224  27.128  34.551  1.00  0.00    -0.744 OA
ENDBRANCH  64  68
ENDBRANCH  38  61
ENDBRANCH  12  13
ENDBRANCH   5   7
ENDBRANCH   4   5
ENDBRANCH   3   4
ENDBRANCH   2   3
ENDBRANCH   1   2
BRANCH   1  72
ATOM     72  C   UNL A   1      33.046  28.382  27.114  1.00  0.00     0.202 C 
BRANCH  72  73
ATOM     73  C   UNL A   1      31.603  27.999  27.431  1.00  0.00     0.261 C 
BRANCH  73  74
ATOM     74  O   UNL A   1      31.428  26.597  27.161  1.00  0.00    -0.461 OA
BRANCH  74  75
ATOM     75  C   UNL A   1      31.132  26.263  25.873  1.00  0.00     0.335 C 
ATOM     76  O   UNL A   1      30.595  27.003  25.059  1.00  0.00    -0.249 OA
BRANCH  75  77
ATOM     77  C   UNL A   1      31.650  24.859  25.527  1.00  0.00     0.228 C 
ATOM     78  C   UNL A   1      30.646  23.725  25.720  1.00  0.00     0.047 C 
ATOM     79  O   UNL A   1      32.815  24.498  26.305  1.00  0.00    -0.361 OA
ATOM     80  C   UNL A   1      31.547  22.555  26.035  1.00  0.00     0.037 C 
ATOM     81  C   UNL A   1      32.576  23.222  26.929  1.00  0.00     0.138 C 
BRANCH  81  82
ATOM     82  C   UNL A   1      33.905  22.491  27.193  1.00  0.00     0.148 C 
BRANCH  82  83
ATOM     83  N   UNL A   1      33.968  21.150  26.635  1.00  0.00    -0.347 N 
ATOM     84  C   UNL A   1      34.386  20.773  25.383  1.00  0.00     0.289 C 
ATOM     85  H   UNL A   1      33.673  20.423  27.230  1.00  0.00     0.164 HD
ATOM     86  O   UNL A   1      34.032  19.654  24.987  1.00  0.00    -0.266 OA
BRANCH  84  87
ATOM     87  C   UNL A   1      35.182  21.676  24.602  1.00  0.00     0.224 A 
ATOM     88  C   UNL A   1      36.540  21.862  24.460  1.00  0.00     0.079 A 
ATOM     89  O   UNL A   1      34.534  22.537  23.764  1.00  0.00    -0.351 OA
ATOM     90  C   UNL A   1      36.653  22.910  23.533  1.00  0.00     0.159 A 
ATOM     91  N   UNL A   1      35.460  23.332  23.107  1.00  0.00    -0.088 NA
ENDBRANCH  84  87
ENDBRANCH  82  83
ENDBRANCH  81  82
ENDBRANCH  75  77
ENDBRANCH  74  75
ENDBRANCH  73  74
ENDBRANCH  72  73
ENDBRANCH   1  72
TORSDOF 20
ENDMDL
MODEL 3
REMARK VINA RESULT:     -10.2      4.134     10.579
REMARK SMILES O=C(OCCOCCOC(=O)[C@@H]1CC[C@@H](CNC(=O)c2ccno2)O1)c1ccc(-c2c3nc(c(-c4cc(S(=O)(=O)[O-])ccc4F)c4ccc([nH]4)c(-c4cc(S(=O)(=O)[O-])ccc4F)c4nc(c(-c5cc(S(=O)(=O)[O-])ccc5F)c5ccc2[nH]5)C=C4)C=C3)cc1
REMARK SMILES IDX 6 1 5 2 4 3 3 4 2 5 1 6 26 7 27 8 88 9 28 10 87 11 29 12
REMARK SMILES IDX 30 13 31 14 81 15 32 16 86 17 80 18 82 19 33 20 85 21 79 22
REMARK SMILES IDX 78 23 34 25 66 26 46 27 65 28 47 29 50 30 64 31 83 32 48 33
REMARK SMILES IDX 49 34 63 36 84 37 51 38 35 39 36 40 44 41 37 42 43 43 45 44
REMARK SMILES IDX 42 45 38 46 39 47 40 48 41 49 67 50 68 51 76 52 69 53 75 54
REMARK SMILES IDX 77 55 74 56 70 57 71 58 72 59 73 60 52 61 53 62 61 63 54 64
REMARK SMILES IDX 60 65 62 66 59 67 55 68 56 69 57 70 58 71 7 72 8 73 9 74
REMARK SMILES IDX 10 75 11 76 12 77 13 78 25 79 14 80 15 81 16 82 17 83 18 84
REMARK SMILES IDX 19 86 20 87 21 88 24 89 22 90 23 91
REMARK H PARENT 82 24 50 35 17 85
REMARK Flexibility Score: inf
ROOT
ATOM      1  O   UNL A   1      33.939  35.736  28.544  1.00  0.00    -0.374 OA
ENDROOT
BRANCH   1   2
ATOM      2  C   UNL A   1      33.766  34.439  29.113  1.00  0.00     0.202 C 
BRANCH   2   3
ATOM      3  C   UNL A   1      33.545  33.317  28.091  1.00  0.00     0.261 C 
BRANCH   3   4
ATOM      4  O   UNL A   1      34.754  32.557  27.916  1.00  0.00    -0.460 OA
BRANCH   4   5
ATOM      5  C   UNL A   1      34.905  31.212  27.879  1.00  0.00     0.338 C 
ATOM      6  O   UNL A   1      34.010  30.544  27.361  1.00  0.00    -0.246 OA
BRANCH   5   7
ATOM      7  C   UNL A   1      36.103  30.488  28.408  1.00  0.00     0.060 A 
ATOM      8  C   UNL A   1      36.112  29.662  29.531  1.00  0.00     0.016 A 
ATOM      9  C   UNL A   1      37.297  30.604  27.673  1.00  0.00     0.016 A 
ATOM     10  C   UNL A   1      37.259  29.018  29.954  1.00  0.00     0.010 A 
ATOM     11  C   UNL A   1      38.459  29.935  28.075  1.00  0.00     0.010 A 
ATOM     12  C   UNL A   1      38.439  29.157  29.235  1.00  0.00    -0.014 A 
BRANCH  12  13
ATOM     13  C   UNL A   1      39.643  28.587  29.858  1.00  0.00     0.031 A 
ATOM     14  C   UNL A   1      40.369  27.514  29.109  1.00  0.00     0.074 A 
ATOM     15  C   UNL A   1      40.169  29.197  30.934  1.00  0.00     0.049 A 
ATOM     16  N   UNL A   1      41.490  26.914  29.398  1.00  0.00    -0.248 NA
ATOM     17  C   UNL A   1      39.757  27.075  27.844  1.00  0.00     0.031 C 
ATOM     18  C   UNL A   1      39.585  30.364  31.605  1.00  0.00     0.029 A 
ATOM     19  N   UNL A   1      41.334  28.973  31.611  1.00  0.00    -0.354 N 
ATOM     20  C   UNL A   1      41.708  26.011  28.365  1.00  0.00     0.074 A 
ATOM     21  C   UNL A   1      40.599  26.135  27.447  1.00  0.00     0.031 C 
ATOM     22  C   UNL A   1      40.419  30.776  32.572  1.00  0.00     0.029 A 
ATOM     23  C   UNL A   1      41.554  29.863  32.637  1.00  0.00     0.049 A 
ATOM     24  H   UNL A   1      41.957  28.245  31.387  1.00  0.00     0.167 HD
ATOM     25  C   UNL A   1      42.744  25.151  28.214  1.00  0.00     0.034 A 
ATOM     26  C   UNL A   1      42.555  29.906  33.539  1.00  0.00     0.034 A 
ATOM     27  C   UNL A   1      43.815  25.057  29.173  1.00  0.00     0.049 A 
ATOM     28  C   UNL A   1      43.630  28.855  33.421  1.00  0.00     0.074 A 
ATOM     29  C   UNL A   1      44.875  24.173  29.209  1.00  0.00     0.029 A 
ATOM     30  N   UNL A   1      43.951  25.889  30.283  1.00  0.00    -0.354 N 
ATOM     31  N   UNL A   1      43.783  27.931  32.495  1.00  0.00    -0.248 NA
ATOM     32  C   UNL A   1      44.658  28.843  34.464  1.00  0.00     0.031 C 
ATOM     33  C   UNL A   1      45.611  24.425  30.374  1.00  0.00     0.029 A 
ATOM     34  C   UNL A   1      45.060  25.520  31.024  1.00  0.00     0.049 A 
ATOM     35  H   UNL A   1      43.346  26.633  30.506  1.00  0.00     0.167 HD
ATOM     36  C   UNL A   1      44.940  27.241  32.836  1.00  0.00     0.074 A 
ATOM     37  C   UNL A   1      45.454  27.874  34.037  1.00  0.00     0.031 C 
ATOM     38  C   UNL A   1      45.529  26.179  32.224  1.00  0.00     0.034 A 
BRANCH  25  39
ATOM     39  C   UNL A   1      42.664  24.191  27.052  1.00  0.00     0.023 A 
ATOM     40  C   UNL A   1      42.001  22.953  27.145  1.00  0.00     0.031 A 
ATOM     41  C   UNL A   1      43.375  24.469  25.871  1.00  0.00     0.131 A 
ATOM     42  C   UNL A   1      42.142  22.005  26.117  1.00  0.00     0.055 A 
ATOM     43  C   UNL A   1      43.440  23.556  24.817  1.00  0.00     0.041 A 
ATOM     44  F   UNL A   1      44.058  25.616  25.739  1.00  0.00    -0.206 F 
ATOM     45  C   UNL A   1      42.838  22.307  24.944  1.00  0.00     0.022 A 
BRANCH  42  46
ATOM     46  S   UNL A   1      41.564  20.309  26.412  1.00  0.00     0.124 S 
ATOM     47  O   UNL A   1      40.117  20.463  26.290  1.00  0.00    -0.237 OA
ATOM     48  O   UNL A   1      42.219  19.561  25.345  1.00  0.00    -0.237 OA
ATOM     49  O   UNL A   1      42.039  20.015  27.763  1.00  0.00    -0.744 OA
ENDBRANCH  42  46
ENDBRANCH  25  39
BRANCH  26  50
ATOM     50  C   UNL A   1      42.551  30.907  34.647  1.00  0.00     0.023 A 
ATOM     51  C   UNL A   1      43.112  32.185  34.488  1.00  0.00     0.031 A 
ATOM     52  C   UNL A   1      42.031  30.576  35.914  1.00  0.00     0.131 A 
ATOM     53  C   UNL A   1      43.176  33.065  35.582  1.00  0.00     0.055 A 
ATOM     54  C   UNL A   1      42.044  31.475  36.982  1.00  0.00     0.041 A 
ATOM     55  F   UNL A   1      41.493  29.366  36.134  1.00  0.00    -0.206 F 
ATOM     56  C   UNL A   1      42.632  32.724  36.823  1.00  0.00     0.022 A 
BRANCH  53  57
ATOM     57  S   UNL A   1      44.071  34.632  35.392  1.00  0.00     0.124 S 
ATOM     58  O   UNL A   1      43.402  35.479  36.373  1.00  0.00    -0.237 OA
ATOM     59  O   UNL A   1      45.440  34.239  35.710  1.00  0.00    -0.237 OA
ATOM     60  O   UNL A   1      43.836  34.990  33.994  1.00  0.00    -0.744 OA
ENDBRANCH  53  57
ENDBRANCH  26  50
BRANCH  38  61
ATOM     61  C   UNL A   1      46.814  25.684  32.835  1.00  0.00     0.023 A 
ATOM     62  C   UNL A   1      48.066  26.110  32.362  1.00  0.00     0.031 A 
ATOM     63  C   UNL A   1      46.778  24.759  33.893  1.00  0.00     0.131 A 
ATOM     64  C   UNL A   1      49.235  25.558  32.901  1.00  0.00     0.055 A 
ATOM     65  C   UNL A   1      47.947  24.265  34.471  1.00  0.00     0.041 A 
ATOM     66  F   UNL A   1      45.606  24.321  34.380  1.00  0.00    -0.206 F 
ATOM     67  C   UNL A   1      49.184  24.653  33.964  1.00  0.00     0.022 A 
BRANCH  64  68
ATOM     68  S   UNL A   1      50.821  25.956  32.118  1.00  0.00     0.124 S 
ATOM     69  O   UNL A   1      51.543  24.694  32.235  1.00  0.00    -0.237 OA
ATOM     70  O   UNL A   1      50.415  26.336  30.769  1.00  0.00    -0.237 OA
ATOM     71  O   UNL A   1      51.342  27.049  32.939  1.00  0.00    -0.744 OA
ENDBRANCH  64  68
ENDBRANCH  38  61
ENDBRANCH  12  13
ENDBRANCH   5   7
ENDBRANCH   4   5
ENDBRANCH   3   4
ENDBRANCH   2   3
ENDBRANCH   1   2
BRANCH   1  72
ATOM     72  C   UNL A   1      33.524  36.832  29.362  1.00  0.00     0.202 C 
BRANCH  72  73
ATOM     73  C   UNL A   1      33.116  36.333  30.745  1.00  0.00     0.261 C 
BRANCH  73  74
ATOM     74  O   UNL A   1      33.585  37.271  31.730  1.00  0.00    -0.461 OA
BRANCH  74  75
ATOM     75  C   UNL A   1      34.024  36.742  32.907  1.00  0.00     0.335 C 
ATOM     76  O   UNL A   1      33.837  37.232  34.013  1.00  0.00    -0.249 OA
BRANCH  75  77
ATOM     77  C   UNL A   1      34.708  35.385  32.688  1.00  0.00     0.228 C 
ATOM     78  C   UNL A   1      33.887  34.165  33.098  1.00  0.00     0.047 C 
ATOM     79  O   UNL A   1      35.961  35.281  33.403  1.00  0.00    -0.361 OA
ATOM     80  C   UNL A   1      34.962  33.172  33.474  1.00  0.00     0.037 C 
ATOM     81  C   UNL A   1      35.945  34.076  34.192  1.00  0.00     0.138 C 
BRANCH  81  82
ATOM     82  C   UNL A   1      37.377  33.565  34.429  1.00  0.00     0.148 C 
BRANCH  82  83
ATOM     83  N   UNL A   1      37.494  32.117  34.465  1.00  0.00    -0.347 N 
ATOM     84  C   UNL A   1      38.027  31.335  35.460  1.00  0.00     0.289 C 
ATOM     85  H   UNL A   1      37.148  31.638  33.677  1.00  0.00     0.164 HD
ATOM     86  O   UNL A   1      38.354  30.180  35.152  1.00  0.00    -0.266 OA
BRANCH  84  87
ATOM     87  C   UNL A   1      38.192  31.882  36.776  1.00  0.00     0.224 A 
ATOM     88  C   UNL A   1      38.939  32.922  37.284  1.00  0.00     0.079 A 
ATOM     89  O   UNL A   1      37.456  31.338  37.790  1.00  0.00    -0.351 OA
ATOM     90  C   UNL A   1      38.639  32.929  38.656  1.00  0.00     0.159 A 
ATOM     91  N   UNL A   1      37.755  31.984  38.979  1.00  0.00    -0.088 NA
ENDBRANCH  84  87
ENDBRANCH  82  83
ENDBRANCH  81  82
ENDBRANCH  75  77
ENDBRANCH  74  75
ENDBRANCH  73  74
ENDBRANCH  72  73
ENDBRANCH   1  72
TORSDOF 20
ENDMDL
