MODEL 1
REMARK VINA RESULT:      -9.4      0.000      0.000
REMARK SMILES CC[NH+](CC)C[C@H](F)C(=O)OCCOCCOC(=O)c1ccc(-c2c3nc(c(-c4cc(S(=O)(=O)[O-])ccc4F)c4ccc([nH]4)c(-c4cc(S(=O)(=O)[O-])ccc4F)c4nc(c(-c5cc(S(=O)(=O)[O-])ccc5F)c5ccc2[nH]5)C=C4)C=C3)cc1
REMARK SMILES IDX 14 1 13 2 12 3 11 4 9 5 10 6 7 7 8 8 6 9 3 10 2 12 1 13 4 14
REMARK SMILES IDX 5 15 15 16 16 17 17 18 18 19 19 20 20 21 21 22 82 23 22 24
REMARK SMILES IDX 81 25 23 26 24 27 25 28 75 29 26 30 80 31 74 32 76 33 27 34
REMARK SMILES IDX 79 35 73 36 72 37 28 39 60 40 40 41 59 42 41 43 44 44 58 45
REMARK SMILES IDX 77 46 42 47 43 48 57 50 78 51 45 52 29 53 30 54 38 55 31 56
REMARK SMILES IDX 37 57 39 58 36 59 32 60 33 61 34 62 35 63 61 64 62 65 70 66
REMARK SMILES IDX 63 67 69 68 71 69 68 70 64 71 65 72 66 73 67 74 46 75 47 76
REMARK SMILES IDX 55 77 48 78 54 79 56 80 53 81 49 82 50 83 51 84 52 85
REMARK H PARENT 3 11 76 38 44 49
REMARK Flexibility Score: inf
ROOT
ATOM      1  O   UNL A   1      36.273  21.420  25.792  1.00  0.00    -0.374 OA
ENDROOT
BRANCH   1   2
ATOM      2  C   UNL A   1      34.975  20.871  25.628  1.00  0.00     0.202 C 
BRANCH   2   3
ATOM      3  C   UNL A   1      34.111  21.297  24.430  1.00  0.00     0.261 C 
BRANCH   3   4
ATOM      4  O   UNL A   1      33.858  22.700  24.300  1.00  0.00    -0.461 OA
BRANCH   4   5
ATOM      5  C   UNL A   1      34.346  23.235  23.145  1.00  0.00     0.346 C 
ATOM      6  O   UNL A   1      35.542  23.338  22.899  1.00  0.00    -0.248 OA
BRANCH   5   7
ATOM      7  C   UNL A   1      33.261  23.641  22.176  1.00  0.00     0.330 C 
ATOM      8  F   UNL A   1      32.929  22.625  21.312  1.00  0.00    -0.228 F 
BRANCH   7   9
ATOM      9  C   UNL A   1      31.954  24.166  22.803  1.00  0.00     0.312 C 
BRANCH   9  10
ATOM     10  N   UNL A   1      31.621  25.584  22.971  1.00  0.00    -0.332 N 
ATOM     11  H   UNL A   1      32.276  25.799  23.722  1.00  0.00     0.348 HD
BRANCH  10  12
ATOM     12  C   UNL A   1      32.057  26.518  21.933  1.00  0.00     0.258 C 
ATOM     13  C   UNL A   1      33.389  27.206  22.235  1.00  0.00     0.071 C 
ENDBRANCH  10  12
BRANCH  10  14
ATOM     14  C   UNL A   1      30.320  25.890  23.568  1.00  0.00     0.258 C 
ATOM     15  C   UNL A   1      30.280  26.314  25.029  1.00  0.00     0.071 C 
ENDBRANCH  10  14
ENDBRANCH   9  10
ENDBRANCH   7   9
ENDBRANCH   5   7
ENDBRANCH   4   5
ENDBRANCH   3   4
ENDBRANCH   2   3
ENDBRANCH   1   2
BRANCH   1  16
ATOM     16  C   UNL A   1      37.316  21.054  24.892  1.00  0.00     0.202 C 
BRANCH  16  17
ATOM     17  C   UNL A   1      38.439  20.125  25.361  1.00  0.00     0.261 C 
BRANCH  17  18
ATOM     18  O   UNL A   1      39.738  20.737  25.331  1.00  0.00    -0.460 OA
BRANCH  18  19
ATOM     19  C   UNL A   1      40.429  20.623  26.494  1.00  0.00     0.338 C 
ATOM     20  O   UNL A   1      41.011  19.633  26.905  1.00  0.00    -0.246 OA
BRANCH  19  21
ATOM     21  C   UNL A   1      40.555  21.933  27.151  1.00  0.00     0.060 A 
ATOM     22  C   UNL A   1      39.795  22.992  26.639  1.00  0.00     0.016 A 
ATOM     23  C   UNL A   1      41.515  22.154  28.138  1.00  0.00     0.016 A 
ATOM     24  C   UNL A   1      40.038  24.293  27.069  1.00  0.00     0.010 A 
ATOM     25  C   UNL A   1      41.768  23.462  28.559  1.00  0.00     0.010 A 
ATOM     26  C   UNL A   1      41.063  24.539  27.991  1.00  0.00    -0.014 A 
BRANCH  26  27
ATOM     27  C   UNL A   1      41.521  25.932  28.202  1.00  0.00     0.031 A 
ATOM     28  C   UNL A   1      42.886  26.324  27.704  1.00  0.00     0.074 A 
ATOM     29  C   UNL A   1      40.715  26.841  28.778  1.00  0.00     0.049 A 
ATOM     30  N   UNL A   1      43.508  27.470  27.795  1.00  0.00    -0.248 NA
ATOM     31  C   UNL A   1      43.651  25.277  27.009  1.00  0.00     0.031 C 
ATOM     32  C   UNL A   1      39.353  26.583  29.243  1.00  0.00     0.029 A 
ATOM     33  N   UNL A   1      40.926  28.164  29.068  1.00  0.00    -0.354 N 
ATOM     34  C   UNL A   1      44.736  27.286  27.166  1.00  0.00     0.074 A 
ATOM     35  C   UNL A   1      44.785  25.904  26.737  1.00  0.00     0.031 C 
ATOM     36  C   UNL A   1      38.854  27.713  29.773  1.00  0.00     0.029 A 
ATOM     37  C   UNL A   1      39.872  28.761  29.717  1.00  0.00     0.049 A 
ATOM     38  H   UNL A   1      41.756  28.641  28.835  1.00  0.00     0.167 HD
ATOM     39  C   UNL A   1      45.725  28.190  26.957  1.00  0.00     0.034 A 
ATOM     40  C   UNL A   1      39.757  30.003  30.228  1.00  0.00     0.034 A 
ATOM     41  C   UNL A   1      45.666  29.557  27.413  1.00  0.00     0.049 A 
ATOM     42  C   UNL A   1      40.910  30.964  30.071  1.00  0.00     0.074 A 
ATOM     43  C   UNL A   1      46.611  30.558  27.271  1.00  0.00     0.029 A 
ATOM     44  N   UNL A   1      44.602  30.115  28.113  1.00  0.00    -0.354 N 
ATOM     45  N   UNL A   1      42.069  30.778  29.480  1.00  0.00    -0.248 NA
ATOM     46  C   UNL A   1      40.738  32.306  30.644  1.00  0.00     0.031 C 
ATOM     47  C   UNL A   1      46.148  31.697  27.940  1.00  0.00     0.029 A 
ATOM     48  C   UNL A   1      44.880  31.435  28.434  1.00  0.00     0.049 A 
ATOM     49  H   UNL A   1      43.771  29.641  28.345  1.00  0.00     0.167 HD
ATOM     50  C   UNL A   1      42.748  31.990  29.582  1.00  0.00     0.074 A 
ATOM     51  C   UNL A   1      41.862  32.901  30.278  1.00  0.00     0.031 C 
ATOM     52  C   UNL A   1      43.987  32.324  29.139  1.00  0.00     0.034 A 
BRANCH  39  53
ATOM     53  C   UNL A   1      46.969  27.702  26.254  1.00  0.00     0.023 A 
ATOM     54  C   UNL A   1      47.202  27.967  24.893  1.00  0.00     0.031 A 
ATOM     55  C   UNL A   1      47.918  26.927  26.945  1.00  0.00     0.131 A 
ATOM     56  C   UNL A   1      48.315  27.403  24.250  1.00  0.00     0.055 A 
ATOM     57  C   UNL A   1      49.063  26.434  26.317  1.00  0.00     0.041 A 
ATOM     58  F   UNL A   1      47.739  26.621  28.239  1.00  0.00    -0.206 F 
ATOM     59  C   UNL A   1      49.260  26.658  24.958  1.00  0.00     0.022 A 
BRANCH  56  60
ATOM     60  S   UNL A   1      48.436  27.539  22.444  1.00  0.00     0.124 S 
ATOM     61  O   UNL A   1      48.537  26.136  22.049  1.00  0.00    -0.237 OA
ATOM     62  O   UNL A   1      47.193  28.214  22.094  1.00  0.00    -0.237 OA
ATOM     63  O   UNL A   1      49.652  28.324  22.240  1.00  0.00    -0.744 OA
ENDBRANCH  56  60
ENDBRANCH  39  53
BRANCH  40  64
ATOM     64  C   UNL A   1      38.528  30.404  30.971  1.00  0.00     0.023 A 
ATOM     65  C   UNL A   1      37.501  31.126  30.346  1.00  0.00     0.031 A 
ATOM     66  C   UNL A   1      38.393  30.122  32.343  1.00  0.00     0.131 A 
ATOM     67  C   UNL A   1      36.408  31.584  31.099  1.00  0.00     0.055 A 
ATOM     68  C   UNL A   1      37.279  30.532  33.076  1.00  0.00     0.041 A 
ATOM     69  F   UNL A   1      39.347  29.435  32.993  1.00  0.00    -0.206 F 
ATOM     70  C   UNL A   1      36.284  31.281  32.457  1.00  0.00     0.022 A 
BRANCH  67  71
ATOM     71  S   UNL A   1      35.191  32.664  30.297  1.00  0.00     0.124 S 
ATOM     72  O   UNL A   1      36.003  33.827  29.957  1.00  0.00    -0.237 OA
ATOM     73  O   UNL A   1      34.749  31.840  29.177  1.00  0.00    -0.237 OA
ATOM     74  O   UNL A   1      34.191  32.883  31.340  1.00  0.00    -0.744 OA
ENDBRANCH  67  71
ENDBRANCH  40  64
BRANCH  52  75
ATOM     75  C   UNL A   1      44.428  33.751  29.354  1.00  0.00     0.023 A 
ATOM     76  C   UNL A   1      44.044  34.786  28.483  1.00  0.00     0.031 A 
ATOM     77  C   UNL A   1      45.261  34.077  30.440  1.00  0.00     0.131 A 
ATOM     78  C   UNL A   1      44.540  36.084  28.678  1.00  0.00     0.055 A 
ATOM     79  C   UNL A   1      45.702  35.381  30.665  1.00  0.00     0.041 A 
ATOM     80  F   UNL A   1      45.660  33.128  31.303  1.00  0.00    -0.206 F 
ATOM     81  C   UNL A   1      45.352  36.391  29.772  1.00  0.00     0.022 A 
BRANCH  78  82
ATOM     82  S   UNL A   1      44.186  37.348  27.427  1.00  0.00     0.124 S 
ATOM     83  O   UNL A   1      43.288  36.638  26.523  1.00  0.00    -0.237 OA
ATOM     84  O   UNL A   1      43.580  38.413  28.221  1.00  0.00    -0.237 OA
ATOM     85  O   UNL A   1      45.503  37.661  26.874  1.00  0.00    -0.744 OA
ENDBRANCH  78  82
ENDBRANCH  52  75
ENDBRANCH  26  27
ENDBRANCH  19  21
ENDBRANCH  18  19
ENDBRANCH  17  18
ENDBRANCH  16  17
ENDBRANCH   1  16
TORSDOF 21
ENDMDL
MODEL 2
REMARK VINA RESULT:      -9.3      5.160      7.996
REMARK SMILES CC[NH+](CC)C[C@H](F)C(=O)OCCOCCOC(=O)c1ccc(-c2c3nc(c(-c4cc(S(=O)(=O)[O-])ccc4F)c4ccc([nH]4)c(-c4cc(S(=O)(=O)[O-])ccc4F)c4nc(c(-c5cc(S(=O)(=O)[O-])ccc5F)c5ccc2[nH]5)C=C4)C=C3)cc1
REMARK SMILES IDX 14 1 13 2 12 3 11 4 9 5 10 6 7 7 8 8 6 9 3 10 2 12 1 13 4 14
REMARK SMILES IDX 5 15 15 16 16 17 17 18 18 19 19 20 20 21 21 22 82 23 22 24
REMARK SMILES IDX 81 25 23 26 24 27 25 28 75 29 26 30 80 31 74 32 76 33 27 34
REMARK SMILES IDX 79 35 73 36 72 37 28 39 60 40 40 41 59 42 41 43 44 44 58 45
REMARK SMILES IDX 77 46 42 47 43 48 57 50 78 51 45 52 29 53 30 54 38 55 31 56
REMARK SMILES IDX 37 57 39 58 36 59 32 60 33 61 34 62 35 63 61 64 62 65 70 66
REMARK SMILES IDX 63 67 69 68 71 69 68 70 64 71 65 72 66 73 67 74 46 75 47 76
REMARK SMILES IDX 55 77 48 78 54 79 56 80 53 81 49 82 50 83 51 84 52 85
REMARK H PARENT 3 11 76 38 44 49
REMARK Flexibility Score: inf
ROOT
ATOM      1  O   UNL A   1      31.995  28.431  24.094  1.00  0.00    -0.374 OA
ENDROOT
BRANCH   1   2
ATOM      2  C   UNL A   1      32.573  28.084  22.845  1.00  0.00     0.202 C 
BRANCH   2   3
ATOM      3  C   UNL A   1      33.411  26.802  22.722  1.00  0.00     0.261 C 
BRANCH   3   4
ATOM      4  O   UNL A   1      32.687  25.595  22.459  1.00  0.00    -0.461 OA
BRANCH   4   5
ATOM      5  C   UNL A   1      33.246  24.491  23.032  1.00  0.00     0.346 C 
ATOM      6  O   UNL A   1      34.315  24.506  23.631  1.00  0.00    -0.248 OA
BRANCH   5   7
ATOM      7  C   UNL A   1      32.387  23.256  22.896  1.00  0.00     0.330 C 
ATOM      8  F   UNL A   1      32.879  22.380  21.958  1.00  0.00    -0.228 F 
BRANCH   7   9
ATOM      9  C   UNL A   1      32.135  22.460  24.192  1.00  0.00     0.312 C 
BRANCH   9  10
ATOM     10  N   UNL A   1      33.186  21.868  25.025  1.00  0.00    -0.332 N 
ATOM     11  H   UNL A   1      33.958  22.466  24.731  1.00  0.00     0.348 HD
BRANCH  10  12
ATOM     12  C   UNL A   1      33.151  22.131  26.463  1.00  0.00     0.258 C 
ATOM     13  C   UNL A   1      32.394  23.403  26.846  1.00  0.00     0.071 C 
ENDBRANCH  10  12
BRANCH  10  14
ATOM     14  C   UNL A   1      33.647  20.529  24.654  1.00  0.00     0.258 C 
ATOM     15  C   UNL A   1      32.917  19.328  25.239  1.00  0.00     0.071 C 
ENDBRANCH  10  14
ENDBRANCH   9  10
ENDBRANCH   7   9
ENDBRANCH   5   7
ENDBRANCH   4   5
ENDBRANCH   3   4
ENDBRANCH   2   3
ENDBRANCH   1   2
BRANCH   1  16
ATOM     16  C   UNL A   1      32.705  29.280  24.991  1.00  0.00     0.202 C 
BRANCH  16  17
ATOM     17  C   UNL A   1      31.954  30.352  25.786  1.00  0.00     0.261 C 
BRANCH  17  18
ATOM     18  O   UNL A   1      32.420  30.497  27.136  1.00  0.00    -0.460 OA
BRANCH  18  19
ATOM     19  C   UNL A   1      33.162  31.612  27.348  1.00  0.00     0.338 C 
ATOM     20  O   UNL A   1      32.761  32.764  27.382  1.00  0.00    -0.246 OA
BRANCH  19  21
ATOM     21  C   UNL A   1      34.538  31.253  27.726  1.00  0.00     0.060 A 
ATOM     22  C   UNL A   1      34.813  29.901  27.968  1.00  0.00     0.016 A 
ATOM     23  C   UNL A   1      35.492  32.236  27.991  1.00  0.00     0.016 A 
ATOM     24  C   UNL A   1      36.026  29.531  28.542  1.00  0.00     0.010 A 
ATOM     25  C   UNL A   1      36.704  31.864  28.580  1.00  0.00     0.010 A 
ATOM     26  C   UNL A   1      36.954  30.517  28.899  1.00  0.00    -0.014 A 
BRANCH  26  27
ATOM     27  C   UNL A   1      38.086  30.153  29.783  1.00  0.00     0.031 A 
ATOM     28  C   UNL A   1      39.107  29.168  29.278  1.00  0.00     0.074 A 
ATOM     29  C   UNL A   1      38.230  30.729  30.989  1.00  0.00     0.049 A 
ATOM     30  N   UNL A   1      40.162  28.682  29.876  1.00  0.00    -0.248 NA
ATOM     31  C   UNL A   1      38.905  28.666  27.910  1.00  0.00     0.031 C 
ATOM     32  C   UNL A   1      37.333  31.737  31.552  1.00  0.00     0.029 A 
ATOM     33  N   UNL A   1      39.184  30.547  31.957  1.00  0.00    -0.354 N 
ATOM     34  C   UNL A   1      40.754  27.820  28.958  1.00  0.00     0.074 A 
ATOM     35  C   UNL A   1      39.914  27.819  27.779  1.00  0.00     0.031 C 
ATOM     36  C   UNL A   1      37.775  32.077  32.776  1.00  0.00     0.029 A 
ATOM     37  C   UNL A   1      38.961  31.286  33.095  1.00  0.00     0.049 A 
ATOM     38  H   UNL A   1      39.954  29.943  31.848  1.00  0.00     0.167 HD
ATOM     39  C   UNL A   1      41.899  27.104  29.084  1.00  0.00     0.034 A 
ATOM     40  C   UNL A   1      39.628  31.298  34.267  1.00  0.00     0.034 A 
ATOM     41  C   UNL A   1      42.711  27.102  30.276  1.00  0.00     0.049 A 
ATOM     42  C   UNL A   1      40.844  30.418  34.421  1.00  0.00     0.074 A 
ATOM     43  C   UNL A   1      43.882  26.407  30.524  1.00  0.00     0.029 A 
ATOM     44  N   UNL A   1      42.429  27.824  31.430  1.00  0.00    -0.354 N 
ATOM     45  N   UNL A   1      41.392  29.601  33.549  1.00  0.00    -0.248 NA
ATOM     46  C   UNL A   1      41.537  30.466  35.715  1.00  0.00     0.031 C 
ATOM     47  C   UNL A   1      44.270  26.658  31.845  1.00  0.00     0.029 A 
ATOM     48  C   UNL A   1      43.386  27.568  32.400  1.00  0.00     0.049 A 
ATOM     49  H   UNL A   1      41.661  28.430  31.542  1.00  0.00     0.167 HD
ATOM     50  C   UNL A   1      42.513  29.066  34.180  1.00  0.00     0.074 A 
ATOM     51  C   UNL A   1      42.568  29.664  35.499  1.00  0.00     0.031 C 
ATOM     52  C   UNL A   1      43.417  28.166  33.714  1.00  0.00     0.034 A 
BRANCH  39  53
ATOM     53  C   UNL A   1      42.297  26.228  27.921  1.00  0.00     0.023 A 
ATOM     54  C   UNL A   1      41.799  24.921  27.774  1.00  0.00     0.031 A 
ATOM     55  C   UNL A   1      43.217  26.692  26.963  1.00  0.00     0.131 A 
ATOM     56  C   UNL A   1      42.277  24.101  26.740  1.00  0.00     0.055 A 
ATOM     57  C   UNL A   1      43.630  25.897  25.893  1.00  0.00     0.041 A 
ATOM     58  F   UNL A   1      43.745  27.921  27.064  1.00  0.00    -0.206 F 
ATOM     59  C   UNL A   1      43.171  24.588  25.784  1.00  0.00     0.022 A 
BRANCH  56  60
ATOM     60  S   UNL A   1      41.822  22.344  26.743  1.00  0.00     0.124 S 
ATOM     61  O   UNL A   1      42.158  21.950  25.377  1.00  0.00    -0.237 OA
ATOM     62  O   UNL A   1      42.674  21.800  27.793  1.00  0.00    -0.237 OA
ATOM     63  O   UNL A   1      40.392  22.360  27.045  1.00  0.00    -0.744 OA
ENDBRANCH  56  60
ENDBRANCH  39  53
BRANCH  40  64
ATOM     64  C   UNL A   1      39.145  32.135  35.403  1.00  0.00     0.023 A 
ATOM     65  C   UNL A   1      39.608  33.446  35.590  1.00  0.00     0.031 A 
ATOM     66  C   UNL A   1      38.254  31.608  36.356  1.00  0.00     0.131 A 
ATOM     67  C   UNL A   1      39.220  34.169  36.730  1.00  0.00     0.055 A 
ATOM     68  C   UNL A   1      37.829  32.350  37.458  1.00  0.00     0.041 A 
ATOM     69  F   UNL A   1      37.781  30.358  36.226  1.00  0.00    -0.206 F 
ATOM     70  C   UNL A   1      38.323  33.634  37.658  1.00  0.00     0.022 A 
BRANCH  67  71
ATOM     71  S   UNL A   1      39.977  35.789  37.030  1.00  0.00     0.124 S 
ATOM     72  O   UNL A   1      39.658  36.501  35.797  1.00  0.00    -0.237 OA
ATOM     73  O   UNL A   1      39.273  36.233  38.229  1.00  0.00    -0.237 OA
ATOM     74  O   UNL A   1      41.391  35.473  37.221  1.00  0.00    -0.744 OA
ENDBRANCH  67  71
ENDBRANCH  40  64
BRANCH  52  75
ATOM     75  C   UNL A   1      44.568  27.819  34.627  1.00  0.00     0.023 A 
ATOM     76  C   UNL A   1      44.472  26.793  35.584  1.00  0.00     0.031 A 
ATOM     77  C   UNL A   1      45.773  28.539  34.549  1.00  0.00     0.131 A 
ATOM     78  C   UNL A   1      45.539  26.556  36.464  1.00  0.00     0.055 A 
ATOM     79  C   UNL A   1      46.854  28.258  35.385  1.00  0.00     0.041 A 
ATOM     80  F   UNL A   1      45.921  29.530  33.654  1.00  0.00    -0.206 F 
ATOM     81  C   UNL A   1      46.735  27.270  36.358  1.00  0.00     0.022 A 
BRANCH  78  82
ATOM     82  S   UNL A   1      45.309  25.364  37.810  1.00  0.00     0.124 S 
ATOM     83  O   UNL A   1      45.728  26.136  38.976  1.00  0.00    -0.237 OA
ATOM     84  O   UNL A   1      43.882  25.066  37.724  1.00  0.00    -0.237 OA
ATOM     85  O   UNL A   1      46.194  24.260  37.446  1.00  0.00    -0.744 OA
ENDBRANCH  78  82
ENDBRANCH  52  75
ENDBRANCH  26  27
ENDBRANCH  19  21
ENDBRANCH  18  19
ENDBRANCH  17  18
ENDBRANCH  16  17
ENDBRANCH   1  16
TORSDOF 21
ENDMDL
MODEL 3
REMARK VINA RESULT:      -9.3      5.536      8.228
REMARK SMILES CC[NH+](CC)C[C@H](F)C(=O)OCCOCCOC(=O)c1ccc(-c2c3nc(c(-c4cc(S(=O)(=O)[O-])ccc4F)c4ccc([nH]4)c(-c4cc(S(=O)(=O)[O-])ccc4F)c4nc(c(-c5cc(S(=O)(=O)[O-])ccc5F)c5ccc2[nH]5)C=C4)C=C3)cc1
REMARK SMILES IDX 14 1 13 2 12 3 11 4 9 5 10 6 7 7 8 8 6 9 3 10 2 12 1 13 4 14
REMARK SMILES IDX 5 15 15 16 16 17 17 18 18 19 19 20 20 21 21 22 82 23 22 24
REMARK SMILES IDX 81 25 23 26 24 27 25 28 75 29 26 30 80 31 74 32 76 33 27 34
REMARK SMILES IDX 79 35 73 36 72 37 28 39 60 40 40 41 59 42 41 43 44 44 58 45
REMARK SMILES IDX 77 46 42 47 43 48 57 50 78 51 45 52 29 53 30 54 38 55 31 56
REMARK SMILES IDX 37 57 39 58 36 59 32 60 33 61 34 62 35 63 61 64 62 65 70 66
REMARK SMILES IDX 63 67 69 68 71 69 68 70 64 71 65 72 66 73 67 74 46 75 47 76
REMARK SMILES IDX 55 77 48 78 54 79 56 80 53 81 49 82 50 83 51 84 52 85
REMARK H PARENT 3 11 76 38 44 49
REMARK Flexibility Score: inf
ROOT
ATOM      1  O   UNL A   1      31.275  28.185  26.158  1.00  0.00    -0.374 OA
ENDROOT
BRANCH   1   2
ATOM      2  C   UNL A   1      31.015  26.810  25.925  1.00  0.00     0.202 C 
BRANCH   2   3
ATOM      3  C   UNL A   1      30.471  26.355  24.562  1.00  0.00     0.261 C 
BRANCH   3   4
ATOM      4  O   UNL A   1      29.706  27.321  23.831  1.00  0.00    -0.461 OA
BRANCH   4   5
ATOM      5  C   UNL A   1      30.380  27.862  22.777  1.00  0.00     0.346 C 
ATOM      6  O   UNL A   1      30.739  27.216  21.799  1.00  0.00    -0.248 OA
BRANCH   5   7
ATOM      7  C   UNL A   1      30.594  29.351  22.913  1.00  0.00     0.330 C 
ATOM      8  F   UNL A   1      31.001  29.928  21.735  1.00  0.00    -0.228 F 
BRANCH   7   9
ATOM      9  C   UNL A   1      29.393  30.163  23.441  1.00  0.00     0.312 C 
BRANCH   9  10
ATOM     10  N   UNL A   1      28.465  30.921  22.598  1.00  0.00    -0.332 N 
ATOM     11  H   UNL A   1      27.646  30.324  22.711  1.00  0.00     0.348 HD
BRANCH  10  12
ATOM     12  C   UNL A   1      27.961  32.196  23.107  1.00  0.00     0.258 C 
ATOM     13  C   UNL A   1      29.030  33.284  23.229  1.00  0.00     0.071 C 
ENDBRANCH  10  12
BRANCH  10  14
ATOM     14  C   UNL A   1      28.703  30.885  21.154  1.00  0.00     0.258 C 
ATOM     15  C   UNL A   1      27.834  31.754  20.258  1.00  0.00     0.071 C 
ENDBRANCH  10  14
ENDBRANCH   9  10
ENDBRANCH   7   9
ENDBRANCH   5   7
ENDBRANCH   4   5
ENDBRANCH   3   4
ENDBRANCH   2   3
ENDBRANCH   1   2
BRANCH   1  16
ATOM     16  C   UNL A   1      32.516  28.751  25.744  1.00  0.00     0.202 C 
BRANCH  16  17
ATOM     17  C   UNL A   1      32.735  30.264  25.837  1.00  0.00     0.261 C 
BRANCH  17  18
ATOM     18  O   UNL A   1      32.554  30.788  27.162  1.00  0.00    -0.460 OA
BRANCH  18  19
ATOM     19  C   UNL A   1      33.345  31.854  27.447  1.00  0.00     0.338 C 
ATOM     20  O   UNL A   1      32.997  33.019  27.540  1.00  0.00    -0.246 OA
BRANCH  19  21
ATOM     21  C   UNL A   1      34.696  31.409  27.822  1.00  0.00     0.060 A 
ATOM     22  C   UNL A   1      34.858  30.069  28.198  1.00  0.00     0.016 A 
ATOM     23  C   UNL A   1      35.743  32.321  27.957  1.00  0.00     0.016 A 
ATOM     24  C   UNL A   1      36.053  29.649  28.774  1.00  0.00     0.010 A 
ATOM     25  C   UNL A   1      36.937  31.901  28.549  1.00  0.00     0.010 A 
ATOM     26  C   UNL A   1      37.078  30.576  29.001  1.00  0.00    -0.014 A 
BRANCH  26  27
ATOM     27  C   UNL A   1      38.205  30.200  29.887  1.00  0.00     0.031 A 
ATOM     28  C   UNL A   1      39.217  29.207  29.383  1.00  0.00     0.074 A 
ATOM     29  C   UNL A   1      38.350  30.773  31.094  1.00  0.00     0.049 A 
ATOM     30  N   UNL A   1      40.267  28.711  29.982  1.00  0.00    -0.248 NA
ATOM     31  C   UNL A   1      39.014  28.708  28.013  1.00  0.00     0.031 C 
ATOM     32  C   UNL A   1      37.461  31.789  31.656  1.00  0.00     0.029 A 
ATOM     33  N   UNL A   1      39.300  30.582  32.064  1.00  0.00    -0.354 N 
ATOM     34  C   UNL A   1      40.853  27.845  29.065  1.00  0.00     0.074 A 
ATOM     35  C   UNL A   1      40.015  27.852  27.885  1.00  0.00     0.031 C 
ATOM     36  C   UNL A   1      37.903  32.123  32.881  1.00  0.00     0.029 A 
ATOM     37  C   UNL A   1      39.082  31.321  33.202  1.00  0.00     0.049 A 
ATOM     38  H   UNL A   1      40.065  29.971  31.956  1.00  0.00     0.167 HD
ATOM     39  C   UNL A   1      41.992  27.118  29.193  1.00  0.00     0.034 A 
ATOM     40  C   UNL A   1      39.745  31.326  34.375  1.00  0.00     0.034 A 
ATOM     41  C   UNL A   1      42.800  27.107  30.387  1.00  0.00     0.049 A 
ATOM     42  C   UNL A   1      40.954  30.435  34.532  1.00  0.00     0.074 A 
ATOM     43  C   UNL A   1      43.965  26.402  30.636  1.00  0.00     0.029 A 
ATOM     44  N   UNL A   1      42.522  27.830  31.541  1.00  0.00    -0.354 N 
ATOM     45  N   UNL A   1      41.496  29.614  33.660  1.00  0.00    -0.248 NA
ATOM     46  C   UNL A   1      41.644  30.475  35.827  1.00  0.00     0.031 C 
ATOM     47  C   UNL A   1      44.352  26.647  31.959  1.00  0.00     0.029 A 
ATOM     48  C   UNL A   1      43.474  27.565  32.513  1.00  0.00     0.049 A 
ATOM     49  H   UNL A   1      41.759  28.443  31.652  1.00  0.00     0.167 HD
ATOM     50  C   UNL A   1      42.611  29.069  34.293  1.00  0.00     0.074 A 
ATOM     51  C   UNL A   1      42.668  29.664  35.613  1.00  0.00     0.031 C 
ATOM     52  C   UNL A   1      43.508  28.161  33.828  1.00  0.00     0.034 A 
BRANCH  39  53
ATOM     53  C   UNL A   1      42.384  26.240  28.029  1.00  0.00     0.023 A 
ATOM     54  C   UNL A   1      41.884  24.934  27.886  1.00  0.00     0.031 A 
ATOM     55  C   UNL A   1      43.302  26.701  27.069  1.00  0.00     0.131 A 
ATOM     56  C   UNL A   1      42.356  24.111  26.852  1.00  0.00     0.055 A 
ATOM     57  C   UNL A   1      43.710  25.904  25.998  1.00  0.00     0.041 A 
ATOM     58  F   UNL A   1      43.832  27.930  27.166  1.00  0.00    -0.206 F 
ATOM     59  C   UNL A   1      43.248  24.595  25.892  1.00  0.00     0.022 A 
BRANCH  56  60
ATOM     60  S   UNL A   1      41.899  22.355  26.859  1.00  0.00     0.124 S 
ATOM     61  O   UNL A   1      40.465  22.425  27.130  1.00  0.00    -0.237 OA
ATOM     62  O   UNL A   1      42.275  21.927  25.517  1.00  0.00    -0.237 OA
ATOM     63  O   UNL A   1      42.704  21.795  27.942  1.00  0.00    -0.744 OA
ENDBRANCH  56  60
ENDBRANCH  39  53
BRANCH  40  64
ATOM     64  C   UNL A   1      39.268  32.166  35.511  1.00  0.00     0.023 A 
ATOM     65  C   UNL A   1      39.704  33.490  35.673  1.00  0.00     0.031 A 
ATOM     66  C   UNL A   1      38.410  31.631  36.490  1.00  0.00     0.131 A 
ATOM     67  C   UNL A   1      39.323  34.218  36.811  1.00  0.00     0.055 A 
ATOM     68  C   UNL A   1      37.990  32.377  37.591  1.00  0.00     0.041 A 
ATOM     69  F   UNL A   1      37.963  30.369  36.385  1.00  0.00    -0.206 F 
ATOM     70  C   UNL A   1      38.459  33.674  37.765  1.00  0.00     0.022 A 
BRANCH  67  71
ATOM     71  S   UNL A   1      40.049  35.859  37.076  1.00  0.00     0.124 S 
ATOM     72  O   UNL A   1      39.684  36.548  35.844  1.00  0.00    -0.237 OA
ATOM     73  O   UNL A   1      39.364  36.300  38.287  1.00  0.00    -0.237 OA
ATOM     74  O   UNL A   1      41.475  35.578  37.236  1.00  0.00    -0.744 OA
ENDBRANCH  67  71
ENDBRANCH  40  64
BRANCH  52  75
ATOM     75  C   UNL A   1      44.653  27.803  34.743  1.00  0.00     0.023 A 
ATOM     76  C   UNL A   1      44.612  26.668  35.573  1.00  0.00     0.031 A 
ATOM     77  C   UNL A   1      45.796  28.620  34.797  1.00  0.00     0.131 A 
ATOM     78  C   UNL A   1      45.666  26.416  36.464  1.00  0.00     0.055 A 
ATOM     79  C   UNL A   1      46.869  28.330  35.641  1.00  0.00     0.041 A 
ATOM     80  F   UNL A   1      45.889  29.717  34.028  1.00  0.00    -0.206 F 
ATOM     81  C   UNL A   1      46.801  27.230  36.491  1.00  0.00     0.022 A 
BRANCH  78  82
ATOM     82  S   UNL A   1      45.492  25.061  37.656  1.00  0.00     0.124 S 
ATOM     83  O   UNL A   1      45.489  23.889  36.786  1.00  0.00    -0.237 OA
ATOM     84  O   UNL A   1      46.676  25.228  38.495  1.00  0.00    -0.237 OA
ATOM     85  O   UNL A   1      44.220  25.346  38.317  1.00  0.00    -0.744 OA
ENDBRANCH  78  82
ENDBRANCH  52  75
ENDBRANCH  26  27
ENDBRANCH  19  21
ENDBRANCH  18  19
ENDBRANCH  17  18
ENDBRANCH  16  17
ENDBRANCH   1  16
TORSDOF 21
ENDMDL
