MODEL 1
REMARK VINA RESULT:     -10.1      0.000      0.000
REMARK SMILES Nc1oc2ccc(F)cc2c(=O)c1[C@@H]1[NH2+][C@H](C(=O)OCCOCCOC(=O)c2ccc(-c3c4nc(c(-c5cc(S(=O)(=O)[O-])ccc5F)c5ccc([nH]5)c(-c5cc(S(=O)(=O)[O-])ccc5F)c5nc(c(-c6cc(S(=O)(=O)[O-])ccc6F)c6ccc3[nH]6)C=C5)C=C4)cc2)CS1
REMARK SMILES IDX 23 1 22 2 21 3 20 4 19 5 17 6 18 7 16 8 14 9 15 10 92 11
REMARK SMILES IDX 91 14 13 15 2 16 3 17 4 18 11 19 5 20 10 21 12 22 6 23 9 24
REMARK SMILES IDX 7 25 8 26 1 27 24 30 25 31 26 32 27 33 28 34 29 35 90 36
REMARK SMILES IDX 30 37 89 38 31 39 32 40 33 41 83 42 34 43 88 44 82 45 84 46
REMARK SMILES IDX 35 47 87 48 81 49 80 50 36 52 68 53 48 54 67 55 49 56 52 57
REMARK SMILES IDX 66 58 85 59 50 60 51 61 65 63 86 64 53 65 37 66 38 67 46 68
REMARK SMILES IDX 39 69 45 70 47 71 44 72 40 73 41 74 42 75 43 76 69 77 70 78
REMARK SMILES IDX 78 79 71 80 77 81 79 82 76 83 72 84 73 85 74 86 75 87 54 88
REMARK SMILES IDX 55 89 63 90 56 91 62 92 64 93 61 94 57 95 58 96 59 97 60 98
REMARK H PARENT 15 12 15 13 1 28 1 29 84 51 52 62
REMARK Flexibility Score: inf
ROOT
ATOM      1  C   UNL A   1      33.619  34.935  28.263  1.00  0.00     0.202 C 
ENDROOT
BRANCH   1   2
ATOM      2  O   UNL A   1      32.580  35.603  28.980  1.00  0.00    -0.374 OA
BRANCH   2   3
ATOM      3  C   UNL A   1      32.972  36.628  29.895  1.00  0.00     0.202 C 
BRANCH   3   4
ATOM      4  C   UNL A   1      32.790  36.314  31.379  1.00  0.00     0.261 C 
BRANCH   4   5
ATOM      5  O   UNL A   1      33.992  36.633  32.088  1.00  0.00    -0.459 OA
BRANCH   5   6
ATOM      6  C   UNL A   1      34.683  35.598  32.619  1.00  0.00     0.365 C 
ATOM      7  O   UNL A   1      35.385  35.667  33.625  1.00  0.00    -0.245 OA
BRANCH   6   8
ATOM      8  C   UNL A   1      34.457  34.267  31.889  1.00  0.00     0.304 C 
ATOM      9  C   UNL A   1      36.434  33.026  31.243  1.00  0.00     0.283 C 
ATOM     10  N   UNL A   1      35.402  33.961  30.781  1.00  0.00    -0.319 N 
ATOM     11  S   UNL A   1      35.680  31.962  32.501  1.00  0.00    -0.087 SA
ATOM     12  H   UNL A   1      34.888  33.543  30.006  1.00  0.00     0.348 HD
ATOM     13  H   UNL A   1      35.847  34.826  30.474  1.00  0.00     0.348 HD
ATOM     14  C   UNL A   1      34.357  33.128  32.895  1.00  0.00     0.153 C 
BRANCH   9  15
ATOM     15  C   UNL A   1      37.730  33.672  31.659  1.00  0.00     0.128 A 
ATOM     16  C   UNL A   1      38.182  33.940  32.905  1.00  0.00     0.205 A 
ATOM     17  O   UNL A   1      39.367  34.603  33.154  1.00  0.00    -0.440 OA
ATOM     18  C   UNL A   1      40.338  34.547  32.200  1.00  0.00     0.140 A 
ATOM     19  C   UNL A   1      38.653  33.994  30.521  1.00  0.00     0.205 A 
ATOM     20  C   UNL A   1      41.648  34.753  32.615  1.00  0.00     0.051 A 
ATOM     21  C   UNL A   1      40.052  34.279  30.871  1.00  0.00     0.068 A 
ATOM     22  O   UNL A   1      38.308  33.935  29.347  1.00  0.00    -0.288 OA
ATOM     23  C   UNL A   1      42.683  34.709  31.685  1.00  0.00     0.043 A 
ATOM     24  C   UNL A   1      41.080  34.237  29.927  1.00  0.00     0.055 A 
ATOM     25  C   UNL A   1      42.389  34.453  30.350  1.00  0.00     0.124 A 
ATOM     26  F   UNL A   1      43.380  34.427  29.451  1.00  0.00    -0.207 F 
BRANCH  16  27
ATOM     27  N   UNL A   1      37.559  33.600  34.072  1.00  0.00    -0.369 N 
ATOM     28  H   UNL A   1      37.866  32.818  34.585  1.00  0.00     0.159 HD
ATOM     29  H   UNL A   1      36.801  34.137  34.400  1.00  0.00     0.159 HD
ENDBRANCH  16  27
ENDBRANCH   9  15
ENDBRANCH   6   8
ENDBRANCH   5   6
ENDBRANCH   4   5
ENDBRANCH   3   4
ENDBRANCH   2   3
ENDBRANCH   1   2
BRANCH   1  30
ATOM     30  C   UNL A   1      33.467  33.428  28.014  1.00  0.00     0.261 C 
BRANCH  30  31
ATOM     31  O   UNL A   1      34.698  32.692  28.070  1.00  0.00    -0.460 OA
BRANCH  31  32
ATOM     32  C   UNL A   1      34.607  31.396  27.681  1.00  0.00     0.338 C 
ATOM     33  O   UNL A   1      33.770  30.908  26.932  1.00  0.00    -0.246 OA
BRANCH  32  34
ATOM     34  C   UNL A   1      35.790  30.656  28.159  1.00  0.00     0.060 A 
ATOM     35  C   UNL A   1      37.017  30.787  27.518  1.00  0.00     0.016 A 
ATOM     36  C   UNL A   1      35.675  29.858  29.305  1.00  0.00     0.016 A 
ATOM     37  C   UNL A   1      38.126  30.116  28.039  1.00  0.00     0.010 A 
ATOM     38  C   UNL A   1      36.793  29.192  29.822  1.00  0.00     0.010 A 
ATOM     39  C   UNL A   1      38.038  29.309  29.195  1.00  0.00    -0.014 A 
BRANCH  39  40
ATOM     40  C   UNL A   1      39.283  28.709  29.765  1.00  0.00     0.031 A 
ATOM     41  C   UNL A   1      39.934  27.478  29.192  1.00  0.00     0.074 A 
ATOM     42  C   UNL A   1      39.901  29.348  30.781  1.00  0.00     0.049 A 
ATOM     43  N   UNL A   1      41.173  27.079  29.344  1.00  0.00    -0.248 NA
ATOM     44  C   UNL A   1      39.140  26.615  28.304  1.00  0.00     0.031 C 
ATOM     45  C   UNL A   1      39.376  30.532  31.459  1.00  0.00     0.029 A 
ATOM     46  N   UNL A   1      41.101  29.107  31.407  1.00  0.00    -0.354 N 
ATOM     47  C   UNL A   1      41.338  25.998  28.489  1.00  0.00     0.074 A 
ATOM     48  C   UNL A   1      40.050  25.741  27.886  1.00  0.00     0.031 C 
ATOM     49  C   UNL A   1      40.258  30.933  32.383  1.00  0.00     0.029 A 
ATOM     50  C   UNL A   1      41.384  30.002  32.412  1.00  0.00     0.049 A 
ATOM     51  H   UNL A   1      41.699  28.366  31.159  1.00  0.00     0.167 HD
ATOM     52  C   UNL A   1      42.469  25.310  28.211  1.00  0.00     0.034 A 
ATOM     53  C   UNL A   1      42.414  30.064  33.283  1.00  0.00     0.034 A 
ATOM     54  C   UNL A   1      43.702  25.446  28.944  1.00  0.00     0.049 A 
ATOM     55  C   UNL A   1      43.557  29.095  33.139  1.00  0.00     0.074 A 
ATOM     56  C   UNL A   1      44.882  24.746  28.759  1.00  0.00     0.029 A 
ATOM     57  N   UNL A   1      43.892  26.260  30.049  1.00  0.00    -0.354 N 
ATOM     58  N   UNL A   1      43.770  28.212  32.192  1.00  0.00    -0.248 NA
ATOM     59  C   UNL A   1      44.606  29.130  34.168  1.00  0.00     0.031 C 
ATOM     60  C   UNL A   1      45.728  25.034  29.829  1.00  0.00     0.029 A 
ATOM     61  C   UNL A   1      45.128  26.002  30.619  1.00  0.00     0.049 A 
ATOM     62  H   UNL A   1      43.244  26.924  30.380  1.00  0.00     0.167 HD
ATOM     63  C   UNL A   1      44.985  27.603  32.498  1.00  0.00     0.074 A 
ATOM     64  C   UNL A   1      45.470  28.233  33.707  1.00  0.00     0.031 C 
ATOM     65  C   UNL A   1      45.629  26.615  31.828  1.00  0.00     0.034 A 
BRANCH  52  66
ATOM     66  C   UNL A   1      42.459  24.326  27.071  1.00  0.00     0.023 A 
ATOM     67  C   UNL A   1      41.969  23.023  27.261  1.00  0.00     0.031 A 
ATOM     68  C   UNL A   1      43.121  24.626  25.866  1.00  0.00     0.131 A 
ATOM     69  C   UNL A   1      42.189  22.051  26.277  1.00  0.00     0.055 A 
ATOM     70  C   UNL A   1      43.318  23.658  24.880  1.00  0.00     0.041 A 
ATOM     71  F   UNL A   1      43.607  25.859  25.645  1.00  0.00    -0.206 F 
ATOM     72  C   UNL A   1      42.862  22.359  25.091  1.00  0.00     0.022 A 
BRANCH  69  73
ATOM     73  S   UNL A   1      41.665  20.333  26.530  1.00  0.00     0.124 S 
ATOM     74  O   UNL A   1      40.210  20.462  26.519  1.00  0.00    -0.237 OA
ATOM     75  O   UNL A   1      42.243  19.663  25.370  1.00  0.00    -0.237 OA
ATOM     76  O   UNL A   1      42.244  19.979  27.822  1.00  0.00    -0.744 OA
ENDBRANCH  69  73
ENDBRANCH  52  66
BRANCH  53  77
ATOM     77  C   UNL A   1      42.371  31.090  34.368  1.00  0.00     0.023 A 
ATOM     78  C   UNL A   1      41.288  31.113  35.267  1.00  0.00     0.031 A 
ATOM     79  C   UNL A   1      43.325  32.114  34.460  1.00  0.00     0.131 A 
ATOM     80  C   UNL A   1      41.131  32.186  36.149  1.00  0.00     0.055 A 
ATOM     81  C   UNL A   1      43.211  33.139  35.402  1.00  0.00     0.041 A 
ATOM     82  F   UNL A   1      44.375  32.139  33.625  1.00  0.00    -0.206 F 
ATOM     83  C   UNL A   1      42.097  33.191  36.236  1.00  0.00     0.022 A 
BRANCH  80  84
ATOM     84  S   UNL A   1      39.592  32.389  37.089  1.00  0.00     0.124 S 
ATOM     85  O   UNL A   1      38.880  31.155  36.779  1.00  0.00    -0.237 OA
ATOM     86  O   UNL A   1      40.092  32.505  38.457  1.00  0.00    -0.237 OA
ATOM     87  O   UNL A   1      39.010  33.609  36.539  1.00  0.00    -0.744 OA
ENDBRANCH  80  84
ENDBRANCH  53  77
BRANCH  65  88
ATOM     88  C   UNL A   1      46.944  26.096  32.364  1.00  0.00     0.023 A 
ATOM     89  C   UNL A   1      46.956  25.020  33.272  1.00  0.00     0.031 A 
ATOM     90  C   UNL A   1      48.151  26.778  32.131  1.00  0.00     0.131 A 
ATOM     91  C   UNL A   1      48.129  24.703  33.967  1.00  0.00     0.055 A 
ATOM     92  C   UNL A   1      49.336  26.415  32.777  1.00  0.00     0.041 A 
ATOM     93  F   UNL A   1      48.195  27.817  31.282  1.00  0.00    -0.206 F 
ATOM     94  C   UNL A   1      49.323  25.388  33.717  1.00  0.00     0.022 A 
BRANCH  91  95
ATOM     95  S   UNL A   1      48.121  23.476  35.306  1.00  0.00     0.124 S 
ATOM     96  O   UNL A   1      47.793  24.298  36.467  1.00  0.00    -0.237 OA
ATOM     97  O   UNL A   1      47.070  22.559  34.873  1.00  0.00    -0.237 OA
ATOM     98  O   UNL A   1      49.474  22.931  35.291  1.00  0.00    -0.744 OA
ENDBRANCH  91  95
ENDBRANCH  65  88
ENDBRANCH  39  40
ENDBRANCH  32  34
ENDBRANCH  31  32
ENDBRANCH  30  31
ENDBRANCH   1  30
TORSDOF 19
ENDMDL
MODEL 2
REMARK VINA RESULT:     -10.1      3.984     10.100
REMARK SMILES Nc1oc2ccc(F)cc2c(=O)c1[C@@H]1[NH2+][C@H](C(=O)OCCOCCOC(=O)c2ccc(-c3c4nc(c(-c5cc(S(=O)(=O)[O-])ccc5F)c5ccc([nH]5)c(-c5cc(S(=O)(=O)[O-])ccc5F)c5nc(c(-c6cc(S(=O)(=O)[O-])ccc6F)c6ccc3[nH]6)C=C5)C=C4)cc2)CS1
REMARK SMILES IDX 23 1 22 2 21 3 20 4 19 5 17 6 18 7 16 8 14 9 15 10 92 11
REMARK SMILES IDX 91 14 13 15 2 16 3 17 4 18 11 19 5 20 10 21 12 22 6 23 9 24
REMARK SMILES IDX 7 25 8 26 1 27 24 30 25 31 26 32 27 33 28 34 29 35 90 36
REMARK SMILES IDX 30 37 89 38 31 39 32 40 33 41 83 42 34 43 88 44 82 45 84 46
REMARK SMILES IDX 35 47 87 48 81 49 80 50 36 52 68 53 48 54 67 55 49 56 52 57
REMARK SMILES IDX 66 58 85 59 50 60 51 61 65 63 86 64 53 65 37 66 38 67 46 68
REMARK SMILES IDX 39 69 45 70 47 71 44 72 40 73 41 74 42 75 43 76 69 77 70 78
REMARK SMILES IDX 78 79 71 80 77 81 79 82 76 83 72 84 73 85 74 86 75 87 54 88
REMARK SMILES IDX 55 89 63 90 56 91 62 92 64 93 61 94 57 95 58 96 59 97 60 98
REMARK H PARENT 15 12 15 13 1 28 1 29 84 51 52 62
REMARK Flexibility Score: inf
ROOT
ATOM      1  C   UNL A   1      31.778  29.098  26.662  1.00  0.00     0.202 C 
ENDROOT
BRANCH   1   2
ATOM      2  O   UNL A   1      31.983  28.522  25.371  1.00  0.00    -0.374 OA
BRANCH   2   3
ATOM      3  C   UNL A   1      31.473  29.241  24.246  1.00  0.00     0.202 C 
BRANCH   3   4
ATOM      4  C   UNL A   1      31.606  28.553  22.889  1.00  0.00     0.261 C 
BRANCH   4   5
ATOM      5  O   UNL A   1      30.628  27.513  22.779  1.00  0.00    -0.459 OA
BRANCH   5   6
ATOM      6  C   UNL A   1      31.087  26.240  22.762  1.00  0.00     0.365 C 
ATOM      7  O   UNL A   1      32.137  25.881  22.233  1.00  0.00    -0.245 OA
BRANCH   6   8
ATOM      8  C   UNL A   1      30.207  25.257  23.545  1.00  0.00     0.304 C 
ATOM      9  C   UNL A   1      31.354  23.587  24.873  1.00  0.00     0.283 C 
ATOM     10  N   UNL A   1      30.686  23.848  23.592  1.00  0.00    -0.319 N 
ATOM     11  S   UNL A   1      30.550  24.621  26.125  1.00  0.00    -0.087 SA
ATOM     12  H   UNL A   1      29.891  23.219  23.490  1.00  0.00     0.348 HD
ATOM     13  H   UNL A   1      31.350  23.696  22.833  1.00  0.00     0.348 HD
ATOM     14  C   UNL A   1      29.904  25.812  24.930  1.00  0.00     0.153 C 
BRANCH   9  15
ATOM     15  C   UNL A   1      32.855  23.694  24.836  1.00  0.00     0.128 A 
ATOM     16  C   UNL A   1      33.640  24.733  25.201  1.00  0.00     0.205 A 
ATOM     17  O   UNL A   1      35.013  24.734  25.054  1.00  0.00    -0.440 OA
ATOM     18  C   UNL A   1      35.647  23.529  25.024  1.00  0.00     0.140 A 
ATOM     19  C   UNL A   1      33.553  22.445  24.390  1.00  0.00     0.205 A 
ATOM     20  C   UNL A   1      36.992  23.511  25.377  1.00  0.00     0.051 A 
ATOM     21  C   UNL A   1      34.993  22.359  24.675  1.00  0.00     0.068 A 
ATOM     22  O   UNL A   1      32.962  21.490  23.899  1.00  0.00    -0.288 OA
ATOM     23  C   UNL A   1      37.694  22.309  25.364  1.00  0.00     0.043 A 
ATOM     24  C   UNL A   1      35.687  21.147  24.653  1.00  0.00     0.055 A 
ATOM     25  C   UNL A   1      37.035  21.139  25.001  1.00  0.00     0.124 A 
ATOM     26  F   UNL A   1      37.712  19.985  24.970  1.00  0.00    -0.207 F 
BRANCH  16  27
ATOM     27  N   UNL A   1      33.209  25.904  25.760  1.00  0.00    -0.369 N 
ATOM     28  H   UNL A   1      33.844  26.480  26.245  1.00  0.00     0.159 HD
ATOM     29  H   UNL A   1      32.265  26.169  25.680  1.00  0.00     0.159 HD
ENDBRANCH  16  27
ENDBRANCH   9  15
ENDBRANCH   6   8
ENDBRANCH   5   6
ENDBRANCH   4   5
ENDBRANCH   3   4
ENDBRANCH   2   3
ENDBRANCH   1   2
BRANCH   1  30
ATOM     30  C   UNL A   1      32.204  30.557  26.875  1.00  0.00     0.261 C 
BRANCH  30  31
ATOM     31  O   UNL A   1      33.604  30.799  26.678  1.00  0.00    -0.460 OA
BRANCH  31  32
ATOM     32  C   UNL A   1      34.169  31.644  27.575  1.00  0.00     0.338 C 
ATOM     33  O   UNL A   1      33.655  32.632  28.084  1.00  0.00    -0.246 OA
BRANCH  32  34
ATOM     34  C   UNL A   1      35.473  31.103  28.005  1.00  0.00     0.060 A 
ATOM     35  C   UNL A   1      36.556  31.947  28.224  1.00  0.00     0.016 A 
ATOM     36  C   UNL A   1      35.591  29.727  28.243  1.00  0.00     0.016 A 
ATOM     37  C   UNL A   1      37.755  31.400  28.689  1.00  0.00     0.010 A 
ATOM     38  C   UNL A   1      36.797  29.189  28.712  1.00  0.00     0.010 A 
ATOM     39  C   UNL A   1      37.899  30.018  28.941  1.00  0.00    -0.014 A 
BRANCH  39  40
ATOM     40  C   UNL A   1      39.171  29.514  29.543  1.00  0.00     0.031 A 
ATOM     41  C   UNL A   1      39.719  30.029  30.848  1.00  0.00     0.074 A 
ATOM     42  C   UNL A   1      39.811  28.492  28.937  1.00  0.00     0.049 A 
ATOM     43  N   UNL A   1      40.580  29.444  31.645  1.00  0.00    -0.248 NA
ATOM     44  C   UNL A   1      39.220  31.314  31.358  1.00  0.00     0.031 C 
ATOM     45  C   UNL A   1      39.419  27.910  27.655  1.00  0.00     0.029 A 
ATOM     46  N   UNL A   1      40.907  27.754  29.319  1.00  0.00    -0.354 N 
ATOM     47  C   UNL A   1      40.635  30.224  32.792  1.00  0.00     0.074 A 
ATOM     48  C   UNL A   1      39.793  31.375  32.556  1.00  0.00     0.031 C 
ATOM     49  C   UNL A   1      40.237  26.888  27.370  1.00  0.00     0.029 A 
ATOM     50  C   UNL A   1      41.254  26.779  28.414  1.00  0.00     0.049 A 
ATOM     51  H   UNL A   1      41.395  27.909  30.159  1.00  0.00     0.167 HD
ATOM     52  C   UNL A   1      41.301  29.981  33.944  1.00  0.00     0.034 A 
ATOM     53  C   UNL A   1      42.285  25.907  28.398  1.00  0.00     0.034 A 
ATOM     54  C   UNL A   1      42.279  28.936  34.110  1.00  0.00     0.049 A 
ATOM     55  C   UNL A   1      43.207  25.837  29.586  1.00  0.00     0.074 A 
ATOM     56  C   UNL A   1      43.038  28.655  35.232  1.00  0.00     0.029 A 
ATOM     57  N   UNL A   1      42.703  28.069  33.116  1.00  0.00    -0.354 N 
ATOM     58  N   UNL A   1      43.107  26.456  30.739  1.00  0.00    -0.248 NA
ATOM     59  C   UNL A   1      44.373  24.950  29.485  1.00  0.00     0.031 C 
ATOM     60  C   UNL A   1      44.008  27.719  34.875  1.00  0.00     0.029 A 
ATOM     61  C   UNL A   1      43.783  27.327  33.565  1.00  0.00     0.049 A 
ATOM     62  H   UNL A   1      42.296  27.992  32.222  1.00  0.00     0.167 HD
ATOM     63  C   UNL A   1      44.183  26.016  31.506  1.00  0.00     0.074 A 
ATOM     64  C   UNL A   1      44.909  25.064  30.694  1.00  0.00     0.031 C 
ATOM     65  C   UNL A   1      44.524  26.376  32.769  1.00  0.00     0.034 A 
BRANCH  52  66
ATOM     66  C   UNL A   1      41.024  30.851  35.141  1.00  0.00     0.023 A 
ATOM     67  C   UNL A   1      39.757  30.839  35.751  1.00  0.00     0.031 A 
ATOM     68  C   UNL A   1      41.952  31.830  35.539  1.00  0.00     0.131 A 
ATOM     69  C   UNL A   1      39.436  31.820  36.697  1.00  0.00     0.055 A 
ATOM     70  C   UNL A   1      41.632  32.793  36.499  1.00  0.00     0.041 A 
ATOM     71  F   UNL A   1      43.173  31.879  34.980  1.00  0.00    -0.206 F 
ATOM     72  C   UNL A   1      40.364  32.798  37.072  1.00  0.00     0.022 A 
BRANCH  69  73
ATOM     73  S   UNL A   1      37.779  31.903  37.429  1.00  0.00     0.124 S 
ATOM     74  O   UNL A   1      38.035  32.648  38.659  1.00  0.00    -0.237 OA
ATOM     75  O   UNL A   1      37.028  32.623  36.406  1.00  0.00    -0.237 OA
ATOM     76  O   UNL A   1      37.411  30.503  37.619  1.00  0.00    -0.744 OA
ENDBRANCH  69  73
ENDBRANCH  52  66
BRANCH  53  77
ATOM     77  C   UNL A   1      42.477  25.050  27.189  1.00  0.00     0.023 A 
ATOM     78  C   UNL A   1      42.011  23.721  27.192  1.00  0.00     0.031 A 
ATOM     79  C   UNL A   1      43.210  25.488  26.077  1.00  0.00     0.131 A 
ATOM     80  C   UNL A   1      42.366  22.852  26.156  1.00  0.00     0.055 A 
ATOM     81  C   UNL A   1      43.488  24.640  25.002  1.00  0.00     0.041 A 
ATOM     82  F   UNL A   1      43.679  26.744  26.026  1.00  0.00    -0.206 F 
ATOM     83  C   UNL A   1      43.086  23.308  25.050  1.00  0.00     0.022 A 
BRANCH  80  84
ATOM     84  S   UNL A   1      42.040  21.072  26.295  1.00  0.00     0.124 S 
ATOM     85  O   UNL A   1      40.652  20.981  25.858  1.00  0.00    -0.237 OA
ATOM     86  O   UNL A   1      43.031  20.516  25.376  1.00  0.00    -0.237 OA
ATOM     87  O   UNL A   1      42.278  20.787  27.706  1.00  0.00    -0.744 OA
ENDBRANCH  80  84
ENDBRANCH  53  77
BRANCH  65  88
ATOM     88  C   UNL A   1      45.759  25.770  33.400  1.00  0.00     0.023 A 
ATOM     89  C   UNL A   1      45.643  24.620  34.204  1.00  0.00     0.031 A 
ATOM     90  C   UNL A   1      46.999  26.429  33.364  1.00  0.00     0.131 A 
ATOM     91  C   UNL A   1      46.722  24.207  34.994  1.00  0.00     0.055 A 
ATOM     92  C   UNL A   1      48.094  25.975  34.103  1.00  0.00     0.041 A 
ATOM     93  F   UNL A   1      47.163  27.536  32.621  1.00  0.00    -0.206 F 
ATOM     94  C   UNL A   1      47.951  24.872  34.940  1.00  0.00     0.022 A 
BRANCH  91  95
ATOM     95  S   UNL A   1      46.534  22.871  36.209  1.00  0.00     0.124 S 
ATOM     96  O   UNL A   1      46.487  21.689  35.353  1.00  0.00    -0.237 OA
ATOM     97  O   UNL A   1      47.747  23.013  37.010  1.00  0.00    -0.237 OA
ATOM     98  O   UNL A   1      45.288  23.193  36.896  1.00  0.00    -0.744 OA
ENDBRANCH  91  95
ENDBRANCH  65  88
ENDBRANCH  39  40
ENDBRANCH  32  34
ENDBRANCH  31  32
ENDBRANCH  30  31
ENDBRANCH   1  30
TORSDOF 19
ENDMDL
MODEL 3
REMARK VINA RESULT:     -10.1      4.516     10.319
REMARK SMILES Nc1oc2ccc(F)cc2c(=O)c1[C@@H]1[NH2+][C@H](C(=O)OCCOCCOC(=O)c2ccc(-c3c4nc(c(-c5cc(S(=O)(=O)[O-])ccc5F)c5ccc([nH]5)c(-c5cc(S(=O)(=O)[O-])ccc5F)c5nc(c(-c6cc(S(=O)(=O)[O-])ccc6F)c6ccc3[nH]6)C=C5)C=C4)cc2)CS1
REMARK SMILES IDX 23 1 22 2 21 3 20 4 19 5 17 6 18 7 16 8 14 9 15 10 92 11
REMARK SMILES IDX 91 14 13 15 2 16 3 17 4 18 11 19 5 20 10 21 12 22 6 23 9 24
REMARK SMILES IDX 7 25 8 26 1 27 24 30 25 31 26 32 27 33 28 34 29 35 90 36
REMARK SMILES IDX 30 37 89 38 31 39 32 40 33 41 83 42 34 43 88 44 82 45 84 46
REMARK SMILES IDX 35 47 87 48 81 49 80 50 36 52 68 53 48 54 67 55 49 56 52 57
REMARK SMILES IDX 66 58 85 59 50 60 51 61 65 63 86 64 53 65 37 66 38 67 46 68
REMARK SMILES IDX 39 69 45 70 47 71 44 72 40 73 41 74 42 75 43 76 69 77 70 78
REMARK SMILES IDX 78 79 71 80 77 81 79 82 76 83 72 84 73 85 74 86 75 87 54 88
REMARK SMILES IDX 55 89 63 90 56 91 62 92 64 93 61 94 57 95 58 96 59 97 60 98
REMARK H PARENT 15 12 15 13 1 28 1 29 84 51 52 62
REMARK Flexibility Score: inf
ROOT
ATOM      1  C   UNL A   1      31.452  30.213  25.610  1.00  0.00     0.202 C 
ENDROOT
BRANCH   1   2
ATOM      2  O   UNL A   1      32.148  28.996  25.338  1.00  0.00    -0.374 OA
BRANCH   2   3
ATOM      3  C   UNL A   1      31.889  27.887  26.202  1.00  0.00     0.202 C 
BRANCH   3   4
ATOM      4  C   UNL A   1      32.860  26.712  26.102  1.00  0.00     0.261 C 
BRANCH   4   5
ATOM      5  O   UNL A   1      32.166  25.491  26.383  1.00  0.00    -0.459 OA
BRANCH   5   6
ATOM      6  C   UNL A   1      32.835  24.339  26.145  1.00  0.00     0.365 C 
ATOM      7  O   UNL A   1      33.981  24.104  26.522  1.00  0.00    -0.245 OA
BRANCH   6   8
ATOM      8  C   UNL A   1      32.001  23.281  25.411  1.00  0.00     0.304 C 
ATOM      9  C   UNL A   1      30.673  24.047  23.535  1.00  0.00     0.283 C 
ATOM     10  N   UNL A   1      30.648  23.712  24.964  1.00  0.00    -0.319 N 
ATOM     11  S   UNL A   1      31.911  22.982  22.750  1.00  0.00    -0.087 SA
ATOM     12  H   UNL A   1      29.984  22.956  25.123  1.00  0.00     0.348 HD
ATOM     13  H   UNL A   1      30.368  24.537  25.496  1.00  0.00     0.348 HD
ATOM     14  C   UNL A   1      32.813  22.663  24.282  1.00  0.00     0.153 C 
BRANCH   9  15
ATOM     15  C   UNL A   1      30.822  25.515  23.234  1.00  0.00     0.128 A 
ATOM     16  C   UNL A   1      31.787  26.141  22.523  1.00  0.00     0.205 A 
ATOM     17  O   UNL A   1      31.849  27.512  22.374  1.00  0.00    -0.440 OA
ATOM     18  C   UNL A   1      30.690  28.216  22.495  1.00  0.00     0.140 A 
ATOM     19  C   UNL A   1      29.702  26.369  23.749  1.00  0.00     0.205 A 
ATOM     20  C   UNL A   1      30.635  29.459  21.876  1.00  0.00     0.051 A 
ATOM     21  C   UNL A   1      29.596  27.723  23.188  1.00  0.00     0.068 A 
ATOM     22  O   UNL A   1      28.848  25.952  24.524  1.00  0.00    -0.288 OA
ATOM     23  C   UNL A   1      29.476  30.226  21.966  1.00  0.00     0.043 A 
ATOM     24  C   UNL A   1      28.429  28.484  23.290  1.00  0.00     0.055 A 
ATOM     25  C   UNL A   1      28.386  29.732  22.674  1.00  0.00     0.124 A 
ATOM     26  F   UNL A   1      27.277  30.474  22.777  1.00  0.00    -0.207 F 
BRANCH  16  27
ATOM     27  N   UNL A   1      32.813  25.531  21.857  1.00  0.00    -0.369 N 
ATOM     28  H   UNL A   1      33.623  26.042  21.628  1.00  0.00     0.159 HD
ATOM     29  H   UNL A   1      32.742  24.582  21.607  1.00  0.00     0.159 HD
ENDBRANCH  16  27
ENDBRANCH   9  15
ENDBRANCH   6   8
ENDBRANCH   5   6
ENDBRANCH   4   5
ENDBRANCH   3   4
ENDBRANCH   2   3
ENDBRANCH   1   2
BRANCH   1  30
ATOM     30  C   UNL A   1      31.930  31.066  26.794  1.00  0.00     0.261 C 
BRANCH  30  31
ATOM     31  O   UNL A   1      33.215  30.692  27.311  1.00  0.00    -0.460 OA
BRANCH  31  32
ATOM     32  C   UNL A   1      34.017  31.731  27.653  1.00  0.00     0.338 C 
ATOM     33  O   UNL A   1      33.698  32.909  27.747  1.00  0.00    -0.246 OA
BRANCH  32  34
ATOM     34  C   UNL A   1      35.332  31.216  28.077  1.00  0.00     0.060 A 
ATOM     35  C   UNL A   1      36.407  32.078  28.264  1.00  0.00     0.016 A 
ATOM     36  C   UNL A   1      35.472  29.847  28.343  1.00  0.00     0.016 A 
ATOM     37  C   UNL A   1      37.619  31.557  28.725  1.00  0.00     0.010 A 
ATOM     38  C   UNL A   1      36.690  29.334  28.807  1.00  0.00     0.010 A 
ATOM     39  C   UNL A   1      37.785  30.182  29.005  1.00  0.00    -0.014 A 
BRANCH  39  40
ATOM     40  C   UNL A   1      39.071  29.708  29.600  1.00  0.00     0.031 A 
ATOM     41  C   UNL A   1      39.623  30.250  30.892  1.00  0.00     0.074 A 
ATOM     42  C   UNL A   1      39.721  28.687  29.003  1.00  0.00     0.049 A 
ATOM     43  N   UNL A   1      40.501  29.691  31.688  1.00  0.00    -0.248 NA
ATOM     44  C   UNL A   1      39.108  31.535  31.389  1.00  0.00     0.031 C 
ATOM     45  C   UNL A   1      39.325  28.080  27.733  1.00  0.00     0.029 A 
ATOM     46  N   UNL A   1      40.832  27.973  29.383  1.00  0.00    -0.354 N 
ATOM     47  C   UNL A   1      40.556  30.489  32.823  1.00  0.00     0.074 A 
ATOM     48  C   UNL A   1      39.692  31.622  32.580  1.00  0.00     0.031 C 
ATOM     49  C   UNL A   1      40.157  27.069  27.454  1.00  0.00     0.029 A 
ATOM     50  C   UNL A   1      41.186  26.991  28.489  1.00  0.00     0.049 A 
ATOM     51  H   UNL A   1      41.326  28.148  30.217  1.00  0.00     0.167 HD
ATOM     52  C   UNL A   1      41.237  30.273  33.972  1.00  0.00     0.034 A 
ATOM     53  C   UNL A   1      42.231  26.135  28.475  1.00  0.00     0.034 A 
ATOM     54  C   UNL A   1      42.233  29.247  34.143  1.00  0.00     0.049 A 
ATOM     55  C   UNL A   1      43.166  26.097  29.654  1.00  0.00     0.074 A 
ATOM     56  C   UNL A   1      43.008  28.994  35.261  1.00  0.00     0.029 A 
ATOM     57  N   UNL A   1      42.661  28.372  33.157  1.00  0.00    -0.354 N 
ATOM     58  N   UNL A   1      43.068  26.731  30.799  1.00  0.00    -0.248 NA
ATOM     59  C   UNL A   1      44.345  25.228  29.554  1.00  0.00     0.031 C 
ATOM     60  C   UNL A   1      43.990  28.068  34.908  1.00  0.00     0.029 A 
ATOM     61  C   UNL A   1      43.757  27.654  33.606  1.00  0.00     0.049 A 
ATOM     62  H   UNL A   1      42.246  28.275  32.269  1.00  0.00     0.167 HD
ATOM     63  C   UNL A   1      44.158  26.320  31.562  1.00  0.00     0.074 A 
ATOM     64  C   UNL A   1      44.891  25.368  30.756  1.00  0.00     0.031 C 
ATOM     65  C   UNL A   1      44.506  26.703  32.816  1.00  0.00     0.034 A 
BRANCH  52  66
ATOM     66  C   UNL A   1      40.957  31.156  35.159  1.00  0.00     0.023 A 
ATOM     67  C   UNL A   1      39.753  31.028  35.873  1.00  0.00     0.031 A 
ATOM     68  C   UNL A   1      41.796  32.249  35.446  1.00  0.00     0.131 A 
ATOM     69  C   UNL A   1      39.398  32.005  36.811  1.00  0.00     0.055 A 
ATOM     70  C   UNL A   1      41.445  33.208  36.397  1.00  0.00     0.041 A 
ATOM     71  F   UNL A   1      42.955  32.409  34.785  1.00  0.00    -0.206 F 
ATOM     72  C   UNL A   1      40.234  33.095  37.074  1.00  0.00     0.022 A 
BRANCH  69  73
ATOM     73  S   UNL A   1      37.805  31.933  37.675  1.00  0.00     0.124 S 
ATOM     74  O   UNL A   1      37.406  30.546  37.445  1.00  0.00    -0.237 OA
ATOM     75  O   UNL A   1      38.186  32.255  39.046  1.00  0.00    -0.237 OA
ATOM     76  O   UNL A   1      36.991  32.931  36.990  1.00  0.00    -0.744 OA
ENDBRANCH  69  73
ENDBRANCH  52  66
BRANCH  53  77
ATOM     77  C   UNL A   1      42.425  25.264  27.277  1.00  0.00     0.023 A 
ATOM     78  C   UNL A   1      41.923  23.948  27.280  1.00  0.00     0.031 A 
ATOM     79  C   UNL A   1      43.192  25.674  26.177  1.00  0.00     0.131 A 
ATOM     80  C   UNL A   1      42.276  23.061  26.258  1.00  0.00     0.055 A 
ATOM     81  C   UNL A   1      43.469  24.810  25.114  1.00  0.00     0.041 A 
ATOM     82  F   UNL A   1      43.695  26.917  26.126  1.00  0.00    -0.206 F 
ATOM     83  C   UNL A   1      43.031  23.490  25.163  1.00  0.00     0.022 A 
BRANCH  80  84
ATOM     84  S   UNL A   1      41.900  21.292  26.403  1.00  0.00     0.124 S 
ATOM     85  O   UNL A   1      40.472  21.259  26.109  1.00  0.00    -0.237 OA
ATOM     86  O   UNL A   1      42.770  20.718  25.379  1.00  0.00    -0.237 OA
ATOM     87  O   UNL A   1      42.270  20.972  27.778  1.00  0.00    -0.744 OA
ENDBRANCH  80  84
ENDBRANCH  53  77
BRANCH  65  88
ATOM     88  C   UNL A   1      45.757  26.127  33.443  1.00  0.00     0.023 A 
ATOM     89  C   UNL A   1      45.684  24.928  34.178  1.00  0.00     0.031 A 
ATOM     90  C   UNL A   1      46.961  26.850  33.474  1.00  0.00     0.131 A 
ATOM     91  C   UNL A   1      46.766  24.527  34.971  1.00  0.00     0.055 A 
ATOM     92  C   UNL A   1      48.062  26.411  34.214  1.00  0.00     0.041 A 
ATOM     93  F   UNL A   1      47.082  28.005  32.798  1.00  0.00    -0.206 F 
ATOM     94  C   UNL A   1      47.959  25.256  34.985  1.00  0.00     0.022 A 
BRANCH  91  95
ATOM     95  S   UNL A   1      46.622  23.117  36.105  1.00  0.00     0.124 S 
ATOM     96  O   UNL A   1      45.295  23.324  36.678  1.00  0.00    -0.237 OA
ATOM     97  O   UNL A   1      46.737  21.981  35.195  1.00  0.00    -0.237 OA
ATOM     98  O   UNL A   1      47.736  23.294  37.031  1.00  0.00    -0.744 OA
ENDBRANCH  91  95
ENDBRANCH  65  88
ENDBRANCH  39  40
ENDBRANCH  32  34
ENDBRANCH  31  32
ENDBRANCH  30  31
ENDBRANCH   1  30
TORSDOF 19
ENDMDL
