MODEL 1
REMARK VINA RESULT:     -12.4      0.000      0.000
REMARK SMILES Cc1ccc(-c2cc(Cl)cc3c2O[C@@H](C(F)(F)F)C(C(=O)OCCOCCOC(=O)c2ccc(-c4c5nc(c(-c6cc(S(=O)(=O)[O-])ccc6F)c6ccc([nH]6)c(-c6cc(S(=O)(=O)[O-])ccc6F)c6nc(c(-c7cc(S(=O)(=O)[O-])ccc7F)c7ccc4[nH]7)C=C6)C=C5)cc2)=C3)cc1
REMARK SMILES IDX 26 1 25 2 24 3 23 4 22 5 20 6 21 7 19 8 6 9 7 10 12 11 8 12
REMARK SMILES IDX 11 13 13 14 9 15 10 16 94 17 14 18 5 19 1 20 2 21 3 22 96 23
REMARK SMILES IDX 4 24 95 25 15 26 16 27 17 28 18 29 27 30 28 31 29 32 30 33
REMARK SMILES IDX 31 34 32 35 93 36 33 37 92 38 34 39 35 40 36 41 86 42 37 43
REMARK SMILES IDX 91 44 85 45 87 46 38 47 90 48 84 49 83 50 39 52 71 53 51 54
REMARK SMILES IDX 70 55 52 56 55 57 69 58 88 59 53 60 54 61 68 63 89 64 56 65
REMARK SMILES IDX 40 66 41 67 49 68 42 69 48 70 50 71 47 72 43 73 44 74 45 75
REMARK SMILES IDX 46 76 72 77 73 78 81 79 74 80 80 81 82 82 79 83 75 84 76 85
REMARK SMILES IDX 77 86 78 87 57 88 58 89 66 90 59 91 65 92 67 93 64 94 60 95
REMARK SMILES IDX 61 96 62 97 63 98
REMARK H PARENT 87 51 55 62
REMARK Flexibility Score: inf
ROOT
ATOM      1  C   UNL A   1      37.780  22.217  25.173  1.00  0.00     0.202 C 
ENDROOT
BRANCH   1   2
ATOM      2  O   UNL A   1      36.625  22.303  26.007  1.00  0.00    -0.374 OA
BRANCH   2   3
ATOM      3  C   UNL A   1      36.121  23.635  26.148  1.00  0.00     0.202 C 
BRANCH   3   4
ATOM      4  C   UNL A   1      34.615  23.562  26.423  1.00  0.00     0.261 C 
BRANCH   4   5
ATOM      5  O   UNL A   1      33.842  24.337  25.498  1.00  0.00    -0.460 OA
BRANCH   5   6
ATOM      6  C   UNL A   1      32.488  24.282  25.616  1.00  0.00     0.338 C 
ATOM      7  O   UNL A   1      31.803  24.813  26.462  1.00  0.00    -0.246 OA
BRANCH   6   8
ATOM      8  C   UNL A   1      31.945  23.718  24.307  1.00  0.00     0.087 C 
ATOM      9  C   UNL A   1      31.582  27.652  24.073  1.00  0.00     0.026 A 
ATOM     10  C   UNL A   1      30.318  28.235  23.831  1.00  0.00     0.033 A 
ATOM     11  C   UNL A   1      31.720  26.293  23.707  1.00  0.00     0.135 A 
ATOM     12  C   UNL A   1      29.205  27.458  23.515  1.00  0.00     0.042 A 
ATOM     13  C   UNL A   1      30.547  25.489  23.695  1.00  0.00     0.019 A 
ATOM     14  O   UNL A   1      32.957  25.687  23.377  1.00  0.00    -0.475 OA
ATOM     15  Cl  UNL A   1      27.679  28.217  23.292  1.00  0.00    -0.084 Cl
ATOM     16  C   UNL A   1      29.296  26.073  23.532  1.00  0.00     0.032 A 
ATOM     17  C   UNL A   1      30.665  24.026  23.996  1.00  0.00     0.027 C 
ATOM     18  C   UNL A   1      32.838  24.208  23.179  1.00  0.00     0.316 C 
BRANCH   9  19
ATOM     19  C   UNL A   1      32.296  28.342  25.201  1.00  0.00    -0.015 A 
ATOM     20  C   UNL A   1      34.255  31.077  28.000  1.00  0.00     0.044 C 
ATOM     21  C   UNL A   1      33.589  30.162  27.009  1.00  0.00    -0.051 A 
ATOM     22  C   UNL A   1      34.309  29.176  26.320  1.00  0.00     0.004 A 
ATOM     23  C   UNL A   1      32.209  30.213  26.822  1.00  0.00     0.004 A 
ATOM     24  C   UNL A   1      33.675  28.287  25.421  1.00  0.00     0.009 A 
ATOM     25  C   UNL A   1      31.580  29.315  25.947  1.00  0.00     0.009 A 
ENDBRANCH   9  19
BRANCH  18  26
ATOM     26  C   UNL A   1      34.066  23.269  22.951  1.00  0.00     0.430 C 
ATOM     27  F   UNL A   1      34.082  22.889  21.637  1.00  0.00    -0.167 F 
ATOM     28  F   UNL A   1      35.215  23.962  23.150  1.00  0.00    -0.167 F 
ATOM     29  F   UNL A   1      34.131  22.146  23.670  1.00  0.00    -0.167 F 
ENDBRANCH  18  26
ENDBRANCH   6   8
ENDBRANCH   5   6
ENDBRANCH   4   5
ENDBRANCH   3   4
ENDBRANCH   2   3
ENDBRANCH   1   2
BRANCH   1  30
ATOM     30  C   UNL A   1      38.921  21.440  25.835  1.00  0.00     0.261 C 
BRANCH  30  31
ATOM     31  O   UNL A   1      39.505  22.256  26.871  1.00  0.00    -0.460 OA
BRANCH  31  32
ATOM     32  C   UNL A   1      40.505  23.058  26.420  1.00  0.00     0.338 C 
ATOM     33  O   UNL A   1      41.570  22.660  25.977  1.00  0.00    -0.246 OA
BRANCH  32  34
ATOM     34  C   UNL A   1      40.160  24.491  26.630  1.00  0.00     0.060 A 
ATOM     35  C   UNL A   1      40.958  25.489  26.050  1.00  0.00     0.016 A 
ATOM     36  C   UNL A   1      39.169  24.852  27.536  1.00  0.00     0.016 A 
ATOM     37  C   UNL A   1      40.866  26.818  26.497  1.00  0.00     0.010 A 
ATOM     38  C   UNL A   1      39.101  26.162  27.992  1.00  0.00     0.010 A 
ATOM     39  C   UNL A   1      39.993  27.143  27.541  1.00  0.00    -0.014 A 
BRANCH  39  40
ATOM     40  C   UNL A   1      40.182  28.307  28.439  1.00  0.00     0.031 A 
ATOM     41  C   UNL A   1      39.236  29.452  28.526  1.00  0.00     0.074 A 
ATOM     42  C   UNL A   1      41.031  28.143  29.489  1.00  0.00     0.049 A 
ATOM     43  N   UNL A   1      39.481  30.527  29.201  1.00  0.00    -0.248 NA
ATOM     44  C   UNL A   1      37.940  29.524  27.857  1.00  0.00     0.031 C 
ATOM     45  C   UNL A   1      41.018  28.848  30.773  1.00  0.00     0.029 A 
ATOM     46  N   UNL A   1      42.061  27.226  29.666  1.00  0.00    -0.354 N 
ATOM     47  C   UNL A   1      38.284  31.163  29.433  1.00  0.00     0.074 A 
ATOM     48  C   UNL A   1      37.412  30.621  28.422  1.00  0.00     0.031 C 
ATOM     49  C   UNL A   1      42.100  28.510  31.490  1.00  0.00     0.029 A 
ATOM     50  C   UNL A   1      42.941  27.702  30.638  1.00  0.00     0.049 A 
ATOM     51  H   UNL A   1      42.155  26.375  29.182  1.00  0.00     0.167 HD
ATOM     52  C   UNL A   1      38.151  31.961  30.539  1.00  0.00     0.034 A 
ATOM     53  C   UNL A   1      44.247  27.960  30.349  1.00  0.00     0.034 A 
ATOM     54  C   UNL A   1      39.444  32.166  31.227  1.00  0.00     0.049 A 
ATOM     55  C   UNL A   1      44.462  29.472  30.310  1.00  0.00     0.074 A 
ATOM     56  C   UNL A   1      39.916  31.945  32.510  1.00  0.00     0.029 A 
ATOM     57  N   UNL A   1      40.571  32.504  30.469  1.00  0.00    -0.354 N 
ATOM     58  N   UNL A   1      43.486  30.325  30.497  1.00  0.00    -0.248 NA
ATOM     59  C   UNL A   1      45.726  30.170  30.110  1.00  0.00     0.031 C 
ATOM     60  C   UNL A   1      41.345  32.035  32.477  1.00  0.00     0.029 A 
ATOM     61  C   UNL A   1      41.742  32.363  31.190  1.00  0.00     0.049 A 
ATOM     62  H   UNL A   1      40.534  32.806  29.533  1.00  0.00     0.167 HD
ATOM     63  C   UNL A   1      43.915  31.611  30.434  1.00  0.00     0.074 A 
ATOM     64  C   UNL A   1      45.342  31.463  30.191  1.00  0.00     0.031 C 
ATOM     65  C   UNL A   1      43.041  32.661  30.570  1.00  0.00     0.034 A 
BRANCH  52  66
ATOM     66  C   UNL A   1      36.825  32.479  31.108  1.00  0.00     0.023 A 
ATOM     67  C   UNL A   1      36.010  33.346  30.335  1.00  0.00     0.031 A 
ATOM     68  C   UNL A   1      36.335  32.223  32.410  1.00  0.00     0.131 A 
ATOM     69  C   UNL A   1      34.790  33.864  30.835  1.00  0.00     0.055 A 
ATOM     70  C   UNL A   1      35.092  32.678  32.876  1.00  0.00     0.041 A 
ATOM     71  F   UNL A   1      37.055  31.575  33.332  1.00  0.00    -0.206 F 
ATOM     72  C   UNL A   1      34.309  33.499  32.088  1.00  0.00     0.022 A 
BRANCH  69  73
ATOM     73  S   UNL A   1      33.833  35.062  29.856  1.00  0.00     0.124 S 
ATOM     74  O   UNL A   1      34.768  35.402  28.788  1.00  0.00    -0.237 OA
ATOM     75  O   UNL A   1      32.657  34.291  29.469  1.00  0.00    -0.237 OA
ATOM     76  O   UNL A   1      33.569  36.145  30.805  1.00  0.00    -0.744 OA
ENDBRANCH  69  73
ENDBRANCH  52  66
BRANCH  53  77
ATOM     77  C   UNL A   1      44.831  26.839  29.544  1.00  0.00     0.023 A 
ATOM     78  C   UNL A   1      44.752  27.010  28.133  1.00  0.00     0.031 A 
ATOM     79  C   UNL A   1      45.866  26.029  30.037  1.00  0.00     0.131 A 
ATOM     80  C   UNL A   1      45.774  26.537  27.293  1.00  0.00     0.055 A 
ATOM     81  C   UNL A   1      46.871  25.536  29.187  1.00  0.00     0.041 A 
ATOM     82  F   UNL A   1      46.043  25.882  31.358  1.00  0.00    -0.206 F 
ATOM     83  C   UNL A   1      46.853  25.827  27.821  1.00  0.00     0.022 A 
BRANCH  80  84
ATOM     84  S   UNL A   1      45.838  27.032  25.538  1.00  0.00     0.124 S 
ATOM     85  O   UNL A   1      44.568  27.733  25.380  1.00  0.00    -0.237 OA
ATOM     86  O   UNL A   1      47.028  27.870  25.451  1.00  0.00    -0.237 OA
ATOM     87  O   UNL A   1      45.941  25.748  24.844  1.00  0.00    -0.744 OA
ENDBRANCH  80  84
ENDBRANCH  53  77
BRANCH  65  88
ATOM     88  C   UNL A   1      43.345  34.089  30.172  1.00  0.00     0.023 A 
ATOM     89  C   UNL A   1      43.257  34.543  28.850  1.00  0.00     0.031 A 
ATOM     90  C   UNL A   1      43.633  35.083  31.142  1.00  0.00     0.131 A 
ATOM     91  C   UNL A   1      43.527  35.881  28.517  1.00  0.00     0.055 A 
ATOM     92  C   UNL A   1      43.810  36.432  30.820  1.00  0.00     0.041 A 
ATOM     93  F   UNL A   1      43.740  34.793  32.446  1.00  0.00    -0.206 F 
ATOM     94  C   UNL A   1      43.776  36.837  29.496  1.00  0.00     0.022 A 
BRANCH  91  95
ATOM     95  S   UNL A   1      43.618  36.315  26.764  1.00  0.00     0.124 S 
ATOM     96  O   UNL A   1      44.860  37.082  26.710  1.00  0.00    -0.237 OA
ATOM     97  O   UNL A   1      43.654  35.008  26.116  1.00  0.00    -0.237 OA
ATOM     98  O   UNL A   1      42.401  37.090  26.535  1.00  0.00    -0.744 OA
ENDBRANCH  91  95
ENDBRANCH  65  88
ENDBRANCH  39  40
ENDBRANCH  32  34
ENDBRANCH  31  32
ENDBRANCH  30  31
ENDBRANCH   1  30
TORSDOF 19
ENDMDL
MODEL 2
REMARK VINA RESULT:     -12.0      2.298      3.571
REMARK SMILES Cc1ccc(-c2cc(Cl)cc3c2O[C@@H](C(F)(F)F)C(C(=O)OCCOCCOC(=O)c2ccc(-c4c5nc(c(-c6cc(S(=O)(=O)[O-])ccc6F)c6ccc([nH]6)c(-c6cc(S(=O)(=O)[O-])ccc6F)c6nc(c(-c7cc(S(=O)(=O)[O-])ccc7F)c7ccc4[nH]7)C=C6)C=C5)cc2)=C3)cc1
REMARK SMILES IDX 26 1 25 2 24 3 23 4 22 5 20 6 21 7 19 8 6 9 7 10 12 11 8 12
REMARK SMILES IDX 11 13 13 14 9 15 10 16 94 17 14 18 5 19 1 20 2 21 3 22 96 23
REMARK SMILES IDX 4 24 95 25 15 26 16 27 17 28 18 29 27 30 28 31 29 32 30 33
REMARK SMILES IDX 31 34 32 35 93 36 33 37 92 38 34 39 35 40 36 41 86 42 37 43
REMARK SMILES IDX 91 44 85 45 87 46 38 47 90 48 84 49 83 50 39 52 71 53 51 54
REMARK SMILES IDX 70 55 52 56 55 57 69 58 88 59 53 60 54 61 68 63 89 64 56 65
REMARK SMILES IDX 40 66 41 67 49 68 42 69 48 70 50 71 47 72 43 73 44 74 45 75
REMARK SMILES IDX 46 76 72 77 73 78 81 79 74 80 80 81 82 82 79 83 75 84 76 85
REMARK SMILES IDX 77 86 78 87 57 88 58 89 66 90 59 91 65 92 67 93 64 94 60 95
REMARK SMILES IDX 61 96 62 97 63 98
REMARK H PARENT 87 51 55 62
REMARK Flexibility Score: inf
ROOT
ATOM      1  C   UNL A   1      37.929  22.200  25.807  1.00  0.00     0.202 C 
ENDROOT
BRANCH   1   2
ATOM      2  O   UNL A   1      37.598  22.942  24.635  1.00  0.00    -0.374 OA
BRANCH   2   3
ATOM      3  C   UNL A   1      36.199  23.207  24.503  1.00  0.00     0.202 C 
BRANCH   3   4
ATOM      4  C   UNL A   1      35.764  24.133  25.645  1.00  0.00     0.261 C 
BRANCH   4   5
ATOM      5  O   UNL A   1      35.133  25.332  25.180  1.00  0.00    -0.460 OA
BRANCH   5   6
ATOM      6  C   UNL A   1      33.960  25.689  25.770  1.00  0.00     0.338 C 
ATOM      7  O   UNL A   1      33.409  25.142  26.698  1.00  0.00    -0.246 OA
BRANCH   6   8
ATOM      8  C   UNL A   1      33.623  27.096  25.285  1.00  0.00     0.087 C 
ATOM      9  C   UNL A   1      31.615  24.596  22.965  1.00  0.00     0.026 A 
ATOM     10  C   UNL A   1      31.788  24.635  21.564  1.00  0.00     0.033 A 
ATOM     11  C   UNL A   1      31.994  25.762  23.671  1.00  0.00     0.135 A 
ATOM     12  C   UNL A   1      32.535  25.637  20.949  1.00  0.00     0.042 A 
ATOM     13  C   UNL A   1      32.995  26.589  23.092  1.00  0.00     0.019 A 
ATOM     14  O   UNL A   1      31.452  26.136  24.924  1.00  0.00    -0.475 OA
ATOM     15  Cl  UNL A   1      32.763  25.598  19.245  1.00  0.00    -0.084 Cl
ATOM     16  C   UNL A   1      33.215  26.569  21.719  1.00  0.00     0.032 A 
ATOM     17  C   UNL A   1      33.898  27.376  23.991  1.00  0.00     0.027 C 
ATOM     18  C   UNL A   1      32.138  27.328  25.515  1.00  0.00     0.316 C 
BRANCH   9  19
ATOM     19  C   UNL A   1      31.675  23.188  23.486  1.00  0.00    -0.015 A 
ATOM     20  C   UNL A   1      32.598  19.351  25.378  1.00  0.00     0.044 C 
ATOM     21  C   UNL A   1      32.319  20.679  24.730  1.00  0.00    -0.051 A 
ATOM     22  C   UNL A   1      32.335  20.834  23.336  1.00  0.00     0.004 A 
ATOM     23  C   UNL A   1      31.940  21.775  25.504  1.00  0.00     0.004 A 
ATOM     24  C   UNL A   1      32.029  22.072  22.724  1.00  0.00     0.009 A 
ATOM     25  C   UNL A   1      31.615  22.995  24.892  1.00  0.00     0.009 A 
ENDBRANCH   9  19
BRANCH  18  26
ATOM     26  C   UNL A   1      31.843  27.866  26.952  1.00  0.00     0.430 C 
ATOM     27  F   UNL A   1      33.032  28.010  27.613  1.00  0.00    -0.167 F 
ATOM     28  F   UNL A   1      31.311  29.112  26.873  1.00  0.00    -0.167 F 
ATOM     29  F   UNL A   1      31.057  27.131  27.742  1.00  0.00    -0.167 F 
ENDBRANCH  18  26
ENDBRANCH   6   8
ENDBRANCH   5   6
ENDBRANCH   4   5
ENDBRANCH   3   4
ENDBRANCH   2   3
ENDBRANCH   1   2
BRANCH   1  30
ATOM     30  C   UNL A   1      39.434  22.191  26.089  1.00  0.00     0.261 C 
BRANCH  30  31
ATOM     31  O   UNL A   1      39.699  23.008  27.247  1.00  0.00    -0.460 OA
BRANCH  31  32
ATOM     32  C   UNL A   1      40.687  23.919  27.045  1.00  0.00     0.338 C 
ATOM     33  O   UNL A   1      41.854  23.641  26.821  1.00  0.00    -0.246 OA
BRANCH  32  34
ATOM     34  C   UNL A   1      40.168  25.303  27.227  1.00  0.00     0.060 A 
ATOM     35  C   UNL A   1      40.672  26.343  26.432  1.00  0.00     0.016 A 
ATOM     36  C   UNL A   1      39.327  25.605  28.292  1.00  0.00     0.016 A 
ATOM     37  C   UNL A   1      40.460  27.682  26.801  1.00  0.00     0.010 A 
ATOM     38  C   UNL A   1      39.144  26.930  28.666  1.00  0.00     0.010 A 
ATOM     39  C   UNL A   1      39.767  27.980  27.978  1.00  0.00    -0.014 A 
BRANCH  39  40
ATOM     40  C   UNL A   1      39.941  29.239  28.741  1.00  0.00     0.031 A 
ATOM     41  C   UNL A   1      38.877  30.267  28.900  1.00  0.00     0.074 A 
ATOM     42  C   UNL A   1      40.959  29.278  29.640  1.00  0.00     0.049 A 
ATOM     43  N   UNL A   1      39.082  31.423  29.441  1.00  0.00    -0.248 NA
ATOM     44  C   UNL A   1      37.493  30.121  28.459  1.00  0.00     0.031 C 
ATOM     45  C   UNL A   1      41.058  30.097  30.850  1.00  0.00     0.029 A 
ATOM     46  N   UNL A   1      42.117  28.510  29.709  1.00  0.00    -0.354 N 
ATOM     47  C   UNL A   1      37.864  31.934  29.825  1.00  0.00     0.074 A 
ATOM     48  C   UNL A   1      36.921  31.197  29.020  1.00  0.00     0.031 C 
ATOM     49  C   UNL A   1      42.276  29.960  31.397  1.00  0.00     0.029 A 
ATOM     50  C   UNL A   1      43.070  29.178  30.477  1.00  0.00     0.049 A 
ATOM     51  H   UNL A   1      42.244  27.633  29.281  1.00  0.00     0.167 HD
ATOM     52  C   UNL A   1      37.804  32.813  30.874  1.00  0.00     0.034 A 
ATOM     53  C   UNL A   1      44.267  29.559  29.953  1.00  0.00     0.034 A 
ATOM     54  C   UNL A   1      39.152  33.235  31.314  1.00  0.00     0.049 A 
ATOM     55  C   UNL A   1      44.272  31.075  29.763  1.00  0.00     0.074 A 
ATOM     56  C   UNL A   1      39.847  33.195  32.511  1.00  0.00     0.029 A 
ATOM     57  N   UNL A   1      40.089  33.628  30.351  1.00  0.00    -0.354 N 
ATOM     58  N   UNL A   1      43.234  31.821  30.048  1.00  0.00    -0.248 NA
ATOM     59  C   UNL A   1      45.384  31.895  29.299  1.00  0.00     0.031 C 
ATOM     60  C   UNL A   1      41.228  33.450  32.228  1.00  0.00     0.029 A 
ATOM     61  C   UNL A   1      41.368  33.697  30.871  1.00  0.00     0.049 A 
ATOM     62  H   UNL A   1      39.864  33.833  29.416  1.00  0.00     0.167 HD
ATOM     63  C   UNL A   1      43.473  33.137  29.816  1.00  0.00     0.074 A 
ATOM     64  C   UNL A   1      44.850  33.135  29.345  1.00  0.00     0.031 C 
ATOM     65  C   UNL A   1      42.501  34.084  30.019  1.00  0.00     0.034 A 
BRANCH  52  66
ATOM     66  C   UNL A   1      36.529  33.223  31.618  1.00  0.00     0.023 A 
ATOM     67  C   UNL A   1      35.605  34.112  31.011  1.00  0.00     0.031 A 
ATOM     68  C   UNL A   1      36.191  32.842  32.938  1.00  0.00     0.131 A 
ATOM     69  C   UNL A   1      34.428  34.533  31.677  1.00  0.00     0.055 A 
ATOM     70  C   UNL A   1      34.990  33.202  33.568  1.00  0.00     0.041 A 
ATOM     71  F   UNL A   1      37.029  32.155  33.722  1.00  0.00    -0.206 F 
ATOM     72  C   UNL A   1      34.097  34.047  32.938  1.00  0.00     0.022 A 
BRANCH  69  73
ATOM     73  S   UNL A   1      33.329  35.762  30.908  1.00  0.00     0.124 S 
ATOM     74  O   UNL A   1      33.781  35.752  29.520  1.00  0.00    -0.237 OA
ATOM     75  O   UNL A   1      32.004  35.209  31.163  1.00  0.00    -0.237 OA
ATOM     76  O   UNL A   1      33.629  36.994  31.639  1.00  0.00    -0.744 OA
ENDBRANCH  69  73
ENDBRANCH  52  66
BRANCH  53  77
ATOM     77  C   UNL A   1      44.859  28.443  29.147  1.00  0.00     0.023 A 
ATOM     78  C   UNL A   1      45.074  28.744  27.772  1.00  0.00     0.031 A 
ATOM     79  C   UNL A   1      45.676  27.459  29.726  1.00  0.00     0.131 A 
ATOM     80  C   UNL A   1      46.176  28.209  27.083  1.00  0.00     0.055 A 
ATOM     81  C   UNL A   1      46.760  26.907  29.021  1.00  0.00     0.041 A 
ATOM     82  F   UNL A   1      45.576  27.175  31.032  1.00  0.00    -0.206 F 
ATOM     83  C   UNL A   1      47.041  27.316  27.714  1.00  0.00     0.022 A 
BRANCH  80  84
ATOM     84  S   UNL A   1      46.636  28.841  25.433  1.00  0.00     0.124 S 
ATOM     85  O   UNL A   1      45.771  28.053  24.561  1.00  0.00    -0.237 OA
ATOM     86  O   UNL A   1      46.324  30.264  25.501  1.00  0.00    -0.237 OA
ATOM     87  O   UNL A   1      48.063  28.529  25.355  1.00  0.00    -0.744 OA
ENDBRANCH  80  84
ENDBRANCH  53  77
BRANCH  65  88
ATOM     88  C   UNL A   1      42.546  35.493  29.468  1.00  0.00     0.023 A 
ATOM     89  C   UNL A   1      43.436  36.465  29.943  1.00  0.00     0.031 A 
ATOM     90  C   UNL A   1      41.758  35.878  28.354  1.00  0.00     0.131 A 
ATOM     91  C   UNL A   1      43.465  37.758  29.395  1.00  0.00     0.055 A 
ATOM     92  C   UNL A   1      41.854  37.135  27.751  1.00  0.00     0.041 A 
ATOM     93  F   UNL A   1      40.869  35.048  27.791  1.00  0.00    -0.206 F 
ATOM     94  C   UNL A   1      42.700  38.094  28.283  1.00  0.00     0.022 A 
BRANCH  91  95
ATOM     95  S   UNL A   1      44.475  39.007  30.228  1.00  0.00     0.124 S 
ATOM     96  O   UNL A   1      43.564  39.484  31.266  1.00  0.00    -0.237 OA
ATOM     97  O   UNL A   1      45.616  38.229  30.697  1.00  0.00    -0.237 OA
ATOM     98  O   UNL A   1      44.771  39.973  29.172  1.00  0.00    -0.744 OA
ENDBRANCH  91  95
ENDBRANCH  65  88
ENDBRANCH  39  40
ENDBRANCH  32  34
ENDBRANCH  31  32
ENDBRANCH  30  31
ENDBRANCH   1  30
TORSDOF 19
ENDMDL
MODEL 3
REMARK VINA RESULT:     -12.0      4.072      9.426
REMARK SMILES Cc1ccc(-c2cc(Cl)cc3c2O[C@@H](C(F)(F)F)C(C(=O)OCCOCCOC(=O)c2ccc(-c4c5nc(c(-c6cc(S(=O)(=O)[O-])ccc6F)c6ccc([nH]6)c(-c6cc(S(=O)(=O)[O-])ccc6F)c6nc(c(-c7cc(S(=O)(=O)[O-])ccc7F)c7ccc4[nH]7)C=C6)C=C5)cc2)=C3)cc1
REMARK SMILES IDX 26 1 25 2 24 3 23 4 22 5 20 6 21 7 19 8 6 9 7 10 12 11 8 12
REMARK SMILES IDX 11 13 13 14 9 15 10 16 94 17 14 18 5 19 1 20 2 21 3 22 96 23
REMARK SMILES IDX 4 24 95 25 15 26 16 27 17 28 18 29 27 30 28 31 29 32 30 33
REMARK SMILES IDX 31 34 32 35 93 36 33 37 92 38 34 39 35 40 36 41 86 42 37 43
REMARK SMILES IDX 91 44 85 45 87 46 38 47 90 48 84 49 83 50 39 52 71 53 51 54
REMARK SMILES IDX 70 55 52 56 55 57 69 58 88 59 53 60 54 61 68 63 89 64 56 65
REMARK SMILES IDX 40 66 41 67 49 68 42 69 48 70 50 71 47 72 43 73 44 74 45 75
REMARK SMILES IDX 46 76 72 77 73 78 81 79 74 80 80 81 82 82 79 83 75 84 76 85
REMARK SMILES IDX 77 86 78 87 57 88 58 89 66 90 59 91 65 92 67 93 64 94 60 95
REMARK SMILES IDX 61 96 62 97 63 98
REMARK H PARENT 87 51 55 62
REMARK Flexibility Score: inf
ROOT
ATOM      1  C   UNL A   1      32.637  29.705  25.408  1.00  0.00     0.202 C 
ENDROOT
BRANCH   1   2
ATOM      2  O   UNL A   1      33.440  28.864  24.583  1.00  0.00    -0.374 OA
BRANCH   2   3
ATOM      3  C   UNL A   1      32.807  28.499  23.353  1.00  0.00     0.202 C 
BRANCH   3   4
ATOM      4  C   UNL A   1      33.729  27.539  22.592  1.00  0.00     0.261 C 
BRANCH   4   5
ATOM      5  O   UNL A   1      33.183  26.220  22.472  1.00  0.00    -0.460 OA
BRANCH   5   6
ATOM      6  C   UNL A   1      32.913  25.548  23.624  1.00  0.00     0.338 C 
ATOM      7  O   UNL A   1      33.603  25.486  24.616  1.00  0.00    -0.246 OA
BRANCH   6   8
ATOM      8  C   UNL A   1      31.437  25.163  23.584  1.00  0.00     0.087 C 
ATOM      9  C   UNL A   1      33.396  21.981  24.888  1.00  0.00     0.026 A 
ATOM     10  C   UNL A   1      33.278  20.748  24.209  1.00  0.00     0.033 A 
ATOM     11  C   UNL A   1      32.364  22.919  24.655  1.00  0.00     0.135 A 
ATOM     12  C   UNL A   1      32.366  20.571  23.171  1.00  0.00     0.042 A 
ATOM     13  C   UNL A   1      31.667  22.843  23.418  1.00  0.00     0.019 A 
ATOM     14  O   UNL A   1      32.004  23.939  25.570  1.00  0.00    -0.475 OA
ATOM     15  Cl  UNL A   1      32.310  19.068  22.339  1.00  0.00    -0.084 Cl
ATOM     16  C   UNL A   1      31.617  21.646  22.713  1.00  0.00     0.032 A 
ATOM     17  C   UNL A   1      31.107  24.097  22.820  1.00  0.00     0.027 C 
ATOM     18  C   UNL A   1      30.987  24.883  25.009  1.00  0.00     0.316 C 
BRANCH   9  19
ATOM     19  C   UNL A   1      34.830  22.302  25.197  1.00  0.00    -0.015 A 
ATOM     20  C   UNL A   1      38.743  24.073  26.042  1.00  0.00     0.044 C 
ATOM     21  C   UNL A   1      37.388  23.497  25.734  1.00  0.00    -0.051 A 
ATOM     22  C   UNL A   1      37.145  22.779  24.554  1.00  0.00     0.004 A 
ATOM     23  C   UNL A   1      36.357  23.585  26.668  1.00  0.00     0.004 A 
ATOM     24  C   UNL A   1      35.883  22.200  24.284  1.00  0.00     0.009 A 
ATOM     25  C   UNL A   1      35.113  22.990  26.407  1.00  0.00     0.009 A 
ENDBRANCH   9  19
BRANCH  18  26
ATOM     26  C   UNL A   1      30.519  26.181  25.743  1.00  0.00     0.430 C 
ATOM     27  F   UNL A   1      29.393  25.889  26.462  1.00  0.00    -0.167 F 
ATOM     28  F   UNL A   1      31.454  26.553  26.653  1.00  0.00    -0.167 F 
ATOM     29  F   UNL A   1      30.225  27.246  24.994  1.00  0.00    -0.167 F 
ENDBRANCH  18  26
ENDBRANCH   6   8
ENDBRANCH   5   6
ENDBRANCH   4   5
ENDBRANCH   3   4
ENDBRANCH   2   3
ENDBRANCH   1   2
BRANCH   1  30
ATOM     30  C   UNL A   1      32.963  29.547  26.896  1.00  0.00     0.261 C 
BRANCH  30  31
ATOM     31  O   UNL A   1      34.321  29.974  27.127  1.00  0.00    -0.460 OA
BRANCH  31  32
ATOM     32  C   UNL A   1      34.405  31.138  27.821  1.00  0.00     0.338 C 
ATOM     33  O   UNL A   1      33.660  32.093  27.673  1.00  0.00    -0.246 OA
BRANCH  32  34
ATOM     34  C   UNL A   1      35.591  31.125  28.723  1.00  0.00     0.060 A 
ATOM     35  C   UNL A   1      36.702  31.925  28.419  1.00  0.00     0.016 A 
ATOM     36  C   UNL A   1      35.679  30.197  29.755  1.00  0.00     0.016 A 
ATOM     37  C   UNL A   1      37.939  31.685  29.042  1.00  0.00     0.010 A 
ATOM     38  C   UNL A   1      36.911  29.948  30.348  1.00  0.00     0.010 A 
ATOM     39  C   UNL A   1      38.069  30.628  29.949  1.00  0.00    -0.014 A 
BRANCH  39  40
ATOM     40  C   UNL A   1      39.352  29.944  30.238  1.00  0.00     0.031 A 
ATOM     41  C   UNL A   1      39.806  28.705  29.552  1.00  0.00     0.074 A 
ATOM     42  C   UNL A   1      40.313  30.678  30.861  1.00  0.00     0.049 A 
ATOM     43  N   UNL A   1      40.853  28.037  29.911  1.00  0.00    -0.248 NA
ATOM     44  C   UNL A   1      39.133  28.076  28.420  1.00  0.00     0.031 C 
ATOM     45  C   UNL A   1      41.764  30.493  30.799  1.00  0.00     0.029 A 
ATOM     46  N   UNL A   1      40.195  31.827  31.635  1.00  0.00    -0.354 N 
ATOM     47  C   UNL A   1      41.232  27.244  28.854  1.00  0.00     0.074 A 
ATOM     48  C   UNL A   1      40.036  27.154  28.053  1.00  0.00     0.031 C 
ATOM     49  C   UNL A   1      42.368  31.324  31.662  1.00  0.00     0.029 A 
ATOM     50  C   UNL A   1      41.329  31.964  32.435  1.00  0.00     0.049 A 
ATOM     51  H   UNL A   1      39.430  32.446  31.622  1.00  0.00     0.167 HD
ATOM     52  C   UNL A   1      42.548  26.882  28.722  1.00  0.00     0.034 A 
ATOM     53  C   UNL A   1      41.245  31.960  33.795  1.00  0.00     0.034 A 
ATOM     54  C   UNL A   1      43.343  27.267  29.908  1.00  0.00     0.049 A 
ATOM     55  C   UNL A   1      41.797  30.638  34.327  1.00  0.00     0.074 A 
ATOM     56  C   UNL A   1      44.473  28.039  30.120  1.00  0.00     0.029 A 
ATOM     57  N   UNL A   1      42.844  26.980  31.183  1.00  0.00    -0.354 N 
ATOM     58  N   UNL A   1      42.231  29.689  33.535  1.00  0.00    -0.248 NA
ATOM     59  C   UNL A   1      41.959  30.258  35.725  1.00  0.00     0.031 C 
ATOM     60  C   UNL A   1      44.569  28.307  31.523  1.00  0.00     0.029 A 
ATOM     61  C   UNL A   1      43.532  27.657  32.173  1.00  0.00     0.049 A 
ATOM     62  H   UNL A   1      42.094  26.367  31.356  1.00  0.00     0.167 HD
ATOM     63  C   UNL A   1      42.689  28.616  34.229  1.00  0.00     0.074 A 
ATOM     64  C   UNL A   1      42.500  29.025  35.614  1.00  0.00     0.031 C 
ATOM     65  C   UNL A   1      43.157  27.499  33.586  1.00  0.00     0.034 A 
BRANCH  52  66
ATOM     66  C   UNL A   1      43.183  26.281  27.464  1.00  0.00     0.023 A 
ATOM     67  C   UNL A   1      43.122  24.883  27.234  1.00  0.00     0.031 A 
ATOM     68  C   UNL A   1      43.917  27.001  26.492  1.00  0.00     0.131 A 
ATOM     69  C   UNL A   1      43.718  24.288  26.094  1.00  0.00     0.055 A 
ATOM     70  C   UNL A   1      44.444  26.420  25.328  1.00  0.00     0.041 A 
ATOM     71  F   UNL A   1      44.227  28.294  26.640  1.00  0.00    -0.206 F 
ATOM     72  C   UNL A   1      44.343  25.059  25.120  1.00  0.00     0.022 A 
BRANCH  69  73
ATOM     73  S   UNL A   1      43.714  22.479  25.897  1.00  0.00     0.124 S 
ATOM     74  O   UNL A   1      43.146  22.317  24.562  1.00  0.00    -0.237 OA
ATOM     75  O   UNL A   1      45.123  22.139  26.049  1.00  0.00    -0.237 OA
ATOM     76  O   UNL A   1      42.853  22.019  26.988  1.00  0.00    -0.744 OA
ENDBRANCH  69  73
ENDBRANCH  52  66
BRANCH  53  77
ATOM     77  C   UNL A   1      40.114  32.832  34.247  1.00  0.00     0.023 A 
ATOM     78  C   UNL A   1      39.243  32.238  35.204  1.00  0.00     0.031 A 
ATOM     79  C   UNL A   1      40.207  34.233  34.245  1.00  0.00     0.131 A 
ATOM     80  C   UNL A   1      38.650  33.012  36.215  1.00  0.00     0.055 A 
ATOM     81  C   UNL A   1      39.589  35.004  35.244  1.00  0.00     0.041 A 
ATOM     82  F   UNL A   1      41.060  34.856  33.419  1.00  0.00    -0.206 F 
ATOM     83  C   UNL A   1      38.848  34.392  36.259  1.00  0.00     0.022 A 
BRANCH  80  84
ATOM     84  S   UNL A   1      37.804  32.214  37.622  1.00  0.00     0.124 S 
ATOM     85  O   UNL A   1      38.759  32.430  38.705  1.00  0.00    -0.237 OA
ATOM     86  O   UNL A   1      36.550  32.947  37.742  1.00  0.00    -0.237 OA
ATOM     87  O   UNL A   1      37.665  30.829  37.170  1.00  0.00    -0.744 OA
ENDBRANCH  80  84
ENDBRANCH  53  77
BRANCH  65  88
ATOM     88  C   UNL A   1      43.352  26.148  34.241  1.00  0.00     0.023 A 
ATOM     89  C   UNL A   1      44.595  25.506  34.301  1.00  0.00     0.031 A 
ATOM     90  C   UNL A   1      42.296  25.502  34.935  1.00  0.00     0.131 A 
ATOM     91  C   UNL A   1      44.745  24.262  34.935  1.00  0.00     0.055 A 
ATOM     92  C   UNL A   1      42.468  24.310  35.643  1.00  0.00     0.041 A 
ATOM     93  F   UNL A   1      41.055  26.007  34.968  1.00  0.00    -0.206 F 
ATOM     94  C   UNL A   1      43.696  23.670  35.632  1.00  0.00     0.022 A 
BRANCH  91  95
ATOM     95  S   UNL A   1      46.328  23.406  34.755  1.00  0.00     0.124 S 
ATOM     96  O   UNL A   1      47.091  24.355  33.948  1.00  0.00    -0.237 OA
ATOM     97  O   UNL A   1      46.766  23.257  36.139  1.00  0.00    -0.237 OA
ATOM     98  O   UNL A   1      45.973  22.161  34.077  1.00  0.00    -0.744 OA
ENDBRANCH  91  95
ENDBRANCH  65  88
ENDBRANCH  39  40
ENDBRANCH  32  34
ENDBRANCH  31  32
ENDBRANCH  30  31
ENDBRANCH   1  30
TORSDOF 19
ENDMDL
