MODEL 1
REMARK VINA RESULT:     -11.2      0.000      0.000
REMARK SMILES O=C1C[C@@H]([N@@H+]2CCO[C@@H](CC(=O)OCCOCCOC(=O)c3ccc(-c4c5nc(c(-c6cc(S(=O)(=O)[O-])ccc6F)c6ccc([nH]6)c(-c6cc(S(=O)(=O)[O-])ccc6F)c6nc(c(-c7cc(S(=O)(=O)[O-])ccc7F)c7ccc4[nH]7)C=C6)C=C5)cc3)C2)C(=O)N1
REMARK SMILES IDX 17 1 16 2 15 3 14 4 13 5 11 6 12 7 10 8 9 9 5 10 6 11 85 12
REMARK SMILES IDX 7 14 8 15 4 16 1 17 2 18 3 19 88 20 86 21 87 23 18 24 19 25
REMARK SMILES IDX 20 26 21 27 22 28 23 29 84 30 24 31 83 32 25 33 26 34 27 35
REMARK SMILES IDX 77 36 28 37 82 38 76 39 78 40 29 41 81 42 75 43 74 44 30 46
REMARK SMILES IDX 62 47 42 48 61 49 43 50 46 51 60 52 79 53 44 54 45 55 59 57
REMARK SMILES IDX 80 58 47 59 31 60 32 61 40 62 33 63 39 64 41 65 38 66 34 67
REMARK SMILES IDX 35 68 36 69 37 70 63 71 64 72 72 73 65 74 71 75 73 76 70 77
REMARK SMILES IDX 66 78 67 79 68 80 69 81 48 82 49 83 57 84 50 85 56 86 58 87
REMARK SMILES IDX 55 88 51 89 52 90 53 91 54 92
REMARK H PARENT 5 13 88 22 78 45 46 56
REMARK Flexibility Score: inf
ROOT
ATOM      1  C   UNL A   1      36.487  22.669  23.888  1.00  0.00     0.202 C 
ENDROOT
BRANCH   1   2
ATOM      2  O   UNL A   1      35.798  23.388  24.906  1.00  0.00    -0.374 OA
BRANCH   2   3
ATOM      3  C   UNL A   1      34.720  24.230  24.508  1.00  0.00     0.202 C 
BRANCH   3   4
ATOM      4  C   UNL A   1      33.867  24.831  25.627  1.00  0.00     0.261 C 
BRANCH   4   5
ATOM      5  O   UNL A   1      32.466  24.892  25.294  1.00  0.00    -0.463 OA
BRANCH   5   6
ATOM      6  C   UNL A   1      31.649  24.118  26.051  1.00  0.00     0.308 C 
ATOM      7  O   UNL A   1      31.434  24.284  27.247  1.00  0.00    -0.252 OA
BRANCH   6   8
ATOM      8  C   UNL A   1      31.069  22.960  25.287  1.00  0.00     0.160 C 
BRANCH   8   9
ATOM      9  C   UNL A   1      31.718  21.577  25.413  1.00  0.00     0.184 C 
ATOM     10  N   UNL A   1      33.112  19.829  24.168  1.00  0.00    -0.320 N 
ATOM     11  C   UNL A   1      34.201  20.163  25.090  1.00  0.00     0.291 C 
ATOM     12  C   UNL A   1      32.165  20.958  24.063  1.00  0.00     0.295 C 
ATOM     13  H   UNL A   1      33.555  19.717  23.256  1.00  0.00     0.348 HD
ATOM     14  C   UNL A   1      33.717  20.697  26.439  1.00  0.00     0.222 C 
ATOM     15  O   UNL A   1      32.853  21.819  26.280  1.00  0.00    -0.366 OA
BRANCH  10  16
ATOM     16  C   UNL A   1      32.522  18.483  24.251  1.00  0.00     0.284 C 
ATOM     17  O   UNL A   1      34.611  15.739  25.139  1.00  0.00    -0.274 OA
ATOM     18  C   UNL A   1      33.855  16.533  24.613  1.00  0.00     0.233 C 
ATOM     19  C   UNL A   1      32.981  17.511  25.337  1.00  0.00     0.176 C 
ATOM     20  N   UNL A   1      33.616  16.643  23.284  1.00  0.00    -0.291 N 
ATOM     21  C   UNL A   1      32.802  17.687  22.974  1.00  0.00     0.285 C 
ATOM     22  H   UNL A   1      33.995  16.030  22.612  1.00  0.00     0.173 HD
ATOM     23  O   UNL A   1      32.413  17.944  21.845  1.00  0.00    -0.268 OA
ENDBRANCH  10  16
ENDBRANCH   8   9
ENDBRANCH   6   8
ENDBRANCH   5   6
ENDBRANCH   4   5
ENDBRANCH   3   4
ENDBRANCH   2   3
ENDBRANCH   1   2
BRANCH   1  24
ATOM     24  C   UNL A   1      37.434  21.554  24.347  1.00  0.00     0.261 C 
BRANCH  24  25
ATOM     25  O   UNL A   1      37.713  21.607  25.762  1.00  0.00    -0.460 OA
BRANCH  25  26
ATOM     26  C   UNL A   1      39.033  21.524  26.078  1.00  0.00     0.338 C 
ATOM     27  O   UNL A   1      39.807  20.651  25.724  1.00  0.00    -0.246 OA
BRANCH  26  28
ATOM     28  C   UNL A   1      39.494  22.747  26.771  1.00  0.00     0.060 A 
ATOM     29  C   UNL A   1      38.815  23.939  26.490  1.00  0.00     0.016 A 
ATOM     30  C   UNL A   1      40.637  22.764  27.571  1.00  0.00     0.016 A 
ATOM     31  C   UNL A   1      39.301  25.155  26.970  1.00  0.00     0.010 A 
ATOM     32  C   UNL A   1      41.119  23.987  28.061  1.00  0.00     0.010 A 
ATOM     33  C   UNL A   1      40.477  25.195  27.731  1.00  0.00    -0.014 A 
BRANCH  33  34
ATOM     34  C   UNL A   1      41.104  26.507  28.052  1.00  0.00     0.031 A 
ATOM     35  C   UNL A   1      42.533  26.763  27.646  1.00  0.00     0.074 A 
ATOM     36  C   UNL A   1      40.395  27.481  28.654  1.00  0.00     0.049 A 
ATOM     37  N   UNL A   1      43.281  27.818  27.851  1.00  0.00    -0.248 NA
ATOM     38  C   UNL A   1      43.208  25.683  26.909  1.00  0.00     0.031 C 
ATOM     39  C   UNL A   1      38.992  27.376  29.054  1.00  0.00     0.029 A 
ATOM     40  N   UNL A   1      40.757  28.750  29.036  1.00  0.00    -0.354 N 
ATOM     41  C   UNL A   1      44.514  27.530  27.274  1.00  0.00     0.074 A 
ATOM     42  C   UNL A   1      44.424  26.183  26.749  1.00  0.00     0.031 C 
ATOM     43  C   UNL A   1      38.615  28.530  29.631  1.00  0.00     0.029 A 
ATOM     44  C   UNL A   1      39.759  29.439  29.685  1.00  0.00     0.049 A 
ATOM     45  H   UNL A   1      41.648  29.131  28.863  1.00  0.00     0.167 HD
ATOM     46  C   UNL A   1      45.613  28.319  27.177  1.00  0.00     0.034 A 
ATOM     47  C   UNL A   1      39.772  30.649  30.281  1.00  0.00     0.034 A 
ATOM     48  C   UNL A   1      45.694  29.657  27.713  1.00  0.00     0.049 A 
ATOM     49  C   UNL A   1      41.039  31.472  30.248  1.00  0.00     0.074 A 
ATOM     50  C   UNL A   1      46.758  30.541  27.665  1.00  0.00     0.029 A 
ATOM     51  N   UNL A   1      44.679  30.301  28.409  1.00  0.00    -0.354 N 
ATOM     52  N   UNL A   1      42.196  31.188  29.693  1.00  0.00    -0.248 NA
ATOM     53  C   UNL A   1      41.000  32.782  30.912  1.00  0.00     0.031 C 
ATOM     54  C   UNL A   1      46.416  31.683  28.397  1.00  0.00     0.029 A 
ATOM     55  C   UNL A   1      45.104  31.555  28.823  1.00  0.00     0.049 A 
ATOM     56  H   UNL A   1      43.786  29.922  28.582  1.00  0.00     0.167 HD
ATOM     57  C   UNL A   1      43.007  32.301  29.913  1.00  0.00     0.074 A 
ATOM     58  C   UNL A   1      42.202  33.264  30.634  1.00  0.00     0.031 C 
ATOM     59  C   UNL A   1      44.298  32.509  29.547  1.00  0.00     0.034 A 
BRANCH  46  60
ATOM     60  C   UNL A   1      46.833  27.738  26.500  1.00  0.00     0.023 A 
ATOM     61  C   UNL A   1      47.124  27.993  25.149  1.00  0.00     0.031 A 
ATOM     62  C   UNL A   1      47.715  26.909  27.218  1.00  0.00     0.131 A 
ATOM     63  C   UNL A   1      48.229  27.375  24.542  1.00  0.00     0.055 A 
ATOM     64  C   UNL A   1      48.859  26.365  26.630  1.00  0.00     0.041 A 
ATOM     65  F   UNL A   1      47.479  26.611  28.505  1.00  0.00    -0.206 F 
ATOM     66  C   UNL A   1      49.114  26.587  25.280  1.00  0.00     0.022 A 
BRANCH  63  67
ATOM     67  S   UNL A   1      48.416  27.509  22.743  1.00  0.00     0.124 S 
ATOM     68  O   UNL A   1      48.412  26.105  22.341  1.00  0.00    -0.237 OA
ATOM     69  O   UNL A   1      47.245  28.288  22.360  1.00  0.00    -0.237 OA
ATOM     70  O   UNL A   1      49.700  28.190  22.582  1.00  0.00    -0.744 OA
ENDBRANCH  63  67
ENDBRANCH  46  60
BRANCH  47  71
ATOM     71  C   UNL A   1      38.569  31.147  31.013  1.00  0.00     0.023 A 
ATOM     72  C   UNL A   1      37.533  31.821  30.346  1.00  0.00     0.031 A 
ATOM     73  C   UNL A   1      38.474  31.018  32.412  1.00  0.00     0.131 A 
ATOM     74  C   UNL A   1      36.480  32.389  31.082  1.00  0.00     0.055 A 
ATOM     75  C   UNL A   1      37.392  31.527  33.130  1.00  0.00     0.041 A 
ATOM     76  F   UNL A   1      39.438  30.389  33.104  1.00  0.00    -0.206 F 
ATOM     77  C   UNL A   1      36.394  32.232  32.466  1.00  0.00     0.022 A 
BRANCH  74  78
ATOM     78  S   UNL A   1      35.281  33.439  30.212  1.00  0.00     0.124 S 
ATOM     79  O   UNL A   1      34.439  32.445  29.558  1.00  0.00    -0.237 OA
ATOM     80  O   UNL A   1      34.670  34.175  31.314  1.00  0.00    -0.237 OA
ATOM     81  O   UNL A   1      36.116  34.238  29.318  1.00  0.00    -0.744 OA
ENDBRANCH  74  78
ENDBRANCH  47  71
BRANCH  59  82
ATOM     82  C   UNL A   1      44.903  33.856  29.872  1.00  0.00     0.023 A 
ATOM     83  C   UNL A   1      44.837  34.940  28.980  1.00  0.00     0.031 A 
ATOM     84  C   UNL A   1      45.566  34.053  31.099  1.00  0.00     0.131 A 
ATOM     85  C   UNL A   1      45.473  36.150  29.299  1.00  0.00     0.055 A 
ATOM     86  C   UNL A   1      46.137  35.280  31.440  1.00  0.00     0.041 A 
ATOM     87  F   UNL A   1      45.667  33.054  31.990  1.00  0.00    -0.206 F 
ATOM     88  C   UNL A   1      46.104  36.334  30.532  1.00  0.00     0.022 A 
BRANCH  85  89
ATOM     89  S   UNL A   1      45.554  37.453  28.038  1.00  0.00     0.124 S 
ATOM     90  O   UNL A   1      46.803  38.125  28.379  1.00  0.00    -0.237 OA
ATOM     91  O   UNL A   1      45.562  36.686  26.797  1.00  0.00    -0.237 OA
ATOM     92  O   UNL A   1      44.343  38.236  28.275  1.00  0.00    -0.744 OA
ENDBRANCH  85  89
ENDBRANCH  59  82
ENDBRANCH  33  34
ENDBRANCH  26  28
ENDBRANCH  25  26
ENDBRANCH  24  25
ENDBRANCH   1  24
TORSDOF 19
ENDMDL
MODEL 2
REMARK VINA RESULT:     -11.1      2.478      4.247
REMARK SMILES O=C1C[C@@H]([N@@H+]2CCO[C@@H](CC(=O)OCCOCCOC(=O)c3ccc(-c4c5nc(c(-c6cc(S(=O)(=O)[O-])ccc6F)c6ccc([nH]6)c(-c6cc(S(=O)(=O)[O-])ccc6F)c6nc(c(-c7cc(S(=O)(=O)[O-])ccc7F)c7ccc4[nH]7)C=C6)C=C5)cc3)C2)C(=O)N1
REMARK SMILES IDX 17 1 16 2 15 3 14 4 13 5 11 6 12 7 10 8 9 9 5 10 6 11 85 12
REMARK SMILES IDX 7 14 8 15 4 16 1 17 2 18 3 19 88 20 86 21 87 23 18 24 19 25
REMARK SMILES IDX 20 26 21 27 22 28 23 29 84 30 24 31 83 32 25 33 26 34 27 35
REMARK SMILES IDX 77 36 28 37 82 38 76 39 78 40 29 41 81 42 75 43 74 44 30 46
REMARK SMILES IDX 62 47 42 48 61 49 43 50 46 51 60 52 79 53 44 54 45 55 59 57
REMARK SMILES IDX 80 58 47 59 31 60 32 61 40 62 33 63 39 64 41 65 38 66 34 67
REMARK SMILES IDX 35 68 36 69 37 70 63 71 64 72 72 73 65 74 71 75 73 76 70 77
REMARK SMILES IDX 66 78 67 79 68 80 69 81 48 82 49 83 57 84 50 85 56 86 58 87
REMARK SMILES IDX 55 88 51 89 52 90 53 91 54 92
REMARK H PARENT 5 13 88 22 78 45 46 56
REMARK Flexibility Score: inf
ROOT
ATOM      1  C   UNL A   1      36.476  20.540  25.118  1.00  0.00     0.202 C 
ENDROOT
BRANCH   1   2
ATOM      2  O   UNL A   1      35.264  19.819  24.919  1.00  0.00    -0.374 OA
BRANCH   2   3
ATOM      3  C   UNL A   1      34.091  20.567  24.611  1.00  0.00     0.202 C 
BRANCH   3   4
ATOM      4  C   UNL A   1      33.081  20.761  25.744  1.00  0.00     0.261 C 
BRANCH   4   5
ATOM      5  O   UNL A   1      33.644  21.428  26.891  1.00  0.00    -0.463 OA
BRANCH   5   6
ATOM      6  C   UNL A   1      33.227  22.703  27.092  1.00  0.00     0.308 C 
ATOM      7  O   UNL A   1      32.330  23.035  27.859  1.00  0.00    -0.252 OA
BRANCH   6   8
ATOM      8  C   UNL A   1      33.934  23.695  26.211  1.00  0.00     0.160 C 
BRANCH   8   9
ATOM      9  C   UNL A   1      33.110  24.614  25.303  1.00  0.00     0.184 C 
ATOM     10  N   UNL A   1      32.840  27.033  24.512  1.00  0.00    -0.320 N 
ATOM     11  C   UNL A   1      33.323  26.572  23.208  1.00  0.00     0.291 C 
ATOM     12  C   UNL A   1      33.307  26.128  25.582  1.00  0.00     0.295 C 
ATOM     13  H   UNL A   1      33.287  27.938  24.661  1.00  0.00     0.348 HD
ATOM     14  C   UNL A   1      33.041  25.093  22.939  1.00  0.00     0.222 C 
ATOM     15  O   UNL A   1      33.563  24.262  23.973  1.00  0.00    -0.366 OA
BRANCH  10  16
ATOM     16  C   UNL A   1      31.447  27.499  24.609  1.00  0.00     0.284 C 
ATOM     17  O   UNL A   1      30.009  29.215  21.840  1.00  0.00    -0.274 OA
ATOM     18  C   UNL A   1      30.441  28.855  22.917  1.00  0.00     0.233 C 
ATOM     19  C   UNL A   1      30.531  27.435  23.388  1.00  0.00     0.176 C 
ATOM     20  N   UNL A   1      30.867  29.668  23.914  1.00  0.00    -0.291 N 
ATOM     21  C   UNL A   1      31.395  28.987  24.967  1.00  0.00     0.285 C 
ATOM     22  H   UNL A   1      30.801  30.649  23.880  1.00  0.00     0.173 HD
ATOM     23  O   UNL A   1      31.793  29.511  25.995  1.00  0.00    -0.268 OA
ENDBRANCH  10  16
ENDBRANCH   8   9
ENDBRANCH   6   8
ENDBRANCH   5   6
ENDBRANCH   4   5
ENDBRANCH   3   4
ENDBRANCH   2   3
ENDBRANCH   1   2
BRANCH   1  24
ATOM     24  C   UNL A   1      37.773  19.725  25.130  1.00  0.00     0.261 C 
BRANCH  24  25
ATOM     25  O   UNL A   1      38.953  20.554  25.064  1.00  0.00    -0.460 OA
BRANCH  25  26
ATOM     26  C   UNL A   1      39.791  20.425  26.128  1.00  0.00     0.338 C 
ATOM     27  O   UNL A   1      40.357  19.405  26.481  1.00  0.00    -0.246 OA
BRANCH  26  28
ATOM     28  C   UNL A   1      40.098  21.741  26.729  1.00  0.00     0.060 A 
ATOM     29  C   UNL A   1      39.491  22.865  26.156  1.00  0.00     0.016 A 
ATOM     30  C   UNL A   1      41.051  21.897  27.736  1.00  0.00     0.016 A 
ATOM     31  C   UNL A   1      39.866  24.148  26.556  1.00  0.00     0.010 A 
ATOM     32  C   UNL A   1      41.420  23.187  28.144  1.00  0.00     0.010 A 
ATOM     33  C   UNL A   1      40.860  24.322  27.529  1.00  0.00    -0.014 A 
BRANCH  33  34
ATOM     34  C   UNL A   1      41.406  25.682  27.790  1.00  0.00     0.031 A 
ATOM     35  C   UNL A   1      42.794  26.027  27.312  1.00  0.00     0.074 A 
ATOM     36  C   UNL A   1      40.658  26.619  28.404  1.00  0.00     0.049 A 
ATOM     37  N   UNL A   1      43.473  27.136  27.458  1.00  0.00    -0.248 NA
ATOM     38  C   UNL A   1      43.509  24.978  26.568  1.00  0.00     0.031 C 
ATOM     39  C   UNL A   1      39.286  26.427  28.872  1.00  0.00     0.029 A 
ATOM     40  N   UNL A   1      40.946  27.920  28.740  1.00  0.00    -0.354 N 
ATOM     41  C   UNL A   1      44.695  26.920  26.830  1.00  0.00     0.074 A 
ATOM     42  C   UNL A   1      44.678  25.558  26.339  1.00  0.00     0.031 C 
ATOM     43  C   UNL A   1      38.855  27.566  29.440  1.00  0.00     0.029 A 
ATOM     44  C   UNL A   1      39.932  28.554  29.420  1.00  0.00     0.049 A 
ATOM     45  H   UNL A   1      41.799  28.357  28.516  1.00  0.00     0.167 HD
ATOM     46  C   UNL A   1      45.730  27.781  26.663  1.00  0.00     0.034 A 
ATOM     47  C   UNL A   1      39.886  29.777  29.988  1.00  0.00     0.034 A 
ATOM     48  C   UNL A   1      45.741  29.135  27.165  1.00  0.00     0.049 A 
ATOM     49  C   UNL A   1      41.090  30.685  29.877  1.00  0.00     0.074 A 
ATOM     50  C   UNL A   1      46.737  30.090  27.047  1.00  0.00     0.029 A 
ATOM     51  N   UNL A   1      44.715  29.724  27.894  1.00  0.00    -0.354 N 
ATOM     52  N   UNL A   1      42.237  30.468  29.274  1.00  0.00    -0.248 NA
ATOM     53  C   UNL A   1      40.988  32.006  30.512  1.00  0.00     0.031 C 
ATOM     54  C   UNL A   1      46.348  31.223  27.769  1.00  0.00     0.029 A 
ATOM     55  C   UNL A   1      45.069  31.014  28.259  1.00  0.00     0.049 A 
ATOM     56  H   UNL A   1      43.861  29.289  28.117  1.00  0.00     0.167 HD
ATOM     57  C   UNL A   1      42.977  31.640  29.430  1.00  0.00     0.074 A 
ATOM     58  C   UNL A   1      42.139  32.563  30.167  1.00  0.00     0.031 C 
ATOM     59  C   UNL A   1      44.231  31.928  28.999  1.00  0.00     0.034 A 
BRANCH  46  60
ATOM     60  C   UNL A   1      46.956  27.269  25.943  1.00  0.00     0.023 A 
ATOM     61  C   UNL A   1      47.994  26.609  26.623  1.00  0.00     0.031 A 
ATOM     62  C   UNL A   1      47.091  27.451  24.554  1.00  0.00     0.131 A 
ATOM     63  C   UNL A   1      49.147  26.213  25.926  1.00  0.00     0.055 A 
ATOM     64  C   UNL A   1      48.204  26.981  23.854  1.00  0.00     0.041 A 
ATOM     65  F   UNL A   1      46.145  28.094  23.853  1.00  0.00    -0.206 F 
ATOM     66  C   UNL A   1      49.246  26.368  24.542  1.00  0.00     0.022 A 
BRANCH  63  67
ATOM     67  S   UNL A   1      50.571  25.614  26.877  1.00  0.00     0.124 S 
ATOM     68  O   UNL A   1      51.519  25.290  25.815  1.00  0.00    -0.237 OA
ATOM     69  O   UNL A   1      50.906  26.766  27.705  1.00  0.00    -0.237 OA
ATOM     70  O   UNL A   1      50.039  24.459  27.599  1.00  0.00    -0.744 OA
ENDBRANCH  63  67
ENDBRANCH  46  60
BRANCH  47  71
ATOM     71  C   UNL A   1      38.686  30.208  30.764  1.00  0.00     0.023 A 
ATOM     72  C   UNL A   1      37.630  30.904  30.153  1.00  0.00     0.031 A 
ATOM     73  C   UNL A   1      38.612  29.991  32.154  1.00  0.00     0.131 A 
ATOM     74  C   UNL A   1      36.578  31.408  30.936  1.00  0.00     0.055 A 
ATOM     75  C   UNL A   1      37.532  30.437  32.916  1.00  0.00     0.041 A 
ATOM     76  F   UNL A   1      39.596  29.337  32.793  1.00  0.00    -0.206 F 
ATOM     77  C   UNL A   1      36.514  31.164  32.310  1.00  0.00     0.022 A 
BRANCH  74  78
ATOM     78  S   UNL A   1      35.351  32.489  30.149  1.00  0.00     0.124 S 
ATOM     79  O   UNL A   1      36.157  33.656  29.815  1.00  0.00    -0.237 OA
ATOM     80  O   UNL A   1      34.906  31.672  29.025  1.00  0.00    -0.237 OA
ATOM     81  O   UNL A   1      34.357  32.694  31.200  1.00  0.00    -0.744 OA
ENDBRANCH  74  78
ENDBRANCH  47  71
BRANCH  59  82
ATOM     82  C   UNL A   1      44.754  33.322  29.265  1.00  0.00     0.023 A 
ATOM     83  C   UNL A   1      44.486  34.398  28.401  1.00  0.00     0.031 A 
ATOM     84  C   UNL A   1      45.543  33.574  30.404  1.00  0.00     0.131 A 
ATOM     85  C   UNL A   1      45.049  35.659  28.656  1.00  0.00     0.055 A 
ATOM     86  C   UNL A   1      46.043  34.845  30.689  1.00  0.00     0.041 A 
ATOM     87  F   UNL A   1      45.838  32.585  31.263  1.00  0.00    -0.206 F 
ATOM     88  C   UNL A   1      45.809  35.894  29.805  1.00  0.00     0.022 A 
BRANCH  85  89
ATOM     89  S   UNL A   1      44.863  36.966  27.411  1.00  0.00     0.124 S 
ATOM     90  O   UNL A   1      43.546  36.670  26.857  1.00  0.00    -0.237 OA
ATOM     91  O   UNL A   1      44.957  38.179  28.216  1.00  0.00    -0.237 OA
ATOM     92  O   UNL A   1      45.984  36.737  26.503  1.00  0.00    -0.744 OA
ENDBRANCH  85  89
ENDBRANCH  59  82
ENDBRANCH  33  34
ENDBRANCH  26  28
ENDBRANCH  25  26
ENDBRANCH  24  25
ENDBRANCH   1  24
TORSDOF 19
ENDMDL
MODEL 3
REMARK VINA RESULT:     -11.0      4.969      6.832
REMARK SMILES O=C1C[C@@H]([N@@H+]2CCO[C@@H](CC(=O)OCCOCCOC(=O)c3ccc(-c4c5nc(c(-c6cc(S(=O)(=O)[O-])ccc6F)c6ccc([nH]6)c(-c6cc(S(=O)(=O)[O-])ccc6F)c6nc(c(-c7cc(S(=O)(=O)[O-])ccc7F)c7ccc4[nH]7)C=C6)C=C5)cc3)C2)C(=O)N1
REMARK SMILES IDX 17 1 16 2 15 3 14 4 13 5 11 6 12 7 10 8 9 9 5 10 6 11 85 12
REMARK SMILES IDX 7 14 8 15 4 16 1 17 2 18 3 19 88 20 86 21 87 23 18 24 19 25
REMARK SMILES IDX 20 26 21 27 22 28 23 29 84 30 24 31 83 32 25 33 26 34 27 35
REMARK SMILES IDX 77 36 28 37 82 38 76 39 78 40 29 41 81 42 75 43 74 44 30 46
REMARK SMILES IDX 62 47 42 48 61 49 43 50 46 51 60 52 79 53 44 54 45 55 59 57
REMARK SMILES IDX 80 58 47 59 31 60 32 61 40 62 33 63 39 64 41 65 38 66 34 67
REMARK SMILES IDX 35 68 36 69 37 70 63 71 64 72 72 73 65 74 71 75 73 76 70 77
REMARK SMILES IDX 66 78 67 79 68 80 69 81 48 82 49 83 57 84 50 85 56 86 58 87
REMARK SMILES IDX 55 88 51 89 52 90 53 91 54 92
REMARK H PARENT 5 13 88 22 78 45 46 56
REMARK Flexibility Score: inf
ROOT
ATOM      1  C   UNL A   1      31.827  29.070  24.917  1.00  0.00     0.202 C 
ENDROOT
BRANCH   1   2
ATOM      2  O   UNL A   1      31.163  28.091  25.711  1.00  0.00    -0.374 OA
BRANCH   2   3
ATOM      3  C   UNL A   1      30.882  26.831  25.110  1.00  0.00     0.202 C 
BRANCH   3   4
ATOM      4  C   UNL A   1      31.712  25.639  25.589  1.00  0.00     0.261 C 
BRANCH   4   5
ATOM      5  O   UNL A   1      31.179  25.024  26.779  1.00  0.00    -0.463 OA
BRANCH   5   6
ATOM      6  C   UNL A   1      30.591  23.815  26.601  1.00  0.00     0.308 C 
ATOM      7  O   UNL A   1      29.819  23.287  27.393  1.00  0.00    -0.252 OA
BRANCH   6   8
ATOM      8  C   UNL A   1      31.039  23.127  25.341  1.00  0.00     0.160 C 
BRANCH   8   9
ATOM      9  C   UNL A   1      31.720  21.757  25.435  1.00  0.00     0.184 C 
ATOM     10  N   UNL A   1      33.041  20.013  24.109  1.00  0.00    -0.320 N 
ATOM     11  C   UNL A   1      34.193  20.377  24.938  1.00  0.00     0.291 C 
ATOM     12  C   UNL A   1      32.070  21.124  24.063  1.00  0.00     0.295 C 
ATOM     13  H   UNL A   1      33.414  19.893  23.167  1.00  0.00     0.348 HD
ATOM     14  C   UNL A   1      33.808  20.925  26.313  1.00  0.00     0.222 C 
ATOM     15  O   UNL A   1      32.915  22.030  26.207  1.00  0.00    -0.366 OA
BRANCH  10  16
ATOM     16  C   UNL A   1      32.483  18.658  24.257  1.00  0.00     0.284 C 
ATOM     17  O   UNL A   1      34.625  16.017  25.311  1.00  0.00    -0.274 OA
ATOM     18  C   UNL A   1      33.857  16.763  24.736  1.00  0.00     0.233 C 
ATOM     19  C   UNL A   1      32.951  17.757  25.398  1.00  0.00     0.176 C 
ATOM     20  N   UNL A   1      33.632  16.797  23.401  1.00  0.00    -0.291 N 
ATOM     21  C   UNL A   1      32.797  17.803  23.027  1.00  0.00     0.285 C 
ATOM     22  H   UNL A   1      34.032  16.159  22.766  1.00  0.00     0.173 HD
ATOM     23  O   UNL A   1      32.415  17.991  21.882  1.00  0.00    -0.268 OA
ENDBRANCH  10  16
ENDBRANCH   8   9
ENDBRANCH   6   8
ENDBRANCH   5   6
ENDBRANCH   4   5
ENDBRANCH   3   4
ENDBRANCH   2   3
ENDBRANCH   1   2
BRANCH   1  24
ATOM     24  C   UNL A   1      32.986  29.826  25.576  1.00  0.00     0.261 C 
BRANCH  24  25
ATOM     25  O   UNL A   1      32.688  30.235  26.927  1.00  0.00    -0.460 OA
BRANCH  25  26
ATOM     26  C   UNL A   1      33.336  31.362  27.329  1.00  0.00     0.338 C 
ATOM     27  O   UNL A   1      32.842  32.468  27.463  1.00  0.00    -0.246 OA
BRANCH  26  28
ATOM     28  C   UNL A   1      34.711  31.057  27.778  1.00  0.00     0.060 A 
ATOM     29  C   UNL A   1      34.964  29.758  28.235  1.00  0.00     0.016 A 
ATOM     30  C   UNL A   1      35.698  32.038  27.878  1.00  0.00     0.016 A 
ATOM     31  C   UNL A   1      36.186  29.447  28.833  1.00  0.00     0.010 A 
ATOM     32  C   UNL A   1      36.929  31.722  28.471  1.00  0.00     0.010 A 
ATOM     33  C   UNL A   1      37.167  30.436  28.988  1.00  0.00    -0.014 A 
BRANCH  33  34
ATOM     34  C   UNL A   1      38.372  30.154  29.817  1.00  0.00     0.031 A 
ATOM     35  C   UNL A   1      39.432  29.222  29.288  1.00  0.00     0.074 A 
ATOM     36  C   UNL A   1      38.546  30.759  31.007  1.00  0.00     0.049 A 
ATOM     37  N   UNL A   1      40.540  28.816  29.853  1.00  0.00    -0.248 NA
ATOM     38  C   UNL A   1      39.210  28.676  27.940  1.00  0.00     0.031 C 
ATOM     39  C   UNL A   1      37.619  31.717  31.609  1.00  0.00     0.029 A 
ATOM     40  N   UNL A   1      39.564  30.658  31.926  1.00  0.00    -0.354 N 
ATOM     41  C   UNL A   1      41.148  27.965  28.935  1.00  0.00     0.074 A 
ATOM     42  C   UNL A   1      40.260  27.881  27.793  1.00  0.00     0.031 C 
ATOM     43  C   UNL A   1      38.108  32.110  32.798  1.00  0.00     0.029 A 
ATOM     44  C   UNL A   1      39.357  31.399  33.066  1.00  0.00     0.049 A 
ATOM     45  H   UNL A   1      40.366  30.106  31.781  1.00  0.00     0.167 HD
ATOM     46  C   UNL A   1      42.340  27.325  29.026  1.00  0.00     0.034 A 
ATOM     47  C   UNL A   1      40.073  31.474  34.207  1.00  0.00     0.034 A 
ATOM     48  C   UNL A   1      43.213  27.408  30.174  1.00  0.00     0.049 A 
ATOM     49  C   UNL A   1      41.350  30.673  34.328  1.00  0.00     0.074 A 
ATOM     50  C   UNL A   1      44.444  26.803  30.365  1.00  0.00     0.029 A 
ATOM     51  N   UNL A   1      42.944  28.128  31.330  1.00  0.00    -0.354 N 
ATOM     52  N   UNL A   1      41.914  29.877  33.447  1.00  0.00    -0.248 NA
ATOM     53  C   UNL A   1      42.092  30.790  35.590  1.00  0.00     0.031 C 
ATOM     54  C   UNL A   1      44.879  27.092  31.663  1.00  0.00     0.029 A 
ATOM     55  C   UNL A   1      43.968  27.955  32.250  1.00  0.00     0.049 A 
ATOM     56  H   UNL A   1      42.143  28.682  31.476  1.00  0.00     0.167 HD
ATOM     57  C   UNL A   1      43.093  29.429  34.040  1.00  0.00     0.074 A 
ATOM     58  C   UNL A   1      43.166  30.056  35.343  1.00  0.00     0.031 C 
ATOM     59  C   UNL A   1      44.032  28.579  33.550  1.00  0.00     0.034 A 
BRANCH  46  60
ATOM     60  C   UNL A   1      42.751  26.444  27.870  1.00  0.00     0.023 A 
ATOM     61  C   UNL A   1      42.378  25.091  27.799  1.00  0.00     0.031 A 
ATOM     62  C   UNL A   1      43.536  26.964  26.824  1.00  0.00     0.131 A 
ATOM     63  C   UNL A   1      42.840  24.290  26.743  1.00  0.00     0.055 A 
ATOM     64  C   UNL A   1      43.923  26.183  25.733  1.00  0.00     0.041 A 
ATOM     65  F   UNL A   1      43.943  28.243  26.846  1.00  0.00    -0.206 F 
ATOM     66  C   UNL A   1      43.586  24.834  25.694  1.00  0.00     0.022 A 
BRANCH  63  67
ATOM     67  S   UNL A   1      42.566  22.499  26.828  1.00  0.00     0.124 S 
ATOM     68  O   UNL A   1      43.803  21.984  26.248  1.00  0.00    -0.237 OA
ATOM     69  O   UNL A   1      42.387  22.274  28.257  1.00  0.00    -0.237 OA
ATOM     70  O   UNL A   1      41.372  22.296  26.009  1.00  0.00    -0.744 OA
ENDBRANCH  63  67
ENDBRANCH  46  60
BRANCH  47  71
ATOM     71  C   UNL A   1      39.584  32.291  35.357  1.00  0.00     0.023 A 
ATOM     72  C   UNL A   1      38.893  31.704  36.430  1.00  0.00     0.031 A 
ATOM     73  C   UNL A   1      39.739  33.690  35.363  1.00  0.00     0.131 A 
ATOM     74  C   UNL A   1      38.334  32.516  37.431  1.00  0.00     0.055 A 
ATOM     75  C   UNL A   1      39.238  34.485  36.394  1.00  0.00     0.041 A 
ATOM     76  F   UNL A   1      40.385  34.306  34.360  1.00  0.00    -0.206 F 
ATOM     77  C   UNL A   1      38.517  33.900  37.429  1.00  0.00     0.022 A 
BRANCH  74  78
ATOM     78  S   UNL A   1      37.264  31.745  38.677  1.00  0.00     0.124 S 
ATOM     79  O   UNL A   1      36.123  32.653  38.689  1.00  0.00    -0.237 OA
ATOM     80  O   UNL A   1      37.029  30.426  38.099  1.00  0.00    -0.237 OA
ATOM     81  O   UNL A   1      38.086  31.757  39.885  1.00  0.00    -0.744 OA
ENDBRANCH  74  78
ENDBRANCH  47  71
BRANCH  59  82
ATOM     82  C   UNL A   1      45.252  28.324  34.407  1.00  0.00     0.023 A 
ATOM     83  C   UNL A   1      45.280  27.315  35.385  1.00  0.00     0.031 A 
ATOM     84  C   UNL A   1      46.406  29.113  34.243  1.00  0.00     0.131 A 
ATOM     85  C   UNL A   1      46.412  27.161  36.201  1.00  0.00     0.055 A 
ATOM     86  C   UNL A   1      47.554  28.910  35.010  1.00  0.00     0.041 A 
ATOM     87  F   UNL A   1      46.439  30.096  33.329  1.00  0.00    -0.206 F 
ATOM     88  C   UNL A   1      47.557  27.938  36.006  1.00  0.00     0.022 A 
BRANCH  85  89
ATOM     89  S   UNL A   1      46.333  25.999  37.593  1.00  0.00     0.124 S 
ATOM     90  O   UNL A   1      45.109  25.261  37.301  1.00  0.00    -0.237 OA
ATOM     91  O   UNL A   1      47.578  25.252  37.446  1.00  0.00    -0.237 OA
ATOM     92  O   UNL A   1      46.268  26.870  38.764  1.00  0.00    -0.744 OA
ENDBRANCH  85  89
ENDBRANCH  59  82
ENDBRANCH  33  34
ENDBRANCH  26  28
ENDBRANCH  25  26
ENDBRANCH  24  25
ENDBRANCH   1  24
TORSDOF 19
ENDMDL
