MODEL 1
REMARK VINA RESULT:     -11.0      0.000      0.000
REMARK SMILES Cn1ncc(C(=O)OCCOCCOC(=O)c2ccc(-c3c4nc(c(-c5cc(S(=O)(=O)[O-])ccc5F)c5ccc([nH]5)c(-c5cc(S(=O)(=O)[O-])ccc5F)c5nc(c(-c6cc(S(=O)(=O)[O-])ccc6F)c6ccc3[nH]6)C=C5)C=C4)cc2)c1C(=O)Nc1ccccn1
REMARK SMILES IDX 12 1 11 2 10 3 9 4 8 5 6 6 7 7 5 8 1 9 2 10 3 11 80 12 4 13
REMARK SMILES IDX 81 14 82 15 83 16 84 18 85 19 89 20 86 21 88 22 87 23 13 24
REMARK SMILES IDX 14 25 15 26 16 27 17 28 18 29 79 30 19 31 78 32 20 33 21 34
REMARK SMILES IDX 22 35 72 36 23 37 77 38 71 39 73 40 24 41 76 42 70 43 69 44
REMARK SMILES IDX 25 46 57 47 37 48 56 49 38 50 41 51 55 52 74 53 39 54 40 55
REMARK SMILES IDX 54 57 75 58 42 59 26 60 27 61 35 62 28 63 34 64 36 65 33 66
REMARK SMILES IDX 29 67 30 68 31 69 32 70 58 71 59 72 67 73 60 74 66 75 68 76
REMARK SMILES IDX 65 77 61 78 62 79 63 80 64 81 43 82 44 83 52 84 45 85 51 86
REMARK SMILES IDX 53 87 50 88 46 89 47 90 48 91 49 92
REMARK H PARENT 83 17 73 45 41 56
REMARK Flexibility Score: inf
ROOT
ATOM      1  C   UNL A   1      35.803  20.516  25.043  1.00  0.00     0.202 C 
ENDROOT
BRANCH   1   2
ATOM      2  O   UNL A   1      35.428  21.366  26.131  1.00  0.00    -0.374 OA
BRANCH   2   3
ATOM      3  C   UNL A   1      34.682  22.540  25.794  1.00  0.00     0.202 C 
BRANCH   3   4
ATOM      4  C   UNL A   1      35.539  23.736  25.378  1.00  0.00     0.261 C 
BRANCH   4   5
ATOM      5  O   UNL A   1      34.707  24.726  24.754  1.00  0.00    -0.460 OA
BRANCH   5   6
ATOM      6  C   UNL A   1      34.373  24.477  23.464  1.00  0.00     0.342 C 
ATOM      7  O   UNL A   1      34.960  23.692  22.727  1.00  0.00    -0.246 OA
BRANCH   6   8
ATOM      8  C   UNL A   1      33.122  25.086  23.050  1.00  0.00     0.111 A 
ATOM      9  C   UNL A   1      30.630  27.484  23.334  1.00  0.00     0.174 C 
ATOM     10  N   UNL A   1      31.319  26.272  22.944  1.00  0.00    -0.262 N 
ATOM     11  N   UNL A   1      31.737  26.229  21.660  1.00  0.00    -0.180 NA
ATOM     12  C   UNL A   1      31.925  25.323  23.748  1.00  0.00     0.140 A 
ATOM     13  C   UNL A   1      32.915  25.622  21.763  1.00  0.00     0.151 A 
BRANCH  12  14
ATOM     14  C   UNL A   1      31.593  24.876  25.090  1.00  0.00     0.275 C 
ATOM     15  O   UNL A   1      31.146  23.743  25.283  1.00  0.00    -0.267 OA
ATOM     16  N   UNL A   1      31.833  25.596  26.231  1.00  0.00    -0.305 N 
ATOM     17  H   UNL A   1      31.701  25.059  27.046  1.00  0.00     0.171 HD
BRANCH  16  18
ATOM     18  C   UNL A   1      32.216  26.895  26.513  1.00  0.00     0.132 A 
ATOM     19  C   UNL A   1      31.411  27.829  27.146  1.00  0.00     0.047 A 
ATOM     20  N   UNL A   1      33.457  27.183  26.068  1.00  0.00    -0.239 NA
ATOM     21  C   UNL A   1      31.883  29.141  27.249  1.00  0.00     0.005 A 
ATOM     22  C   UNL A   1      33.877  28.462  26.151  1.00  0.00     0.113 A 
ATOM     23  C   UNL A   1      33.125  29.472  26.715  1.00  0.00     0.020 A 
ENDBRANCH  16  18
ENDBRANCH  12  14
ENDBRANCH   6   8
ENDBRANCH   5   6
ENDBRANCH   4   5
ENDBRANCH   3   4
ENDBRANCH   2   3
ENDBRANCH   1   2
BRANCH   1  24
ATOM     24  C   UNL A   1      37.292  20.169  24.956  1.00  0.00     0.261 C 
BRANCH  24  25
ATOM     25  O   UNL A   1      38.112  21.327  25.201  1.00  0.00    -0.460 OA
BRANCH  25  26
ATOM     26  C   UNL A   1      39.197  21.102  25.983  1.00  0.00     0.338 C 
ATOM     27  O   UNL A   1      39.830  20.063  26.069  1.00  0.00    -0.246 OA
BRANCH  26  28
ATOM     28  C   UNL A   1      39.647  22.368  26.598  1.00  0.00     0.060 A 
ATOM     29  C   UNL A   1      39.043  23.549  26.147  1.00  0.00     0.016 A 
ATOM     30  C   UNL A   1      40.662  22.417  27.557  1.00  0.00     0.016 A 
ATOM     31  C   UNL A   1      39.487  24.785  26.612  1.00  0.00     0.010 A 
ATOM     32  C   UNL A   1      41.115  23.661  28.015  1.00  0.00     0.010 A 
ATOM     33  C   UNL A   1      40.551  24.851  27.519  1.00  0.00    -0.014 A 
BRANCH  33  34
ATOM     34  C   UNL A   1      41.170  26.165  27.818  1.00  0.00     0.031 A 
ATOM     35  C   UNL A   1      42.577  26.426  27.350  1.00  0.00     0.074 A 
ATOM     36  C   UNL A   1      40.478  27.126  28.456  1.00  0.00     0.049 A 
ATOM     37  N   UNL A   1      43.320  27.491  27.503  1.00  0.00    -0.248 NA
ATOM     38  C   UNL A   1      43.230  25.335  26.611  1.00  0.00     0.031 C 
ATOM     39  C   UNL A   1      39.096  27.005  28.918  1.00  0.00     0.029 A 
ATOM     40  N   UNL A   1      40.846  28.395  28.825  1.00  0.00    -0.354 N 
ATOM     41  C   UNL A   1      44.527  27.203  26.875  1.00  0.00     0.074 A 
ATOM     42  C   UNL A   1      44.428  25.847  26.375  1.00  0.00     0.031 C 
ATOM     43  C   UNL A   1      38.736  28.151  29.520  1.00  0.00     0.029 A 
ATOM     44  C   UNL A   1      39.869  29.075  29.514  1.00  0.00     0.049 A 
ATOM     45  H   UNL A   1      41.726  28.783  28.617  1.00  0.00     0.167 HD
ATOM     46  C   UNL A   1      45.615  27.997  26.722  1.00  0.00     0.034 A 
ATOM     47  C   UNL A   1      39.897  30.293  30.092  1.00  0.00     0.034 A 
ATOM     48  C   UNL A   1      45.708  29.340  27.239  1.00  0.00     0.049 A 
ATOM     49  C   UNL A   1      41.152  31.127  29.988  1.00  0.00     0.074 A 
ATOM     50  C   UNL A   1      46.757  30.237  27.132  1.00  0.00     0.029 A 
ATOM     51  N   UNL A   1      44.719  29.976  27.978  1.00  0.00    -0.354 N 
ATOM     52  N   UNL A   1      42.283  30.846  29.382  1.00  0.00    -0.248 NA
ATOM     53  C   UNL A   1      41.130  32.442  30.640  1.00  0.00     0.031 C 
ATOM     54  C   UNL A   1      46.428  31.387  27.858  1.00  0.00     0.029 A 
ATOM     55  C   UNL A   1      45.146  31.238  28.362  1.00  0.00     0.049 A 
ATOM     56  H   UNL A   1      43.841  29.588  28.198  1.00  0.00     0.167 HD
ATOM     57  C   UNL A   1      43.096  31.963  29.559  1.00  0.00     0.074 A 
ATOM     58  C   UNL A   1      42.321  32.925  30.317  1.00  0.00     0.031 C 
ATOM     59  C   UNL A   1      44.366  32.179  29.131  1.00  0.00     0.034 A 
BRANCH  46  60
ATOM     60  C   UNL A   1      46.806  27.406  26.009  1.00  0.00     0.023 A 
ATOM     61  C   UNL A   1      47.817  26.717  26.703  1.00  0.00     0.031 A 
ATOM     62  C   UNL A   1      46.948  27.563  24.619  1.00  0.00     0.131 A 
ATOM     63  C   UNL A   1      48.954  26.268  26.016  1.00  0.00     0.055 A 
ATOM     64  C   UNL A   1      48.049  27.051  23.930  1.00  0.00     0.041 A 
ATOM     65  F   UNL A   1      46.026  28.231  23.910  1.00  0.00    -0.206 F 
ATOM     66  C   UNL A   1      49.067  26.411  24.631  1.00  0.00     0.022 A 
BRANCH  63  67
ATOM     67  S   UNL A   1      50.347  25.611  26.976  1.00  0.00     0.124 S 
ATOM     68  O   UNL A   1      51.322  25.327  25.926  1.00  0.00    -0.237 OA
ATOM     69  O   UNL A   1      50.669  26.721  27.865  1.00  0.00    -0.237 OA
ATOM     70  O   UNL A   1      49.785  24.430  27.630  1.00  0.00    -0.744 OA
ENDBRANCH  63  67
ENDBRANCH  46  60
BRANCH  47  71
ATOM     71  C   UNL A   1      38.724  30.790  30.867  1.00  0.00     0.023 A 
ATOM     72  C   UNL A   1      37.628  31.391  30.228  1.00  0.00     0.031 A 
ATOM     73  C   UNL A   1      38.714  30.724  32.273  1.00  0.00     0.131 A 
ATOM     74  C   UNL A   1      36.589  31.944  30.995  1.00  0.00     0.055 A 
ATOM     75  C   UNL A   1      37.656  31.231  33.028  1.00  0.00     0.041 A 
ATOM     76  F   UNL A   1      39.739  30.163  32.933  1.00  0.00    -0.206 F 
ATOM     77  C   UNL A   1      36.590  31.857  32.389  1.00  0.00     0.022 A 
BRANCH  74  78
ATOM     78  S   UNL A   1      35.272  32.857  30.144  1.00  0.00     0.124 S 
ATOM     79  O   UNL A   1      34.891  31.920  29.094  1.00  0.00    -0.237 OA
ATOM     80  O   UNL A   1      34.301  33.055  31.213  1.00  0.00    -0.237 OA
ATOM     81  O   UNL A   1      35.944  34.071  29.683  1.00  0.00    -0.744 OA
ENDBRANCH  74  78
ENDBRANCH  47  71
BRANCH  59  82
ATOM     82  C   UNL A   1      44.976  33.524  29.443  1.00  0.00     0.023 A 
ATOM     83  C   UNL A   1      44.759  34.643  28.621  1.00  0.00     0.031 A 
ATOM     84  C   UNL A   1      45.795  33.681  30.576  1.00  0.00     0.131 A 
ATOM     85  C   UNL A   1      45.394  35.859  28.916  1.00  0.00     0.055 A 
ATOM     86  C   UNL A   1      46.381  34.906  30.894  1.00  0.00     0.041 A 
ATOM     87  F   UNL A   1      46.037  32.644  31.394  1.00  0.00    -0.206 F 
ATOM     88  C   UNL A   1      46.191  36.002  30.055  1.00  0.00     0.022 A 
BRANCH  85  89
ATOM     89  S   UNL A   1      45.227  37.236  27.748  1.00  0.00     0.124 S 
ATOM     90  O   UNL A   1      44.367  36.661  26.720  1.00  0.00    -0.237 OA
ATOM     91  O   UNL A   1      44.623  38.276  28.575  1.00  0.00    -0.237 OA
ATOM     92  O   UNL A   1      46.603  37.501  27.329  1.00  0.00    -0.744 OA
ENDBRANCH  85  89
ENDBRANCH  59  82
ENDBRANCH  33  34
ENDBRANCH  26  28
ENDBRANCH  25  26
ENDBRANCH  24  25
ENDBRANCH   1  24
TORSDOF 19
ENDMDL
MODEL 2
REMARK VINA RESULT:     -10.9      2.285      3.122
REMARK SMILES Cn1ncc(C(=O)OCCOCCOC(=O)c2ccc(-c3c4nc(c(-c5cc(S(=O)(=O)[O-])ccc5F)c5ccc([nH]5)c(-c5cc(S(=O)(=O)[O-])ccc5F)c5nc(c(-c6cc(S(=O)(=O)[O-])ccc6F)c6ccc3[nH]6)C=C5)C=C4)cc2)c1C(=O)Nc1ccccn1
REMARK SMILES IDX 12 1 11 2 10 3 9 4 8 5 6 6 7 7 5 8 1 9 2 10 3 11 80 12 4 13
REMARK SMILES IDX 81 14 82 15 83 16 84 18 85 19 89 20 86 21 88 22 87 23 13 24
REMARK SMILES IDX 14 25 15 26 16 27 17 28 18 29 79 30 19 31 78 32 20 33 21 34
REMARK SMILES IDX 22 35 72 36 23 37 77 38 71 39 73 40 24 41 76 42 70 43 69 44
REMARK SMILES IDX 25 46 57 47 37 48 56 49 38 50 41 51 55 52 74 53 39 54 40 55
REMARK SMILES IDX 54 57 75 58 42 59 26 60 27 61 35 62 28 63 34 64 36 65 33 66
REMARK SMILES IDX 29 67 30 68 31 69 32 70 58 71 59 72 67 73 60 74 66 75 68 76
REMARK SMILES IDX 65 77 61 78 62 79 63 80 64 81 43 82 44 83 52 84 45 85 51 86
REMARK SMILES IDX 53 87 50 88 46 89 47 90 48 91 49 92
REMARK H PARENT 83 17 73 45 41 56
REMARK Flexibility Score: inf
ROOT
ATOM      1  C   UNL A   1      35.919  20.715  25.015  1.00  0.00     0.202 C 
ENDROOT
BRANCH   1   2
ATOM      2  O   UNL A   1      35.393  21.848  25.712  1.00  0.00    -0.374 OA
BRANCH   2   3
ATOM      3  C   UNL A   1      34.451  22.654  24.996  1.00  0.00     0.202 C 
BRANCH   3   4
ATOM      4  C   UNL A   1      33.868  23.813  25.806  1.00  0.00     0.261 C 
BRANCH   4   5
ATOM      5  O   UNL A   1      34.300  25.058  25.236  1.00  0.00    -0.460 OA
BRANCH   5   6
ATOM      6  C   UNL A   1      33.327  25.801  24.653  1.00  0.00     0.342 C 
ATOM      7  O   UNL A   1      32.453  25.357  23.917  1.00  0.00    -0.246 OA
BRANCH   6   8
ATOM      8  C   UNL A   1      33.277  27.175  25.116  1.00  0.00     0.111 A 
ATOM      9  C   UNL A   1      31.697  30.245  25.461  1.00  0.00     0.174 C 
ATOM     10  N   UNL A   1      32.740  29.242  25.449  1.00  0.00    -0.262 N 
ATOM     11  N   UNL A   1      33.170  28.835  26.663  1.00  0.00    -0.180 NA
ATOM     12  C   UNL A   1      33.107  28.386  24.424  1.00  0.00     0.140 A 
ATOM     13  C   UNL A   1      33.360  27.533  26.478  1.00  0.00     0.151 A 
BRANCH  12  14
ATOM     14  C   UNL A   1      33.065  28.571  22.984  1.00  0.00     0.275 C 
ATOM     15  O   UNL A   1      34.106  28.627  22.326  1.00  0.00    -0.267 OA
ATOM     16  N   UNL A   1      31.917  28.593  22.236  1.00  0.00    -0.305 N 
ATOM     17  H   UNL A   1      32.100  28.552  21.269  1.00  0.00     0.171 HD
BRANCH  16  18
ATOM     18  C   UNL A   1      30.562  28.656  22.513  1.00  0.00     0.132 A 
ATOM     19  C   UNL A   1      29.865  27.701  23.236  1.00  0.00     0.047 A 
ATOM     20  N   UNL A   1      29.967  29.738  21.968  1.00  0.00    -0.239 NA
ATOM     21  C   UNL A   1      28.476  27.831  23.327  1.00  0.00     0.005 A 
ATOM     22  C   UNL A   1      28.623  29.823  22.042  1.00  0.00     0.113 A 
ATOM     23  C   UNL A   1      27.839  28.893  22.693  1.00  0.00     0.020 A 
ENDBRANCH  16  18
ENDBRANCH  12  14
ENDBRANCH   6   8
ENDBRANCH   5   6
ENDBRANCH   4   5
ENDBRANCH   3   4
ENDBRANCH   2   3
ENDBRANCH   1   2
BRANCH   1  24
ATOM     24  C   UNL A   1      37.445  20.581  25.024  1.00  0.00     0.261 C 
BRANCH  24  25
ATOM     25  O   UNL A   1      38.068  21.753  25.582  1.00  0.00    -0.460 OA
BRANCH  25  26
ATOM     26  C   UNL A   1      39.241  21.525  26.222  1.00  0.00     0.338 C 
ATOM     27  O   UNL A   1      39.882  20.488  26.220  1.00  0.00    -0.246 OA
BRANCH  26  28
ATOM     28  C   UNL A   1      39.761  22.788  26.787  1.00  0.00     0.060 A 
ATOM     29  C   UNL A   1      39.160  23.978  26.355  1.00  0.00     0.016 A 
ATOM     30  C   UNL A   1      40.836  22.824  27.679  1.00  0.00     0.016 A 
ATOM     31  C   UNL A   1      39.663  25.208  26.771  1.00  0.00     0.010 A 
ATOM     32  C   UNL A   1      41.348  24.062  28.088  1.00  0.00     0.010 A 
ATOM     33  C   UNL A   1      40.784  25.259  27.609  1.00  0.00    -0.014 A 
BRANCH  33  34
ATOM     34  C   UNL A   1      41.454  26.561  27.848  1.00  0.00     0.031 A 
ATOM     35  C   UNL A   1      42.834  26.778  27.287  1.00  0.00     0.074 A 
ATOM     36  C   UNL A   1      40.828  27.548  28.513  1.00  0.00     0.049 A 
ATOM     37  N   UNL A   1      43.612  27.825  27.375  1.00  0.00    -0.248 NA
ATOM     38  C   UNL A   1      43.411  25.660  26.525  1.00  0.00     0.031 C 
ATOM     39  C   UNL A   1      39.476  27.470  29.063  1.00  0.00     0.029 A 
ATOM     40  N   UNL A   1      41.250  28.813  28.838  1.00  0.00    -0.354 N 
ATOM     41  C   UNL A   1      44.769  27.497  26.677  1.00  0.00     0.074 A 
ATOM     42  C   UNL A   1      44.604  26.137  26.206  1.00  0.00     0.031 C 
ATOM     43  C   UNL A   1      39.184  28.634  29.668  1.00  0.00     0.029 A 
ATOM     44  C   UNL A   1      40.337  29.528  29.576  1.00  0.00     0.049 A 
ATOM     45  H   UNL A   1      42.126  29.174  28.568  1.00  0.00     0.167 HD
ATOM     46  C   UNL A   1      45.865  28.261  26.443  1.00  0.00     0.034 A 
ATOM     47  C   UNL A   1      40.432  30.753  30.132  1.00  0.00     0.034 A 
ATOM     48  C   UNL A   1      46.024  29.608  26.933  1.00  0.00     0.049 A 
ATOM     49  C   UNL A   1      41.699  31.552  29.936  1.00  0.00     0.074 A 
ATOM     50  C   UNL A   1      47.086  30.475  26.744  1.00  0.00     0.029 A 
ATOM     51  N   UNL A   1      45.100  30.280  27.722  1.00  0.00    -0.354 N 
ATOM     52  N   UNL A   1      42.782  31.233  29.263  1.00  0.00    -0.248 NA
ATOM     53  C   UNL A   1      41.752  32.876  30.567  1.00  0.00     0.031 C 
ATOM     54  C   UNL A   1      46.834  31.643  27.472  1.00  0.00     0.029 A 
ATOM     55  C   UNL A   1      45.583  31.536  28.058  1.00  0.00     0.049 A 
ATOM     56  H   UNL A   1      44.229  29.917  28.003  1.00  0.00     0.167 HD
ATOM     57  C   UNL A   1      43.632  32.330  29.371  1.00  0.00     0.074 A 
ATOM     58  C   UNL A   1      42.932  33.323  30.161  1.00  0.00     0.031 C 
ATOM     59  C   UNL A   1      44.878  32.507  28.860  1.00  0.00     0.034 A 
BRANCH  46  60
ATOM     60  C   UNL A   1      46.992  27.629  25.666  1.00  0.00     0.023 A 
ATOM     61  C   UNL A   1      47.250  27.970  24.326  1.00  0.00     0.031 A 
ATOM     62  C   UNL A   1      47.801  26.646  26.264  1.00  0.00     0.131 A 
ATOM     63  C   UNL A   1      48.245  27.288  23.610  1.00  0.00     0.055 A 
ATOM     64  C   UNL A   1      48.837  26.023  25.567  1.00  0.00     0.041 A 
ATOM     65  F   UNL A   1      47.587  26.265  27.532  1.00  0.00    -0.206 F 
ATOM     66  C   UNL A   1      49.055  26.332  24.228  1.00  0.00     0.022 A 
BRANCH  63  67
ATOM     67  S   UNL A   1      48.381  27.573  21.824  1.00  0.00     0.124 S 
ATOM     68  O   UNL A   1      47.081  28.166  21.519  1.00  0.00    -0.237 OA
ATOM     69  O   UNL A   1      49.530  28.467  21.734  1.00  0.00    -0.237 OA
ATOM     70  O   UNL A   1      48.589  26.233  21.278  1.00  0.00    -0.744 OA
ENDBRANCH  63  67
ENDBRANCH  46  60
BRANCH  47  71
ATOM     71  C   UNL A   1      39.324  31.290  30.972  1.00  0.00     0.023 A 
ATOM     72  C   UNL A   1      39.403  31.285  32.374  1.00  0.00     0.031 A 
ATOM     73  C   UNL A   1      38.139  31.763  30.379  1.00  0.00     0.131 A 
ATOM     74  C   UNL A   1      38.299  31.699  33.137  1.00  0.00     0.055 A 
ATOM     75  C   UNL A   1      37.063  32.220  31.142  1.00  0.00     0.041 A 
ATOM     76  F   UNL A   1      38.012  31.785  29.043  1.00  0.00    -0.206 F 
ATOM     77  C   UNL A   1      37.135  32.177  32.531  1.00  0.00     0.022 A 
BRANCH  74  78
ATOM     78  S   UNL A   1      38.374  31.523  34.941  1.00  0.00     0.124 S 
ATOM     79  O   UNL A   1      39.596  32.251  35.261  1.00  0.00    -0.237 OA
ATOM     80  O   UNL A   1      37.125  32.148  35.360  1.00  0.00    -0.237 OA
ATOM     81  O   UNL A   1      38.441  30.075  35.139  1.00  0.00    -0.744 OA
ENDBRANCH  74  78
ENDBRANCH  47  71
BRANCH  59  82
ATOM     82  C   UNL A   1      45.540  33.840  29.112  1.00  0.00     0.023 A 
ATOM     83  C   UNL A   1      45.440  34.900  28.195  1.00  0.00     0.031 A 
ATOM     84  C   UNL A   1      46.290  34.044  30.283  1.00  0.00     0.131 A 
ATOM     85  C   UNL A   1      46.120  36.102  28.441  1.00  0.00     0.055 A 
ATOM     86  C   UNL A   1      46.922  35.260  30.548  1.00  0.00     0.041 A 
ATOM     87  F   UNL A   1      46.420  33.064  31.192  1.00  0.00    -0.206 F 
ATOM     88  C   UNL A   1      46.848  36.294  29.618  1.00  0.00     0.022 A 
BRANCH  85  89
ATOM     89  S   UNL A   1      46.107  37.390  27.164  1.00  0.00     0.124 S 
ATOM     90  O   UNL A   1      44.710  37.809  27.168  1.00  0.00    -0.237 OA
ATOM     91  O   UNL A   1      47.065  38.359  27.687  1.00  0.00    -0.237 OA
ATOM     92  O   UNL A   1      46.539  36.684  25.959  1.00  0.00    -0.744 OA
ENDBRANCH  85  89
ENDBRANCH  59  82
ENDBRANCH  33  34
ENDBRANCH  26  28
ENDBRANCH  25  26
ENDBRANCH  24  25
ENDBRANCH   1  24
TORSDOF 19
ENDMDL
MODEL 3
REMARK VINA RESULT:     -10.9      4.735      7.884
REMARK SMILES Cn1ncc(C(=O)OCCOCCOC(=O)c2ccc(-c3c4nc(c(-c5cc(S(=O)(=O)[O-])ccc5F)c5ccc([nH]5)c(-c5cc(S(=O)(=O)[O-])ccc5F)c5nc(c(-c6cc(S(=O)(=O)[O-])ccc6F)c6ccc3[nH]6)C=C5)C=C4)cc2)c1C(=O)Nc1ccccn1
REMARK SMILES IDX 12 1 11 2 10 3 9 4 8 5 6 6 7 7 5 8 1 9 2 10 3 11 80 12 4 13
REMARK SMILES IDX 81 14 82 15 83 16 84 18 85 19 89 20 86 21 88 22 87 23 13 24
REMARK SMILES IDX 14 25 15 26 16 27 17 28 18 29 79 30 19 31 78 32 20 33 21 34
REMARK SMILES IDX 22 35 72 36 23 37 77 38 71 39 73 40 24 41 76 42 70 43 69 44
REMARK SMILES IDX 25 46 57 47 37 48 56 49 38 50 41 51 55 52 74 53 39 54 40 55
REMARK SMILES IDX 54 57 75 58 42 59 26 60 27 61 35 62 28 63 34 64 36 65 33 66
REMARK SMILES IDX 29 67 30 68 31 69 32 70 58 71 59 72 67 73 60 74 66 75 68 76
REMARK SMILES IDX 65 77 61 78 62 79 63 80 64 81 43 82 44 83 52 84 45 85 51 86
REMARK SMILES IDX 53 87 50 88 46 89 47 90 48 91 49 92
REMARK H PARENT 83 17 73 45 41 56
REMARK Flexibility Score: inf
ROOT
ATOM      1  C   UNL A   1      31.567  28.911  25.147  1.00  0.00     0.202 C 
ENDROOT
BRANCH   1   2
ATOM      2  O   UNL A   1      32.607  28.379  24.322  1.00  0.00    -0.374 OA
BRANCH   2   3
ATOM      3  C   UNL A   1      33.441  27.378  24.913  1.00  0.00     0.202 C 
BRANCH   3   4
ATOM      4  C   UNL A   1      33.532  26.078  24.114  1.00  0.00     0.261 C 
BRANCH   4   5
ATOM      5  O   UNL A   1      34.221  25.086  24.891  1.00  0.00    -0.460 OA
BRANCH   5   6
ATOM      6  C   UNL A   1      34.147  23.819  24.416  1.00  0.00     0.342 C 
ATOM      7  O   UNL A   1      33.313  23.420  23.610  1.00  0.00    -0.246 OA
BRANCH   6   8
ATOM      8  C   UNL A   1      35.267  22.979  24.799  1.00  0.00     0.111 A 
ATOM      9  C   UNL A   1      36.881  19.914  25.000  1.00  0.00     0.174 C 
ATOM     10  N   UNL A   1      36.554  21.302  25.246  1.00  0.00    -0.262 N 
ATOM     11  N   UNL A   1      37.400  22.204  24.702  1.00  0.00    -0.180 NA
ATOM     12  C   UNL A   1      35.345  21.852  25.634  1.00  0.00     0.140 A 
ATOM     13  C   UNL A   1      36.574  23.166  24.303  1.00  0.00     0.151 A 
BRANCH  12  14
ATOM     14  C   UNL A   1      34.284  21.303  26.461  1.00  0.00     0.275 C 
ATOM     15  O   UNL A   1      34.132  21.685  27.624  1.00  0.00    -0.267 OA
ATOM     16  N   UNL A   1      33.327  20.427  26.019  1.00  0.00    -0.305 N 
ATOM     17  H   UNL A   1      32.600  20.308  26.672  1.00  0.00     0.171 HD
BRANCH  16  18
ATOM     18  C   UNL A   1      33.137  19.671  24.876  1.00  0.00     0.132 A 
ATOM     19  C   UNL A   1      32.359  20.064  23.798  1.00  0.00     0.047 A 
ATOM     20  N   UNL A   1      33.762  18.477  24.928  1.00  0.00    -0.239 NA
ATOM     21  C   UNL A   1      32.153  19.143  22.767  1.00  0.00     0.005 A 
ATOM     22  C   UNL A   1      33.523  17.595  23.937  1.00  0.00     0.113 A 
ATOM     23  C   UNL A   1      32.719  17.874  22.850  1.00  0.00     0.020 A 
ENDBRANCH  16  18
ENDBRANCH  12  14
ENDBRANCH   6   8
ENDBRANCH   5   6
ENDBRANCH   4   5
ENDBRANCH   3   4
ENDBRANCH   2   3
ENDBRANCH   1   2
BRANCH   1  24
ATOM     24  C   UNL A   1      31.750  30.367  25.588  1.00  0.00     0.261 C 
BRANCH  24  25
ATOM     25  O   UNL A   1      32.286  30.444  26.922  1.00  0.00    -0.460 OA
BRANCH  25  26
ATOM     26  C   UNL A   1      32.956  31.589  27.201  1.00  0.00     0.338 C 
ATOM     27  O   UNL A   1      32.501  32.720  27.188  1.00  0.00    -0.246 OA
BRANCH  26  28
ATOM     28  C   UNL A   1      34.301  31.272  27.726  1.00  0.00     0.060 A 
ATOM     29  C   UNL A   1      34.590  29.924  27.974  1.00  0.00     0.016 A 
ATOM     30  C   UNL A   1      35.246  32.260  28.014  1.00  0.00     0.016 A 
ATOM     31  C   UNL A   1      35.802  29.562  28.559  1.00  0.00     0.010 A 
ATOM     32  C   UNL A   1      36.459  31.897  28.612  1.00  0.00     0.010 A 
ATOM     33  C   UNL A   1      36.727  30.550  28.917  1.00  0.00    -0.014 A 
BRANCH  33  34
ATOM     34  C   UNL A   1      37.896  30.180  29.753  1.00  0.00     0.031 A 
ATOM     35  C   UNL A   1      38.899  29.203  29.200  1.00  0.00     0.074 A 
ATOM     36  C   UNL A   1      38.085  30.737  30.962  1.00  0.00     0.049 A 
ATOM     37  N   UNL A   1      39.988  28.729  29.749  1.00  0.00    -0.248 NA
ATOM     38  C   UNL A   1      38.636  28.694  27.846  1.00  0.00     0.031 C 
ATOM     39  C   UNL A   1      37.206  31.727  31.582  1.00  0.00     0.029 A 
ATOM     40  N   UNL A   1      39.082  30.548  31.886  1.00  0.00    -0.354 N 
ATOM     41  C   UNL A   1      40.543  27.869  28.808  1.00  0.00     0.074 A 
ATOM     42  C   UNL A   1      39.648  27.859  27.669  1.00  0.00     0.031 C 
ATOM     43  C   UNL A   1      37.698  32.049  32.791  1.00  0.00     0.029 A 
ATOM     44  C   UNL A   1      38.907  31.268  33.044  1.00  0.00     0.049 A 
ATOM     45  H   UNL A   1      39.851  29.951  31.734  1.00  0.00     0.167 HD
ATOM     46  C   UNL A   1      41.696  27.160  28.882  1.00  0.00     0.034 A 
ATOM     47  C   UNL A   1      39.628  31.277  34.183  1.00  0.00     0.034 A 
ATOM     48  C   UNL A   1      42.570  27.166  30.028  1.00  0.00     0.049 A 
ATOM     49  C   UNL A   1      40.861  30.410  34.278  1.00  0.00     0.074 A 
ATOM     50  C   UNL A   1      43.769  26.495  30.205  1.00  0.00     0.029 A 
ATOM     51  N   UNL A   1      42.333  27.867  31.204  1.00  0.00    -0.354 N 
ATOM     52  N   UNL A   1      41.381  29.609  33.376  1.00  0.00    -0.248 NA
ATOM     53  C   UNL A   1      41.606  30.453  35.543  1.00  0.00     0.031 C 
ATOM     54  C   UNL A   1      44.220  26.739  31.507  1.00  0.00     0.029 A 
ATOM     55  C   UNL A   1      43.342  27.618  32.121  1.00  0.00     0.049 A 
ATOM     56  H   UNL A   1      41.560  28.456  31.363  1.00  0.00     0.167 HD
ATOM     57  C   UNL A   1      42.528  29.075  33.957  1.00  0.00     0.074 A 
ATOM     58  C   UNL A   1      42.630  29.654  35.282  1.00  0.00     0.031 C 
ATOM     59  C   UNL A   1      43.421  28.191  33.444  1.00  0.00     0.034 A 
BRANCH  46  60
ATOM     60  C   UNL A   1      42.042  26.282  27.705  1.00  0.00     0.023 A 
ATOM     61  C   UNL A   1      41.607  24.947  27.625  1.00  0.00     0.031 A 
ATOM     62  C   UNL A   1      42.845  26.778  26.664  1.00  0.00     0.131 A 
ATOM     63  C   UNL A   1      42.033  24.136  26.562  1.00  0.00     0.055 A 
ATOM     64  C   UNL A   1      43.206  25.987  25.572  1.00  0.00     0.041 A 
ATOM     65  F   UNL A   1      43.308  28.037  26.698  1.00  0.00    -0.206 F 
ATOM     66  C   UNL A   1      42.811  24.653  25.523  1.00  0.00     0.022 A 
BRANCH  63  67
ATOM     67  S   UNL A   1      41.663  22.361  26.621  1.00  0.00     0.124 S 
ATOM     68  O   UNL A   1      42.300  21.885  25.395  1.00  0.00    -0.237 OA
ATOM     69  O   UNL A   1      42.293  21.949  27.871  1.00  0.00    -0.237 OA
ATOM     70  O   UNL A   1      40.202  22.314  26.613  1.00  0.00    -0.744 OA
ENDBRANCH  63  67
ENDBRANCH  46  60
BRANCH  47  71
ATOM     71  C   UNL A   1      39.187  32.091  35.351  1.00  0.00     0.023 A 
ATOM     72  C   UNL A   1      39.640  33.408  35.536  1.00  0.00     0.031 A 
ATOM     73  C   UNL A   1      38.350  31.537  36.337  1.00  0.00     0.131 A 
ATOM     74  C   UNL A   1      39.291  34.109  36.702  1.00  0.00     0.055 A 
ATOM     75  C   UNL A   1      37.966  32.256  37.469  1.00  0.00     0.041 A 
ATOM     76  F   UNL A   1      37.893  30.281  36.210  1.00  0.00    -0.206 F 
ATOM     77  C   UNL A   1      38.448  33.547  37.663  1.00  0.00     0.022 A 
BRANCH  74  78
ATOM     78  S   UNL A   1      40.027  35.743  36.985  1.00  0.00     0.124 S 
ATOM     79  O   UNL A   1      39.656  36.453  35.766  1.00  0.00    -0.237 OA
ATOM     80  O   UNL A   1      39.355  36.170  38.207  1.00  0.00    -0.237 OA
ATOM     81  O   UNL A   1      41.453  35.454  37.129  1.00  0.00    -0.744 OA
ENDBRANCH  74  78
ENDBRANCH  47  71
BRANCH  59  82
ATOM     82  C   UNL A   1      44.604  27.830  34.308  1.00  0.00     0.023 A 
ATOM     83  C   UNL A   1      44.568  26.738  35.193  1.00  0.00     0.031 A 
ATOM     84  C   UNL A   1      45.779  28.599  34.252  1.00  0.00     0.131 A 
ATOM     85  C   UNL A   1      45.668  26.475  36.022  1.00  0.00     0.055 A 
ATOM     86  C   UNL A   1      46.891  28.301  35.040  1.00  0.00     0.041 A 
ATOM     87  F   UNL A   1      45.867  29.654  33.426  1.00  0.00    -0.206 F 
ATOM     88  C   UNL A   1      46.835  27.239  35.940  1.00  0.00     0.022 A 
BRANCH  85  89
ATOM     89  S   UNL A   1      45.530  25.163  37.267  1.00  0.00     0.124 S 
ATOM     90  O   UNL A   1      44.752  25.818  38.314  1.00  0.00    -0.237 OA
ATOM     91  O   UNL A   1      44.844  24.105  36.532  1.00  0.00    -0.237 OA
ATOM     92  O   UNL A   1      46.919  24.873  37.617  1.00  0.00    -0.744 OA
ENDBRANCH  85  89
ENDBRANCH  59  82
ENDBRANCH  33  34
ENDBRANCH  26  28
ENDBRANCH  25  26
ENDBRANCH  24  25
ENDBRANCH   1  24
TORSDOF 19
ENDMDL
