MODEL 1
REMARK VINA RESULT:     -10.9      0.000      0.000
REMARK SMILES O=C(OCCOCCOC(=O)c1cc([C@@H]2C=NN=C2c2ccc(F)cc2)c2c(ccc3ccccc32)n1)c1ccc(-c2c3nc(c(-c4cc(S(=O)(=O)[O-])ccc4F)c4ccc([nH]4)c(-c4cc(S(=O)(=O)[O-])ccc4F)c4nc(c(-c5cc(S(=O)(=O)[O-])ccc5F)c5ccc2[nH]5)C=C4)C=C3)cc1
REMARK SMILES IDX 5 1 4 2 3 3 2 4 1 5 38 6 39 7 100 8 40 9 99 10 41 11 42 12
REMARK SMILES IDX 43 13 93 14 44 15 98 16 92 17 94 18 45 19 97 20 91 21 90 22
REMARK SMILES IDX 46 24 78 25 58 26 77 27 59 28 62 29 76 30 95 31 60 32 61 33
REMARK SMILES IDX 75 35 96 36 63 37 47 38 48 39 56 40 49 41 55 42 57 43 54 44
REMARK SMILES IDX 50 45 51 46 52 47 53 48 79 49 80 50 88 51 81 52 87 53 89 54
REMARK SMILES IDX 86 55 82 56 83 57 84 58 85 59 64 60 65 61 73 62 66 63 72 64
REMARK SMILES IDX 74 65 71 66 67 67 68 68 69 69 70 70 6 71 7 72 8 73 9 74
REMARK SMILES IDX 10 75 11 76 12 77 13 78 37 79 14 80 28 81 27 82 29 83 36 84
REMARK SMILES IDX 30 85 31 86 35 87 32 88 34 89 33 90 15 91 16 92 19 93 17 94
REMARK SMILES IDX 18 95 20 96 21 97 26 98 22 99 25 100 23 101 24 102
REMARK H PARENT 94 23 62 34
REMARK Flexibility Score: inf
ROOT
ATOM      1  C   UNL A   1      40.136  20.408  26.125  1.00  0.00     0.202 C 
ENDROOT
BRANCH   1   2
ATOM      2  C   UNL A   1      40.426  21.498  27.158  1.00  0.00     0.261 C 
BRANCH   2   3
ATOM      3  O   UNL A   1      40.602  22.791  26.550  1.00  0.00    -0.460 OA
BRANCH   3   4
ATOM      4  C   UNL A   1      39.914  23.897  26.910  1.00  0.00     0.338 C 
ATOM      5  O   UNL A   1      38.703  23.839  27.107  1.00  0.00    -0.246 OA
BRANCH   4   6
ATOM      6  C   UNL A   1      40.671  25.122  27.277  1.00  0.00     0.060 A 
ATOM      7  C   UNL A   1      41.480  25.252  28.408  1.00  0.00     0.016 A 
ATOM      8  C   UNL A   1      40.411  26.246  26.486  1.00  0.00     0.016 A 
ATOM      9  C   UNL A   1      41.676  26.490  28.964  1.00  0.00     0.010 A 
ATOM     10  C   UNL A   1      40.700  27.496  26.982  1.00  0.00     0.010 A 
ATOM     11  C   UNL A   1      41.189  27.592  28.282  1.00  0.00    -0.014 A 
BRANCH  11  12
ATOM     12  C   UNL A   1      41.270  28.875  28.943  1.00  0.00     0.031 A 
ATOM     13  C   UNL A   1      42.417  29.706  28.481  1.00  0.00     0.074 A 
ATOM     14  C   UNL A   1      40.280  29.232  29.785  1.00  0.00     0.049 A 
ATOM     15  N   UNL A   1      43.339  30.272  29.187  1.00  0.00    -0.248 NA
ATOM     16  C   UNL A   1      42.664  29.770  27.025  1.00  0.00     0.031 C 
ATOM     17  C   UNL A   1      39.047  28.499  30.104  1.00  0.00     0.029 A 
ATOM     18  N   UNL A   1      40.086  30.408  30.424  1.00  0.00    -0.354 N 
ATOM     19  C   UNL A   1      44.148  30.948  28.278  1.00  0.00     0.074 A 
ATOM     20  C   UNL A   1      43.798  30.466  26.969  1.00  0.00     0.031 C 
ATOM     21  C   UNL A   1      38.137  29.357  30.616  1.00  0.00     0.029 A 
ATOM     22  C   UNL A   1      38.763  30.655  30.781  1.00  0.00     0.049 A 
ATOM     23  H   UNL A   1      40.818  31.036  30.622  1.00  0.00     0.167 HD
ATOM     24  C   UNL A   1      44.889  32.029  28.638  1.00  0.00     0.034 A 
ATOM     25  C   UNL A   1      38.233  31.881  31.047  1.00  0.00     0.034 A 
ATOM     26  C   UNL A   1      45.109  32.076  30.058  1.00  0.00     0.049 A 
ATOM     27  C   UNL A   1      39.392  32.760  31.380  1.00  0.00     0.074 A 
ATOM     28  C   UNL A   1      45.770  31.245  30.944  1.00  0.00     0.029 A 
ATOM     29  N   UNL A   1      44.250  32.830  30.823  1.00  0.00    -0.354 N 
ATOM     30  N   UNL A   1      40.167  32.553  32.414  1.00  0.00    -0.248 NA
ATOM     31  C   UNL A   1      40.004  33.506  30.287  1.00  0.00     0.031 C 
ATOM     32  C   UNL A   1      44.917  31.179  32.085  1.00  0.00     0.029 A 
ATOM     33  C   UNL A   1      43.839  32.042  31.875  1.00  0.00     0.049 A 
ATOM     34  H   UNL A   1      43.980  33.761  30.652  1.00  0.00     0.167 HD
ATOM     35  C   UNL A   1      41.458  32.768  31.948  1.00  0.00     0.074 A 
ATOM     36  C   UNL A   1      41.289  33.403  30.641  1.00  0.00     0.031 C 
ATOM     37  C   UNL A   1      42.537  32.143  32.509  1.00  0.00     0.034 A 
BRANCH  24  38
ATOM     38  C   UNL A   1      45.131  33.192  27.719  1.00  0.00     0.023 A 
ATOM     39  C   UNL A   1      46.432  33.454  27.261  1.00  0.00     0.031 A 
ATOM     40  C   UNL A   1      44.164  34.199  27.477  1.00  0.00     0.131 A 
ATOM     41  C   UNL A   1      46.727  34.672  26.618  1.00  0.00     0.055 A 
ATOM     42  C   UNL A   1      44.448  35.378  26.790  1.00  0.00     0.041 A 
ATOM     43  F   UNL A   1      42.923  34.129  27.978  1.00  0.00    -0.206 F 
ATOM     44  C   UNL A   1      45.742  35.629  26.371  1.00  0.00     0.022 A 
BRANCH  41  45
ATOM     45  S   UNL A   1      48.451  35.046  26.204  1.00  0.00     0.124 S 
ATOM     46  O   UNL A   1      48.534  36.469  26.509  1.00  0.00    -0.237 OA
ATOM     47  O   UNL A   1      49.178  34.152  27.100  1.00  0.00    -0.237 OA
ATOM     48  O   UNL A   1      48.541  34.707  24.785  1.00  0.00    -0.744 OA
ENDBRANCH  41  45
ENDBRANCH  24  38
BRANCH  25  49
ATOM     49  C   UNL A   1      36.914  32.398  30.566  1.00  0.00     0.023 A 
ATOM     50  C   UNL A   1      36.027  33.106  31.407  1.00  0.00     0.031 A 
ATOM     51  C   UNL A   1      36.605  32.412  29.184  1.00  0.00     0.131 A 
ATOM     52  C   UNL A   1      34.902  33.778  30.865  1.00  0.00     0.055 A 
ATOM     53  C   UNL A   1      35.492  33.072  28.656  1.00  0.00     0.041 A 
ATOM     54  F   UNL A   1      37.425  31.859  28.277  1.00  0.00    -0.206 F 
ATOM     55  C   UNL A   1      34.640  33.768  29.494  1.00  0.00     0.022 A 
BRANCH  52  56
ATOM     56  S   UNL A   1      33.813  34.781  31.929  1.00  0.00     0.124 S 
ATOM     57  O   UNL A   1      33.317  33.790  32.878  1.00  0.00    -0.237 OA
ATOM     58  O   UNL A   1      34.726  35.787  32.461  1.00  0.00    -0.237 OA
ATOM     59  O   UNL A   1      32.811  35.299  30.998  1.00  0.00    -0.744 OA
ENDBRANCH  52  56
ENDBRANCH  25  49
BRANCH  37  60
ATOM     60  C   UNL A   1      42.339  31.344  33.787  1.00  0.00     0.023 A 
ATOM     61  C   UNL A   1      42.059  29.956  33.854  1.00  0.00     0.031 A 
ATOM     62  C   UNL A   1      42.612  32.010  34.992  1.00  0.00     0.131 A 
ATOM     63  C   UNL A   1      42.063  29.295  35.104  1.00  0.00     0.055 A 
ATOM     64  C   UNL A   1      42.633  31.351  36.220  1.00  0.00     0.041 A 
ATOM     65  F   UNL A   1      42.917  33.319  34.989  1.00  0.00    -0.206 F 
ATOM     66  C   UNL A   1      42.356  29.990  36.281  1.00  0.00     0.022 A 
BRANCH  63  67
ATOM     67  S   UNL A   1      41.703  27.508  35.226  1.00  0.00     0.124 S 
ATOM     68  O   UNL A   1      41.150  27.367  36.568  1.00  0.00    -0.237 OA
ATOM     69  O   UNL A   1      40.771  27.293  34.122  1.00  0.00    -0.237 OA
ATOM     70  O   UNL A   1      43.013  26.880  35.039  1.00  0.00    -0.744 OA
ENDBRANCH  63  67
ENDBRANCH  37  60
ENDBRANCH  11  12
ENDBRANCH   4   6
ENDBRANCH   3   4
ENDBRANCH   2   3
ENDBRANCH   1   2
BRANCH   1  71
ATOM     71  O   UNL A   1      41.128  19.433  25.807  1.00  0.00    -0.374 OA
BRANCH  71  72
ATOM     72  C   UNL A   1      42.486  19.682  26.205  1.00  0.00     0.202 C 
BRANCH  72  73
ATOM     73  C   UNL A   1      43.469  20.343  25.226  1.00  0.00     0.261 C 
BRANCH  73  74
ATOM     74  O   UNL A   1      43.218  21.745  25.062  1.00  0.00    -0.459 OA
BRANCH  74  75
ATOM     75  C   UNL A   1      44.301  22.465  24.662  1.00  0.00     0.357 C 
ATOM     76  O   UNL A   1      44.709  22.609  23.528  1.00  0.00    -0.244 OA
BRANCH  75  77
ATOM     77  C   UNL A   1      44.838  23.185  25.851  1.00  0.00     0.149 A 
ATOM     78  C   UNL A   1      45.548  24.335  25.666  1.00  0.00     0.041 A 
ATOM     79  N   UNL A   1      44.453  22.751  27.062  1.00  0.00    -0.241 NA
ATOM     80  C   UNL A   1      45.643  25.248  26.740  1.00  0.00    -0.021 A 
ATOM     81  C   UNL A   1      44.673  23.528  28.125  1.00  0.00     0.072 A 
ATOM     82  C   UNL A   1      45.171  24.863  28.072  1.00  0.00     0.012 A 
ATOM     83  C   UNL A   1      44.254  22.955  29.306  1.00  0.00     0.029 A 
ATOM     84  C   UNL A   1      45.021  25.642  29.319  1.00  0.00    -0.009 A 
ATOM     85  C   UNL A   1      44.198  23.671  30.489  1.00  0.00     0.011 A 
ATOM     86  C   UNL A   1      44.528  25.015  30.501  1.00  0.00    -0.018 A 
ATOM     87  C   UNL A   1      45.265  27.024  29.474  1.00  0.00     0.009 A 
ATOM     88  C   UNL A   1      44.315  25.729  31.696  1.00  0.00     0.009 A 
ATOM     89  C   UNL A   1      45.038  27.742  30.655  1.00  0.00     0.001 A 
ATOM     90  C   UNL A   1      44.560  27.092  31.773  1.00  0.00     0.001 A 
BRANCH  80  91
ATOM     91  C   UNL A   1      45.961  26.619  26.198  1.00  0.00     0.115 C 
ATOM     92  C   UNL A   1      45.238  27.200  25.050  1.00  0.00     0.123 C 
ATOM     93  C   UNL A   1      47.370  26.885  25.754  1.00  0.00     0.083 C 
ATOM     94  N   UNL A   1      46.029  27.834  24.243  1.00  0.00    -0.162 NA
ATOM     95  N   UNL A   1      47.392  27.637  24.690  1.00  0.00    -0.154 NA
BRANCH  93  96
ATOM     96  C   UNL A   1      48.574  26.487  26.529  1.00  0.00    -0.001 A 
ATOM     97  C   UNL A   1      49.660  25.948  25.833  1.00  0.00     0.013 A 
ATOM     98  C   UNL A   1      48.685  26.659  27.918  1.00  0.00     0.013 A 
ATOM     99  C   UNL A   1      50.848  25.649  26.510  1.00  0.00     0.040 A 
ATOM    100  C   UNL A   1      49.879  26.390  28.588  1.00  0.00     0.040 A 
ATOM    101  C   UNL A   1      50.953  25.890  27.876  1.00  0.00     0.123 A 
ATOM    102  F   UNL A   1      52.100  25.621  28.512  1.00  0.00    -0.207 F 
ENDBRANCH  93  96
ENDBRANCH  80  91
ENDBRANCH  75  77
ENDBRANCH  74  75
ENDBRANCH  73  74
ENDBRANCH  72  73
ENDBRANCH  71  72
ENDBRANCH   1  71
TORSDOF 19
ENDMDL
MODEL 2
REMARK VINA RESULT:     -10.7      2.962     10.736
REMARK SMILES O=C(OCCOCCOC(=O)c1cc([C@@H]2C=NN=C2c2ccc(F)cc2)c2c(ccc3ccccc32)n1)c1ccc(-c2c3nc(c(-c4cc(S(=O)(=O)[O-])ccc4F)c4ccc([nH]4)c(-c4cc(S(=O)(=O)[O-])ccc4F)c4nc(c(-c5cc(S(=O)(=O)[O-])ccc5F)c5ccc2[nH]5)C=C4)C=C3)cc1
REMARK SMILES IDX 5 1 4 2 3 3 2 4 1 5 38 6 39 7 100 8 40 9 99 10 41 11 42 12
REMARK SMILES IDX 43 13 93 14 44 15 98 16 92 17 94 18 45 19 97 20 91 21 90 22
REMARK SMILES IDX 46 24 78 25 58 26 77 27 59 28 62 29 76 30 95 31 60 32 61 33
REMARK SMILES IDX 75 35 96 36 63 37 47 38 48 39 56 40 49 41 55 42 57 43 54 44
REMARK SMILES IDX 50 45 51 46 52 47 53 48 79 49 80 50 88 51 81 52 87 53 89 54
REMARK SMILES IDX 86 55 82 56 83 57 84 58 85 59 64 60 65 61 73 62 66 63 72 64
REMARK SMILES IDX 74 65 71 66 67 67 68 68 69 69 70 70 6 71 7 72 8 73 9 74
REMARK SMILES IDX 10 75 11 76 12 77 13 78 37 79 14 80 28 81 27 82 29 83 36 84
REMARK SMILES IDX 30 85 31 86 35 87 32 88 34 89 33 90 15 91 16 92 19 93 17 94
REMARK SMILES IDX 18 95 20 96 21 97 26 98 22 99 25 100 23 101 24 102
REMARK H PARENT 94 23 62 34
REMARK Flexibility Score: inf
ROOT
ATOM      1  C   UNL A   1      34.271  32.349  28.009  1.00  0.00     0.202 C 
ENDROOT
BRANCH   1   2
ATOM      2  C   UNL A   1      34.581  30.907  27.605  1.00  0.00     0.261 C 
BRANCH   2   3
ATOM      3  O   UNL A   1      35.992  30.622  27.650  1.00  0.00    -0.460 OA
BRANCH   3   4
ATOM      4  C   UNL A   1      36.599  29.965  28.663  1.00  0.00     0.338 C 
ATOM      5  O   UNL A   1      36.105  29.964  29.788  1.00  0.00    -0.246 OA
BRANCH   4   6
ATOM      6  C   UNL A   1      37.743  29.070  28.351  1.00  0.00     0.060 A 
ATOM      7  C   UNL A   1      38.018  27.867  29.005  1.00  0.00     0.016 A 
ATOM      8  C   UNL A   1      38.667  29.578  27.431  1.00  0.00     0.016 A 
ATOM      9  C   UNL A   1      39.308  27.407  29.067  1.00  0.00     0.010 A 
ATOM     10  C   UNL A   1      39.940  29.057  27.402  1.00  0.00     0.010 A 
ATOM     11  C   UNL A   1      40.272  28.079  28.335  1.00  0.00    -0.014 A 
BRANCH  11  12
ATOM     12  C   UNL A   1      41.649  27.679  28.520  1.00  0.00     0.031 A 
ATOM     13  C   UNL A   1      41.986  26.392  27.851  1.00  0.00     0.074 A 
ATOM     14  C   UNL A   1      42.490  28.526  29.147  1.00  0.00     0.049 A 
ATOM     15  N   UNL A   1      42.531  25.337  28.358  1.00  0.00    -0.248 NA
ATOM     16  C   UNL A   1      41.490  26.195  26.472  1.00  0.00     0.031 C 
ATOM     17  C   UNL A   1      42.213  29.880  29.646  1.00  0.00     0.029 A 
ATOM     18  N   UNL A   1      43.825  28.419  29.338  1.00  0.00    -0.354 N 
ATOM     19  C   UNL A   1      42.651  24.431  27.307  1.00  0.00     0.074 A 
ATOM     20  C   UNL A   1      41.845  24.935  26.229  1.00  0.00     0.031 C 
ATOM     21  C   UNL A   1      43.379  30.548  29.795  1.00  0.00     0.029 A 
ATOM     22  C   UNL A   1      44.475  29.634  29.533  1.00  0.00     0.049 A 
ATOM     23  H   UNL A   1      44.296  27.555  29.339  1.00  0.00     0.167 HD
ATOM     24  C   UNL A   1      43.590  23.448  27.307  1.00  0.00     0.034 A 
ATOM     25  C   UNL A   1      45.805  29.858  29.341  1.00  0.00     0.034 A 
ATOM     26  C   UNL A   1      44.068  23.166  28.633  1.00  0.00     0.049 A 
ATOM     27  C   UNL A   1      46.453  28.516  29.402  1.00  0.00     0.074 A 
ATOM     28  C   UNL A   1      43.463  22.678  29.776  1.00  0.00     0.029 A 
ATOM     29  N   UNL A   1      45.214  23.798  29.058  1.00  0.00    -0.354 N 
ATOM     30  N   UNL A   1      46.441  27.767  30.475  1.00  0.00    -0.248 NA
ATOM     31  C   UNL A   1      46.620  27.794  28.146  1.00  0.00     0.031 C 
ATOM     32  C   UNL A   1      43.988  23.477  30.834  1.00  0.00     0.029 A 
ATOM     33  C   UNL A   1      44.950  24.336  30.297  1.00  0.00     0.049 A 
ATOM     34  H   UNL A   1      46.066  23.853  28.567  1.00  0.00     0.167 HD
ATOM     35  C   UNL A   1      46.182  26.482  30.018  1.00  0.00     0.074 A 
ATOM     36  C   UNL A   1      46.352  26.553  28.567  1.00  0.00     0.031 C 
ATOM     37  C   UNL A   1      45.557  25.553  30.803  1.00  0.00     0.034 A 
BRANCH  24  38
ATOM     38  C   UNL A   1      44.279  22.983  26.056  1.00  0.00     0.023 A 
ATOM     39  C   UNL A   1      44.092  21.665  25.611  1.00  0.00     0.031 A 
ATOM     40  C   UNL A   1      45.312  23.719  25.425  1.00  0.00     0.131 A 
ATOM     41  C   UNL A   1      44.919  21.131  24.604  1.00  0.00     0.055 A 
ATOM     42  C   UNL A   1      46.089  23.206  24.389  1.00  0.00     0.041 A 
ATOM     43  F   UNL A   1      45.677  24.939  25.846  1.00  0.00    -0.206 F 
ATOM     44  C   UNL A   1      45.907  21.896  23.983  1.00  0.00     0.022 A 
BRANCH  41  45
ATOM     45  S   UNL A   1      44.763  19.375  24.185  1.00  0.00     0.124 S 
ATOM     46  O   UNL A   1      46.068  18.854  24.574  1.00  0.00    -0.237 OA
ATOM     47  O   UNL A   1      43.633  18.965  25.014  1.00  0.00    -0.237 OA
ATOM     48  O   UNL A   1      44.503  19.389  22.747  1.00  0.00    -0.744 OA
ENDBRANCH  41  45
ENDBRANCH  24  38
BRANCH  25  49
ATOM     49  C   UNL A   1      46.414  31.041  28.657  1.00  0.00     0.023 A 
ATOM     50  C   UNL A   1      45.779  31.702  27.582  1.00  0.00     0.031 A 
ATOM     51  C   UNL A   1      47.537  31.698  29.216  1.00  0.00     0.131 A 
ATOM     52  C   UNL A   1      46.267  32.949  27.114  1.00  0.00     0.055 A 
ATOM     53  C   UNL A   1      48.017  32.924  28.748  1.00  0.00     0.041 A 
ATOM     54  F   UNL A   1      48.162  31.218  30.301  1.00  0.00    -0.206 F 
ATOM     55  C   UNL A   1      47.377  33.561  27.700  1.00  0.00     0.022 A 
BRANCH  52  56
ATOM     56  S   UNL A   1      45.392  33.858  25.799  1.00  0.00     0.124 S 
ATOM     57  O   UNL A   1      44.790  32.776  25.028  1.00  0.00    -0.237 OA
ATOM     58  O   UNL A   1      44.475  34.705  26.553  1.00  0.00    -0.237 OA
ATOM     59  O   UNL A   1      46.464  34.580  25.113  1.00  0.00    -0.744 OA
ENDBRANCH  52  56
ENDBRANCH  25  49
BRANCH  37  60
ATOM     60  C   UNL A   1      45.312  25.878  32.268  1.00  0.00     0.023 A 
ATOM     61  C   UNL A   1      44.062  26.240  32.832  1.00  0.00     0.031 A 
ATOM     62  C   UNL A   1      46.379  25.645  33.150  1.00  0.00     0.131 A 
ATOM     63  C   UNL A   1      43.928  26.353  34.236  1.00  0.00     0.055 A 
ATOM     64  C   UNL A   1      46.238  25.740  34.534  1.00  0.00     0.041 A 
ATOM     65  F   UNL A   1      47.579  25.266  32.677  1.00  0.00    -0.206 F 
ATOM     66  C   UNL A   1      45.011  26.097  35.082  1.00  0.00     0.022 A 
BRANCH  63  67
ATOM     67  S   UNL A   1      42.334  26.822  34.994  1.00  0.00     0.124 S 
ATOM     68  O   UNL A   1      41.670  27.579  33.940  1.00  0.00    -0.237 OA
ATOM     69  O   UNL A   1      41.744  25.528  35.325  1.00  0.00    -0.237 OA
ATOM     70  O   UNL A   1      42.729  27.619  36.159  1.00  0.00    -0.744 OA
ENDBRANCH  63  67
ENDBRANCH  37  60
ENDBRANCH  11  12
ENDBRANCH   4   6
ENDBRANCH   3   4
ENDBRANCH   2   3
ENDBRANCH   1   2
BRANCH   1  71
ATOM     71  O   UNL A   1      34.359  32.750  29.376  1.00  0.00    -0.374 OA
BRANCH  71  72
ATOM     72  C   UNL A   1      34.485  34.149  29.673  1.00  0.00     0.202 C 
BRANCH  72  73
ATOM     73  C   UNL A   1      33.841  34.732  30.942  1.00  0.00     0.261 C 
BRANCH  73  74
ATOM     74  O   UNL A   1      34.346  34.126  32.139  1.00  0.00    -0.459 OA
BRANCH  74  75
ATOM     75  C   UNL A   1      35.181  34.920  32.860  1.00  0.00     0.357 C 
ATOM     76  O   UNL A   1      35.140  36.129  32.961  1.00  0.00    -0.244 OA
BRANCH  75  77
ATOM     77  C   UNL A   1      36.092  34.038  33.642  1.00  0.00     0.149 A 
ATOM     78  C   UNL A   1      36.223  32.730  33.279  1.00  0.00     0.041 A 
ATOM     79  N   UNL A   1      36.870  34.621  34.570  1.00  0.00    -0.241 NA
ATOM     80  C   UNL A   1      37.387  32.035  33.677  1.00  0.00    -0.021 A 
ATOM     81  C   UNL A   1      37.889  33.929  35.083  1.00  0.00     0.072 A 
ATOM     82  C   UNL A   1      38.316  32.646  34.629  1.00  0.00     0.012 A 
ATOM     83  C   UNL A   1      38.589  34.631  36.040  1.00  0.00     0.029 A 
ATOM     84  C   UNL A   1      39.650  32.221  35.105  1.00  0.00    -0.009 A 
ATOM     85  C   UNL A   1      39.797  34.182  36.543  1.00  0.00     0.011 A 
ATOM     86  C   UNL A   1      40.359  33.014  36.054  1.00  0.00    -0.018 A 
ATOM     87  C   UNL A   1      40.371  31.091  34.665  1.00  0.00     0.009 A 
ATOM     88  C   UNL A   1      41.654  32.679  36.494  1.00  0.00     0.009 A 
ATOM     89  C   UNL A   1      41.666  30.763  35.085  1.00  0.00     0.001 A 
ATOM     90  C   UNL A   1      42.312  31.561  36.005  1.00  0.00     0.001 A 
BRANCH  80  91
ATOM     91  C   UNL A   1      37.597  30.856  32.759  1.00  0.00     0.115 C 
ATOM     92  C   UNL A   1      37.676  29.471  33.262  1.00  0.00     0.123 C 
ATOM     93  C   UNL A   1      38.811  30.862  31.879  1.00  0.00     0.083 C 
ATOM     94  N   UNL A   1      38.591  28.781  32.658  1.00  0.00    -0.162 NA
ATOM     95  N   UNL A   1      39.318  29.666  31.771  1.00  0.00    -0.154 NA
BRANCH  93  96
ATOM     96  C   UNL A   1      39.265  32.043  31.098  1.00  0.00    -0.001 A 
ATOM     97  C   UNL A   1      38.377  32.608  30.180  1.00  0.00     0.013 A 
ATOM     98  C   UNL A   1      40.526  32.635  31.265  1.00  0.00     0.013 A 
ATOM     99  C   UNL A   1      38.726  33.777  29.493  1.00  0.00     0.040 A 
ATOM    100  C   UNL A   1      40.865  33.817  30.605  1.00  0.00     0.040 A 
ATOM    101  C   UNL A   1      39.958  34.381  29.725  1.00  0.00     0.123 A 
ATOM    102  F   UNL A   1      40.278  35.510  29.081  1.00  0.00    -0.207 F 
ENDBRANCH  93  96
ENDBRANCH  80  91
ENDBRANCH  75  77
ENDBRANCH  74  75
ENDBRANCH  73  74
ENDBRANCH  72  73
ENDBRANCH  71  72
ENDBRANCH   1  71
TORSDOF 19
ENDMDL
MODEL 3
REMARK VINA RESULT:     -10.2      2.112      3.507
REMARK SMILES O=C(OCCOCCOC(=O)c1cc([C@@H]2C=NN=C2c2ccc(F)cc2)c2c(ccc3ccccc32)n1)c1ccc(-c2c3nc(c(-c4cc(S(=O)(=O)[O-])ccc4F)c4ccc([nH]4)c(-c4cc(S(=O)(=O)[O-])ccc4F)c4nc(c(-c5cc(S(=O)(=O)[O-])ccc5F)c5ccc2[nH]5)C=C4)C=C3)cc1
REMARK SMILES IDX 5 1 4 2 3 3 2 4 1 5 38 6 39 7 100 8 40 9 99 10 41 11 42 12
REMARK SMILES IDX 43 13 93 14 44 15 98 16 92 17 94 18 45 19 97 20 91 21 90 22
REMARK SMILES IDX 46 24 78 25 58 26 77 27 59 28 62 29 76 30 95 31 60 32 61 33
REMARK SMILES IDX 75 35 96 36 63 37 47 38 48 39 56 40 49 41 55 42 57 43 54 44
REMARK SMILES IDX 50 45 51 46 52 47 53 48 79 49 80 50 88 51 81 52 87 53 89 54
REMARK SMILES IDX 86 55 82 56 83 57 84 58 85 59 64 60 65 61 73 62 66 63 72 64
REMARK SMILES IDX 74 65 71 66 67 67 68 68 69 69 70 70 6 71 7 72 8 73 9 74
REMARK SMILES IDX 10 75 11 76 12 77 13 78 37 79 14 80 28 81 27 82 29 83 36 84
REMARK SMILES IDX 30 85 31 86 35 87 32 88 34 89 33 90 15 91 16 92 19 93 17 94
REMARK SMILES IDX 18 95 20 96 21 97 26 98 22 99 25 100 23 101 24 102
REMARK H PARENT 94 23 62 34
REMARK Flexibility Score: inf
ROOT
ATOM      1  C   UNL A   1      42.028  21.455  26.033  1.00  0.00     0.202 C 
ENDROOT
BRANCH   1   2
ATOM      2  C   UNL A   1      41.511  21.032  27.409  1.00  0.00     0.261 C 
BRANCH   2   3
ATOM      3  O   UNL A   1      40.423  21.861  27.860  1.00  0.00    -0.460 OA
BRANCH   3   4
ATOM      4  C   UNL A   1      39.997  22.968  27.212  1.00  0.00     0.338 C 
ATOM      5  O   UNL A   1      38.954  22.946  26.565  1.00  0.00    -0.246 OA
BRANCH   4   6
ATOM      6  C   UNL A   1      40.686  24.258  27.473  1.00  0.00     0.060 A 
ATOM      7  C   UNL A   1      41.808  24.414  28.291  1.00  0.00     0.016 A 
ATOM      8  C   UNL A   1      40.046  25.393  26.963  1.00  0.00     0.016 A 
ATOM      9  C   UNL A   1      42.035  25.615  28.911  1.00  0.00     0.010 A 
ATOM     10  C   UNL A   1      40.338  26.625  27.499  1.00  0.00     0.010 A 
ATOM     11  C   UNL A   1      41.222  26.684  28.573  1.00  0.00    -0.014 A 
BRANCH  11  12
ATOM     12  C   UNL A   1      41.372  27.903  29.334  1.00  0.00     0.031 A 
ATOM     13  C   UNL A   1      42.495  28.760  28.863  1.00  0.00     0.074 A 
ATOM     14  C   UNL A   1      40.451  28.196  30.275  1.00  0.00     0.049 A 
ATOM     15  N   UNL A   1      43.475  29.253  29.545  1.00  0.00    -0.248 NA
ATOM     16  C   UNL A   1      42.637  28.950  27.404  1.00  0.00     0.031 C 
ATOM     17  C   UNL A   1      39.233  27.449  30.619  1.00  0.00     0.029 A 
ATOM     18  N   UNL A   1      40.323  29.313  31.027  1.00  0.00    -0.354 N 
ATOM     19  C   UNL A   1      44.227  29.998  28.641  1.00  0.00     0.074 A 
ATOM     20  C   UNL A   1      43.776  29.636  27.325  1.00  0.00     0.031 C 
ATOM     21  C   UNL A   1      38.376  28.268  31.269  1.00  0.00     0.029 A 
ATOM     22  C   UNL A   1      39.034  29.541  31.500  1.00  0.00     0.049 A 
ATOM     23  H   UNL A   1      41.078  29.913  31.223  1.00  0.00     0.167 HD
ATOM     24  C   UNL A   1      45.010  31.036  29.038  1.00  0.00     0.034 A 
ATOM     25  C   UNL A   1      38.545  30.744  31.909  1.00  0.00     0.034 A 
ATOM     26  C   UNL A   1      45.333  30.956  30.437  1.00  0.00     0.049 A 
ATOM     27  C   UNL A   1      39.739  31.578  32.231  1.00  0.00     0.074 A 
ATOM     28  C   UNL A   1      46.043  30.045  31.196  1.00  0.00     0.029 A 
ATOM     29  N   UNL A   1      44.544  31.649  31.326  1.00  0.00    -0.354 N 
ATOM     30  N   UNL A   1      40.584  31.274  33.182  1.00  0.00    -0.248 NA
ATOM     31  C   UNL A   1      40.282  32.411  31.165  1.00  0.00     0.031 C 
ATOM     32  C   UNL A   1      45.274  29.887  32.387  1.00  0.00     0.029 A 
ATOM     33  C   UNL A   1      44.198  30.776  32.332  1.00  0.00     0.049 A 
ATOM     34  H   UNL A   1      44.278  32.594  31.256  1.00  0.00     0.167 HD
ATOM     35  C   UNL A   1      41.840  31.516  32.644  1.00  0.00     0.074 A 
ATOM     36  C   UNL A   1      41.588  32.265  31.412  1.00  0.00     0.031 C 
ATOM     37  C   UNL A   1      42.947  30.834  33.067  1.00  0.00     0.034 A 
BRANCH  24  38
ATOM     38  C   UNL A   1      45.203  32.273  28.208  1.00  0.00     0.023 A 
ATOM     39  C   UNL A   1      44.268  33.316  28.291  1.00  0.00     0.031 A 
ATOM     40  C   UNL A   1      46.143  32.353  27.151  1.00  0.00     0.131 A 
ATOM     41  C   UNL A   1      44.281  34.360  27.346  1.00  0.00     0.055 A 
ATOM     42  C   UNL A   1      46.189  33.417  26.253  1.00  0.00     0.041 A 
ATOM     43  F   UNL A   1      47.001  31.358  26.884  1.00  0.00    -0.206 F 
ATOM     44  C   UNL A   1      45.242  34.422  26.335  1.00  0.00     0.022 A 
BRANCH  41  45
ATOM     45  S   UNL A   1      42.950  35.589  27.381  1.00  0.00     0.124 S 
ATOM     46  O   UNL A   1      43.693  36.837  27.502  1.00  0.00    -0.237 OA
ATOM     47  O   UNL A   1      42.288  35.354  26.102  1.00  0.00    -0.237 OA
ATOM     48  O   UNL A   1      42.171  35.212  28.560  1.00  0.00    -0.744 OA
ENDBRANCH  41  45
ENDBRANCH  24  38
BRANCH  25  49
ATOM     49  C   UNL A   1      37.203  31.314  31.573  1.00  0.00     0.023 A 
ATOM     50  C   UNL A   1      36.412  31.998  32.524  1.00  0.00     0.031 A 
ATOM     51  C   UNL A   1      36.775  31.406  30.226  1.00  0.00     0.131 A 
ATOM     52  C   UNL A   1      35.263  32.721  32.117  1.00  0.00     0.055 A 
ATOM     53  C   UNL A   1      35.638  32.116  29.832  1.00  0.00     0.041 A 
ATOM     54  F   UNL A   1      37.496  30.882  29.224  1.00  0.00    -0.206 F 
ATOM     55  C   UNL A   1      34.881  32.787  30.776  1.00  0.00     0.022 A 
BRANCH  52  56
ATOM     56  S   UNL A   1      34.298  33.692  33.322  1.00  0.00     0.124 S 
ATOM     57  O   UNL A   1      35.064  33.503  34.549  1.00  0.00    -0.237 OA
ATOM     58  O   UNL A   1      34.321  35.030  32.744  1.00  0.00    -0.237 OA
ATOM     59  O   UNL A   1      32.986  33.044  33.308  1.00  0.00    -0.744 OA
ENDBRANCH  52  56
ENDBRANCH  25  49
BRANCH  37  60
ATOM     60  C   UNL A   1      42.829  29.928  34.282  1.00  0.00     0.023 A 
ATOM     61  C   UNL A   1      42.561  28.536  34.248  1.00  0.00     0.031 A 
ATOM     62  C   UNL A   1      43.171  30.493  35.522  1.00  0.00     0.131 A 
ATOM     63  C   UNL A   1      42.642  27.773  35.435  1.00  0.00     0.055 A 
ATOM     64  C   UNL A   1      43.268  29.732  36.686  1.00  0.00     0.041 A 
ATOM     65  F   UNL A   1      43.469  31.800  35.611  1.00  0.00    -0.206 F 
ATOM     66  C   UNL A   1      43.001  28.369  36.647  1.00  0.00     0.022 A 
BRANCH  63  67
ATOM     67  S   UNL A   1      42.298  25.978  35.426  1.00  0.00     0.124 S 
ATOM     68  O   UNL A   1      40.845  25.916  35.320  1.00  0.00    -0.237 OA
ATOM     69  O   UNL A   1      43.047  25.514  34.262  1.00  0.00    -0.237 OA
ATOM     70  O   UNL A   1      42.834  25.519  36.710  1.00  0.00    -0.744 OA
ENDBRANCH  63  67
ENDBRANCH  37  60
ENDBRANCH  11  12
ENDBRANCH   4   6
ENDBRANCH   3   4
ENDBRANCH   2   3
ENDBRANCH   1   2
BRANCH   1  71
ATOM     71  O   UNL A   1      43.406  21.291  25.699  1.00  0.00    -0.374 OA
BRANCH  71  72
ATOM     72  C   UNL A   1      44.203  22.466  25.482  1.00  0.00     0.202 C 
BRANCH  72  73
ATOM     73  C   UNL A   1      43.618  23.668  24.723  1.00  0.00     0.261 C 
BRANCH  73  74
ATOM     74  O   UNL A   1      43.176  24.709  25.605  1.00  0.00    -0.459 OA
BRANCH  74  75
ATOM     75  C   UNL A   1      43.447  25.968  25.166  1.00  0.00     0.357 C 
ATOM     76  O   UNL A   1      42.681  26.737  24.623  1.00  0.00    -0.244 OA
BRANCH  75  77
ATOM     77  C   UNL A   1      44.830  26.316  25.597  1.00  0.00     0.149 A 
ATOM     78  C   UNL A   1      45.160  26.215  26.916  1.00  0.00     0.041 A 
ATOM     79  N   UNL A   1      45.736  26.554  24.634  1.00  0.00    -0.241 NA
ATOM     80  C   UNL A   1      46.523  26.074  27.260  1.00  0.00    -0.021 A 
ATOM     81  C   UNL A   1      47.030  26.585  24.958  1.00  0.00     0.072 A 
ATOM     82  C   UNL A   1      47.558  26.249  26.240  1.00  0.00     0.012 A 
ATOM     83  C   UNL A   1      47.847  26.865  23.886  1.00  0.00     0.029 A 
ATOM     84  C   UNL A   1      49.020  26.029  26.280  1.00  0.00    -0.009 A 
ATOM     85  C   UNL A   1      49.224  26.738  23.959  1.00  0.00     0.011 A 
ATOM     86  C   UNL A   1      49.815  26.278  25.124  1.00  0.00    -0.018 A 
ATOM     87  C   UNL A   1      49.756  25.517  27.370  1.00  0.00     0.009 A 
ATOM     88  C   UNL A   1      51.201  26.031  25.098  1.00  0.00     0.009 A 
ATOM     89  C   UNL A   1      51.131  25.252  27.344  1.00  0.00     0.001 A 
ATOM     90  C   UNL A   1      51.858  25.509  26.202  1.00  0.00     0.001 A 
BRANCH  80  91
ATOM     91  C   UNL A   1      46.626  25.448  28.629  1.00  0.00     0.115 C 
ATOM     92  C   UNL A   1      45.531  24.652  29.216  1.00  0.00     0.123 C 
ATOM     93  C   UNL A   1      46.916  26.351  29.791  1.00  0.00     0.083 C 
ATOM     94  N   UNL A   1      45.370  24.895  30.479  1.00  0.00    -0.162 NA
ATOM     95  N   UNL A   1      46.256  25.979  30.851  1.00  0.00    -0.154 NA
BRANCH  93  96
ATOM     96  C   UNL A   1      47.952  27.417  29.776  1.00  0.00    -0.001 A 
ATOM     97  C   UNL A   1      49.056  27.278  30.622  1.00  0.00     0.013 A 
ATOM     98  C   UNL A   1      47.892  28.535  28.930  1.00  0.00     0.013 A 
ATOM     99  C   UNL A   1      50.101  28.208  30.572  1.00  0.00     0.040 A 
ATOM    100  C   UNL A   1      48.947  29.446  28.855  1.00  0.00     0.040 A 
ATOM    101  C   UNL A   1      50.046  29.272  29.677  1.00  0.00     0.123 A 
ATOM    102  F   UNL A   1      51.059  30.145  29.619  1.00  0.00    -0.207 F 
ENDBRANCH  93  96
ENDBRANCH  80  91
ENDBRANCH  75  77
ENDBRANCH  74  75
ENDBRANCH  73  74
ENDBRANCH  72  73
ENDBRANCH  71  72
ENDBRANCH   1  71
TORSDOF 19
ENDMDL
