MODEL 1
REMARK VINA RESULT:     -10.7      0.000      0.000
REMARK SMILES C[C@@H]1C[C@@H](C)C[NH+](C(C)(C)C(=O)OCCOCCOC(=O)c2ccc(-c3c4nc(c(-c5cc(S(=O)(=O)[O-])ccc5F)c5ccc([nH]5)c(-c5cc(S(=O)(=O)[O-])ccc5F)c5nc(c(-c6cc(S(=O)(=O)[O-])ccc6F)c6ccc3[nH]6)C=C5)C=C4)cc2)C1
REMARK SMILES IDX 17 1 16 2 15 3 14 4 13 5 11 6 12 7 8 8 9 9 10 10 7 11 1 12
REMARK SMILES IDX 2 13 3 14 85 15 4 16 6 17 5 18 18 20 19 21 20 22 21 23 22 24
REMARK SMILES IDX 23 25 84 26 24 27 83 28 25 29 26 30 27 31 77 32 28 33 82 34
REMARK SMILES IDX 76 35 78 36 29 37 81 38 75 39 74 40 30 42 62 43 42 44 61 45
REMARK SMILES IDX 43 46 46 47 60 48 79 49 44 50 45 51 59 53 80 54 47 55 31 56
REMARK SMILES IDX 32 57 40 58 33 59 39 60 41 61 38 62 34 63 35 64 36 65 37 66
REMARK SMILES IDX 63 67 64 68 72 69 65 70 71 71 73 72 70 73 66 74 67 75 68 76
REMARK SMILES IDX 69 77 48 78 49 79 57 80 50 81 56 82 58 83 55 84 51 85 52 86
REMARK SMILES IDX 53 87 54 88
REMARK H PARENT 7 19 78 41 46 52
REMARK Flexibility Score: inf
ROOT
ATOM      1  C   UNL A   1      35.497  21.446  25.995  1.00  0.00     0.202 C 
ENDROOT
BRANCH   1   2
ATOM      2  O   UNL A   1      35.357  22.862  25.850  1.00  0.00    -0.374 OA
BRANCH   2   3
ATOM      3  C   UNL A   1      34.743  23.350  24.660  1.00  0.00     0.202 C 
BRANCH   3   4
ATOM      4  C   UNL A   1      33.215  23.274  24.585  1.00  0.00     0.261 C 
BRANCH   4   5
ATOM      5  O   UNL A   1      32.665  24.308  23.756  1.00  0.00    -0.459 OA
BRANCH   5   6
ATOM      6  C   UNL A   1      31.312  24.443  23.802  1.00  0.00     0.367 C 
ATOM      7  O   UNL A   1      30.526  23.594  23.382  1.00  0.00    -0.245 OA
BRANCH   6   8
ATOM      8  C   UNL A   1      30.843  25.782  24.465  1.00  0.00     0.190 C 
ATOM      9  C   UNL A   1      30.335  25.359  25.862  1.00  0.00     0.092 C 
ATOM     10  C   UNL A   1      29.644  26.390  23.699  1.00  0.00     0.092 C 
BRANCH   8  11
ATOM     11  N   UNL A   1      31.952  26.824  24.488  1.00  0.00    -0.321 N 
ATOM     12  C   UNL A   1      33.935  28.531  22.782  1.00  0.00     0.013 C 
ATOM     13  C   UNL A   1      32.757  29.052  23.611  1.00  0.00     0.042 C 
ATOM     14  C   UNL A   1      33.181  29.470  25.020  1.00  0.00     0.018 C 
ATOM     15  C   UNL A   1      31.614  28.028  23.700  1.00  0.00     0.266 C 
ATOM     16  C   UNL A   1      33.526  28.251  25.875  1.00  0.00     0.042 C 
ATOM     17  C   UNL A   1      32.389  27.206  25.848  1.00  0.00     0.266 C 
ATOM     18  C   UNL A   1      33.829  28.676  27.313  1.00  0.00     0.013 C 
ATOM     19  H   UNL A   1      32.746  26.362  24.044  1.00  0.00     0.349 HD
ENDBRANCH   8  11
ENDBRANCH   6   8
ENDBRANCH   5   6
ENDBRANCH   4   5
ENDBRANCH   3   4
ENDBRANCH   2   3
ENDBRANCH   1   2
BRANCH   1  20
ATOM     20  C   UNL A   1      36.491  20.726  25.071  1.00  0.00     0.261 C 
BRANCH  20  21
ATOM     21  O   UNL A   1      37.725  21.450  24.888  1.00  0.00    -0.460 OA
BRANCH  21  22
ATOM     22  C   UNL A   1      38.742  21.065  25.698  1.00  0.00     0.338 C 
ATOM     23  O   UNL A   1      39.260  19.957  25.753  1.00  0.00    -0.246 OA
BRANCH  22  24
ATOM     24  C   UNL A   1      39.293  22.229  26.414  1.00  0.00     0.060 A 
ATOM     25  C   UNL A   1      38.830  23.505  26.067  1.00  0.00     0.016 A 
ATOM     26  C   UNL A   1      40.332  22.077  27.333  1.00  0.00     0.016 A 
ATOM     27  C   UNL A   1      39.427  24.641  26.616  1.00  0.00     0.010 A 
ATOM     28  C   UNL A   1      40.937  23.216  27.872  1.00  0.00     0.010 A 
ATOM     29  C   UNL A   1      40.509  24.503  27.495  1.00  0.00    -0.014 A 
BRANCH  29  30
ATOM     30  C   UNL A   1      41.309  25.685  27.901  1.00  0.00     0.031 A 
ATOM     31  C   UNL A   1      40.627  26.783  28.672  1.00  0.00     0.074 A 
ATOM     32  C   UNL A   1      42.607  25.794  27.572  1.00  0.00     0.049 A 
ATOM     33  N   UNL A   1      41.062  27.976  28.982  1.00  0.00    -0.248 NA
ATOM     34  C   UNL A   1      39.265  26.493  29.147  1.00  0.00     0.031 C 
ATOM     35  C   UNL A   1      43.395  24.766  26.892  1.00  0.00     0.029 A 
ATOM     36  N   UNL A   1      43.489  26.833  27.745  1.00  0.00    -0.354 N 
ATOM     37  C   UNL A   1      40.021  28.589  29.673  1.00  0.00     0.074 A 
ATOM     38  C   UNL A   1      38.927  27.641  29.713  1.00  0.00     0.031 C 
ATOM     39  C   UNL A   1      44.635  25.238  26.680  1.00  0.00     0.029 A 
ATOM     40  C   UNL A   1      44.714  26.618  27.159  1.00  0.00     0.049 A 
ATOM     41  H   UNL A   1      43.265  27.653  28.242  1.00  0.00     0.167 HD
ATOM     42  C   UNL A   1      39.984  29.829  30.219  1.00  0.00     0.034 A 
ATOM     43  C   UNL A   1      45.759  27.454  26.987  1.00  0.00     0.034 A 
ATOM     44  C   UNL A   1      41.082  30.762  30.159  1.00  0.00     0.049 A 
ATOM     45  C   UNL A   1      45.659  28.869  27.509  1.00  0.00     0.074 A 
ATOM     46  C   UNL A   1      41.156  32.042  30.680  1.00  0.00     0.029 A 
ATOM     47  N   UNL A   1      42.295  30.521  29.525  1.00  0.00    -0.354 N 
ATOM     48  N   UNL A   1      44.664  29.449  28.141  1.00  0.00    -0.248 NA
ATOM     49  C   UNL A   1      46.820  29.744  27.291  1.00  0.00     0.031 C 
ATOM     50  C   UNL A   1      42.382  32.599  30.301  1.00  0.00     0.029 A 
ATOM     51  C   UNL A   1      43.109  31.638  29.615  1.00  0.00     0.049 A 
ATOM     52  H   UNL A   1      42.540  29.679  29.078  1.00  0.00     0.167 HD
ATOM     53  C   UNL A   1      45.098  30.740  28.431  1.00  0.00     0.074 A 
ATOM     54  C   UNL A   1      46.441  30.858  27.903  1.00  0.00     0.031 C 
ATOM     55  C   UNL A   1      44.449  31.736  29.086  1.00  0.00     0.034 A 
BRANCH  42  56
ATOM     56  C   UNL A   1      38.693  30.263  30.870  1.00  0.00     0.023 A 
ATOM     57  C   UNL A   1      37.684  30.926  30.151  1.00  0.00     0.031 A 
ATOM     58  C   UNL A   1      38.481  30.034  32.242  1.00  0.00     0.131 A 
ATOM     59  C   UNL A   1      36.545  31.400  30.818  1.00  0.00     0.055 A 
ATOM     60  C   UNL A   1      37.309  30.437  32.883  1.00  0.00     0.041 A 
ATOM     61  F   UNL A   1      39.419  29.427  32.986  1.00  0.00    -0.206 F 
ATOM     62  C   UNL A   1      36.339  31.138  32.174  1.00  0.00     0.022 A 
BRANCH  59  63
ATOM     63  S   UNL A   1      35.404  32.488  29.921  1.00  0.00     0.124 S 
ATOM     64  O   UNL A   1      34.373  32.727  30.927  1.00  0.00    -0.237 OA
ATOM     65  O   UNL A   1      36.251  33.629  29.590  1.00  0.00    -0.237 OA
ATOM     66  O   UNL A   1      34.978  31.676  28.782  1.00  0.00    -0.744 OA
ENDBRANCH  59  63
ENDBRANCH  42  56
BRANCH  43  67
ATOM     67  C   UNL A   1      46.969  27.006  26.238  1.00  0.00     0.023 A 
ATOM     68  C   UNL A   1      48.030  26.361  26.892  1.00  0.00     0.031 A 
ATOM     69  C   UNL A   1      47.105  27.268  24.862  1.00  0.00     0.131 A 
ATOM     70  C   UNL A   1      49.198  26.038  26.182  1.00  0.00     0.055 A 
ATOM     71  C   UNL A   1      48.246  26.896  24.149  1.00  0.00     0.041 A 
ATOM     72  F   UNL A   1      46.124  27.888  24.188  1.00  0.00    -0.206 F 
ATOM     73  C   UNL A   1      49.307  26.288  24.812  1.00  0.00     0.022 A 
BRANCH  70  74
ATOM     74  S   UNL A   1      50.613  25.366  27.095  1.00  0.00     0.124 S 
ATOM     75  O   UNL A   1      50.001  24.254  27.814  1.00  0.00    -0.237 OA
ATOM     76  O   UNL A   1      51.527  25.009  26.016  1.00  0.00    -0.237 OA
ATOM     77  O   UNL A   1      51.043  26.487  27.929  1.00  0.00    -0.744 OA
ENDBRANCH  70  74
ENDBRANCH  43  67
BRANCH  55  78
ATOM     78  C   UNL A   1      45.208  33.017  29.338  1.00  0.00     0.023 A 
ATOM     79  C   UNL A   1      45.139  34.111  28.460  1.00  0.00     0.031 A 
ATOM     80  C   UNL A   1      45.984  33.148  30.504  1.00  0.00     0.131 A 
ATOM     81  C   UNL A   1      45.860  35.281  28.748  1.00  0.00     0.055 A 
ATOM     82  C   UNL A   1      46.658  34.330  30.809  1.00  0.00     0.041 A 
ATOM     83  F   UNL A   1      46.084  32.132  31.376  1.00  0.00    -0.206 F 
ATOM     84  C   UNL A   1      46.603  35.404  29.926  1.00  0.00     0.022 A 
BRANCH  81  85
ATOM     85  S   UNL A   1      45.856  36.632  27.538  1.00  0.00     0.124 S 
ATOM     86  O   UNL A   1      47.091  36.384  26.800  1.00  0.00    -0.237 OA
ATOM     87  O   UNL A   1      44.617  36.394  26.804  1.00  0.00    -0.237 OA
ATOM     88  O   UNL A   1      45.862  37.837  28.368  1.00  0.00    -0.744 OA
ENDBRANCH  81  85
ENDBRANCH  55  78
ENDBRANCH  29  30
ENDBRANCH  22  24
ENDBRANCH  21  22
ENDBRANCH  20  21
ENDBRANCH   1  20
TORSDOF 18
ENDMDL
MODEL 2
REMARK VINA RESULT:     -10.6      0.836      1.911
REMARK SMILES C[C@@H]1C[C@@H](C)C[NH+](C(C)(C)C(=O)OCCOCCOC(=O)c2ccc(-c3c4nc(c(-c5cc(S(=O)(=O)[O-])ccc5F)c5ccc([nH]5)c(-c5cc(S(=O)(=O)[O-])ccc5F)c5nc(c(-c6cc(S(=O)(=O)[O-])ccc6F)c6ccc3[nH]6)C=C5)C=C4)cc2)C1
REMARK SMILES IDX 17 1 16 2 15 3 14 4 13 5 11 6 12 7 8 8 9 9 10 10 7 11 1 12
REMARK SMILES IDX 2 13 3 14 85 15 4 16 6 17 5 18 18 20 19 21 20 22 21 23 22 24
REMARK SMILES IDX 23 25 84 26 24 27 83 28 25 29 26 30 27 31 77 32 28 33 82 34
REMARK SMILES IDX 76 35 78 36 29 37 81 38 75 39 74 40 30 42 62 43 42 44 61 45
REMARK SMILES IDX 43 46 46 47 60 48 79 49 44 50 45 51 59 53 80 54 47 55 31 56
REMARK SMILES IDX 32 57 40 58 33 59 39 60 41 61 38 62 34 63 35 64 36 65 37 66
REMARK SMILES IDX 63 67 64 68 72 69 65 70 71 71 73 72 70 73 66 74 67 75 68 76
REMARK SMILES IDX 69 77 48 78 49 79 57 80 50 81 56 82 58 83 55 84 51 85 52 86
REMARK SMILES IDX 53 87 54 88
REMARK H PARENT 7 19 78 41 46 52
REMARK Flexibility Score: inf
ROOT
ATOM      1  C   UNL A   1      35.221  21.330  25.016  1.00  0.00     0.202 C 
ENDROOT
BRANCH   1   2
ATOM      2  O   UNL A   1      35.221  22.654  25.559  1.00  0.00    -0.374 OA
BRANCH   2   3
ATOM      3  C   UNL A   1      34.657  23.696  24.768  1.00  0.00     0.202 C 
BRANCH   3   4
ATOM      4  C   UNL A   1      34.071  24.897  25.517  1.00  0.00     0.261 C 
BRANCH   4   5
ATOM      5  O   UNL A   1      34.098  26.091  24.721  1.00  0.00    -0.459 OA
BRANCH   5   6
ATOM      6  C   UNL A   1      33.738  27.236  25.364  1.00  0.00     0.367 C 
ATOM      7  O   UNL A   1      33.982  27.459  26.549  1.00  0.00    -0.245 OA
BRANCH   6   8
ATOM      8  C   UNL A   1      32.998  28.261  24.440  1.00  0.00     0.190 C 
ATOM      9  C   UNL A   1      34.036  28.609  23.348  1.00  0.00     0.092 C 
ATOM     10  C   UNL A   1      32.676  29.566  25.206  1.00  0.00     0.092 C 
BRANCH   8  11
ATOM     11  N   UNL A   1      31.687  27.702  23.906  1.00  0.00    -0.321 N 
ATOM     12  C   UNL A   1      30.005  25.130  23.354  1.00  0.00     0.013 C 
ATOM     13  C   UNL A   1      29.689  26.230  24.372  1.00  0.00     0.042 C 
ATOM     14  C   UNL A   1      28.752  27.295  23.800  1.00  0.00     0.018 C 
ATOM     15  C   UNL A   1      30.962  26.901  24.913  1.00  0.00     0.266 C 
ATOM     16  C   UNL A   1      29.469  28.158  22.762  1.00  0.00     0.042 C 
ATOM     17  C   UNL A   1      30.793  28.724  23.320  1.00  0.00     0.266 C 
ATOM     18  C   UNL A   1      28.558  29.293  22.290  1.00  0.00     0.013 C 
ATOM     19  H   UNL A   1      31.965  27.084  23.143  1.00  0.00     0.349 HD
ENDBRANCH   8  11
ENDBRANCH   6   8
ENDBRANCH   5   6
ENDBRANCH   4   5
ENDBRANCH   3   4
ENDBRANCH   2   3
ENDBRANCH   1   2
BRANCH   1  20
ATOM     20  C   UNL A   1      36.555  20.570  24.985  1.00  0.00     0.261 C 
BRANCH  20  21
ATOM     21  O   UNL A   1      37.705  21.437  24.935  1.00  0.00    -0.460 OA
BRANCH  21  22
ATOM     22  C   UNL A   1      38.744  21.060  25.721  1.00  0.00     0.338 C 
ATOM     23  O   UNL A   1      39.273  19.957  25.761  1.00  0.00    -0.246 OA
BRANCH  22  24
ATOM     24  C   UNL A   1      39.300  22.227  26.428  1.00  0.00     0.060 A 
ATOM     25  C   UNL A   1      38.791  23.496  26.121  1.00  0.00     0.016 A 
ATOM     26  C   UNL A   1      40.384  22.088  27.295  1.00  0.00     0.016 A 
ATOM     27  C   UNL A   1      39.386  24.639  26.659  1.00  0.00     0.010 A 
ATOM     28  C   UNL A   1      40.986  23.234  27.821  1.00  0.00     0.010 A 
ATOM     29  C   UNL A   1      40.511  24.515  27.484  1.00  0.00    -0.014 A 
BRANCH  29  30
ATOM     30  C   UNL A   1      41.300  25.711  27.870  1.00  0.00     0.031 A 
ATOM     31  C   UNL A   1      40.613  26.810  28.634  1.00  0.00     0.074 A 
ATOM     32  C   UNL A   1      42.595  25.831  27.528  1.00  0.00     0.049 A 
ATOM     33  N   UNL A   1      41.037  28.011  28.927  1.00  0.00    -0.248 NA
ATOM     34  C   UNL A   1      39.258  26.510  29.123  1.00  0.00     0.031 C 
ATOM     35  C   UNL A   1      43.388  24.804  26.853  1.00  0.00     0.029 A 
ATOM     36  N   UNL A   1      43.466  26.881  27.682  1.00  0.00    -0.354 N 
ATOM     37  C   UNL A   1      39.995  28.620  29.619  1.00  0.00     0.074 A 
ATOM     38  C   UNL A   1      38.912  27.660  29.679  1.00  0.00     0.031 C 
ATOM     39  C   UNL A   1      44.621  25.288  26.625  1.00  0.00     0.029 A 
ATOM     40  C   UNL A   1      44.689  26.673  27.088  1.00  0.00     0.049 A 
ATOM     41  H   UNL A   1      43.237  27.704  28.172  1.00  0.00     0.167 HD
ATOM     42  C   UNL A   1      39.948  29.866  30.152  1.00  0.00     0.034 A 
ATOM     43  C   UNL A   1      45.723  27.519  26.898  1.00  0.00     0.034 A 
ATOM     44  C   UNL A   1      41.035  30.810  30.071  1.00  0.00     0.049 A 
ATOM     45  C   UNL A   1      45.611  28.939  27.404  1.00  0.00     0.074 A 
ATOM     46  C   UNL A   1      41.099  32.097  30.578  1.00  0.00     0.029 A 
ATOM     47  N   UNL A   1      42.245  30.576  29.430  1.00  0.00    -0.354 N 
ATOM     48  N   UNL A   1      44.615  29.515  28.038  1.00  0.00    -0.248 NA
ATOM     49  C   UNL A   1      46.760  29.825  27.167  1.00  0.00     0.031 C 
ATOM     50  C   UNL A   1      42.315  32.664  30.182  1.00  0.00     0.029 A 
ATOM     51  C   UNL A   1      43.047  31.703  29.501  1.00  0.00     0.049 A 
ATOM     52  H   UNL A   1      42.496  29.731  28.991  1.00  0.00     0.167 HD
ATOM     53  C   UNL A   1      45.036  30.814  28.310  1.00  0.00     0.074 A 
ATOM     54  C   UNL A   1      46.373  30.941  27.769  1.00  0.00     0.031 C 
ATOM     55  C   UNL A   1      44.382  31.810  28.959  1.00  0.00     0.034 A 
BRANCH  42  56
ATOM     56  C   UNL A   1      38.658  30.292  30.809  1.00  0.00     0.023 A 
ATOM     57  C   UNL A   1      37.627  30.917  30.086  1.00  0.00     0.031 A 
ATOM     58  C   UNL A   1      38.468  30.096  32.189  1.00  0.00     0.131 A 
ATOM     59  C   UNL A   1      36.488  31.387  30.756  1.00  0.00     0.055 A 
ATOM     60  C   UNL A   1      37.297  30.494  32.836  1.00  0.00     0.041 A 
ATOM     61  F   UNL A   1      39.428  29.527  32.936  1.00  0.00    -0.206 F 
ATOM     62  C   UNL A   1      36.305  31.157  32.122  1.00  0.00     0.022 A 
BRANCH  59  63
ATOM     63  S   UNL A   1      35.315  32.430  29.847  1.00  0.00     0.124 S 
ATOM     64  O   UNL A   1      34.296  32.682  30.863  1.00  0.00    -0.237 OA
ATOM     65  O   UNL A   1      36.137  33.574  29.469  1.00  0.00    -0.237 OA
ATOM     66  O   UNL A   1      34.884  31.578  28.740  1.00  0.00    -0.744 OA
ENDBRANCH  59  63
ENDBRANCH  42  56
BRANCH  43  67
ATOM     67  C   UNL A   1      46.931  27.077  26.144  1.00  0.00     0.023 A 
ATOM     68  C   UNL A   1      48.004  26.450  26.795  1.00  0.00     0.031 A 
ATOM     69  C   UNL A   1      47.053  27.325  24.764  1.00  0.00     0.131 A 
ATOM     70  C   UNL A   1      49.170  26.132  26.079  1.00  0.00     0.055 A 
ATOM     71  C   UNL A   1      48.192  26.958  24.045  1.00  0.00     0.041 A 
ATOM     72  F   UNL A   1      46.059  27.927  24.091  1.00  0.00    -0.206 F 
ATOM     73  C   UNL A   1      49.265  26.369  24.705  1.00  0.00     0.022 A 
BRANCH  70  74
ATOM     74  S   UNL A   1      50.600  25.486  26.988  1.00  0.00     0.124 S 
ATOM     75  O   UNL A   1      50.027  24.320  27.652  1.00  0.00    -0.237 OA
ATOM     76  O   UNL A   1      51.544  25.212  25.910  1.00  0.00    -0.237 OA
ATOM     77  O   UNL A   1      50.968  26.589  27.872  1.00  0.00    -0.744 OA
ENDBRANCH  70  74
ENDBRANCH  43  67
BRANCH  55  78
ATOM     78  C   UNL A   1      45.128  33.102  29.190  1.00  0.00     0.023 A 
ATOM     79  C   UNL A   1      44.995  34.205  28.331  1.00  0.00     0.031 A 
ATOM     80  C   UNL A   1      45.958  33.234  30.318  1.00  0.00     0.131 A 
ATOM     81  C   UNL A   1      45.708  35.385  28.598  1.00  0.00     0.055 A 
ATOM     82  C   UNL A   1      46.624  34.426  30.605  1.00  0.00     0.041 A 
ATOM     83  F   UNL A   1      46.120  32.210  31.171  1.00  0.00    -0.206 F 
ATOM     84  C   UNL A   1      46.506  35.508  29.739  1.00  0.00     0.022 A 
BRANCH  81  85
ATOM     85  S   UNL A   1      45.618  36.751  27.408  1.00  0.00     0.124 S 
ATOM     86  O   UNL A   1      46.017  37.893  28.224  1.00  0.00    -0.237 OA
ATOM     87  O   UNL A   1      46.571  36.338  26.382  1.00  0.00    -0.237 OA
ATOM     88  O   UNL A   1      44.218  36.749  26.986  1.00  0.00    -0.744 OA
ENDBRANCH  81  85
ENDBRANCH  55  78
ENDBRANCH  29  30
ENDBRANCH  22  24
ENDBRANCH  21  22
ENDBRANCH  20  21
ENDBRANCH   1  20
TORSDOF 18
ENDMDL
MODEL 3
REMARK VINA RESULT:     -10.6      4.682     10.087
REMARK SMILES C[C@@H]1C[C@@H](C)C[NH+](C(C)(C)C(=O)OCCOCCOC(=O)c2ccc(-c3c4nc(c(-c5cc(S(=O)(=O)[O-])ccc5F)c5ccc([nH]5)c(-c5cc(S(=O)(=O)[O-])ccc5F)c5nc(c(-c6cc(S(=O)(=O)[O-])ccc6F)c6ccc3[nH]6)C=C5)C=C4)cc2)C1
REMARK SMILES IDX 17 1 16 2 15 3 14 4 13 5 11 6 12 7 8 8 9 9 10 10 7 11 1 12
REMARK SMILES IDX 2 13 3 14 85 15 4 16 6 17 5 18 18 20 19 21 20 22 21 23 22 24
REMARK SMILES IDX 23 25 84 26 24 27 83 28 25 29 26 30 27 31 77 32 28 33 82 34
REMARK SMILES IDX 76 35 78 36 29 37 81 38 75 39 74 40 30 42 62 43 42 44 61 45
REMARK SMILES IDX 43 46 46 47 60 48 79 49 44 50 45 51 59 53 80 54 47 55 31 56
REMARK SMILES IDX 32 57 40 58 33 59 39 60 41 61 38 62 34 63 35 64 36 65 37 66
REMARK SMILES IDX 63 67 64 68 72 69 65 70 71 71 73 72 70 73 66 74 67 75 68 76
REMARK SMILES IDX 69 77 48 78 49 79 57 80 50 81 56 82 58 83 55 84 51 85 52 86
REMARK SMILES IDX 53 87 54 88
REMARK H PARENT 7 19 78 41 46 52
REMARK Flexibility Score: inf
ROOT
ATOM      1  C   UNL A   1      31.361  29.507  25.097  1.00  0.00     0.202 C 
ENDROOT
BRANCH   1   2
ATOM      2  O   UNL A   1      30.683  29.557  23.839  1.00  0.00    -0.374 OA
BRANCH   2   3
ATOM      3  C   UNL A   1      31.056  28.605  22.845  1.00  0.00     0.202 C 
BRANCH   3   4
ATOM      4  C   UNL A   1      30.465  27.198  22.975  1.00  0.00     0.261 C 
BRANCH   4   5
ATOM      5  O   UNL A   1      31.450  26.179  22.748  1.00  0.00    -0.459 OA
BRANCH   5   6
ATOM      6  C   UNL A   1      32.206  25.839  23.828  1.00  0.00     0.367 C 
ATOM      7  O   UNL A   1      33.140  26.520  24.249  1.00  0.00    -0.245 OA
BRANCH   6   8
ATOM      8  C   UNL A   1      31.758  24.499  24.503  1.00  0.00     0.190 C 
ATOM      9  C   UNL A   1      30.752  23.886  23.502  1.00  0.00     0.092 C 
ATOM     10  C   UNL A   1      30.993  24.772  25.821  1.00  0.00     0.092 C 
BRANCH   8  11
ATOM     11  N   UNL A   1      32.943  23.603  24.833  1.00  0.00    -0.321 N 
ATOM     12  C   UNL A   1      35.903  23.488  25.822  1.00  0.00     0.013 C 
ATOM     13  C   UNL A   1      34.669  22.959  26.560  1.00  0.00     0.042 C 
ATOM     14  C   UNL A   1      34.419  21.476  26.278  1.00  0.00     0.018 C 
ATOM     15  C   UNL A   1      33.404  23.767  26.227  1.00  0.00     0.266 C 
ATOM     16  C   UNL A   1      33.924  21.264  24.847  1.00  0.00     0.042 C 
ATOM     17  C   UNL A   1      32.717  22.173  24.530  1.00  0.00     0.266 C 
ATOM     18  C   UNL A   1      33.563  19.794  24.620  1.00  0.00     0.013 C 
ATOM     19  H   UNL A   1      33.685  23.922  24.209  1.00  0.00     0.349 HD
ENDBRANCH   8  11
ENDBRANCH   6   8
ENDBRANCH   5   6
ENDBRANCH   4   5
ENDBRANCH   3   4
ENDBRANCH   2   3
ENDBRANCH   1   2
BRANCH   1  20
ATOM     20  C   UNL A   1      31.509  30.818  25.883  1.00  0.00     0.261 C 
BRANCH  20  21
ATOM     21  O   UNL A   1      32.425  30.719  26.992  1.00  0.00    -0.460 OA
BRANCH  21  22
ATOM     22  C   UNL A   1      33.134  31.845  27.254  1.00  0.00     0.338 C 
ATOM     23  O   UNL A   1      32.710  32.993  27.277  1.00  0.00    -0.246 OA
BRANCH  22  24
ATOM     24  C   UNL A   1      34.496  31.499  27.696  1.00  0.00     0.060 A 
ATOM     25  C   UNL A   1      34.790  30.154  27.958  1.00  0.00     0.016 A 
ATOM     26  C   UNL A   1      35.436  32.495  27.960  1.00  0.00     0.016 A 
ATOM     27  C   UNL A   1      36.020  29.800  28.515  1.00  0.00     0.010 A 
ATOM     28  C   UNL A   1      36.662  32.140  28.530  1.00  0.00     0.010 A 
ATOM     29  C   UNL A   1      36.950  30.797  28.838  1.00  0.00    -0.014 A 
BRANCH  29  30
ATOM     30  C   UNL A   1      38.154  30.476  29.645  1.00  0.00     0.031 A 
ATOM     31  C   UNL A   1      39.159  29.509  29.081  1.00  0.00     0.074 A 
ATOM     32  C   UNL A   1      38.338  31.011  30.864  1.00  0.00     0.049 A 
ATOM     33  N   UNL A   1      40.185  28.944  29.659  1.00  0.00    -0.248 NA
ATOM     34  C   UNL A   1      38.969  29.124  27.674  1.00  0.00     0.031 C 
ATOM     35  C   UNL A   1      37.474  32.013  31.485  1.00  0.00     0.029 A 
ATOM     36  N   UNL A   1      39.305  30.769  31.808  1.00  0.00    -0.354 N 
ATOM     37  C   UNL A   1      40.756  28.120  28.694  1.00  0.00     0.074 A 
ATOM     38  C   UNL A   1      39.943  28.244  27.502  1.00  0.00     0.031 C 
ATOM     39  C   UNL A   1      37.933  32.278  32.721  1.00  0.00     0.029 A 
ATOM     40  C   UNL A   1      39.089  31.427  32.997  1.00  0.00     0.049 A 
ATOM     41  H   UNL A   1      40.079  30.181  31.650  1.00  0.00     0.167 HD
ATOM     42  C   UNL A   1      41.855  27.332  28.797  1.00  0.00     0.034 A 
ATOM     43  C   UNL A   1      39.723  31.318  34.183  1.00  0.00     0.034 A 
ATOM     44  C   UNL A   1      42.644  27.215  29.998  1.00  0.00     0.049 A 
ATOM     45  C   UNL A   1      40.880  30.353  34.311  1.00  0.00     0.074 A 
ATOM     46  C   UNL A   1      43.777  26.450  30.214  1.00  0.00     0.029 A 
ATOM     47  N   UNL A   1      42.373  27.870  31.193  1.00  0.00    -0.354 N 
ATOM     48  N   UNL A   1      41.400  29.560  33.401  1.00  0.00    -0.248 NA
ATOM     49  C   UNL A   1      41.533  30.264  35.624  1.00  0.00     0.031 C 
ATOM     50  C   UNL A   1      44.149  26.588  31.556  1.00  0.00     0.029 A 
ATOM     51  C   UNL A   1      43.298  27.503  32.156  1.00  0.00     0.049 A 
ATOM     52  H   UNL A   1      41.633  28.503  31.334  1.00  0.00     0.167 HD
ATOM     53  C   UNL A   1      42.465  28.913  34.022  1.00  0.00     0.074 A 
ATOM     54  C   UNL A   1      42.512  29.402  35.384  1.00  0.00     0.031 C 
ATOM     55  C   UNL A   1      43.334  28.005  33.510  1.00  0.00     0.034 A 
BRANCH  42  56
ATOM     56  C   UNL A   1      42.221  26.492  27.598  1.00  0.00     0.023 A 
ATOM     57  C   UNL A   1      41.817  25.151  27.478  1.00  0.00     0.031 A 
ATOM     58  C   UNL A   1      43.014  27.034  26.570  1.00  0.00     0.131 A 
ATOM     59  C   UNL A   1      42.265  24.379  26.396  1.00  0.00     0.055 A 
ATOM     60  C   UNL A   1      43.390  26.283  25.455  1.00  0.00     0.041 A 
ATOM     61  F   UNL A   1      43.451  28.302  26.641  1.00  0.00    -0.206 F 
ATOM     62  C   UNL A   1      43.028  24.943  25.370  1.00  0.00     0.022 A 
BRANCH  59  63
ATOM     63  S   UNL A   1      41.957  22.592  26.419  1.00  0.00     0.124 S 
ATOM     64  O   UNL A   1      42.667  22.187  27.630  1.00  0.00    -0.237 OA
ATOM     65  O   UNL A   1      40.501  22.523  26.479  1.00  0.00    -0.237 OA
ATOM     66  O   UNL A   1      42.554  22.124  25.169  1.00  0.00    -0.744 OA
ENDBRANCH  59  63
ENDBRANCH  42  56
BRANCH  43  67
ATOM     67  C   UNL A   1      39.248  32.091  35.367  1.00  0.00     0.023 A 
ATOM     68  C   UNL A   1      39.690  33.402  35.602  1.00  0.00     0.031 A 
ATOM     69  C   UNL A   1      38.385  31.507  36.313  1.00  0.00     0.131 A 
ATOM     70  C   UNL A   1      39.303  34.071  36.775  1.00  0.00     0.055 A 
ATOM     71  C   UNL A   1      37.960  32.197  37.450  1.00  0.00     0.041 A 
ATOM     72  F   UNL A   1      37.936  30.254  36.140  1.00  0.00    -0.206 F 
ATOM     73  C   UNL A   1      38.430  33.482  37.693  1.00  0.00     0.022 A 
BRANCH  70  74
ATOM     74  S   UNL A   1      40.033  35.693  37.131  1.00  0.00     0.124 S 
ATOM     75  O   UNL A   1      39.653  36.455  35.946  1.00  0.00    -0.237 OA
ATOM     76  O   UNL A   1      39.362  36.060  38.373  1.00  0.00    -0.237 OA
ATOM     77  O   UNL A   1      41.459  35.405  37.257  1.00  0.00    -0.744 OA
ENDBRANCH  70  74
ENDBRANCH  43  67
BRANCH  55  78
ATOM     78  C   UNL A   1      44.458  27.535  34.401  1.00  0.00     0.023 A 
ATOM     79  C   UNL A   1      44.350  26.382  35.195  1.00  0.00     0.031 A 
ATOM     80  C   UNL A   1      45.674  28.244  34.419  1.00  0.00     0.131 A 
ATOM     81  C   UNL A   1      45.432  25.987  35.999  1.00  0.00     0.055 A 
ATOM     82  C   UNL A   1      46.761  27.818  35.181  1.00  0.00     0.041 A 
ATOM     83  F   UNL A   1      45.829  29.353  33.679  1.00  0.00    -0.206 F 
ATOM     84  C   UNL A   1      46.642  26.686  35.982  1.00  0.00     0.022 A 
BRANCH  81  85
ATOM     85  S   UNL A   1      45.224  24.568  37.110  1.00  0.00     0.124 S 
ATOM     86  O   UNL A   1      43.948  24.867  37.751  1.00  0.00    -0.237 OA
ATOM     87  O   UNL A   1      45.223  23.440  36.183  1.00  0.00    -0.237 OA
ATOM     88  O   UNL A   1      46.392  24.645  37.988  1.00  0.00    -0.744 OA
ENDBRANCH  81  85
ENDBRANCH  55  78
ENDBRANCH  29  30
ENDBRANCH  22  24
ENDBRANCH  21  22
ENDBRANCH  20  21
ENDBRANCH   1  20
TORSDOF 18
ENDMDL
