MODEL 1
REMARK VINA RESULT:      -8.8      0.000      0.000
REMARK SMILES COCCOCC[C@@H]1CCC[C@]1([NH3+])C(=O)OCCOCCOC(=O)c1ccc(-c2c3nc(c(-c4cc(S(=O)(=O)[O-])ccc4F)c4ccc([nH]4)c(-c4cc(S(=O)(=O)[O-])ccc4F)c4nc(c(-c5cc(S(=O)(=O)[O-])ccc5F)c5ccc2[nH]5)C=C4)C=C3)cc1
REMARK SMILES IDX 17 1 16 2 14 3 15 4 12 5 8 6 9 7 10 8 11 9 7 10 6 11 5 12
REMARK SMILES IDX 4 13 3 14 2 15 1 16 13 17 18 21 19 22 20 23 21 24 22 25
REMARK SMILES IDX 23 26 24 27 25 28 26 29 87 30 27 31 86 32 28 33 29 34 30 35
REMARK SMILES IDX 80 36 31 37 85 38 79 39 81 40 32 41 84 42 78 43 77 44 33 46
REMARK SMILES IDX 65 47 45 48 64 49 46 50 49 51 63 52 82 53 47 54 48 55 62 57
REMARK SMILES IDX 83 58 50 59 34 60 35 61 43 62 36 63 42 64 44 65 41 66 37 67
REMARK SMILES IDX 38 68 39 69 40 70 66 71 67 72 75 73 68 74 74 75 76 76 73 77
REMARK SMILES IDX 69 78 70 79 71 80 72 81 51 82 52 83 60 84 53 85 59 86 61 87
REMARK SMILES IDX 58 88 54 89 55 90 56 91 57 92
REMARK H PARENT 13 18 13 19 13 20 81 45 49 56
REMARK Flexibility Score: inf
ROOT
ATOM      1  C   UNL A   1      34.230  35.096  31.187  1.00  0.00     0.261 C 
ENDROOT
BRANCH   1   2
ATOM      2  O   UNL A   1      33.570  34.071  30.359  1.00  0.00    -0.459 OA
BRANCH   2   3
ATOM      3  C   UNL A   1      34.471  33.140  29.947  1.00  0.00     0.368 C 
ATOM      4  O   UNL A   1      34.715  32.264  30.763  1.00  0.00    -0.245 OA
BRANCH   3   5
ATOM      5  C   UNL A   1      35.225  33.330  28.544  1.00  0.00     0.195 C 
ATOM      6  C   UNL A   1      34.892  32.129  27.693  1.00  0.00     0.065 C 
ATOM      7  C   UNL A   1      36.054  31.174  28.071  1.00  0.00     0.011 C 
ATOM      8  C   UNL A   1      37.240  32.060  28.534  1.00  0.00     0.008 C 
ATOM      9  C   UNL A   1      36.730  33.473  28.567  1.00  0.00     0.081 C 
BRANCH   6  10
ATOM     10  C   UNL A   1      33.399  31.677  27.848  1.00  0.00     0.039 C 
BRANCH  10  11
ATOM     11  C   UNL A   1      32.816  30.382  27.071  1.00  0.00     0.161 C 
BRANCH  11  12
ATOM     12  O   UNL A   1      33.555  29.907  25.902  1.00  0.00    -0.379 OA
BRANCH  12  13
ATOM     13  C   UNL A   1      32.924  28.976  24.949  1.00  0.00     0.188 C 
BRANCH  13  14
ATOM     14  C   UNL A   1      31.274  28.891  24.679  1.00  0.00     0.188 C 
BRANCH  14  15
ATOM     15  O   UNL A   1      30.574  29.683  23.683  1.00  0.00    -0.382 OA
ATOM     16  C   UNL A   1      29.325  29.183  23.168  1.00  0.00     0.195 C 
ENDBRANCH  14  15
ENDBRANCH  13  14
ENDBRANCH  12  13
ENDBRANCH  11  12
ENDBRANCH  10  11
ENDBRANCH   6  10
BRANCH   5  17
ATOM     17  N   UNL A   1      34.884  34.499  27.680  1.00  0.00    -0.343 N 
ATOM     18  H   UNL A   1      34.333  35.169  28.217  1.00  0.00     0.345 HD
ATOM     19  H   UNL A   1      34.344  34.182  26.875  1.00  0.00     0.345 HD
ATOM     20  H   UNL A   1      35.743  34.946  27.358  1.00  0.00     0.345 HD
ENDBRANCH   5  17
ENDBRANCH   3   5
ENDBRANCH   2   3
ENDBRANCH   1   2
BRANCH   1  21
ATOM     21  C   UNL A   1      33.492  35.443  32.468  1.00  0.00     0.202 C 
BRANCH  21  22
ATOM     22  O   UNL A   1      34.407  35.597  33.536  1.00  0.00    -0.374 OA
BRANCH  22  23
ATOM     23  C   UNL A   1      35.563  34.775  33.378  1.00  0.00     0.202 C 
BRANCH  23  24
ATOM     24  C   UNL A   1      35.742  33.616  34.383  1.00  0.00     0.261 C 
BRANCH  24  25
ATOM     25  O   UNL A   1      36.133  32.324  33.860  1.00  0.00    -0.460 OA
BRANCH  25  26
ATOM     26  C   UNL A   1      37.245  31.758  34.372  1.00  0.00     0.338 C 
ATOM     27  O   UNL A   1      37.500  31.638  35.564  1.00  0.00    -0.246 OA
BRANCH  26  28
ATOM     28  C   UNL A   1      38.026  31.116  33.287  1.00  0.00     0.060 A 
ATOM     29  C   UNL A   1      39.008  30.178  33.635  1.00  0.00     0.016 A 
ATOM     30  C   UNL A   1      37.862  31.481  31.947  1.00  0.00     0.016 A 
ATOM     31  C   UNL A   1      39.861  29.648  32.661  1.00  0.00     0.010 A 
ATOM     32  C   UNL A   1      38.735  30.964  30.973  1.00  0.00     0.010 A 
ATOM     33  C   UNL A   1      39.768  30.075  31.330  1.00  0.00    -0.014 A 
BRANCH  33  34
ATOM     34  C   UNL A   1      40.863  29.745  30.371  1.00  0.00     0.031 A 
ATOM     35  C   UNL A   1      40.797  28.441  29.615  1.00  0.00     0.074 A 
ATOM     36  C   UNL A   1      41.872  30.603  30.116  1.00  0.00     0.049 A 
ATOM     37  N   UNL A   1      41.652  27.917  28.774  1.00  0.00    -0.248 NA
ATOM     38  C   UNL A   1      39.594  27.624  29.837  1.00  0.00     0.031 C 
ATOM     39  C   UNL A   1      42.019  31.930  30.708  1.00  0.00     0.029 A 
ATOM     40  N   UNL A   1      42.966  30.479  29.292  1.00  0.00    -0.354 N 
ATOM     41  C   UNL A   1      41.094  26.708  28.367  1.00  0.00     0.074 A 
ATOM     42  C   UNL A   1      39.843  26.566  29.081  1.00  0.00     0.031 C 
ATOM     43  C   UNL A   1      43.147  32.493  30.239  1.00  0.00     0.029 A 
ATOM     44  C   UNL A   1      43.831  31.549  29.353  1.00  0.00     0.049 A 
ATOM     45  H   UNL A   1      43.118  29.698  28.712  1.00  0.00     0.167 HD
ATOM     46  C   UNL A   1      41.574  25.804  27.477  1.00  0.00     0.034 A 
ATOM     47  C   UNL A   1      45.048  31.731  28.796  1.00  0.00     0.034 A 
ATOM     48  C   UNL A   1      42.830  25.944  26.779  1.00  0.00     0.049 A 
ATOM     49  C   UNL A   1      45.629  30.648  27.912  1.00  0.00     0.074 A 
ATOM     50  C   UNL A   1      43.404  25.084  25.858  1.00  0.00     0.029 A 
ATOM     51  N   UNL A   1      43.717  27.001  26.934  1.00  0.00    -0.354 N 
ATOM     52  N   UNL A   1      45.096  29.505  27.545  1.00  0.00    -0.248 NA
ATOM     53  C   UNL A   1      46.975  30.882  27.369  1.00  0.00     0.031 C 
ATOM     54  C   UNL A   1      44.670  25.576  25.524  1.00  0.00     0.029 A 
ATOM     55  C   UNL A   1      44.851  26.791  26.164  1.00  0.00     0.049 A 
ATOM     56  H   UNL A   1      43.562  27.787  27.508  1.00  0.00     0.167 HD
ATOM     57  C   UNL A   1      46.034  28.899  26.710  1.00  0.00     0.074 A 
ATOM     58  C   UNL A   1      47.153  29.811  26.610  1.00  0.00     0.031 C 
ATOM     59  C   UNL A   1      45.975  27.696  26.081  1.00  0.00     0.034 A 
BRANCH  46  60
ATOM     60  C   UNL A   1      40.765  24.547  27.256  1.00  0.00     0.023 A 
ATOM     61  C   UNL A   1      39.598  24.542  26.471  1.00  0.00     0.031 A 
ATOM     62  C   UNL A   1      41.158  23.338  27.858  1.00  0.00     0.131 A 
ATOM     63  C   UNL A   1      38.833  23.370  26.364  1.00  0.00     0.055 A 
ATOM     64  C   UNL A   1      40.437  22.156  27.680  1.00  0.00     0.041 A 
ATOM     65  F   UNL A   1      42.249  23.286  28.637  1.00  0.00    -0.206 F 
ATOM     66  C   UNL A   1      39.258  22.171  26.941  1.00  0.00     0.022 A 
BRANCH  63  67
ATOM     67  S   UNL A   1      37.198  23.471  25.583  1.00  0.00     0.124 S 
ATOM     68  O   UNL A   1      36.644  24.669  26.210  1.00  0.00    -0.237 OA
ATOM     69  O   UNL A   1      37.531  23.585  24.168  1.00  0.00    -0.237 OA
ATOM     70  O   UNL A   1      36.554  22.218  25.975  1.00  0.00    -0.744 OA
ENDBRANCH  63  67
ENDBRANCH  46  60
BRANCH  47  71
ATOM     71  C   UNL A   1      45.852  32.951  29.112  1.00  0.00     0.023 A 
ATOM     72  C   UNL A   1      45.820  34.088  28.287  1.00  0.00     0.031 A 
ATOM     73  C   UNL A   1      46.733  32.962  30.210  1.00  0.00     0.131 A 
ATOM     74  C   UNL A   1      46.685  35.164  28.544  1.00  0.00     0.055 A 
ATOM     75  C   UNL A   1      47.544  34.061  30.498  1.00  0.00     0.041 A 
ATOM     76  F   UNL A   1      46.817  31.899  31.025  1.00  0.00    -0.206 F 
ATOM     77  C   UNL A   1      47.534  35.166  29.654  1.00  0.00     0.022 A 
BRANCH  74  78
ATOM     78  S   UNL A   1      46.762  36.526  27.347  1.00  0.00     0.124 S 
ATOM     79  O   UNL A   1      45.353  36.719  27.027  1.00  0.00    -0.237 OA
ATOM     80  O   UNL A   1      47.394  37.582  28.129  1.00  0.00    -0.237 OA
ATOM     81  O   UNL A   1      47.579  35.981  26.264  1.00  0.00    -0.744 OA
ENDBRANCH  74  78
ENDBRANCH  47  71
BRANCH  59  82
ATOM     82  C   UNL A   1      47.142  27.313  25.199  1.00  0.00     0.023 A 
ATOM     83  C   UNL A   1      47.264  27.793  23.882  1.00  0.00     0.031 A 
ATOM     84  C   UNL A   1      48.145  26.452  25.680  1.00  0.00     0.131 A 
ATOM     85  C   UNL A   1      48.332  27.366  23.077  1.00  0.00     0.055 A 
ATOM     86  C   UNL A   1      49.239  26.083  24.897  1.00  0.00     0.041 A 
ATOM     87  F   UNL A   1      48.081  25.957  26.927  1.00  0.00    -0.206 F 
ATOM     88  C   UNL A   1      49.331  26.530  23.582  1.00  0.00     0.022 A 
BRANCH  85  89
ATOM     89  S   UNL A   1      48.348  27.842  21.326  1.00  0.00     0.124 S 
ATOM     90  O   UNL A   1      46.999  28.366  21.142  1.00  0.00    -0.237 OA
ATOM     91  O   UNL A   1      49.427  28.824  21.279  1.00  0.00    -0.237 OA
ATOM     92  O   UNL A   1      48.626  26.585  20.632  1.00  0.00    -0.744 OA
ENDBRANCH  85  89
ENDBRANCH  59  82
ENDBRANCH  33  34
ENDBRANCH  26  28
ENDBRANCH  25  26
ENDBRANCH  24  25
ENDBRANCH  23  24
ENDBRANCH  22  23
ENDBRANCH  21  22
ENDBRANCH   1  21
TORSDOF 24
ENDMDL
MODEL 2
REMARK VINA RESULT:      -8.8      4.091     10.160
REMARK SMILES COCCOCC[C@@H]1CCC[C@]1([NH3+])C(=O)OCCOCCOC(=O)c1ccc(-c2c3nc(c(-c4cc(S(=O)(=O)[O-])ccc4F)c4ccc([nH]4)c(-c4cc(S(=O)(=O)[O-])ccc4F)c4nc(c(-c5cc(S(=O)(=O)[O-])ccc5F)c5ccc2[nH]5)C=C4)C=C3)cc1
REMARK SMILES IDX 17 1 16 2 14 3 15 4 12 5 8 6 9 7 10 8 11 9 7 10 6 11 5 12
REMARK SMILES IDX 4 13 3 14 2 15 1 16 13 17 18 21 19 22 20 23 21 24 22 25
REMARK SMILES IDX 23 26 24 27 25 28 26 29 87 30 27 31 86 32 28 33 29 34 30 35
REMARK SMILES IDX 80 36 31 37 85 38 79 39 81 40 32 41 84 42 78 43 77 44 33 46
REMARK SMILES IDX 65 47 45 48 64 49 46 50 49 51 63 52 82 53 47 54 48 55 62 57
REMARK SMILES IDX 83 58 50 59 34 60 35 61 43 62 36 63 42 64 44 65 41 66 37 67
REMARK SMILES IDX 38 68 39 69 40 70 66 71 67 72 75 73 68 74 74 75 76 76 73 77
REMARK SMILES IDX 69 78 70 79 71 80 72 81 51 82 52 83 60 84 53 85 59 86 61 87
REMARK SMILES IDX 58 88 54 89 55 90 56 91 57 92
REMARK H PARENT 13 18 13 19 13 20 81 45 49 56
REMARK Flexibility Score: inf
ROOT
ATOM      1  C   UNL A   1      32.225  25.629  25.991  1.00  0.00     0.261 C 
ENDROOT
BRANCH   1   2
ATOM      2  O   UNL A   1      33.024  26.671  25.323  1.00  0.00    -0.459 OA
BRANCH   2   3
ATOM      3  C   UNL A   1      32.212  27.578  24.717  1.00  0.00     0.368 C 
ATOM      4  O   UNL A   1      31.300  27.997  25.414  1.00  0.00    -0.245 OA
BRANCH   3   5
ATOM      5  C   UNL A   1      32.409  27.906  23.160  1.00  0.00     0.195 C 
ATOM      6  C   UNL A   1      31.202  27.363  22.434  1.00  0.00     0.065 C 
ATOM      7  C   UNL A   1      31.691  25.932  22.088  1.00  0.00     0.011 C 
ATOM      8  C   UNL A   1      33.239  25.981  22.029  1.00  0.00     0.008 C 
ATOM      9  C   UNL A   1      33.641  27.359  22.475  1.00  0.00     0.081 C 
BRANCH   6  10
ATOM     10  C   UNL A   1      29.871  27.586  23.230  1.00  0.00     0.039 C 
BRANCH  10  11
ATOM     11  C   UNL A   1      28.925  28.874  22.965  1.00  0.00     0.161 C 
BRANCH  11  12
ATOM     12  O   UNL A   1      29.359  30.155  23.519  1.00  0.00    -0.379 OA
BRANCH  12  13
ATOM     13  C   UNL A   1      28.435  31.302  23.556  1.00  0.00     0.188 C 
BRANCH  13  14
ATOM     14  C   UNL A   1      28.757  32.785  22.849  1.00  0.00     0.188 C 
BRANCH  14  15
ATOM     15  O   UNL A   1      28.025  33.318  21.714  1.00  0.00    -0.382 OA
ATOM     16  C   UNL A   1      27.850  32.478  20.558  1.00  0.00     0.195 C 
ENDBRANCH  14  15
ENDBRANCH  13  14
ENDBRANCH  12  13
ENDBRANCH  11  12
ENDBRANCH  10  11
ENDBRANCH   6  10
BRANCH   5  17
ATOM     17  N   UNL A   1      32.496  29.328  22.715  1.00  0.00    -0.343 N 
ATOM     18  H   UNL A   1      31.989  29.921  23.372  1.00  0.00     0.345 HD
ATOM     19  H   UNL A   1      32.086  29.421  21.786  1.00  0.00     0.345 HD
ATOM     20  H   UNL A   1      33.475  29.615  22.684  1.00  0.00     0.345 HD
ENDBRANCH   5  17
ENDBRANCH   3   5
ENDBRANCH   2   3
ENDBRANCH   1   2
BRANCH   1  21
ATOM     21  C   UNL A   1      32.702  24.209  25.738  1.00  0.00     0.202 C 
BRANCH  21  22
ATOM     22  O   UNL A   1      34.106  24.127  25.898  1.00  0.00    -0.374 OA
BRANCH  22  23
ATOM     23  C   UNL A   1      34.539  22.794  26.167  1.00  0.00     0.202 C 
BRANCH  23  24
ATOM     24  C   UNL A   1      36.001  22.445  25.808  1.00  0.00     0.261 C 
BRANCH  24  25
ATOM     25  O   UNL A   1      36.998  23.484  25.952  1.00  0.00    -0.460 OA
BRANCH  25  26
ATOM     26  C   UNL A   1      38.268  23.096  26.182  1.00  0.00     0.338 C 
ATOM     27  O   UNL A   1      38.759  22.026  25.847  1.00  0.00    -0.246 OA
BRANCH  26  28
ATOM     28  C   UNL A   1      39.051  24.236  26.721  1.00  0.00     0.060 A 
ATOM     29  C   UNL A   1      38.877  24.590  28.066  1.00  0.00     0.016 A 
ATOM     30  C   UNL A   1      39.887  25.005  25.906  1.00  0.00     0.016 A 
ATOM     31  C   UNL A   1      39.488  25.738  28.583  1.00  0.00     0.010 A 
ATOM     32  C   UNL A   1      40.482  26.170  26.422  1.00  0.00     0.010 A 
ATOM     33  C   UNL A   1      40.254  26.567  27.754  1.00  0.00    -0.014 A 
BRANCH  33  34
ATOM     34  C   UNL A   1      40.638  27.930  28.226  1.00  0.00     0.031 A 
ATOM     35  C   UNL A   1      42.103  28.290  28.285  1.00  0.00     0.074 A 
ATOM     36  C   UNL A   1      39.718  28.864  28.540  1.00  0.00     0.049 A 
ATOM     37  N   UNL A   1      42.678  29.386  28.709  1.00  0.00    -0.248 NA
ATOM     38  C   UNL A   1      43.040  27.271  27.790  1.00  0.00     0.031 C 
ATOM     39  C   UNL A   1      38.272  28.685  28.449  1.00  0.00     0.029 A 
ATOM     40  N   UNL A   1      39.869  30.151  29.002  1.00  0.00    -0.354 N 
ATOM     41  C   UNL A   1      44.045  29.191  28.534  1.00  0.00     0.074 A 
ATOM     42  C   UNL A   1      44.210  27.856  27.997  1.00  0.00     0.031 C 
ATOM     43  C   UNL A   1      37.667  29.815  28.858  1.00  0.00     0.029 A 
ATOM     44  C   UNL A   1      38.680  30.782  29.287  1.00  0.00     0.049 A 
ATOM     45  H   UNL A   1      40.747  30.581  29.119  1.00  0.00     0.167 HD
ATOM     46  C   UNL A   1      45.069  30.044  28.790  1.00  0.00     0.034 A 
ATOM     47  C   UNL A   1      38.432  31.978  29.864  1.00  0.00     0.034 A 
ATOM     48  C   UNL A   1      44.900  31.368  29.340  1.00  0.00     0.049 A 
ATOM     49  C   UNL A   1      39.594  32.860  30.269  1.00  0.00     0.074 A 
ATOM     50  C   UNL A   1      45.872  32.308  29.635  1.00  0.00     0.029 A 
ATOM     51  N   UNL A   1      43.684  31.936  29.695  1.00  0.00    -0.354 N 
ATOM     52  N   UNL A   1      40.882  32.658  30.109  1.00  0.00    -0.248 NA
ATOM     53  C   UNL A   1      39.265  34.131  30.932  1.00  0.00     0.031 C 
ATOM     54  C   UNL A   1      45.255  33.405  30.246  1.00  0.00     0.029 A 
ATOM     55  C   UNL A   1      43.887  33.192  30.250  1.00  0.00     0.049 A 
ATOM     56  H   UNL A   1      42.805  31.509  29.571  1.00  0.00     0.167 HD
ATOM     57  C   UNL A   1      41.512  33.787  30.631  1.00  0.00     0.074 A 
ATOM     58  C   UNL A   1      40.464  34.675  31.088  1.00  0.00     0.031 C 
ATOM     59  C   UNL A   1      42.839  34.067  30.722  1.00  0.00     0.034 A 
BRANCH  46  60
ATOM     60  C   UNL A   1      46.472  29.543  28.537  1.00  0.00     0.023 A 
ATOM     61  C   UNL A   1      47.189  28.817  29.505  1.00  0.00     0.031 A 
ATOM     62  C   UNL A   1      47.110  29.815  27.313  1.00  0.00     0.131 A 
ATOM     63  C   UNL A   1      48.520  28.446  29.256  1.00  0.00     0.055 A 
ATOM     64  C   UNL A   1      48.405  29.371  27.041  1.00  0.00     0.041 A 
ATOM     65  F   UNL A   1      46.485  30.524  26.360  1.00  0.00    -0.206 F 
ATOM     66  C   UNL A   1      49.124  28.695  28.021  1.00  0.00     0.022 A 
BRANCH  63  67
ATOM     67  S   UNL A   1      49.499  27.765  30.623  1.00  0.00     0.124 S 
ATOM     68  O   UNL A   1      50.484  26.957  29.908  1.00  0.00    -0.237 OA
ATOM     69  O   UNL A   1      50.008  28.966  31.276  1.00  0.00    -0.237 OA
ATOM     70  O   UNL A   1      48.521  27.000  31.397  1.00  0.00    -0.744 OA
ENDBRANCH  63  67
ENDBRANCH  46  60
BRANCH  47  71
ATOM     71  C   UNL A   1      37.031  32.395  30.176  1.00  0.00     0.023 A 
ATOM     72  C   UNL A   1      36.248  33.098  29.245  1.00  0.00     0.031 A 
ATOM     73  C   UNL A   1      36.484  32.163  31.452  1.00  0.00     0.131 A 
ATOM     74  C   UNL A   1      34.984  33.585  29.620  1.00  0.00     0.055 A 
ATOM     75  C   UNL A   1      35.202  32.594  31.797  1.00  0.00     0.041 A 
ATOM     76  F   UNL A   1      37.191  31.510  32.387  1.00  0.00    -0.206 F 
ATOM     77  C   UNL A   1      34.448  33.322  30.883  1.00  0.00     0.022 A 
BRANCH  74  78
ATOM     78  S   UNL A   1      34.087  34.658  28.464  1.00  0.00     0.124 S 
ATOM     79  O   UNL A   1      32.800  33.979  28.367  1.00  0.00    -0.237 OA
ATOM     80  O   UNL A   1      34.088  35.933  29.172  1.00  0.00    -0.237 OA
ATOM     81  O   UNL A   1      34.907  34.619  27.255  1.00  0.00    -0.744 OA
ENDBRANCH  74  78
ENDBRANCH  47  71
BRANCH  59  82
ATOM     82  C   UNL A   1      43.230  35.405  31.309  1.00  0.00     0.023 A 
ATOM     83  C   UNL A   1      43.269  35.621  32.698  1.00  0.00     0.031 A 
ATOM     84  C   UNL A   1      43.564  36.481  30.466  1.00  0.00     0.131 A 
ATOM     85  C   UNL A   1      43.580  36.896  33.200  1.00  0.00     0.055 A 
ATOM     86  C   UNL A   1      43.936  37.727  30.972  1.00  0.00     0.041 A 
ATOM     87  F   UNL A   1      43.540  36.336  29.131  1.00  0.00    -0.206 F 
ATOM     88  C   UNL A   1      43.933  37.944  32.347  1.00  0.00     0.022 A 
BRANCH  85  89
ATOM     89  S   UNL A   1      43.423  37.192  34.984  1.00  0.00     0.124 S 
ATOM     90  O   UNL A   1      44.455  36.315  35.527  1.00  0.00    -0.237 OA
ATOM     91  O   UNL A   1      43.682  38.624  35.087  1.00  0.00    -0.237 OA
ATOM     92  O   UNL A   1      42.048  36.789  35.278  1.00  0.00    -0.744 OA
ENDBRANCH  85  89
ENDBRANCH  59  82
ENDBRANCH  33  34
ENDBRANCH  26  28
ENDBRANCH  25  26
ENDBRANCH  24  25
ENDBRANCH  23  24
ENDBRANCH  22  23
ENDBRANCH  21  22
ENDBRANCH   1  21
TORSDOF 24
ENDMDL
MODEL 3
REMARK VINA RESULT:      -8.8      3.425      9.872
REMARK SMILES COCCOCC[C@@H]1CCC[C@]1([NH3+])C(=O)OCCOCCOC(=O)c1ccc(-c2c3nc(c(-c4cc(S(=O)(=O)[O-])ccc4F)c4ccc([nH]4)c(-c4cc(S(=O)(=O)[O-])ccc4F)c4nc(c(-c5cc(S(=O)(=O)[O-])ccc5F)c5ccc2[nH]5)C=C4)C=C3)cc1
REMARK SMILES IDX 17 1 16 2 14 3 15 4 12 5 8 6 9 7 10 8 11 9 7 10 6 11 5 12
REMARK SMILES IDX 4 13 3 14 2 15 1 16 13 17 18 21 19 22 20 23 21 24 22 25
REMARK SMILES IDX 23 26 24 27 25 28 26 29 87 30 27 31 86 32 28 33 29 34 30 35
REMARK SMILES IDX 80 36 31 37 85 38 79 39 81 40 32 41 84 42 78 43 77 44 33 46
REMARK SMILES IDX 65 47 45 48 64 49 46 50 49 51 63 52 82 53 47 54 48 55 62 57
REMARK SMILES IDX 83 58 50 59 34 60 35 61 43 62 36 63 42 64 44 65 41 66 37 67
REMARK SMILES IDX 38 68 39 69 40 70 66 71 67 72 75 73 68 74 74 75 76 76 73 77
REMARK SMILES IDX 69 78 70 79 71 80 72 81 51 82 52 83 60 84 53 85 59 86 61 87
REMARK SMILES IDX 58 88 54 89 55 90 56 91 57 92
REMARK H PARENT 13 18 13 19 13 20 81 45 49 56
REMARK Flexibility Score: inf
ROOT
ATOM      1  C   UNL A   1      32.093  25.443  25.615  1.00  0.00     0.261 C 
ENDROOT
BRANCH   1   2
ATOM      2  O   UNL A   1      33.005  26.433  25.016  1.00  0.00    -0.459 OA
BRANCH   2   3
ATOM      3  C   UNL A   1      32.306  27.497  24.540  1.00  0.00     0.368 C 
ATOM      4  O   UNL A   1      31.613  28.068  25.369  1.00  0.00    -0.245 OA
BRANCH   3   5
ATOM      5  C   UNL A   1      32.324  27.822  22.970  1.00  0.00     0.195 C 
ATOM      6  C   UNL A   1      31.091  27.191  22.371  1.00  0.00     0.065 C 
ATOM      7  C   UNL A   1      31.640  25.793  21.982  1.00  0.00     0.011 C 
ATOM      8  C   UNL A   1      33.168  25.946  21.768  1.00  0.00     0.008 C 
ATOM      9  C   UNL A   1      33.516  27.353  22.167  1.00  0.00     0.081 C 
BRANCH   6  10
ATOM     10  C   UNL A   1      29.833  27.331  23.295  1.00  0.00     0.039 C 
BRANCH  10  11
ATOM     11  C   UNL A   1      28.735  28.500  23.068  1.00  0.00     0.161 C 
BRANCH  11  12
ATOM     12  O   UNL A   1      29.217  29.794  22.589  1.00  0.00    -0.379 OA
BRANCH  12  13
ATOM     13  C   UNL A   1      28.993  31.014  23.385  1.00  0.00     0.188 C 
BRANCH  13  14
ATOM     14  C   UNL A   1      28.776  32.536  22.723  1.00  0.00     0.188 C 
BRANCH  14  15
ATOM     15  O   UNL A   1      27.794  32.842  21.698  1.00  0.00    -0.382 OA
ATOM     16  C   UNL A   1      27.971  32.269  20.388  1.00  0.00     0.195 C 
ENDBRANCH  14  15
ENDBRANCH  13  14
ENDBRANCH  12  13
ENDBRANCH  11  12
ENDBRANCH  10  11
ENDBRANCH   6  10
BRANCH   5  17
ATOM     17  N   UNL A   1      32.268  29.243  22.514  1.00  0.00    -0.343 N 
ATOM     18  H   UNL A   1      32.540  29.295  21.532  1.00  0.00     0.345 HD
ATOM     19  H   UNL A   1      32.907  29.806  23.074  1.00  0.00     0.345 HD
ATOM     20  H   UNL A   1      31.317  29.597  22.623  1.00  0.00     0.345 HD
ENDBRANCH   5  17
ENDBRANCH   3   5
ENDBRANCH   2   3
ENDBRANCH   1   2
BRANCH   1  21
ATOM     21  C   UNL A   1      32.602  24.012  25.576  1.00  0.00     0.202 C 
BRANCH  21  22
ATOM     22  O   UNL A   1      33.970  23.967  25.935  1.00  0.00    -0.374 OA
BRANCH  22  23
ATOM     23  C   UNL A   1      34.391  22.649  26.286  1.00  0.00     0.202 C 
BRANCH  23  24
ATOM     24  C   UNL A   1      35.888  22.318  26.101  1.00  0.00     0.261 C 
BRANCH  24  25
ATOM     25  O   UNL A   1      36.829  23.418  26.108  1.00  0.00    -0.460 OA
BRANCH  25  26
ATOM     26  C   UNL A   1      38.142  23.111  26.080  1.00  0.00     0.338 C 
ATOM     27  O   UNL A   1      38.638  22.153  25.501  1.00  0.00    -0.246 OA
BRANCH  26  28
ATOM     28  C   UNL A   1      38.929  24.216  26.681  1.00  0.00     0.060 A 
ATOM     29  C   UNL A   1      38.695  24.551  28.022  1.00  0.00     0.016 A 
ATOM     30  C   UNL A   1      39.828  24.974  25.925  1.00  0.00     0.016 A 
ATOM     31  C   UNL A   1      39.312  25.670  28.593  1.00  0.00     0.010 A 
ATOM     32  C   UNL A   1      40.430  26.111  26.494  1.00  0.00     0.010 A 
ATOM     33  C   UNL A   1      40.144  26.490  27.821  1.00  0.00    -0.014 A 
BRANCH  33  34
ATOM     34  C   UNL A   1      40.544  27.832  28.339  1.00  0.00     0.031 A 
ATOM     35  C   UNL A   1      42.013  28.147  28.476  1.00  0.00     0.074 A 
ATOM     36  C   UNL A   1      39.636  28.786  28.628  1.00  0.00     0.049 A 
ATOM     37  N   UNL A   1      42.598  29.218  28.949  1.00  0.00    -0.248 NA
ATOM     38  C   UNL A   1      42.945  27.111  28.004  1.00  0.00     0.031 C 
ATOM     39  C   UNL A   1      38.191  28.651  28.465  1.00  0.00     0.029 A 
ATOM     40  N   UNL A   1      39.801  30.059  29.124  1.00  0.00    -0.354 N 
ATOM     41  C   UNL A   1      43.966  28.986  28.836  1.00  0.00     0.074 A 
ATOM     42  C   UNL A   1      44.119  27.658  28.279  1.00  0.00     0.031 C 
ATOM     43  C   UNL A   1      37.600  29.790  28.867  1.00  0.00     0.029 A 
ATOM     44  C   UNL A   1      38.617  30.718  29.365  1.00  0.00     0.049 A 
ATOM     45  H   UNL A   1      40.684  30.461  29.291  1.00  0.00     0.167 HD
ATOM     46  C   UNL A   1      45.000  29.804  29.158  1.00  0.00     0.034 A 
ATOM     47  C   UNL A   1      38.376  31.910  29.953  1.00  0.00     0.034 A 
ATOM     48  C   UNL A   1      44.842  31.121  29.727  1.00  0.00     0.049 A 
ATOM     49  C   UNL A   1      39.541  32.749  30.432  1.00  0.00     0.074 A 
ATOM     50  C   UNL A   1      45.825  32.027  30.087  1.00  0.00     0.029 A 
ATOM     51  N   UNL A   1      43.627  31.718  30.035  1.00  0.00    -0.354 N 
ATOM     52  N   UNL A   1      40.830  32.513  30.330  1.00  0.00    -0.248 NA
ATOM     53  C   UNL A   1      39.217  34.016  31.105  1.00  0.00     0.031 C 
ATOM     54  C   UNL A   1      45.210  33.129  30.691  1.00  0.00     0.029 A 
ATOM     55  C   UNL A   1      43.838  32.956  30.625  1.00  0.00     0.049 A 
ATOM     56  H   UNL A   1      42.743  31.319  29.860  1.00  0.00     0.167 HD
ATOM     57  C   UNL A   1      41.465  33.613  30.904  1.00  0.00     0.074 A 
ATOM     58  C   UNL A   1      40.422  34.522  31.329  1.00  0.00     0.031 C 
ATOM     59  C   UNL A   1      42.793  33.852  31.064  1.00  0.00     0.034 A 
BRANCH  46  60
ATOM     60  C   UNL A   1      46.399  29.268  28.962  1.00  0.00     0.023 A 
ATOM     61  C   UNL A   1      46.970  29.130  27.684  1.00  0.00     0.031 A 
ATOM     62  C   UNL A   1      47.166  28.870  30.071  1.00  0.00     0.131 A 
ATOM     63  C   UNL A   1      48.240  28.548  27.546  1.00  0.00     0.055 A 
ATOM     64  C   UNL A   1      48.462  28.369  29.932  1.00  0.00     0.041 A 
ATOM     65  F   UNL A   1      46.666  28.956  31.314  1.00  0.00    -0.206 F 
ATOM     66  C   UNL A   1      49.001  28.192  28.662  1.00  0.00     0.022 A 
BRANCH  63  67
ATOM     67  S   UNL A   1      48.824  28.129  25.880  1.00  0.00     0.124 S 
ATOM     68  O   UNL A   1      48.971  26.679  25.974  1.00  0.00    -0.237 OA
ATOM     69  O   UNL A   1      47.736  28.608  25.034  1.00  0.00    -0.237 OA
ATOM     70  O   UNL A   1      50.080  28.868  25.761  1.00  0.00    -0.744 OA
ENDBRANCH  63  67
ENDBRANCH  46  60
BRANCH  47  71
ATOM     71  C   UNL A   1      36.974  32.361  30.207  1.00  0.00     0.023 A 
ATOM     72  C   UNL A   1      36.230  33.038  29.227  1.00  0.00     0.031 A 
ATOM     73  C   UNL A   1      36.386  32.190  31.475  1.00  0.00     0.131 A 
ATOM     74  C   UNL A   1      34.965  33.560  29.544  1.00  0.00     0.055 A 
ATOM     75  C   UNL A   1      35.102  32.654  31.764  1.00  0.00     0.041 A 
ATOM     76  F   UNL A   1      37.055  31.564  32.455  1.00  0.00    -0.206 F 
ATOM     77  C   UNL A   1      34.388  33.357  30.800  1.00  0.00     0.022 A 
BRANCH  74  78
ATOM     78  S   UNL A   1      34.120  34.600  28.320  1.00  0.00     0.124 S 
ATOM     79  O   UNL A   1      35.002  34.477  27.166  1.00  0.00    -0.237 OA
ATOM     80  O   UNL A   1      32.822  33.945  28.209  1.00  0.00    -0.237 OA
ATOM     81  O   UNL A   1      34.097  35.919  28.952  1.00  0.00    -0.744 OA
ENDBRANCH  74  78
ENDBRANCH  47  71
BRANCH  59  82
ATOM     82  C   UNL A   1      43.193  35.166  31.697  1.00  0.00     0.023 A 
ATOM     83  C   UNL A   1      43.541  36.287  30.921  1.00  0.00     0.031 A 
ATOM     84  C   UNL A   1      43.231  35.298  33.097  1.00  0.00     0.131 A 
ATOM     85  C   UNL A   1      43.963  37.470  31.549  1.00  0.00     0.055 A 
ATOM     86  C   UNL A   1      43.589  36.497  33.716  1.00  0.00     0.041 A 
ATOM     87  F   UNL A   1      42.915  34.262  33.891  1.00  0.00    -0.206 F 
ATOM     88  C   UNL A   1      43.970  37.589  32.941  1.00  0.00     0.022 A 
BRANCH  85  89
ATOM     89  S   UNL A   1      44.596  38.824  30.520  1.00  0.00     0.124 S 
ATOM     90  O   UNL A   1      43.399  39.240  29.798  1.00  0.00    -0.237 OA
ATOM     91  O   UNL A   1      45.100  39.764  31.516  1.00  0.00    -0.237 OA
ATOM     92  O   UNL A   1      45.623  38.181  29.701  1.00  0.00    -0.744 OA
ENDBRANCH  85  89
ENDBRANCH  59  82
ENDBRANCH  33  34
ENDBRANCH  26  28
ENDBRANCH  25  26
ENDBRANCH  24  25
ENDBRANCH  23  24
ENDBRANCH  22  23
ENDBRANCH  21  22
ENDBRANCH   1  21
TORSDOF 24
ENDMDL
