MODEL 1
REMARK VINA RESULT:     -12.1      0.000      0.000
REMARK SMILES Nc1ccc(-c2cc(Cl)cc3c2O[C@H](C(F)(F)F)C(C(=O)OCCOCCOC(=O)c2ccc(-c4c5nc(c(-c6cc(S(=O)(=O)[O-])ccc6F)c6ccc([nH]6)c(-c6cc(S(=O)(=O)[O-])ccc6F)c6nc(c(-c7cc(S(=O)(=O)[O-])ccc7F)c7ccc4[nH]7)C=C6)C=C5)cc2)=C3)cc1
REMARK SMILES IDX 26 1 25 2 24 3 23 4 22 5 20 6 21 7 19 8 6 9 7 10 12 11 8 12
REMARK SMILES IDX 11 13 13 14 9 15 10 16 94 17 14 18 5 19 2 20 3 21 96 22 4 23
REMARK SMILES IDX 95 24 1 25 15 28 16 29 17 30 18 31 27 32 28 33 29 34 30 35
REMARK SMILES IDX 31 36 32 37 93 38 33 39 92 40 34 41 35 42 36 43 86 44 37 45
REMARK SMILES IDX 91 46 85 47 87 48 38 49 90 50 84 51 83 52 39 54 71 55 51 56
REMARK SMILES IDX 70 57 52 58 55 59 69 60 88 61 53 62 54 63 68 65 89 66 56 67
REMARK SMILES IDX 40 68 41 69 49 70 42 71 48 72 50 73 47 74 43 75 44 76 45 77
REMARK SMILES IDX 46 78 72 79 73 80 81 81 74 82 80 83 82 84 79 85 75 86 76 87
REMARK SMILES IDX 77 88 78 89 57 90 58 91 66 92 59 93 65 94 67 95 64 96 60 97
REMARK SMILES IDX 61 98 62 99 63 100
REMARK H PARENT 1 26 1 27 87 53 55 64
REMARK Flexibility Score: inf
ROOT
ATOM      1  C   UNL A   1      35.963  20.068  25.008  1.00  0.00     0.202 C 
ENDROOT
BRANCH   1   2
ATOM      2  O   UNL A   1      34.617  20.208  24.558  1.00  0.00    -0.374 OA
BRANCH   2   3
ATOM      3  C   UNL A   1      33.607  20.529  25.512  1.00  0.00     0.202 C 
BRANCH   3   4
ATOM      4  C   UNL A   1      32.167  20.680  25.009  1.00  0.00     0.261 C 
BRANCH   4   5
ATOM      5  O   UNL A   1      31.673  22.018  25.166  1.00  0.00    -0.460 OA
BRANCH   5   6
ATOM      6  C   UNL A   1      31.765  22.781  24.051  1.00  0.00     0.338 C 
ATOM      7  O   UNL A   1      31.857  22.391  22.898  1.00  0.00    -0.246 OA
BRANCH   6   8
ATOM      8  C   UNL A   1      31.602  24.204  24.406  1.00  0.00     0.087 C 
ATOM      9  C   UNL A   1      31.408  28.350  24.924  1.00  0.00     0.026 A 
ATOM     10  C   UNL A   1      30.526  29.078  24.102  1.00  0.00     0.033 A 
ATOM     11  C   UNL A   1      31.394  26.941  24.834  1.00  0.00     0.135 A 
ATOM     12  C   UNL A   1      29.660  28.425  23.227  1.00  0.00     0.042 A 
ATOM     13  C   UNL A   1      30.555  26.296  23.917  1.00  0.00     0.019 A 
ATOM     14  O   UNL A   1      32.204  26.243  25.693  1.00  0.00    -0.475 OA
ATOM     15  Cl  UNL A   1      28.599  29.341  22.230  1.00  0.00    -0.084 Cl
ATOM     16  C   UNL A   1      29.672  27.039  23.129  1.00  0.00     0.032 A 
ATOM     17  C   UNL A   1      30.656  24.862  23.723  1.00  0.00     0.027 C 
ATOM     18  C   UNL A   1      32.482  24.838  25.443  1.00  0.00     0.316 C 
BRANCH   9  19
ATOM     19  C   UNL A   1      32.352  29.077  25.793  1.00  0.00    -0.014 A 
ATOM     20  C   UNL A   1      34.190  30.483  27.433  1.00  0.00     0.031 A 
ATOM     21  C   UNL A   1      34.585  29.338  26.743  1.00  0.00     0.026 A 
ATOM     22  C   UNL A   1      32.889  30.953  27.256  1.00  0.00     0.026 A 
ATOM     23  C   UNL A   1      33.677  28.638  25.941  1.00  0.00     0.011 A 
ATOM     24  C   UNL A   1      31.975  30.252  26.459  1.00  0.00     0.011 A 
BRANCH  20  25
ATOM     25  N   UNL A   1      35.114  31.218  28.161  1.00  0.00    -0.399 N 
ATOM     26  H   UNL A   1      36.075  31.137  27.960  1.00  0.00     0.156 HD
ATOM     27  H   UNL A   1      34.810  31.822  28.876  1.00  0.00     0.156 HD
ENDBRANCH  20  25
ENDBRANCH   9  19
BRANCH  18  28
ATOM     28  C   UNL A   1      33.976  24.692  25.121  1.00  0.00     0.430 C 
ATOM     29  F   UNL A   1      34.200  24.731  23.786  1.00  0.00    -0.167 F 
ATOM     30  F   UNL A   1      34.710  25.684  25.672  1.00  0.00    -0.167 F 
ATOM     31  F   UNL A   1      34.471  23.518  25.578  1.00  0.00    -0.167 F 
ENDBRANCH  18  28
ENDBRANCH   6   8
ENDBRANCH   5   6
ENDBRANCH   4   5
ENDBRANCH   3   4
ENDBRANCH   2   3
ENDBRANCH   1   2
BRANCH   1  32
ATOM     32  C   UNL A   1      36.639  21.246  25.721  1.00  0.00     0.261 C 
BRANCH  32  33
ATOM     33  O   UNL A   1      37.916  21.589  25.160  1.00  0.00    -0.460 OA
BRANCH  33  34
ATOM     34  C   UNL A   1      38.978  21.294  25.953  1.00  0.00     0.338 C 
ATOM     35  O   UNL A   1      39.544  20.215  26.048  1.00  0.00    -0.246 OA
BRANCH  34  36
ATOM     36  C   UNL A   1      39.507  22.537  26.545  1.00  0.00     0.060 A 
ATOM     37  C   UNL A   1      40.523  22.509  27.500  1.00  0.00     0.016 A 
ATOM     38  C   UNL A   1      38.989  23.758  26.092  1.00  0.00     0.016 A 
ATOM     39  C   UNL A   1      41.043  23.715  27.977  1.00  0.00     0.010 A 
ATOM     40  C   UNL A   1      39.512  24.960  26.567  1.00  0.00     0.010 A 
ATOM     41  C   UNL A   1      40.561  24.949  27.496  1.00  0.00    -0.014 A 
BRANCH  41  42
ATOM     42  C   UNL A   1      41.271  26.207  27.839  1.00  0.00     0.031 A 
ATOM     43  C   UNL A   1      42.666  26.488  27.369  1.00  0.00     0.074 A 
ATOM     44  C   UNL A   1      40.630  27.099  28.620  1.00  0.00     0.049 A 
ATOM     45  N   UNL A   1      43.366  27.584  27.501  1.00  0.00    -0.248 NA
ATOM     46  C   UNL A   1      43.372  25.402  26.674  1.00  0.00     0.031 C 
ATOM     47  C   UNL A   1      39.298  26.895  29.190  1.00  0.00     0.029 A 
ATOM     48  N   UNL A   1      40.994  28.346  29.061  1.00  0.00    -0.354 N 
ATOM     49  C   UNL A   1      44.589  27.334  26.891  1.00  0.00     0.074 A 
ATOM     50  C   UNL A   1      44.554  25.960  26.437  1.00  0.00     0.031 C 
ATOM     51  C   UNL A   1      38.939  27.994  29.866  1.00  0.00     0.029 A 
ATOM     52  C   UNL A   1      40.026  28.968  29.814  1.00  0.00     0.049 A 
ATOM     53  H   UNL A   1      41.866  28.756  28.858  1.00  0.00     0.167 HD
ATOM     54  C   UNL A   1      45.627  28.186  26.712  1.00  0.00     0.034 A 
ATOM     55  C   UNL A   1      40.006  30.186  30.394  1.00  0.00     0.034 A 
ATOM     56  C   UNL A   1      45.640  29.550  27.185  1.00  0.00     0.049 A 
ATOM     57  C   UNL A   1      41.178  31.110  30.184  1.00  0.00     0.074 A 
ATOM     58  C   UNL A   1      46.620  30.509  26.991  1.00  0.00     0.029 A 
ATOM     59  N   UNL A   1      44.650  30.148  27.953  1.00  0.00    -0.354 N 
ATOM     60  N   UNL A   1      42.270  30.910  29.485  1.00  0.00    -0.248 NA
ATOM     61  C   UNL A   1      41.113  32.431  30.825  1.00  0.00     0.031 C 
ATOM     62  C   UNL A   1      46.266  31.650  27.711  1.00  0.00     0.029 A 
ATOM     63  C   UNL A   1      45.017  31.446  28.276  1.00  0.00     0.049 A 
ATOM     64  H   UNL A   1      43.810  29.714  28.227  1.00  0.00     0.167 HD
ATOM     65  C   UNL A   1      43.011  32.085  29.583  1.00  0.00     0.074 A 
ATOM     66  C   UNL A   1      42.224  33.003  30.380  1.00  0.00     0.031 C 
ATOM     67  C   UNL A   1      44.232  32.369  29.064  1.00  0.00     0.034 A 
BRANCH  54  68
ATOM     68  C   UNL A   1      46.841  27.709  25.949  1.00  0.00     0.023 A 
ATOM     69  C   UNL A   1      47.019  28.078  24.602  1.00  0.00     0.031 A 
ATOM     70  C   UNL A   1      47.718  26.755  26.496  1.00  0.00     0.131 A 
ATOM     71  C   UNL A   1      48.016  27.460  23.834  1.00  0.00     0.055 A 
ATOM     72  C   UNL A   1      48.741  26.178  25.740  1.00  0.00     0.041 A 
ATOM     73  F   UNL A   1      47.586  26.360  27.773  1.00  0.00    -0.206 F 
ATOM     74  C   UNL A   1      48.882  26.518  24.398  1.00  0.00     0.022 A 
BRANCH  71  75
ATOM     75  S   UNL A   1      48.166  27.782  22.056  1.00  0.00     0.124 S 
ATOM     76  O   UNL A   1      49.388  28.582  21.999  1.00  0.00    -0.237 OA
ATOM     77  O   UNL A   1      48.280  26.432  21.511  1.00  0.00    -0.237 OA
ATOM     78  O   UNL A   1      46.940  28.497  21.723  1.00  0.00    -0.744 OA
ENDBRANCH  71  75
ENDBRANCH  54  68
BRANCH  55  79
ATOM     79  C   UNL A   1      38.790  30.607  31.151  1.00  0.00     0.023 A 
ATOM     80  C   UNL A   1      37.844  31.473  30.572  1.00  0.00     0.031 A 
ATOM     81  C   UNL A   1      38.619  30.246  32.498  1.00  0.00     0.131 A 
ATOM     82  C   UNL A   1      36.819  32.010  31.360  1.00  0.00     0.055 A 
ATOM     83  C   UNL A   1      37.547  30.720  33.256  1.00  0.00     0.041 A 
ATOM     84  F   UNL A   1      39.503  29.436  33.100  1.00  0.00    -0.206 F 
ATOM     85  C   UNL A   1      36.650  31.623  32.693  1.00  0.00     0.022 A 
BRANCH  82  86
ATOM     86  S   UNL A   1      35.762  33.341  30.725  1.00  0.00     0.124 S 
ATOM     87  O   UNL A   1      35.951  34.386  31.727  1.00  0.00    -0.237 OA
ATOM     88  O   UNL A   1      36.365  33.601  29.420  1.00  0.00    -0.237 OA
ATOM     89  O   UNL A   1      34.434  32.737  30.686  1.00  0.00    -0.744 OA
ENDBRANCH  82  86
ENDBRANCH  55  79
BRANCH  67  90
ATOM     90  C   UNL A   1      44.836  33.732  29.330  1.00  0.00     0.023 A 
ATOM     91  C   UNL A   1      44.618  34.788  28.423  1.00  0.00     0.031 A 
ATOM     92  C   UNL A   1      45.740  33.944  30.384  1.00  0.00     0.131 A 
ATOM     93  C   UNL A   1      45.332  35.987  28.559  1.00  0.00     0.055 A 
ATOM     94  C   UNL A   1      46.404  35.161  30.551  1.00  0.00     0.041 A 
ATOM     95  F   UNL A   1      45.996  32.967  31.270  1.00  0.00    -0.206 F 
ATOM     96  C   UNL A   1      46.214  36.183  29.626  1.00  0.00     0.022 A 
BRANCH  93  97
ATOM     97  S   UNL A   1      45.224  37.292  27.303  1.00  0.00     0.124 S 
ATOM     98  O   UNL A   1      45.622  38.475  28.062  1.00  0.00    -0.237 OA
ATOM     99  O   UNL A   1      46.189  36.838  26.305  1.00  0.00    -0.237 OA
ATOM    100  O   UNL A   1      43.826  37.263  26.885  1.00  0.00    -0.744 OA
ENDBRANCH  93  97
ENDBRANCH  67  90
ENDBRANCH  41  42
ENDBRANCH  34  36
ENDBRANCH  33  34
ENDBRANCH  32  33
ENDBRANCH   1  32
TORSDOF 20
ENDMDL
MODEL 2
REMARK VINA RESULT:     -11.8      5.063     10.481
REMARK SMILES Nc1ccc(-c2cc(Cl)cc3c2O[C@H](C(F)(F)F)C(C(=O)OCCOCCOC(=O)c2ccc(-c4c5nc(c(-c6cc(S(=O)(=O)[O-])ccc6F)c6ccc([nH]6)c(-c6cc(S(=O)(=O)[O-])ccc6F)c6nc(c(-c7cc(S(=O)(=O)[O-])ccc7F)c7ccc4[nH]7)C=C6)C=C5)cc2)=C3)cc1
REMARK SMILES IDX 26 1 25 2 24 3 23 4 22 5 20 6 21 7 19 8 6 9 7 10 12 11 8 12
REMARK SMILES IDX 11 13 13 14 9 15 10 16 94 17 14 18 5 19 2 20 3 21 96 22 4 23
REMARK SMILES IDX 95 24 1 25 15 28 16 29 17 30 18 31 27 32 28 33 29 34 30 35
REMARK SMILES IDX 31 36 32 37 93 38 33 39 92 40 34 41 35 42 36 43 86 44 37 45
REMARK SMILES IDX 91 46 85 47 87 48 38 49 90 50 84 51 83 52 39 54 71 55 51 56
REMARK SMILES IDX 70 57 52 58 55 59 69 60 88 61 53 62 54 63 68 65 89 66 56 67
REMARK SMILES IDX 40 68 41 69 49 70 42 71 48 72 50 73 47 74 43 75 44 76 45 77
REMARK SMILES IDX 46 78 72 79 73 80 81 81 74 82 80 83 82 84 79 85 75 86 76 87
REMARK SMILES IDX 77 88 78 89 57 90 58 91 66 92 59 93 65 94 67 95 64 96 60 97
REMARK SMILES IDX 61 98 62 99 63 100
REMARK H PARENT 1 26 1 27 87 53 55 64
REMARK Flexibility Score: inf
ROOT
ATOM      1  C   UNL A   1      31.403  29.126  25.318  1.00  0.00     0.202 C 
ENDROOT
BRANCH   1   2
ATOM      2  O   UNL A   1      30.827  28.904  24.033  1.00  0.00    -0.374 OA
BRANCH   2   3
ATOM      3  C   UNL A   1      30.115  27.690  23.802  1.00  0.00     0.202 C 
BRANCH   3   4
ATOM      4  C   UNL A   1      30.870  26.529  23.147  1.00  0.00     0.261 C 
BRANCH   4   5
ATOM      5  O   UNL A   1      31.819  25.925  24.038  1.00  0.00    -0.460 OA
BRANCH   5   6
ATOM      6  C   UNL A   1      33.018  25.651  23.474  1.00  0.00     0.338 C 
ATOM      7  O   UNL A   1      33.650  26.359  22.707  1.00  0.00    -0.246 OA
BRANCH   6   8
ATOM      8  C   UNL A   1      33.553  24.391  24.026  1.00  0.00     0.087 C 
ATOM      9  C   UNL A   1      35.344  20.767  25.100  1.00  0.00     0.026 A 
ATOM     10  C   UNL A   1      36.725  20.771  25.381  1.00  0.00     0.033 A 
ATOM     11  C   UNL A   1      34.712  22.005  24.849  1.00  0.00     0.135 A 
ATOM     12  C   UNL A   1      37.445  21.963  25.416  1.00  0.00     0.042 A 
ATOM     13  C   UNL A   1      35.454  23.192  24.839  1.00  0.00     0.019 A 
ATOM     14  O   UNL A   1      33.355  21.994  24.652  1.00  0.00    -0.475 OA
ATOM     15  Cl  UNL A   1      39.131  21.935  25.755  1.00  0.00    -0.084 Cl
ATOM     16  C   UNL A   1      36.817  23.172  25.144  1.00  0.00     0.032 A 
ATOM     17  C   UNL A   1      34.828  24.435  24.432  1.00  0.00     0.027 C 
ATOM     18  C   UNL A   1      32.699  23.157  24.077  1.00  0.00     0.316 C 
BRANCH   9  19
ATOM     19  C   UNL A   1      34.629  19.481  25.012  1.00  0.00    -0.014 A 
ATOM     20  C   UNL A   1      33.229  17.021  24.815  1.00  0.00     0.031 A 
ATOM     21  C   UNL A   1      32.561  18.194  25.162  1.00  0.00     0.026 A 
ATOM     22  C   UNL A   1      34.589  17.094  24.512  1.00  0.00     0.026 A 
ATOM     23  C   UNL A   1      33.251  19.406  25.269  1.00  0.00     0.011 A 
ATOM     24  C   UNL A   1      35.285  18.304  24.623  1.00  0.00     0.011 A 
BRANCH  20  25
ATOM     25  N   UNL A   1      32.527  15.840  24.630  1.00  0.00    -0.399 N 
ATOM     26  H   UNL A   1      32.224  15.321  25.410  1.00  0.00     0.156 HD
ATOM     27  H   UNL A   1      32.329  15.520  23.721  1.00  0.00     0.156 HD
ENDBRANCH  20  25
ENDBRANCH   9  19
BRANCH  18  28
ATOM     28  C   UNL A   1      32.140  22.766  22.702  1.00  0.00     0.430 C 
ATOM     29  F   UNL A   1      31.867  21.441  22.638  1.00  0.00    -0.167 F 
ATOM     30  F   UNL A   1      30.990  23.419  22.421  1.00  0.00    -0.167 F 
ATOM     31  F   UNL A   1      33.018  23.045  21.711  1.00  0.00    -0.167 F 
ENDBRANCH  18  28
ENDBRANCH   6   8
ENDBRANCH   5   6
ENDBRANCH   4   5
ENDBRANCH   3   4
ENDBRANCH   2   3
ENDBRANCH   1   2
BRANCH   1  32
ATOM     32  C   UNL A   1      31.754  30.559  25.741  1.00  0.00     0.261 C 
BRANCH  32  33
ATOM     33  O   UNL A   1      32.383  30.629  27.031  1.00  0.00    -0.460 OA
BRANCH  33  34
ATOM     34  C   UNL A   1      33.095  31.764  27.251  1.00  0.00     0.338 C 
ATOM     35  O   UNL A   1      32.675  32.911  27.213  1.00  0.00    -0.246 OA
BRANCH  34  36
ATOM     36  C   UNL A   1      34.433  31.411  27.762  1.00  0.00     0.060 A 
ATOM     37  C   UNL A   1      35.395  32.390  28.006  1.00  0.00     0.016 A 
ATOM     38  C   UNL A   1      34.700  30.064  28.038  1.00  0.00     0.016 A 
ATOM     39  C   UNL A   1      36.621  32.015  28.561  1.00  0.00     0.010 A 
ATOM     40  C   UNL A   1      35.924  29.693  28.595  1.00  0.00     0.010 A 
ATOM     41  C   UNL A   1      36.886  30.669  28.884  1.00  0.00    -0.014 A 
BRANCH  41  42
ATOM     42  C   UNL A   1      38.093  30.320  29.676  1.00  0.00     0.031 A 
ATOM     43  C   UNL A   1      38.305  30.825  31.070  1.00  0.00     0.074 A 
ATOM     44  C   UNL A   1      39.026  29.543  29.090  1.00  0.00     0.049 A 
ATOM     45  N   UNL A   1      39.255  30.515  31.914  1.00  0.00    -0.248 NA
ATOM     46  C   UNL A   1      37.341  31.809  31.582  1.00  0.00     0.031 C 
ATOM     47  C   UNL A   1      38.953  29.055  27.713  1.00  0.00     0.029 A 
ATOM     48  N   UNL A   1      40.202  29.020  29.568  1.00  0.00    -0.354 N 
ATOM     49  C   UNL A   1      38.997  31.248  33.066  1.00  0.00     0.074 A 
ATOM     50  C   UNL A   1      37.831  32.060  32.791  1.00  0.00     0.031 C 
ATOM     51  C   UNL A   1      40.011  28.269  27.471  1.00  0.00     0.029 A 
ATOM     52  C   UNL A   1      40.860  28.226  28.658  1.00  0.00     0.049 A 
ATOM     53  H   UNL A   1      40.541  29.198  30.475  1.00  0.00     0.167 HD
ATOM     54  C   UNL A   1      39.664  31.219  34.245  1.00  0.00     0.034 A 
ATOM     55  C   UNL A   1      42.013  27.532  28.764  1.00  0.00     0.034 A 
ATOM     56  C   UNL A   1      40.833  30.407  34.490  1.00  0.00     0.049 A 
ATOM     57  C   UNL A   1      42.738  27.525  30.085  1.00  0.00     0.074 A 
ATOM     58  C   UNL A   1      41.535  30.262  35.674  1.00  0.00     0.029 A 
ATOM     59  N   UNL A   1      41.481  29.621  33.547  1.00  0.00    -0.354 N 
ATOM     60  N   UNL A   1      42.405  28.112  31.211  1.00  0.00    -0.248 NA
ATOM     61  C   UNL A   1      43.984  26.751  30.161  1.00  0.00     0.031 C 
ATOM     62  C   UNL A   1      42.652  29.463  35.427  1.00  0.00     0.029 A 
ATOM     63  C   UNL A   1      42.599  29.025  34.113  1.00  0.00     0.049 A 
ATOM     64  H   UNL A   1      41.190  29.503  32.614  1.00  0.00     0.167 HD
ATOM     65  C   UNL A   1      43.387  27.760  32.134  1.00  0.00     0.074 A 
ATOM     66  C   UNL A   1      44.306  26.881  31.442  1.00  0.00     0.031 C 
ATOM     67  C   UNL A   1      43.515  28.140  33.430  1.00  0.00     0.034 A 
BRANCH  54  68
ATOM     68  C   UNL A   1      39.154  32.059  35.394  1.00  0.00     0.023 A 
ATOM     69  C   UNL A   1      39.612  33.379  35.562  1.00  0.00     0.031 A 
ATOM     70  C   UNL A   1      38.363  31.497  36.413  1.00  0.00     0.131 A 
ATOM     71  C   UNL A   1      39.317  34.076  36.742  1.00  0.00     0.055 A 
ATOM     72  C   UNL A   1      38.030  32.214  37.564  1.00  0.00     0.041 A 
ATOM     73  F   UNL A   1      37.909  30.238  36.308  1.00  0.00    -0.206 F 
ATOM     74  C   UNL A   1      38.523  33.503  37.739  1.00  0.00     0.022 A 
BRANCH  71  75
ATOM     75  S   UNL A   1      40.029  35.712  37.069  1.00  0.00     0.124 S 
ATOM     76  O   UNL A   1      39.654  36.448  35.863  1.00  0.00    -0.237 OA
ATOM     77  O   UNL A   1      39.328  36.111  38.285  1.00  0.00    -0.237 OA
ATOM     78  O   UNL A   1      41.456  35.452  37.218  1.00  0.00    -0.744 OA
ENDBRANCH  71  75
ENDBRANCH  54  68
BRANCH  55  79
ATOM     79  C   UNL A   1      42.484  26.730  27.597  1.00  0.00     0.023 A 
ATOM     80  C   UNL A   1      42.298  25.337  27.557  1.00  0.00     0.031 A 
ATOM     81  C   UNL A   1      43.228  27.328  26.565  1.00  0.00     0.131 A 
ATOM     82  C   UNL A   1      42.917  24.579  26.555  1.00  0.00     0.055 A 
ATOM     83  C   UNL A   1      43.774  26.577  25.522  1.00  0.00     0.041 A 
ATOM     84  F   UNL A   1      43.448  28.651  26.567  1.00  0.00    -0.206 F 
ATOM     85  C   UNL A   1      43.635  25.192  25.523  1.00  0.00     0.022 A 
BRANCH  82  86
ATOM     86  S   UNL A   1      42.935  22.767  26.639  1.00  0.00     0.124 S 
ATOM     87  O   UNL A   1      42.320  22.396  25.368  1.00  0.00    -0.237 OA
ATOM     88  O   UNL A   1      44.364  22.491  26.754  1.00  0.00    -0.237 OA
ATOM     89  O   UNL A   1      42.147  22.470  27.831  1.00  0.00    -0.744 OA
ENDBRANCH  82  86
ENDBRANCH  55  79
BRANCH  67  90
ATOM     90  C   UNL A   1      44.695  27.624  34.226  1.00  0.00     0.023 A 
ATOM     91  C   UNL A   1      44.574  26.439  34.979  1.00  0.00     0.031 A 
ATOM     92  C   UNL A   1      45.876  28.374  34.361  1.00  0.00     0.131 A 
ATOM     93  C   UNL A   1      45.592  26.068  35.869  1.00  0.00     0.055 A 
ATOM     94  C   UNL A   1      46.913  27.968  35.203  1.00  0.00     0.041 A 
ATOM     95  F   UNL A   1      46.039  29.519  33.678  1.00  0.00    -0.206 F 
ATOM     96  C   UNL A   1      46.766  26.819  35.975  1.00  0.00     0.022 A 
BRANCH  93  97
ATOM     97  S   UNL A   1      45.386  24.659  36.994  1.00  0.00     0.124 S 
ATOM     98  O   UNL A   1      44.397  25.171  37.939  1.00  0.00    -0.237 OA
ATOM     99  O   UNL A   1      44.905  23.615  36.093  1.00  0.00    -0.237 OA
ATOM    100  O   UNL A   1      46.722  24.450  37.544  1.00  0.00    -0.744 OA
ENDBRANCH  93  97
ENDBRANCH  67  90
ENDBRANCH  41  42
ENDBRANCH  34  36
ENDBRANCH  33  34
ENDBRANCH  32  33
ENDBRANCH   1  32
TORSDOF 20
ENDMDL
MODEL 3
REMARK VINA RESULT:     -11.8      2.077      2.420
REMARK SMILES Nc1ccc(-c2cc(Cl)cc3c2O[C@H](C(F)(F)F)C(C(=O)OCCOCCOC(=O)c2ccc(-c4c5nc(c(-c6cc(S(=O)(=O)[O-])ccc6F)c6ccc([nH]6)c(-c6cc(S(=O)(=O)[O-])ccc6F)c6nc(c(-c7cc(S(=O)(=O)[O-])ccc7F)c7ccc4[nH]7)C=C6)C=C5)cc2)=C3)cc1
REMARK SMILES IDX 26 1 25 2 24 3 23 4 22 5 20 6 21 7 19 8 6 9 7 10 12 11 8 12
REMARK SMILES IDX 11 13 13 14 9 15 10 16 94 17 14 18 5 19 2 20 3 21 96 22 4 23
REMARK SMILES IDX 95 24 1 25 15 28 16 29 17 30 18 31 27 32 28 33 29 34 30 35
REMARK SMILES IDX 31 36 32 37 93 38 33 39 92 40 34 41 35 42 36 43 86 44 37 45
REMARK SMILES IDX 91 46 85 47 87 48 38 49 90 50 84 51 83 52 39 54 71 55 51 56
REMARK SMILES IDX 70 57 52 58 55 59 69 60 88 61 53 62 54 63 68 65 89 66 56 67
REMARK SMILES IDX 40 68 41 69 49 70 42 71 48 72 50 73 47 74 43 75 44 76 45 77
REMARK SMILES IDX 46 78 72 79 73 80 81 81 74 82 80 83 82 84 79 85 75 86 76 87
REMARK SMILES IDX 77 88 78 89 57 90 58 91 66 92 59 93 65 94 67 95 64 96 60 97
REMARK SMILES IDX 61 98 62 99 63 100
REMARK H PARENT 1 26 1 27 87 53 55 64
REMARK Flexibility Score: inf
ROOT
ATOM      1  C   UNL A   1      35.740  20.081  24.975  1.00  0.00     0.202 C 
ENDROOT
BRANCH   1   2
ATOM      2  O   UNL A   1      34.356  20.063  24.635  1.00  0.00    -0.374 OA
BRANCH   2   3
ATOM      3  C   UNL A   1      33.408  20.509  25.602  1.00  0.00     0.202 C 
BRANCH   3   4
ATOM      4  C   UNL A   1      32.001  20.872  25.114  1.00  0.00     0.261 C 
BRANCH   4   5
ATOM      5  O   UNL A   1      31.699  22.262  25.310  1.00  0.00    -0.460 OA
BRANCH   5   6
ATOM      6  C   UNL A   1      31.637  22.985  24.167  1.00  0.00     0.338 C 
ATOM      7  O   UNL A   1      31.582  22.556  23.026  1.00  0.00    -0.246 OA
BRANCH   6   8
ATOM      8  C   UNL A   1      31.506  24.419  24.492  1.00  0.00     0.087 C 
ATOM      9  C   UNL A   1      31.427  28.577  24.935  1.00  0.00     0.026 A 
ATOM     10  C   UNL A   1      30.603  29.319  24.066  1.00  0.00     0.033 A 
ATOM     11  C   UNL A   1      31.371  27.168  24.867  1.00  0.00     0.135 A 
ATOM     12  C   UNL A   1      29.753  28.679  23.166  1.00  0.00     0.042 A 
ATOM     13  C   UNL A   1      30.549  26.535  23.926  1.00  0.00     0.019 A 
ATOM     14  O   UNL A   1      32.121  26.460  25.770  1.00  0.00    -0.475 OA
ATOM     15  Cl  UNL A   1      28.764  29.611  22.112  1.00  0.00    -0.084 Cl
ATOM     16  C   UNL A   1      29.724  27.291  23.091  1.00  0.00     0.032 A 
ATOM     17  C   UNL A   1      30.611  25.095  23.761  1.00  0.00     0.027 C 
ATOM     18  C   UNL A   1      32.363  25.043  25.554  1.00  0.00     0.316 C 
BRANCH   9  19
ATOM     19  C   UNL A   1      32.358  29.289  25.831  1.00  0.00    -0.014 A 
ATOM     20  C   UNL A   1      34.124  30.654  27.582  1.00  0.00     0.031 A 
ATOM     21  C   UNL A   1      32.821  31.109  27.390  1.00  0.00     0.026 A 
ATOM     22  C   UNL A   1      34.522  29.482  26.937  1.00  0.00     0.026 A 
ATOM     23  C   UNL A   1      31.951  30.443  26.520  1.00  0.00     0.011 A 
ATOM     24  C   UNL A   1      33.657  28.815  26.060  1.00  0.00     0.011 A 
BRANCH  20  25
ATOM     25  N   UNL A   1      34.955  31.269  28.506  1.00  0.00    -0.399 N 
ATOM     26  H   UNL A   1      35.799  31.681  28.212  1.00  0.00     0.156 HD
ATOM     27  H   UNL A   1      34.700  31.295  29.457  1.00  0.00     0.156 HD
ENDBRANCH  20  25
ENDBRANCH   9  19
BRANCH  18  28
ATOM     28  C   UNL A   1      33.864  24.843  25.297  1.00  0.00     0.430 C 
ATOM     29  F   UNL A   1      34.590  25.881  25.777  1.00  0.00    -0.167 F 
ATOM     30  F   UNL A   1      34.334  23.725  25.894  1.00  0.00    -0.167 F 
ATOM     31  F   UNL A   1      34.133  24.742  23.975  1.00  0.00    -0.167 F 
ENDBRANCH  18  28
ENDBRANCH   6   8
ENDBRANCH   5   6
ENDBRANCH   4   5
ENDBRANCH   3   4
ENDBRANCH   2   3
ENDBRANCH   1   2
BRANCH   1  32
ATOM     32  C   UNL A   1      36.343  21.354  25.585  1.00  0.00     0.261 C 
BRANCH  32  33
ATOM     33  O   UNL A   1      37.619  21.702  25.023  1.00  0.00    -0.460 OA
BRANCH  33  34
ATOM     34  C   UNL A   1      38.688  21.286  25.749  1.00  0.00     0.338 C 
ATOM     35  O   UNL A   1      39.193  20.173  25.737  1.00  0.00    -0.246 OA
BRANCH  34  36
ATOM     36  C   UNL A   1      39.306  22.446  26.418  1.00  0.00     0.060 A 
ATOM     37  C   UNL A   1      40.316  22.281  27.366  1.00  0.00     0.016 A 
ATOM     38  C   UNL A   1      38.880  23.728  26.045  1.00  0.00     0.016 A 
ATOM     39  C   UNL A   1      40.923  23.413  27.917  1.00  0.00     0.010 A 
ATOM     40  C   UNL A   1      39.490  24.855  26.594  1.00  0.00     0.010 A 
ATOM     41  C   UNL A   1      40.534  24.707  27.517  1.00  0.00    -0.014 A 
BRANCH  41  42
ATOM     42  C   UNL A   1      41.336  25.884  27.937  1.00  0.00     0.031 A 
ATOM     43  C   UNL A   1      42.755  26.079  27.501  1.00  0.00     0.074 A 
ATOM     44  C   UNL A   1      40.754  26.781  28.759  1.00  0.00     0.049 A 
ATOM     45  N   UNL A   1      43.537  27.108  27.701  1.00  0.00    -0.248 NA
ATOM     46  C   UNL A   1      43.386  24.980  26.755  1.00  0.00     0.031 C 
ATOM     47  C   UNL A   1      39.400  26.652  29.301  1.00  0.00     0.029 A 
ATOM     48  N   UNL A   1      41.207  27.970  29.272  1.00  0.00    -0.354 N 
ATOM     49  C   UNL A   1      44.746  26.796  27.093  1.00  0.00     0.074 A 
ATOM     50  C   UNL A   1      44.611  25.455  26.564  1.00  0.00     0.031 C 
ATOM     51  C   UNL A   1      39.117  27.738  30.032  1.00  0.00     0.029 A 
ATOM     52  C   UNL A   1      40.278  28.624  30.047  1.00  0.00     0.049 A 
ATOM     53  H   UNL A   1      42.111  28.320  29.102  1.00  0.00     0.167 HD
ATOM     54  C   UNL A   1      45.850  27.571  26.973  1.00  0.00     0.034 A 
ATOM     55  C   UNL A   1      40.344  29.807  30.693  1.00  0.00     0.034 A 
ATOM     56  C   UNL A   1      45.963  28.903  27.521  1.00  0.00     0.049 A 
ATOM     57  C   UNL A   1      41.589  30.646  30.549  1.00  0.00     0.074 A 
ATOM     58  C   UNL A   1      47.017  29.790  27.392  1.00  0.00     0.029 A 
ATOM     59  N   UNL A   1      45.010  29.534  28.309  1.00  0.00    -0.354 N 
ATOM     60  N   UNL A   1      42.672  30.398  29.852  1.00  0.00    -0.248 NA
ATOM     61  C   UNL A   1      41.617  31.931  31.261  1.00  0.00     0.031 C 
ATOM     62  C   UNL A   1      46.742  30.915  28.169  1.00  0.00     0.029 A 
ATOM     63  C   UNL A   1      45.472  30.780  28.708  1.00  0.00     0.049 A 
ATOM     64  H   UNL A   1      44.134  29.154  28.549  1.00  0.00     0.167 HD
ATOM     65  C   UNL A   1      43.501  31.504  30.024  1.00  0.00     0.074 A 
ATOM     66  C   UNL A   1      42.776  32.436  30.861  1.00  0.00     0.031 C 
ATOM     67  C   UNL A   1      44.749  31.718  29.536  1.00  0.00     0.034 A 
BRANCH  54  68
ATOM     68  C   UNL A   1      47.036  27.042  26.200  1.00  0.00     0.023 A 
ATOM     69  C   UNL A   1      48.071  26.363  26.870  1.00  0.00     0.031 A 
ATOM     70  C   UNL A   1      47.223  27.363  24.843  1.00  0.00     0.131 A 
ATOM     71  C   UNL A   1      49.266  26.073  26.197  1.00  0.00     0.055 A 
ATOM     72  C   UNL A   1      48.396  27.027  24.164  1.00  0.00     0.041 A 
ATOM     73  F   UNL A   1      46.272  28.018  24.159  1.00  0.00    -0.206 F 
ATOM     74  C   UNL A   1      49.431  26.394  24.847  1.00  0.00     0.022 A 
BRANCH  71  75
ATOM     75  S   UNL A   1      50.684  25.355  27.070  1.00  0.00     0.124 S 
ATOM     76  O   UNL A   1      51.138  26.482  27.883  1.00  0.00    -0.237 OA
ATOM     77  O   UNL A   1      50.063  24.262  27.813  1.00  0.00    -0.237 OA
ATOM     78  O   UNL A   1      51.591  24.957  26.000  1.00  0.00    -0.744 OA
ENDBRANCH  71  75
ENDBRANCH  54  68
BRANCH  55  79
ATOM     79  C   UNL A   1      39.153  30.281  31.458  1.00  0.00     0.023 A 
ATOM     80  C   UNL A   1      38.261  31.214  30.898  1.00  0.00     0.031 A 
ATOM     81  C   UNL A   1      38.957  29.900  32.796  1.00  0.00     0.131 A 
ATOM     82  C   UNL A   1      37.266  31.793  31.696  1.00  0.00     0.055 A 
ATOM     83  C   UNL A   1      37.912  30.419  33.564  1.00  0.00     0.041 A 
ATOM     84  F   UNL A   1      39.791  29.027  33.381  1.00  0.00    -0.206 F 
ATOM     85  C   UNL A   1      37.072  31.386  33.019  1.00  0.00     0.022 A 
BRANCH  82  86
ATOM     86  S   UNL A   1      36.291  33.197  31.089  1.00  0.00     0.124 S 
ATOM     87  O   UNL A   1      36.834  33.389  29.748  1.00  0.00    -0.237 OA
ATOM     88  O   UNL A   1      34.934  32.663  31.151  1.00  0.00    -0.237 OA
ATOM     89  O   UNL A   1      36.585  34.259  32.047  1.00  0.00    -0.744 OA
ENDBRANCH  82  86
ENDBRANCH  55  79
BRANCH  67  90
ATOM     90  C   UNL A   1      45.454  33.013  29.884  1.00  0.00     0.023 A 
ATOM     91  C   UNL A   1      46.182  33.119  31.085  1.00  0.00     0.031 A 
ATOM     92  C   UNL A   1      45.280  34.175  29.113  1.00  0.00     0.131 A 
ATOM     93  C   UNL A   1      46.666  34.366  31.504  1.00  0.00     0.055 A 
ATOM     94  C   UNL A   1      45.815  35.404  29.504  1.00  0.00     0.041 A 
ATOM     95  F   UNL A   1      44.582  34.135  27.966  1.00  0.00    -0.206 F 
ATOM     96  C   UNL A   1      46.497  35.506  30.713  1.00  0.00     0.022 A 
BRANCH  93  97
ATOM     97  S   UNL A   1      47.436  34.575  33.133  1.00  0.00     0.124 S 
ATOM     98  O   UNL A   1      47.861  33.212  33.442  1.00  0.00    -0.237 OA
ATOM     99  O   UNL A   1      48.517  35.514  32.843  1.00  0.00    -0.237 OA
ATOM    100  O   UNL A   1      46.359  35.096  33.968  1.00  0.00    -0.744 OA
ENDBRANCH  93  97
ENDBRANCH  67  90
ENDBRANCH  41  42
ENDBRANCH  34  36
ENDBRANCH  33  34
ENDBRANCH  32  33
ENDBRANCH   1  32
TORSDOF 20
ENDMDL
