MODEL 1
REMARK VINA RESULT:     -11.2      0.000      0.000
REMARK SMILES NS(=O)(=O)c1ccc(/N=C/c2ccc(O)c(C(=O)OCCOCCOC(=O)c3ccc(-c4c5nc(c(-c6cc(S(=O)(=O)[O-])ccc6F)c6ccc([nH]6)c(-c6cc(S(=O)(=O)[O-])ccc6F)c6nc(c(-c7cc(S(=O)(=O)[O-])ccc7F)c7ccc4[nH]7)C=C6)C=C5)cc3)c2)cc1
REMARK SMILES IDX 21 1 20 2 19 3 17 4 18 5 16 6 11 7 12 8 91 9 13 10 14 11
REMARK SMILES IDX 10 12 9 13 8 14 5 15 6 16 93 17 7 18 92 19 2 20 3 21 4 22
REMARK SMILES IDX 1 23 15 26 22 28 23 29 24 30 25 31 26 32 27 33 28 34 29 35
REMARK SMILES IDX 90 36 30 37 89 38 31 39 32 40 33 41 83 42 34 43 88 44 82 45
REMARK SMILES IDX 84 46 35 47 87 48 81 49 80 50 36 52 68 53 48 54 67 55 49 56
REMARK SMILES IDX 52 57 66 58 85 59 50 60 51 61 65 63 86 64 53 65 37 66 38 67
REMARK SMILES IDX 46 68 39 69 45 70 47 71 44 72 40 73 41 74 42 75 43 76 69 77
REMARK SMILES IDX 70 78 78 79 71 80 77 81 79 82 76 83 72 84 73 85 74 86 75 87
REMARK SMILES IDX 54 88 55 89 63 90 56 91 62 92 64 93 61 94 57 95 58 96 59 97
REMARK SMILES IDX 60 98
REMARK H PARENT 1 24 1 25 15 27 84 51 52 62
REMARK Flexibility Score: inf
ROOT
ATOM      1  C   UNL A   1      38.533  21.691  25.772  1.00  0.00     0.202 C 
ENDROOT
BRANCH   1   2
ATOM      2  C   UNL A   1      37.587  22.893  25.664  1.00  0.00     0.261 C 
BRANCH   2   3
ATOM      3  O   UNL A   1      36.378  22.539  24.965  1.00  0.00    -0.460 OA
BRANCH   3   4
ATOM      4  C   UNL A   1      35.244  22.649  25.693  1.00  0.00     0.342 C 
ATOM      5  O   UNL A   1      35.152  22.930  26.880  1.00  0.00    -0.246 OA
BRANCH   4   6
ATOM      6  C   UNL A   1      34.051  22.641  24.819  1.00  0.00     0.102 A 
ATOM      7  C   UNL A   1      32.175  23.703  23.726  1.00  0.00    -0.006 A 
ATOM      8  C   UNL A   1      31.773  22.467  23.204  1.00  0.00     0.013 A 
ATOM      9  C   UNL A   1      33.302  23.795  24.555  1.00  0.00     0.029 A 
ATOM     10  C   UNL A   1      32.512  21.319  23.481  1.00  0.00     0.048 A 
ATOM     11  C   UNL A   1      33.653  21.409  24.270  1.00  0.00     0.130 A 
BRANCH   7  12
ATOM     12  C   UNL A   1      31.401  24.896  23.322  1.00  0.00     0.119 C 
ATOM     13  N   UNL A   1      31.522  26.033  23.924  1.00  0.00    -0.256 NA
BRANCH  13  14
ATOM     14  C   UNL A   1      30.813  27.155  23.452  1.00  0.00     0.063 A 
ATOM     15  C   UNL A   1      29.232  29.300  22.549  1.00  0.00     0.082 A 
ATOM     16  C   UNL A   1      28.640  28.251  23.251  1.00  0.00     0.024 A 
ATOM     17  C   UNL A   1      30.602  29.283  22.280  1.00  0.00     0.024 A 
ATOM     18  C   UNL A   1      29.433  27.188  23.696  1.00  0.00     0.030 A 
ATOM     19  C   UNL A   1      31.384  28.209  22.724  1.00  0.00     0.030 A 
BRANCH  15  20
ATOM     20  S   UNL A   1      28.256  30.638  21.929  1.00  0.00     0.238 S 
ATOM     21  O   UNL A   1      27.215  30.935  22.892  1.00  0.00    -0.207 OA
ATOM     22  O   UNL A   1      27.974  30.387  20.539  1.00  0.00    -0.207 OA
BRANCH  20  23
ATOM     23  N   UNL A   1      29.292  31.956  21.975  1.00  0.00    -0.225 NA
ATOM     24  H   UNL A   1      29.270  32.374  22.907  1.00  0.00     0.137 HD
ATOM     25  H   UNL A   1      28.996  32.647  21.286  1.00  0.00     0.137 HD
ENDBRANCH  20  23
ENDBRANCH  15  20
ENDBRANCH  13  14
ENDBRANCH   7  12
BRANCH  11  26
ATOM     26  O   UNL A   1      34.328  20.236  24.484  1.00  0.00    -0.507 OA
ATOM     27  H   UNL A   1      34.873  20.140  25.240  1.00  0.00     0.293 HD
ENDBRANCH  11  26
ENDBRANCH   4   6
ENDBRANCH   3   4
ENDBRANCH   2   3
ENDBRANCH   1   2
BRANCH   1  28
ATOM     28  O   UNL A   1      38.157  20.549  25.000  1.00  0.00    -0.374 OA
BRANCH  28  29
ATOM     29  C   UNL A   1      38.774  19.308  25.352  1.00  0.00     0.202 C 
BRANCH  29  30
ATOM     30  C   UNL A   1      40.057  19.397  26.187  1.00  0.00     0.261 C 
BRANCH  30  31
ATOM     31  O   UNL A   1      41.229  19.392  25.353  1.00  0.00    -0.460 OA
BRANCH  31  32
ATOM     32  C   UNL A   1      42.363  19.795  25.977  1.00  0.00     0.338 C 
ATOM     33  O   UNL A   1      43.427  19.199  26.011  1.00  0.00    -0.246 OA
BRANCH  32  34
ATOM     34  C   UNL A   1      42.208  21.179  26.475  1.00  0.00     0.060 A 
ATOM     35  C   UNL A   1      42.090  22.190  25.513  1.00  0.00     0.016 A 
ATOM     36  C   UNL A   1      42.243  21.497  27.836  1.00  0.00     0.016 A 
ATOM     37  C   UNL A   1      42.091  23.528  25.900  1.00  0.00     0.010 A 
ATOM     38  C   UNL A   1      42.246  22.843  28.223  1.00  0.00     0.010 A 
ATOM     39  C   UNL A   1      42.222  23.863  27.254  1.00  0.00    -0.014 A 
BRANCH  39  40
ATOM     40  C   UNL A   1      42.553  25.264  27.618  1.00  0.00     0.031 A 
ATOM     41  C   UNL A   1      43.922  25.790  27.274  1.00  0.00     0.074 A 
ATOM     42  C   UNL A   1      41.636  26.075  28.175  1.00  0.00     0.049 A 
ATOM     43  N   UNL A   1      44.438  26.974  27.480  1.00  0.00    -0.248 NA
ATOM     44  C   UNL A   1      44.830  24.845  26.607  1.00  0.00     0.031 C 
ATOM     45  C   UNL A   1      40.262  25.698  28.500  1.00  0.00     0.029 A 
ATOM     46  N   UNL A   1      41.725  27.390  28.557  1.00  0.00    -0.354 N 
ATOM     47  C   UNL A   1      45.731  26.918  26.967  1.00  0.00     0.074 A 
ATOM     48  C   UNL A   1      45.933  25.565  26.492  1.00  0.00     0.031 C 
ATOM     49  C   UNL A   1      39.632  26.762  29.028  1.00  0.00     0.029 A 
ATOM     50  C   UNL A   1      40.567  27.884  29.110  1.00  0.00     0.049 A 
ATOM     51  H   UNL A   1      42.541  27.929  28.447  1.00  0.00     0.167 HD
ATOM     52  C   UNL A   1      46.656  27.906  26.880  1.00  0.00     0.034 A 
ATOM     53  C   UNL A   1      40.300  29.098  29.631  1.00  0.00     0.034 A 
ATOM     54  C   UNL A   1      46.446  29.244  27.376  1.00  0.00     0.049 A 
ATOM     55  C   UNL A   1      41.379  30.154  29.621  1.00  0.00     0.074 A 
ATOM     56  C   UNL A   1      47.318  30.319  27.361  1.00  0.00     0.029 A 
ATOM     57  N   UNL A   1      45.280  29.690  27.987  1.00  0.00    -0.354 N 
ATOM     58  N   UNL A   1      42.601  30.087  29.144  1.00  0.00    -0.248 NA
ATOM     59  C   UNL A   1      41.035  31.455  30.210  1.00  0.00     0.031 C 
ATOM     60  C   UNL A   1      46.705  31.392  28.022  1.00  0.00     0.029 A 
ATOM     61  C   UNL A   1      45.420  31.014  28.377  1.00  0.00     0.049 A 
ATOM     62  H   UNL A   1      44.472  29.145  28.124  1.00  0.00     0.167 HD
ATOM     63  C   UNL A   1      43.156  31.351  29.337  1.00  0.00     0.074 A 
ATOM     64  C   UNL A   1      42.131  32.158  29.969  1.00  0.00     0.031 C 
ATOM     65  C   UNL A   1      44.392  31.807  29.011  1.00  0.00     0.034 A 
BRANCH  52  66
ATOM     66  C   UNL A   1      47.992  27.541  26.272  1.00  0.00     0.023 A 
ATOM     67  C   UNL A   1      48.261  27.746  24.906  1.00  0.00     0.031 A 
ATOM     68  C   UNL A   1      48.984  26.921  27.051  1.00  0.00     0.131 A 
ATOM     69  C   UNL A   1      49.448  27.250  24.344  1.00  0.00     0.055 A 
ATOM     70  C   UNL A   1      50.202  26.511  26.502  1.00  0.00     0.041 A 
ATOM     71  F   UNL A   1      48.778  26.676  28.354  1.00  0.00    -0.206 F 
ATOM     72  C   UNL A   1      50.430  26.657  25.137  1.00  0.00     0.022 A 
BRANCH  69  73
ATOM     73  S   UNL A   1      49.606  27.231  22.536  1.00  0.00     0.124 S 
ATOM     74  O   UNL A   1      51.044  27.039  22.368  1.00  0.00    -0.237 OA
ATOM     75  O   UNL A   1      48.761  26.104  22.159  1.00  0.00    -0.237 OA
ATOM     76  O   UNL A   1      49.109  28.545  22.136  1.00  0.00    -0.744 OA
ENDBRANCH  69  73
ENDBRANCH  52  66
BRANCH  53  77
ATOM     77  C   UNL A   1      38.963  29.388  30.225  1.00  0.00     0.023 A 
ATOM     78  C   UNL A   1      38.022  30.172  29.540  1.00  0.00     0.031 A 
ATOM     79  C   UNL A   1      38.629  28.928  31.511  1.00  0.00     0.131 A 
ATOM     80  C   UNL A   1      36.809  30.511  30.162  1.00  0.00     0.055 A 
ATOM     81  C   UNL A   1      37.401  29.224  32.104  1.00  0.00     0.041 A 
ATOM     82  F   UNL A   1      39.494  28.175  32.209  1.00  0.00    -0.206 F 
ATOM     83  C   UNL A   1      36.487  30.032  31.434  1.00  0.00     0.022 A 
BRANCH  80  84
ATOM     84  S   UNL A   1      35.687  31.655  29.313  1.00  0.00     0.124 S 
ATOM     85  O   UNL A   1      34.911  30.745  28.478  1.00  0.00    -0.237 OA
ATOM     86  O   UNL A   1      34.975  32.265  30.432  1.00  0.00    -0.237 OA
ATOM     87  O   UNL A   1      36.592  32.548  28.593  1.00  0.00    -0.744 OA
ENDBRANCH  80  84
ENDBRANCH  53  77
BRANCH  65  88
ATOM     88  C   UNL A   1      44.680  33.266  29.276  1.00  0.00     0.023 A 
ATOM     89  C   UNL A   1      44.449  34.261  28.310  1.00  0.00     0.031 A 
ATOM     90  C   UNL A   1      45.212  33.663  30.516  1.00  0.00     0.131 A 
ATOM     91  C   UNL A   1      44.805  35.592  28.577  1.00  0.00     0.055 A 
ATOM     92  C   UNL A   1      45.505  34.997  30.800  1.00  0.00     0.041 A 
ATOM     93  F   UNL A   1      45.454  32.757  31.478  1.00  0.00    -0.206 F 
ATOM     94  C   UNL A   1      45.316  35.969  29.822  1.00  0.00     0.022 A 
BRANCH  91  95
ATOM     95  S   UNL A   1      44.686  36.813  27.240  1.00  0.00     0.124 S 
ATOM     96  O   UNL A   1      45.798  36.429  26.377  1.00  0.00    -0.237 OA
ATOM     97  O   UNL A   1      43.350  36.563  26.708  1.00  0.00    -0.237 OA
ATOM     98  O   UNL A   1      44.849  38.093  27.928  1.00  0.00    -0.744 OA
ENDBRANCH  91  95
ENDBRANCH  65  88
ENDBRANCH  39  40
ENDBRANCH  32  34
ENDBRANCH  31  32
ENDBRANCH  30  31
ENDBRANCH  29  30
ENDBRANCH  28  29
ENDBRANCH   1  28
TORSDOF 22
ENDMDL
MODEL 2
REMARK VINA RESULT:     -11.1      5.497     11.305
REMARK SMILES NS(=O)(=O)c1ccc(/N=C/c2ccc(O)c(C(=O)OCCOCCOC(=O)c3ccc(-c4c5nc(c(-c6cc(S(=O)(=O)[O-])ccc6F)c6ccc([nH]6)c(-c6cc(S(=O)(=O)[O-])ccc6F)c6nc(c(-c7cc(S(=O)(=O)[O-])ccc7F)c7ccc4[nH]7)C=C6)C=C5)cc3)c2)cc1
REMARK SMILES IDX 21 1 20 2 19 3 17 4 18 5 16 6 11 7 12 8 91 9 13 10 14 11
REMARK SMILES IDX 10 12 9 13 8 14 5 15 6 16 93 17 7 18 92 19 2 20 3 21 4 22
REMARK SMILES IDX 1 23 15 26 22 28 23 29 24 30 25 31 26 32 27 33 28 34 29 35
REMARK SMILES IDX 90 36 30 37 89 38 31 39 32 40 33 41 83 42 34 43 88 44 82 45
REMARK SMILES IDX 84 46 35 47 87 48 81 49 80 50 36 52 68 53 48 54 67 55 49 56
REMARK SMILES IDX 52 57 66 58 85 59 50 60 51 61 65 63 86 64 53 65 37 66 38 67
REMARK SMILES IDX 46 68 39 69 45 70 47 71 44 72 40 73 41 74 42 75 43 76 69 77
REMARK SMILES IDX 70 78 78 79 71 80 77 81 79 82 76 83 72 84 73 85 74 86 75 87
REMARK SMILES IDX 54 88 55 89 63 90 56 91 62 92 64 93 61 94 57 95 58 96 59 97
REMARK SMILES IDX 60 98
REMARK H PARENT 1 24 1 25 15 27 84 51 52 62
REMARK Flexibility Score: inf
ROOT
ATOM      1  C   UNL A   1      31.311  31.330  26.395  1.00  0.00     0.202 C 
ENDROOT
BRANCH   1   2
ATOM      2  C   UNL A   1      32.526  30.454  26.722  1.00  0.00     0.261 C 
BRANCH   2   3
ATOM      3  O   UNL A   1      32.403  29.151  26.120  1.00  0.00    -0.460 OA
BRANCH   3   4
ATOM      4  C   UNL A   1      33.562  28.468  25.994  1.00  0.00     0.342 C 
ATOM      5  O   UNL A   1      34.436  28.332  26.840  1.00  0.00    -0.246 OA
BRANCH   4   6
ATOM      6  C   UNL A   1      33.565  27.651  24.761  1.00  0.00     0.102 A 
ATOM      7  C   UNL A   1      33.679  25.551  23.570  1.00  0.00    -0.006 A 
ATOM      8  C   UNL A   1      33.630  26.236  22.348  1.00  0.00     0.013 A 
ATOM      9  C   UNL A   1      33.670  26.254  24.783  1.00  0.00     0.029 A 
ATOM     10  C   UNL A   1      33.542  27.626  22.332  1.00  0.00     0.048 A 
ATOM     11  C   UNL A   1      33.492  28.327  23.531  1.00  0.00     0.130 A 
BRANCH   7  12
ATOM     12  C   UNL A   1      33.681  24.074  23.521  1.00  0.00     0.119 C 
ATOM     13  N   UNL A   1      33.577  23.349  24.586  1.00  0.00    -0.256 NA
BRANCH  13  14
ATOM     14  C   UNL A   1      33.514  21.945  24.475  1.00  0.00     0.063 A 
ATOM     15  C   UNL A   1      33.571  19.137  24.318  1.00  0.00     0.082 A 
ATOM     16  C   UNL A   1      34.592  19.814  24.983  1.00  0.00     0.024 A 
ATOM     17  C   UNL A   1      32.529  19.848  23.717  1.00  0.00     0.024 A 
ATOM     18  C   UNL A   1      34.556  21.211  25.056  1.00  0.00     0.030 A 
ATOM     19  C   UNL A   1      32.510  21.246  23.791  1.00  0.00     0.030 A 
BRANCH  15  20
ATOM     20  S   UNL A   1      33.604  17.375  24.164  1.00  0.00     0.238 S 
ATOM     21  O   UNL A   1      33.864  17.037  22.780  1.00  0.00    -0.207 OA
ATOM     22  O   UNL A   1      32.486  16.836  24.895  1.00  0.00    -0.207 OA
BRANCH  20  23
ATOM     23  N   UNL A   1      34.985  16.918  24.999  1.00  0.00    -0.225 NA
ATOM     24  H   UNL A   1      34.749  16.742  25.977  1.00  0.00     0.137 HD
ATOM     25  H   UNL A   1      35.678  17.665  24.947  1.00  0.00     0.137 HD
ENDBRANCH  20  23
ENDBRANCH  15  20
ENDBRANCH  13  14
ENDBRANCH   7  12
BRANCH  11  26
ATOM     26  O   UNL A   1      33.394  29.690  23.424  1.00  0.00    -0.507 OA
ATOM     27  H   UNL A   1      34.055  30.238  23.799  1.00  0.00     0.293 HD
ENDBRANCH  11  26
ENDBRANCH   4   6
ENDBRANCH   3   4
ENDBRANCH   2   3
ENDBRANCH   1   2
BRANCH   1  28
ATOM     28  O   UNL A   1      31.382  32.674  26.874  1.00  0.00    -0.374 OA
BRANCH  28  29
ATOM     29  C   UNL A   1      32.614  33.071  27.482  1.00  0.00     0.202 C 
BRANCH  29  30
ATOM     30  C   UNL A   1      32.749  34.554  27.843  1.00  0.00     0.261 C 
BRANCH  30  31
ATOM     31  O   UNL A   1      34.066  34.859  28.336  1.00  0.00    -0.460 OA
BRANCH  31  32
ATOM     32  C   UNL A   1      34.306  34.426  29.598  1.00  0.00     0.338 C 
ATOM     33  O   UNL A   1      33.595  34.600  30.574  1.00  0.00    -0.246 OA
BRANCH  32  34
ATOM     34  C   UNL A   1      35.480  33.527  29.616  1.00  0.00     0.060 A 
ATOM     35  C   UNL A   1      35.280  32.231  30.107  1.00  0.00     0.016 A 
ATOM     36  C   UNL A   1      36.755  33.948  29.229  1.00  0.00     0.016 A 
ATOM     37  C   UNL A   1      36.365  31.378  30.294  1.00  0.00     0.010 A 
ATOM     38  C   UNL A   1      37.846  33.091  29.419  1.00  0.00     0.010 A 
ATOM     39  C   UNL A   1      37.661  31.822  30.001  1.00  0.00    -0.014 A 
BRANCH  39  40
ATOM     40  C   UNL A   1      38.818  31.043  30.508  1.00  0.00     0.031 A 
ATOM     41  C   UNL A   1      39.316  31.323  31.902  1.00  0.00     0.074 A 
ATOM     42  C   UNL A   1      39.372  30.059  29.777  1.00  0.00     0.049 A 
ATOM     43  N   UNL A   1      40.299  30.770  32.564  1.00  0.00    -0.248 NA
ATOM     44  C   UNL A   1      38.604  32.374  32.644  1.00  0.00     0.031 C 
ATOM     45  C   UNL A   1      38.938  29.656  28.440  1.00  0.00     0.029 A 
ATOM     46  N   UNL A   1      40.412  29.213  30.064  1.00  0.00    -0.354 N 
ATOM     47  C   UNL A   1      40.322  31.405  33.804  1.00  0.00     0.074 A 
ATOM     48  C   UNL A   1      39.291  32.419  33.774  1.00  0.00     0.031 C 
ATOM     49  C   UNL A   1      39.706  28.633  28.024  1.00  0.00     0.029 A 
ATOM     50  C   UNL A   1      40.704  28.332  29.050  1.00  0.00     0.049 A 
ATOM     51  H   UNL A   1      40.904  29.234  30.916  1.00  0.00     0.167 HD
ATOM     52  C   UNL A   1      41.116  31.151  34.874  1.00  0.00     0.034 A 
ATOM     53  C   UNL A   1      41.674  27.400  28.958  1.00  0.00     0.034 A 
ATOM     54  C   UNL A   1      42.154  30.150  34.882  1.00  0.00     0.049 A 
ATOM     55  C   UNL A   1      42.616  27.205  30.122  1.00  0.00     0.074 A 
ATOM     56  C   UNL A   1      43.031  29.820  35.900  1.00  0.00     0.029 A 
ATOM     57  N   UNL A   1      42.462  29.317  33.811  1.00  0.00    -0.354 N 
ATOM     58  N   UNL A   1      42.637  27.817  31.284  1.00  0.00    -0.248 NA
ATOM     59  C   UNL A   1      43.658  26.182  29.963  1.00  0.00     0.031 C 
ATOM     60  C   UNL A   1      43.910  28.839  35.424  1.00  0.00     0.029 A 
ATOM     61  C   UNL A   1      43.531  28.496  34.136  1.00  0.00     0.049 A 
ATOM     62  H   UNL A   1      41.989  29.313  32.948  1.00  0.00     0.167 HD
ATOM     63  C   UNL A   1      43.667  27.221  32.010  1.00  0.00     0.074 A 
ATOM     64  C   UNL A   1      44.237  26.200  31.154  1.00  0.00     0.031 C 
ATOM     65  C   UNL A   1      44.094  27.484  33.271  1.00  0.00     0.034 A 
BRANCH  52  66
ATOM     66  C   UNL A   1      40.914  32.018  36.097  1.00  0.00     0.023 A 
ATOM     67  C   UNL A   1      39.787  31.872  36.927  1.00  0.00     0.031 A 
ATOM     68  C   UNL A   1      41.822  33.048  36.399  1.00  0.00     0.131 A 
ATOM     69  C   UNL A   1      39.550  32.796  37.957  1.00  0.00     0.055 A 
ATOM     70  C   UNL A   1      41.627  33.909  37.482  1.00  0.00     0.041 A 
ATOM     71  F   UNL A   1      42.903  33.254  35.631  1.00  0.00    -0.206 F 
ATOM     72  C   UNL A   1      40.475  33.797  38.255  1.00  0.00     0.022 A 
BRANCH  69  73
ATOM     73  S   UNL A   1      37.933  32.779  38.779  1.00  0.00     0.124 S 
ATOM     74  O   UNL A   1      38.112  31.711  39.760  1.00  0.00    -0.237 OA
ATOM     75  O   UNL A   1      37.838  34.132  39.315  1.00  0.00    -0.237 OA
ATOM     76  O   UNL A   1      37.002  32.470  37.696  1.00  0.00    -0.744 OA
ENDBRANCH  69  73
ENDBRANCH  52  66
BRANCH  53  77
ATOM     77  C   UNL A   1      41.824  26.585  27.718  1.00  0.00     0.023 A 
ATOM     78  C   UNL A   1      41.406  25.245  27.677  1.00  0.00     0.031 A 
ATOM     79  C   UNL A   1      42.438  27.120  26.572  1.00  0.00     0.131 A 
ATOM     80  C   UNL A   1      41.647  24.473  26.530  1.00  0.00     0.055 A 
ATOM     81  C   UNL A   1      42.629  26.363  25.416  1.00  0.00     0.041 A 
ATOM     82  F   UNL A   1      42.857  28.396  26.559  1.00  0.00    -0.206 F 
ATOM     83  C   UNL A   1      42.244  25.026  25.395  1.00  0.00     0.022 A 
BRANCH  80  84
ATOM     84  S   UNL A   1      41.239  22.706  26.570  1.00  0.00     0.124 S 
ATOM     85  O   UNL A   1      41.817  22.297  27.845  1.00  0.00    -0.237 OA
ATOM     86  O   UNL A   1      39.781  22.732  26.505  1.00  0.00    -0.237 OA
ATOM     87  O   UNL A   1      41.904  22.177  25.382  1.00  0.00    -0.744 OA
ENDBRANCH  80  84
ENDBRANCH  53  77
BRANCH  65  88
ATOM     88  C   UNL A   1      45.193  26.607  33.824  1.00  0.00     0.023 A 
ATOM     89  C   UNL A   1      44.925  25.381  34.456  1.00  0.00     0.031 A 
ATOM     90  C   UNL A   1      46.535  27.019  33.726  1.00  0.00     0.131 A 
ATOM     91  C   UNL A   1      45.975  24.640  35.021  1.00  0.00     0.055 A 
ATOM     92  C   UNL A   1      47.582  26.247  34.233  1.00  0.00     0.041 A 
ATOM     93  F   UNL A   1      46.852  28.181  33.133  1.00  0.00    -0.206 F 
ATOM     94  C   UNL A   1      47.303  25.057  34.899  1.00  0.00     0.022 A 
BRANCH  91  95
ATOM     95  S   UNL A   1      45.575  23.170  36.006  1.00  0.00     0.124 S 
ATOM     96  O   UNL A   1      46.735  22.318  35.767  1.00  0.00    -0.237 OA
ATOM     97  O   UNL A   1      45.455  23.720  37.353  1.00  0.00    -0.237 OA
ATOM     98  O   UNL A   1      44.324  22.693  35.419  1.00  0.00    -0.744 OA
ENDBRANCH  91  95
ENDBRANCH  65  88
ENDBRANCH  39  40
ENDBRANCH  32  34
ENDBRANCH  31  32
ENDBRANCH  30  31
ENDBRANCH  29  30
ENDBRANCH  28  29
ENDBRANCH   1  28
TORSDOF 22
ENDMDL
MODEL 3
REMARK VINA RESULT:     -10.8      6.262     10.418
REMARK SMILES NS(=O)(=O)c1ccc(/N=C/c2ccc(O)c(C(=O)OCCOCCOC(=O)c3ccc(-c4c5nc(c(-c6cc(S(=O)(=O)[O-])ccc6F)c6ccc([nH]6)c(-c6cc(S(=O)(=O)[O-])ccc6F)c6nc(c(-c7cc(S(=O)(=O)[O-])ccc7F)c7ccc4[nH]7)C=C6)C=C5)cc3)c2)cc1
REMARK SMILES IDX 21 1 20 2 19 3 17 4 18 5 16 6 11 7 12 8 91 9 13 10 14 11
REMARK SMILES IDX 10 12 9 13 8 14 5 15 6 16 93 17 7 18 92 19 2 20 3 21 4 22
REMARK SMILES IDX 1 23 15 26 22 28 23 29 24 30 25 31 26 32 27 33 28 34 29 35
REMARK SMILES IDX 90 36 30 37 89 38 31 39 32 40 33 41 83 42 34 43 88 44 82 45
REMARK SMILES IDX 84 46 35 47 87 48 81 49 80 50 36 52 68 53 48 54 67 55 49 56
REMARK SMILES IDX 52 57 66 58 85 59 50 60 51 61 65 63 86 64 53 65 37 66 38 67
REMARK SMILES IDX 46 68 39 69 45 70 47 71 44 72 40 73 41 74 42 75 43 76 69 77
REMARK SMILES IDX 70 78 78 79 71 80 77 81 79 82 76 83 72 84 73 85 74 86 75 87
REMARK SMILES IDX 54 88 55 89 63 90 56 91 62 92 64 93 61 94 57 95 58 96 59 97
REMARK SMILES IDX 60 98
REMARK H PARENT 1 24 1 25 15 27 84 51 52 62
REMARK Flexibility Score: inf
ROOT
ATOM      1  C   UNL A   1      35.057  31.639  27.877  1.00  0.00     0.202 C 
ENDROOT
BRANCH   1   2
ATOM      2  C   UNL A   1      33.768  30.860  27.585  1.00  0.00     0.261 C 
BRANCH   2   3
ATOM      3  O   UNL A   1      34.058  29.499  27.214  1.00  0.00    -0.460 OA
BRANCH   3   4
ATOM      4  C   UNL A   1      32.973  28.725  26.988  1.00  0.00     0.342 C 
ATOM      5  O   UNL A   1      31.857  28.856  27.473  1.00  0.00    -0.246 OA
BRANCH   4   6
ATOM      6  C   UNL A   1      33.206  27.805  25.854  1.00  0.00     0.102 A 
ATOM      7  C   UNL A   1      33.492  25.608  24.887  1.00  0.00    -0.006 A 
ATOM      8  C   UNL A   1      33.727  26.185  23.632  1.00  0.00     0.013 A 
ATOM      9  C   UNL A   1      33.253  26.413  26.010  1.00  0.00     0.029 A 
ATOM     10  C   UNL A   1      33.695  27.570  23.485  1.00  0.00     0.048 A 
ATOM     11  C   UNL A   1      33.419  28.373  24.586  1.00  0.00     0.130 A 
BRANCH   7  12
ATOM     12  C   UNL A   1      33.451  24.132  24.959  1.00  0.00     0.119 C 
ATOM     13  N   UNL A   1      33.078  23.402  23.960  1.00  0.00    -0.256 NA
BRANCH  13  14
ATOM     14  C   UNL A   1      33.125  21.998  24.061  1.00  0.00     0.063 A 
ATOM     15  C   UNL A   1      33.386  19.213  24.360  1.00  0.00     0.082 A 
ATOM     16  C   UNL A   1      34.213  20.068  25.088  1.00  0.00     0.024 A 
ATOM     17  C   UNL A   1      32.441  19.733  23.474  1.00  0.00     0.024 A 
ATOM     18  C   UNL A   1      34.076  21.451  24.933  1.00  0.00     0.030 A 
ATOM     19  C   UNL A   1      32.320  21.120  23.322  1.00  0.00     0.030 A 
BRANCH  15  20
ATOM     20  S   UNL A   1      33.559  17.458  24.494  1.00  0.00     0.238 S 
ATOM     21  O   UNL A   1      32.723  16.992  25.582  1.00  0.00    -0.207 OA
ATOM     22  O   UNL A   1      34.959  17.132  24.401  1.00  0.00    -0.207 OA
BRANCH  20  23
ATOM     23  N   UNL A   1      32.839  16.868  23.098  1.00  0.00    -0.225 NA
ATOM     24  H   UNL A   1      33.521  16.867  22.338  1.00  0.00     0.137 HD
ATOM     25  H   UNL A   1      32.050  17.463  22.845  1.00  0.00     0.137 HD
ENDBRANCH  20  23
ENDBRANCH  15  20
ENDBRANCH  13  14
ENDBRANCH   7  12
BRANCH  11  26
ATOM     26  O   UNL A   1      33.395  29.724  24.352  1.00  0.00    -0.507 OA
ATOM     27  H   UNL A   1      33.920  30.090  23.667  1.00  0.00     0.293 HD
ENDBRANCH  11  26
ENDBRANCH   4   6
ENDBRANCH   3   4
ENDBRANCH   2   3
ENDBRANCH   1   2
BRANCH   1  28
ATOM     28  O   UNL A   1      34.880  33.033  28.134  1.00  0.00    -0.374 OA
BRANCH  28  29
ATOM     29  C   UNL A   1      33.549  33.540  28.024  1.00  0.00     0.202 C 
BRANCH  29  30
ATOM     30  C   UNL A   1      33.283  34.904  28.669  1.00  0.00     0.261 C 
BRANCH  30  31
ATOM     31  O   UNL A   1      32.676  34.765  29.966  1.00  0.00    -0.460 OA
BRANCH  31  32
ATOM     32  C   UNL A   1      33.448  35.195  30.994  1.00  0.00     0.338 C 
ATOM     33  O   UNL A   1      33.156  36.048  31.817  1.00  0.00    -0.246 OA
BRANCH  32  34
ATOM     34  C   UNL A   1      34.653  34.346  31.119  1.00  0.00     0.060 A 
ATOM     35  C   UNL A   1      34.487  33.090  31.716  1.00  0.00     0.016 A 
ATOM     36  C   UNL A   1      35.923  34.782  30.729  1.00  0.00     0.016 A 
ATOM     37  C   UNL A   1      35.596  32.299  32.002  1.00  0.00     0.010 A 
ATOM     38  C   UNL A   1      37.038  33.986  31.020  1.00  0.00     0.010 A 
ATOM     39  C   UNL A   1      36.882  32.766  31.704  1.00  0.00    -0.014 A 
BRANCH  39  40
ATOM     40  C   UNL A   1      38.053  32.078  32.304  1.00  0.00     0.031 A 
ATOM     41  C   UNL A   1      38.717  30.975  31.521  1.00  0.00     0.074 A 
ATOM     42  C   UNL A   1      38.562  32.469  33.487  1.00  0.00     0.049 A 
ATOM     43  N   UNL A   1      39.752  30.238  31.829  1.00  0.00    -0.248 NA
ATOM     44  C   UNL A   1      38.125  30.666  30.211  1.00  0.00     0.031 C 
ATOM     45  C   UNL A   1      38.043  33.561  34.309  1.00  0.00     0.029 A 
ATOM     46  N   UNL A   1      39.637  31.995  34.195  1.00  0.00    -0.354 N 
ATOM     47  C   UNL A   1      39.938  29.378  30.750  1.00  0.00     0.074 A 
ATOM     48  C   UNL A   1      38.873  29.651  29.809  1.00  0.00     0.031 C 
ATOM     49  C   UNL A   1      38.807  33.677  35.409  1.00  0.00     0.029 A 
ATOM     50  C   UNL A   1      39.845  32.648  35.386  1.00  0.00     0.049 A 
ATOM     51  H   UNL A   1      40.206  31.256  33.879  1.00  0.00     0.167 HD
ATOM     52  C   UNL A   1      40.917  28.460  30.553  1.00  0.00     0.034 A 
ATOM     53  C   UNL A   1      40.763  32.431  36.349  1.00  0.00     0.034 A 
ATOM     54  C   UNL A   1      41.961  28.185  31.509  1.00  0.00     0.049 A 
ATOM     55  C   UNL A   1      41.782  31.332  36.157  1.00  0.00     0.074 A 
ATOM     56  C   UNL A   1      42.991  27.264  31.426  1.00  0.00     0.029 A 
ATOM     57  N   UNL A   1      42.103  28.826  32.735  1.00  0.00    -0.354 N 
ATOM     58  N   UNL A   1      41.941  30.517  35.140  1.00  0.00    -0.248 NA
ATOM     59  C   UNL A   1      42.751  31.134  37.243  1.00  0.00     0.031 C 
ATOM     60  C   UNL A   1      43.713  27.301  32.625  1.00  0.00     0.029 A 
ATOM     61  C   UNL A   1      43.186  28.302  33.426  1.00  0.00     0.049 A 
ATOM     62  H   UNL A   1      41.519  29.546  33.065  1.00  0.00     0.167 HD
ATOM     63  C   UNL A   1      43.057  29.740  35.446  1.00  0.00     0.074 A 
ATOM     64  C   UNL A   1      43.530  30.189  36.740  1.00  0.00     0.031 C 
ATOM     65  C   UNL A   1      43.645  28.755  34.719  1.00  0.00     0.034 A 
BRANCH  52  66
ATOM     66  C   UNL A   1      40.855  27.658  29.272  1.00  0.00     0.023 A 
ATOM     67  C   UNL A   1      41.762  27.880  28.219  1.00  0.00     0.031 A 
ATOM     68  C   UNL A   1      39.838  26.709  29.073  1.00  0.00     0.131 A 
ATOM     69  C   UNL A   1      41.577  27.233  26.987  1.00  0.00     0.055 A 
ATOM     70  C   UNL A   1      39.714  26.001  27.875  1.00  0.00     0.041 A 
ATOM     71  F   UNL A   1      38.928  26.471  30.030  1.00  0.00    -0.206 F 
ATOM     72  C   UNL A   1      40.574  26.277  26.817  1.00  0.00     0.022 A 
BRANCH  69  73
ATOM     73  S   UNL A   1      42.550  27.792  25.561  1.00  0.00     0.124 S 
ATOM     74  O   UNL A   1      42.432  26.651  24.657  1.00  0.00    -0.237 OA
ATOM     75  O   UNL A   1      41.848  29.004  25.157  1.00  0.00    -0.237 OA
ATOM     76  O   UNL A   1      43.885  28.000  26.119  1.00  0.00    -0.744 OA
ENDBRANCH  69  73
ENDBRANCH  52  66
BRANCH  53  77
ATOM     77  C   UNL A   1      40.762  33.253  37.594  1.00  0.00     0.023 A 
ATOM     78  C   UNL A   1      39.935  32.922  38.678  1.00  0.00     0.031 A 
ATOM     79  C   UNL A   1      41.549  34.414  37.694  1.00  0.00     0.131 A 
ATOM     80  C   UNL A   1      39.881  33.766  39.799  1.00  0.00     0.055 A 
ATOM     81  C   UNL A   1      41.530  35.222  38.831  1.00  0.00     0.041 A 
ATOM     82  F   UNL A   1      42.357  34.776  36.684  1.00  0.00    -0.206 F 
ATOM     83  C   UNL A   1      40.682  34.907  39.888  1.00  0.00     0.022 A 
BRANCH  80  84
ATOM     84  S   UNL A   1      38.686  33.393  41.111  1.00  0.00     0.124 S 
ATOM     85  O   UNL A   1      38.793  34.578  41.955  1.00  0.00    -0.237 OA
ATOM     86  O   UNL A   1      37.444  33.251  40.357  1.00  0.00    -0.237 OA
ATOM     87  O   UNL A   1      39.199  32.158  41.698  1.00  0.00    -0.744 OA
ENDBRANCH  80  84
ENDBRANCH  53  77
BRANCH  65  88
ATOM     88  C   UNL A   1      44.905  28.142  35.283  1.00  0.00     0.023 A 
ATOM     89  C   UNL A   1      44.882  26.986  36.082  1.00  0.00     0.031 A 
ATOM     90  C   UNL A   1      46.153  28.739  35.024  1.00  0.00     0.131 A 
ATOM     91  C   UNL A   1      46.072  26.500  36.645  1.00  0.00     0.055 A 
ATOM     92  C   UNL A   1      47.341  28.215  35.534  1.00  0.00     0.041 A 
ATOM     93  F   UNL A   1      46.237  29.845  34.267  1.00  0.00    -0.206 F 
ATOM     94  C   UNL A   1      47.303  27.097  36.363  1.00  0.00     0.022 A 
BRANCH  91  95
ATOM     95  S   UNL A   1      45.980  25.133  37.835  1.00  0.00     0.124 S 
ATOM     96  O   UNL A   1      44.642  25.303  38.391  1.00  0.00    -0.237 OA
ATOM     97  O   UNL A   1      46.172  23.964  36.982  1.00  0.00    -0.237 OA
ATOM     98  O   UNL A   1      47.077  25.411  38.761  1.00  0.00    -0.744 OA
ENDBRANCH  91  95
ENDBRANCH  65  88
ENDBRANCH  39  40
ENDBRANCH  32  34
ENDBRANCH  31  32
ENDBRANCH  30  31
ENDBRANCH  29  30
ENDBRANCH  28  29
ENDBRANCH   1  28
TORSDOF 22
ENDMDL
