MODEL 1
REMARK VINA RESULT:     -11.9      0.000      0.000
REMARK SMILES O=C(OCCOCCOC(=O)c1ccc(-c2c3nc(c(-c4cc(S(=O)(=O)[O-])ccc4F)c4ccc([nH]4)c(-c4cc(S(=O)(=O)[O-])ccc4F)c4nc(c(-c5cc(S(=O)(=O)[O-])ccc5F)c5ccc2[nH]5)C=C4)C=C3)cc1)C1=Cc2cc(S(F)(F)(F)(F)F)ccc2O[C@@H]1C(F)(F)F
REMARK SMILES IDX 7 1 6 2 5 3 4 4 3 5 2 6 1 7 75 8 76 9 90 10 77 11 89 12
REMARK SMILES IDX 78 13 88 14 79 15 87 16 86 17 91 18 92 19 93 20 94 21 80 22
REMARK SMILES IDX 81 23 82 24 83 25 84 26 85 27 8 28 9 29 10 30 11 31 12 32
REMARK SMILES IDX 13 33 74 34 14 35 73 36 15 37 16 38 17 39 67 40 18 41 72 42
REMARK SMILES IDX 66 43 68 44 19 45 71 46 65 47 64 48 20 50 52 51 32 52 51 53
REMARK SMILES IDX 33 54 36 55 50 56 69 57 34 58 35 59 49 61 70 62 37 63 21 64
REMARK SMILES IDX 22 65 30 66 23 67 29 68 31 69 28 70 24 71 25 72 26 73 27 74
REMARK SMILES IDX 53 75 54 76 62 77 55 78 61 79 63 80 60 81 56 82 57 83 58 84
REMARK SMILES IDX 59 85 38 86 39 87 47 88 40 89 46 90 48 91 45 92 41 93 42 94
REMARK SMILES IDX 43 95 44 96
REMARK H PARENT 68 49 36 60
REMARK Flexibility Score: inf
ROOT
ATOM      1  C   UNL A   1      36.723  23.316  24.631  1.00  0.00     0.202 C 
ENDROOT
BRANCH   1   2
ATOM      2  O   UNL A   1      35.559  24.004  25.065  1.00  0.00    -0.374 OA
BRANCH   2   3
ATOM      3  C   UNL A   1      34.777  24.370  23.937  1.00  0.00     0.202 C 
BRANCH   3   4
ATOM      4  C   UNL A   1      33.377  24.745  24.393  1.00  0.00     0.261 C 
BRANCH   4   5
ATOM      5  O   UNL A   1      33.420  25.984  25.087  1.00  0.00    -0.460 OA
BRANCH   5   6
ATOM      6  C   UNL A   1      33.175  27.196  24.390  1.00  0.00     0.338 C 
ATOM      7  O   UNL A   1      32.978  27.180  23.134  1.00  0.00    -0.246 OA
BRANCH   6   8
ATOM      8  C   UNL A   1      33.147  28.514  25.146  1.00  0.00     0.087 C 
ATOM      9  C   UNL A   1      32.043  29.306  25.091  1.00  0.00     0.027 C 
ATOM     10  C   UNL A   1      34.352  28.947  25.965  1.00  0.00     0.316 C 
ATOM     11  C   UNL A   1      30.837  28.874  24.273  1.00  0.00     0.019 A 
ATOM     12  O   UNL A   1      30.977  26.639  25.068  1.00  0.00    -0.475 OA
ATOM     13  C   UNL A   1      30.335  29.839  23.414  1.00  0.00     0.036 A 
ATOM     14  C   UNL A   1      30.337  27.645  24.296  1.00  0.00     0.128 A 
ATOM     15  C   UNL A   1      29.100  29.488  22.818  1.00  0.00     0.107 A 
ATOM     16  C   UNL A   1      29.204  27.337  23.581  1.00  0.00     0.048 A 
ATOM     17  C   UNL A   1      28.620  28.260  22.757  1.00  0.00     0.028 A 
BRANCH  10  18
ATOM     18  C   UNL A   1      33.944  29.109  27.420  1.00  0.00     0.430 C 
ATOM     19  F   UNL A   1      35.009  28.954  28.201  1.00  0.00    -0.167 F 
ATOM     20  F   UNL A   1      33.433  30.324  27.605  1.00  0.00    -0.167 F 
ATOM     21  F   UNL A   1      33.030  28.193  27.729  1.00  0.00    -0.167 F 
ENDBRANCH  10  18
BRANCH  15  22
ATOM     22  S   UNL A   1      28.111  30.815  22.086  1.00  0.00     0.310 S 
ATOM     23  F   UNL A   1      29.153  31.915  22.558  1.00  0.00    -0.094 F 
ATOM     24  F   UNL A   1      27.383  31.011  23.469  1.00  0.00    -0.094 F 
ATOM     25  F   UNL A   1      27.278  31.966  21.453  1.00  0.00    -0.094 F 
ATOM     26  F   UNL A   1      28.949  30.700  20.752  1.00  0.00    -0.094 F 
ATOM     27  F   UNL A   1      29.043  29.724  22.748  1.00  0.00    -0.094 F 
ENDBRANCH  15  22
ENDBRANCH   6   8
ENDBRANCH   5   6
ENDBRANCH   4   5
ENDBRANCH   3   4
ENDBRANCH   2   3
ENDBRANCH   1   2
BRANCH   1  28
ATOM     28  C   UNL A   1      37.107  22.270  25.664  1.00  0.00     0.261 C 
BRANCH  28  29
ATOM     29  O   UNL A   1      38.479  21.934  25.509  1.00  0.00    -0.460 OA
BRANCH  29  30
ATOM     30  C   UNL A   1      39.407  22.246  26.537  1.00  0.00     0.338 C 
ATOM     31  O   UNL A   1      40.029  21.313  27.136  1.00  0.00    -0.246 OA
BRANCH  30  32
ATOM     32  C   UNL A   1      39.659  23.695  26.921  1.00  0.00     0.060 A 
ATOM     33  C   UNL A   1      40.020  23.878  28.246  1.00  0.00     0.016 A 
ATOM     34  C   UNL A   1      39.658  24.707  26.061  1.00  0.00     0.016 A 
ATOM     35  C   UNL A   1      40.086  25.235  28.639  1.00  0.00     0.010 A 
ATOM     36  C   UNL A   1      39.864  25.994  26.496  1.00  0.00     0.010 A 
ATOM     37  C   UNL A   1      40.167  26.254  27.803  1.00  0.00    -0.014 A 
BRANCH  37  38
ATOM     38  C   UNL A   1      40.574  27.643  28.269  1.00  0.00     0.031 A 
ATOM     39  C   UNL A   1      39.629  28.570  28.711  1.00  0.00     0.074 A 
ATOM     40  C   UNL A   1      41.917  27.931  28.092  1.00  0.00     0.049 A 
ATOM     41  N   UNL A   1      39.838  29.839  29.064  1.00  0.00    -0.248 NA
ATOM     42  C   UNL A   1      38.197  28.276  28.868  1.00  0.00     0.031 C 
ATOM     43  C   UNL A   1      42.879  26.998  27.653  1.00  0.00     0.029 A 
ATOM     44  N   UNL A   1      42.559  29.132  28.298  1.00  0.00    -0.354 N 
ATOM     45  C   UNL A   1      38.693  30.404  29.452  1.00  0.00     0.074 A 
ATOM     46  C   UNL A   1      37.620  29.408  29.325  1.00  0.00     0.031 C 
ATOM     47  C   UNL A   1      44.079  27.631  27.585  1.00  0.00     0.029 A 
ATOM     48  C   UNL A   1      43.889  28.969  27.980  1.00  0.00     0.049 A 
ATOM     49  H   UNL A   1      42.138  29.963  28.616  1.00  0.00     0.167 HD
ATOM     50  C   UNL A   1      38.502  31.710  29.907  1.00  0.00     0.034 A 
ATOM     51  C   UNL A   1      44.894  29.922  28.023  1.00  0.00     0.034 A 
ATOM     52  C   UNL A   1      39.516  32.651  29.992  1.00  0.00     0.049 A 
ATOM     53  C   UNL A   1      44.692  31.245  28.423  1.00  0.00     0.074 A 
ATOM     54  C   UNL A   1      39.342  33.968  30.456  1.00  0.00     0.029 A 
ATOM     55  N   UNL A   1      40.842  32.495  29.650  1.00  0.00    -0.354 N 
ATOM     56  N   UNL A   1      43.554  31.798  28.847  1.00  0.00    -0.248 NA
ATOM     57  C   UNL A   1      45.743  32.271  28.442  1.00  0.00     0.031 C 
ATOM     58  C   UNL A   1      40.543  34.602  30.387  1.00  0.00     0.029 A 
ATOM     59  C   UNL A   1      41.487  33.689  29.877  1.00  0.00     0.049 A 
ATOM     60  H   UNL A   1      41.256  31.672  29.304  1.00  0.00     0.167 HD
ATOM     61  C   UNL A   1      43.756  33.079  29.161  1.00  0.00     0.074 A 
ATOM     62  C   UNL A   1      45.165  33.405  28.897  1.00  0.00     0.031 C 
ATOM     63  C   UNL A   1      42.822  33.991  29.659  1.00  0.00     0.034 A 
BRANCH  50  64
ATOM     64  C   UNL A   1      37.103  32.123  30.334  1.00  0.00     0.023 A 
ATOM     65  C   UNL A   1      36.179  32.628  29.434  1.00  0.00     0.031 A 
ATOM     66  C   UNL A   1      36.764  31.852  31.590  1.00  0.00     0.131 A 
ATOM     67  C   UNL A   1      34.984  33.087  30.037  1.00  0.00     0.055 A 
ATOM     68  C   UNL A   1      35.528  32.208  32.073  1.00  0.00     0.041 A 
ATOM     69  F   UNL A   1      37.629  31.229  32.385  1.00  0.00    -0.206 F 
ATOM     70  C   UNL A   1      34.587  32.767  31.254  1.00  0.00     0.022 A 
BRANCH  67  71
ATOM     71  S   UNL A   1      33.927  34.194  29.070  1.00  0.00     0.124 S 
ATOM     72  O   UNL A   1      34.789  35.267  28.400  1.00  0.00    -0.237 OA
ATOM     73  O   UNL A   1      33.189  33.388  27.998  1.00  0.00    -0.237 OA
ATOM     74  O   UNL A   1      32.789  34.943  30.105  1.00  0.00    -0.744 OA
ENDBRANCH  67  71
ENDBRANCH  50  64
BRANCH  51  75
ATOM     75  C   UNL A   1      46.296  29.504  27.611  1.00  0.00     0.023 A 
ATOM     76  C   UNL A   1      46.613  29.316  26.275  1.00  0.00     0.031 A 
ATOM     77  C   UNL A   1      47.157  29.192  28.573  1.00  0.00     0.131 A 
ATOM     78  C   UNL A   1      47.760  28.515  26.066  1.00  0.00     0.055 A 
ATOM     79  C   UNL A   1      48.323  28.529  28.280  1.00  0.00     0.041 A 
ATOM     80  F   UNL A   1      46.885  29.524  29.832  1.00  0.00    -0.206 F 
ATOM     81  C   UNL A   1      48.672  28.257  26.986  1.00  0.00     0.022 A 
BRANCH  78  82
ATOM     82  S   UNL A   1      47.996  27.794  24.423  1.00  0.00     0.124 S 
ATOM     83  O   UNL A   1      47.151  28.562  23.402  1.00  0.00    -0.237 OA
ATOM     84  O   UNL A   1      49.473  27.885  24.033  1.00  0.00    -0.237 OA
ATOM     85  O   UNL A   1      47.512  26.155  24.444  1.00  0.00    -0.744 OA
ENDBRANCH  78  82
ENDBRANCH  51  75
BRANCH  63  86
ATOM     86  C   UNL A   1      43.300  35.398  29.981  1.00  0.00     0.023 A 
ATOM     87  C   UNL A   1      43.087  36.329  28.979  1.00  0.00     0.031 A 
ATOM     88  C   UNL A   1      43.809  35.754  31.155  1.00  0.00     0.131 A 
ATOM     89  C   UNL A   1      43.717  37.574  29.209  1.00  0.00     0.055 A 
ATOM     90  C   UNL A   1      44.281  37.027  31.355  1.00  0.00     0.041 A 
ATOM     91  F   UNL A   1      43.860  34.869  32.146  1.00  0.00    -0.206 F 
ATOM     92  C   UNL A   1      44.158  37.983  30.385  1.00  0.00     0.022 A 
BRANCH  89  93
ATOM     93  S   UNL A   1      43.934  38.684  27.796  1.00  0.00     0.124 S 
ATOM     94  O   UNL A   1      44.889  38.043  26.786  1.00  0.00    -0.237 OA
ATOM     95  O   UNL A   1      42.578  38.932  27.131  1.00  0.00    -0.237 OA
ATOM     96  O   UNL A   1      44.585  40.171  28.333  1.00  0.00    -0.744 OA
ENDBRANCH  89  93
ENDBRANCH  63  86
ENDBRANCH  37  38
ENDBRANCH  30  32
ENDBRANCH  29  30
ENDBRANCH  28  29
ENDBRANCH   1  28
TORSDOF 19
ENDMDL
MODEL 2
REMARK VINA RESULT:     -11.9      5.789     10.554
REMARK SMILES O=C(OCCOCCOC(=O)c1ccc(-c2c3nc(c(-c4cc(S(=O)(=O)[O-])ccc4F)c4ccc([nH]4)c(-c4cc(S(=O)(=O)[O-])ccc4F)c4nc(c(-c5cc(S(=O)(=O)[O-])ccc5F)c5ccc2[nH]5)C=C4)C=C3)cc1)C1=Cc2cc(S(F)(F)(F)(F)F)ccc2O[C@@H]1C(F)(F)F
REMARK SMILES IDX 7 1 6 2 5 3 4 4 3 5 2 6 1 7 75 8 76 9 90 10 77 11 89 12
REMARK SMILES IDX 78 13 88 14 79 15 87 16 86 17 91 18 92 19 93 20 94 21 80 22
REMARK SMILES IDX 81 23 82 24 83 25 84 26 85 27 8 28 9 29 10 30 11 31 12 32
REMARK SMILES IDX 13 33 74 34 14 35 73 36 15 37 16 38 17 39 67 40 18 41 72 42
REMARK SMILES IDX 66 43 68 44 19 45 71 46 65 47 64 48 20 50 52 51 32 52 51 53
REMARK SMILES IDX 33 54 36 55 50 56 69 57 34 58 35 59 49 61 70 62 37 63 21 64
REMARK SMILES IDX 22 65 30 66 23 67 29 68 31 69 28 70 24 71 25 72 26 73 27 74
REMARK SMILES IDX 53 75 54 76 62 77 55 78 61 79 63 80 60 81 56 82 57 83 58 84
REMARK SMILES IDX 59 85 38 86 39 87 47 88 40 89 46 90 48 91 45 92 41 93 42 94
REMARK SMILES IDX 43 95 44 96
REMARK H PARENT 68 49 36 60
REMARK Flexibility Score: inf
ROOT
ATOM      1  C   UNL A   1      32.166  28.397  25.882  1.00  0.00     0.202 C 
ENDROOT
BRANCH   1   2
ATOM      2  O   UNL A   1      32.384  27.589  24.735  1.00  0.00    -0.374 OA
BRANCH   2   3
ATOM      3  C   UNL A   1      33.654  26.963  24.832  1.00  0.00     0.202 C 
BRANCH   3   4
ATOM      4  C   UNL A   1      33.846  26.023  23.653  1.00  0.00     0.261 C 
BRANCH   4   5
ATOM      5  O   UNL A   1      34.074  24.705  24.130  1.00  0.00    -0.460 OA
BRANCH   5   6
ATOM      6  C   UNL A   1      33.257  23.635  23.679  1.00  0.00     0.338 C 
ATOM      7  O   UNL A   1      33.564  23.003  22.620  1.00  0.00    -0.246 OA
BRANCH   6   8
ATOM      8  C   UNL A   1      32.016  23.245  24.464  1.00  0.00     0.087 C 
ATOM      9  C   UNL A   1      31.933  22.015  25.040  1.00  0.00     0.027 C 
ATOM     10  C   UNL A   1      30.866  24.230  24.607  1.00  0.00     0.316 C 
ATOM     11  C   UNL A   1      33.082  21.031  24.897  1.00  0.00     0.019 A 
ATOM     12  O   UNL A   1      34.706  22.717  25.311  1.00  0.00    -0.475 OA
ATOM     13  C   UNL A   1      32.717  19.756  24.496  1.00  0.00     0.036 A 
ATOM     14  C   UNL A   1      34.358  21.364  25.056  1.00  0.00     0.128 A 
ATOM     15  C   UNL A   1      33.766  18.810  24.567  1.00  0.00     0.107 A 
ATOM     16  C   UNL A   1      35.345  20.411  24.977  1.00  0.00     0.048 A 
ATOM     17  C   UNL A   1      35.048  19.117  24.644  1.00  0.00     0.028 A 
BRANCH  10  18
ATOM     18  C   UNL A   1      30.635  24.528  26.080  1.00  0.00     0.430 C 
ATOM     19  F   UNL A   1      29.878  25.614  26.199  1.00  0.00    -0.167 F 
ATOM     20  F   UNL A   1      30.021  23.495  26.651  1.00  0.00    -0.167 F 
ATOM     21  F   UNL A   1      31.805  24.734  26.679  1.00  0.00    -0.167 F 
ENDBRANCH  10  18
BRANCH  15  22
ATOM     22  S   UNL A   1      33.321  17.056  24.551  1.00  0.00     0.310 S 
ATOM     23  F   UNL A   1      31.773  17.401  24.582  1.00  0.00    -0.094 F 
ATOM     24  F   UNL A   1      33.286  17.069  26.125  1.00  0.00    -0.094 F 
ATOM     25  F   UNL A   1      32.923  15.553  24.526  1.00  0.00    -0.094 F 
ATOM     26  F   UNL A   1      33.224  17.099  22.974  1.00  0.00    -0.094 F 
ATOM     27  F   UNL A   1      33.614  18.609  24.559  1.00  0.00    -0.094 F 
ENDBRANCH  15  22
ENDBRANCH   6   8
ENDBRANCH   5   6
ENDBRANCH   4   5
ENDBRANCH   3   4
ENDBRANCH   2   3
ENDBRANCH   1   2
BRANCH   1  28
ATOM     28  C   UNL A   1      33.304  29.395  26.024  1.00  0.00     0.261 C 
BRANCH  28  29
ATOM     29  O   UNL A   1      33.149  30.121  27.234  1.00  0.00    -0.460 OA
BRANCH  29  30
ATOM     30  C   UNL A   1      34.089  31.125  27.587  1.00  0.00     0.338 C 
ATOM     31  O   UNL A   1      33.794  32.352  27.438  1.00  0.00    -0.246 OA
BRANCH  30  32
ATOM     32  C   UNL A   1      35.449  30.732  28.141  1.00  0.00     0.060 A 
ATOM     33  C   UNL A   1      35.435  29.592  28.928  1.00  0.00     0.016 A 
ATOM     34  C   UNL A   1      36.589  31.335  27.822  1.00  0.00     0.016 A 
ATOM     35  C   UNL A   1      36.665  29.330  29.577  1.00  0.00     0.010 A 
ATOM     36  C   UNL A   1      37.773  30.937  28.391  1.00  0.00     0.010 A 
ATOM     37  C   UNL A   1      37.824  29.855  29.226  1.00  0.00    -0.014 A 
BRANCH  37  38
ATOM     38  C   UNL A   1      39.144  29.290  29.724  1.00  0.00     0.031 A 
ATOM     39  C   UNL A   1      39.770  28.222  29.079  1.00  0.00     0.074 A 
ATOM     40  C   UNL A   1      39.583  29.837  30.918  1.00  0.00     0.049 A 
ATOM     41  N   UNL A   1      40.876  27.579  29.456  1.00  0.00    -0.248 NA
ATOM     42  C   UNL A   1      39.288  27.618  27.829  1.00  0.00     0.031 C 
ATOM     43  C   UNL A   1      38.961  30.920  31.571  1.00  0.00     0.029 A 
ATOM     44  N   UNL A   1      40.664  29.452  31.678  1.00  0.00    -0.354 N 
ATOM     45  C   UNL A   1      41.180  26.626  28.573  1.00  0.00     0.074 A 
ATOM     46  C   UNL A   1      40.158  26.633  27.517  1.00  0.00     0.031 C 
ATOM     47  C   UNL A   1      39.651  31.176  32.713  1.00  0.00     0.029 A 
ATOM     48  C   UNL A   1      40.716  30.258  32.794  1.00  0.00     0.049 A 
ATOM     49  H   UNL A   1      41.292  28.725  31.462  1.00  0.00     0.167 HD
ATOM     50  C   UNL A   1      42.268  25.753  28.606  1.00  0.00     0.034 A 
ATOM     51  C   UNL A   1      41.630  30.210  33.834  1.00  0.00     0.034 A 
ATOM     52  C   UNL A   1      43.208  25.734  29.625  1.00  0.00     0.049 A 
ATOM     53  C   UNL A   1      42.686  29.298  33.897  1.00  0.00     0.074 A 
ATOM     54  C   UNL A   1      44.315  24.865  29.670  1.00  0.00     0.029 A 
ATOM     55  N   UNL A   1      43.245  26.524  30.753  1.00  0.00    -0.354 N 
ATOM     56  N   UNL A   1      43.010  28.371  32.994  1.00  0.00    -0.248 NA
ATOM     57  C   UNL A   1      43.642  29.217  35.010  1.00  0.00     0.031 C 
ATOM     58  C   UNL A   1      45.005  25.121  30.813  1.00  0.00     0.029 A 
ATOM     59  C   UNL A   1      44.339  26.154  31.501  1.00  0.00     0.049 A 
ATOM     60  H   UNL A   1      42.601  27.231  30.984  1.00  0.00     0.167 HD
ATOM     61  C   UNL A   1      44.094  27.701  33.393  1.00  0.00     0.074 A 
ATOM     62  C   UNL A   1      44.511  28.230  34.699  1.00  0.00     0.031 C 
ATOM     63  C   UNL A   1      44.754  26.671  32.718  1.00  0.00     0.034 A 
BRANCH  50  64
ATOM     64  C   UNL A   1      42.432  24.767  27.461  1.00  0.00     0.023 A 
ATOM     65  C   UNL A   1      41.747  23.563  27.425  1.00  0.00     0.031 A 
ATOM     66  C   UNL A   1      43.163  25.176  26.430  1.00  0.00     0.131 A 
ATOM     67  C   UNL A   1      42.133  22.718  26.357  1.00  0.00     0.055 A 
ATOM     68  C   UNL A   1      43.386  24.345  25.358  1.00  0.00     0.041 A 
ATOM     69  F   UNL A   1      43.683  26.399  26.435  1.00  0.00    -0.206 F 
ATOM     70  C   UNL A   1      42.789  23.117  25.284  1.00  0.00     0.022 A 
BRANCH  67  71
ATOM     71  S   UNL A   1      41.694  20.965  26.472  1.00  0.00     0.124 S 
ATOM     72  O   UNL A   1      41.947  20.469  27.898  1.00  0.00    -0.237 OA
ATOM     73  O   UNL A   1      40.214  20.786  26.124  1.00  0.00    -0.237 OA
ATOM     74  O   UNL A   1      42.651  20.065  25.377  1.00  0.00    -0.744 OA
ENDBRANCH  67  71
ENDBRANCH  50  64
BRANCH  51  75
ATOM     75  C   UNL A   1      41.475  31.207  34.971  1.00  0.00     0.023 A 
ATOM     76  C   UNL A   1      40.487  31.038  35.928  1.00  0.00     0.031 A 
ATOM     77  C   UNL A   1      42.219  32.307  34.936  1.00  0.00     0.131 A 
ATOM     78  C   UNL A   1      40.162  32.222  36.631  1.00  0.00     0.055 A 
ATOM     79  C   UNL A   1      41.926  33.375  35.748  1.00  0.00     0.041 A 
ATOM     80  F   UNL A   1      43.255  32.374  34.105  1.00  0.00    -0.206 F 
ATOM     81  C   UNL A   1      40.924  33.300  36.676  1.00  0.00     0.022 A 
BRANCH  78  82
ATOM     82  S   UNL A   1      38.594  32.263  37.532  1.00  0.00     0.124 S 
ATOM     83  O   UNL A   1      37.794  33.498  37.109  1.00  0.00    -0.237 OA
ATOM     84  O   UNL A   1      37.789  31.001  37.212  1.00  0.00    -0.237 OA
ATOM     85  O   UNL A   1      38.901  32.332  39.212  1.00  0.00    -0.744 OA
ENDBRANCH  78  82
ENDBRANCH  51  75
BRANCH  63  86
ATOM     86  C   UNL A   1      46.001  26.084  33.359  1.00  0.00     0.023 A 
ATOM     87  C   UNL A   1      45.776  24.984  34.170  1.00  0.00     0.031 A 
ATOM     88  C   UNL A   1      47.232  26.518  33.111  1.00  0.00     0.131 A 
ATOM     89  C   UNL A   1      46.909  24.579  34.914  1.00  0.00     0.055 A 
ATOM     90  C   UNL A   1      48.308  25.983  33.776  1.00  0.00     0.041 A 
ATOM     91  F   UNL A   1      47.423  27.478  32.212  1.00  0.00    -0.206 F 
ATOM     92  C   UNL A   1      48.151  24.933  34.638  1.00  0.00     0.022 A 
BRANCH  89  93
ATOM     93  S   UNL A   1      46.638  23.504  36.344  1.00  0.00     0.124 S 
ATOM     94  O   UNL A   1      47.935  23.387  37.148  1.00  0.00    -0.237 OA
ATOM     95  O   UNL A   1      45.540  24.100  37.228  1.00  0.00    -0.237 OA
ATOM     96  O   UNL A   1      46.157  21.953  35.808  1.00  0.00    -0.744 OA
ENDBRANCH  89  93
ENDBRANCH  63  86
ENDBRANCH  37  38
ENDBRANCH  30  32
ENDBRANCH  29  30
ENDBRANCH  28  29
ENDBRANCH   1  28
TORSDOF 19
ENDMDL
MODEL 3
REMARK VINA RESULT:     -11.8      2.404      3.451
REMARK SMILES O=C(OCCOCCOC(=O)c1ccc(-c2c3nc(c(-c4cc(S(=O)(=O)[O-])ccc4F)c4ccc([nH]4)c(-c4cc(S(=O)(=O)[O-])ccc4F)c4nc(c(-c5cc(S(=O)(=O)[O-])ccc5F)c5ccc2[nH]5)C=C4)C=C3)cc1)C1=Cc2cc(S(F)(F)(F)(F)F)ccc2O[C@@H]1C(F)(F)F
REMARK SMILES IDX 7 1 6 2 5 3 4 4 3 5 2 6 1 7 75 8 76 9 90 10 77 11 89 12
REMARK SMILES IDX 78 13 88 14 79 15 87 16 86 17 91 18 92 19 93 20 94 21 80 22
REMARK SMILES IDX 81 23 82 24 83 25 84 26 85 27 8 28 9 29 10 30 11 31 12 32
REMARK SMILES IDX 13 33 74 34 14 35 73 36 15 37 16 38 17 39 67 40 18 41 72 42
REMARK SMILES IDX 66 43 68 44 19 45 71 46 65 47 64 48 20 50 52 51 32 52 51 53
REMARK SMILES IDX 33 54 36 55 50 56 69 57 34 58 35 59 49 61 70 62 37 63 21 64
REMARK SMILES IDX 22 65 30 66 23 67 29 68 31 69 28 70 24 71 25 72 26 73 27 74
REMARK SMILES IDX 53 75 54 76 62 77 55 78 61 79 63 80 60 81 56 82 57 83 58 84
REMARK SMILES IDX 59 85 38 86 39 87 47 88 40 89 46 90 48 91 45 92 41 93 42 94
REMARK SMILES IDX 43 95 44 96
REMARK H PARENT 68 49 36 60
REMARK Flexibility Score: inf
ROOT
ATOM      1  C   UNL A   1      36.796  22.945  23.604  1.00  0.00     0.202 C 
ENDROOT
BRANCH   1   2
ATOM      2  O   UNL A   1      35.694  23.018  22.711  1.00  0.00    -0.374 OA
BRANCH   2   3
ATOM      3  C   UNL A   1      34.486  23.083  23.454  1.00  0.00     0.202 C 
BRANCH   3   4
ATOM      4  C   UNL A   1      33.403  23.727  22.605  1.00  0.00     0.261 C 
BRANCH   4   5
ATOM      5  O   UNL A   1      32.699  24.685  23.381  1.00  0.00    -0.460 OA
BRANCH   5   6
ATOM      6  C   UNL A   1      31.471  24.333  24.001  1.00  0.00     0.338 C 
ATOM      7  O   UNL A   1      30.428  24.161  23.294  1.00  0.00    -0.246 OA
BRANCH   6   8
ATOM      8  C   UNL A   1      31.404  24.159  25.509  1.00  0.00     0.087 C 
ATOM      9  C   UNL A   1      31.546  25.238  26.324  1.00  0.00     0.027 C 
ATOM     10  C   UNL A   1      31.179  22.780  26.106  1.00  0.00     0.316 C 
ATOM     11  C   UNL A   1      31.770  26.618  25.728  1.00  0.00     0.019 A 
ATOM     12  O   UNL A   1      30.115  26.272  24.058  1.00  0.00    -0.475 OA
ATOM     13  C   UNL A   1      32.824  27.331  26.278  1.00  0.00     0.036 A 
ATOM     14  C   UNL A   1      31.079  27.094  24.699  1.00  0.00     0.128 A 
ATOM     15  C   UNL A   1      32.887  28.679  25.854  1.00  0.00     0.107 A 
ATOM     16  C   UNL A   1      31.288  28.376  24.249  1.00  0.00     0.048 A 
ATOM     17  C   UNL A   1      32.273  29.158  24.787  1.00  0.00     0.028 A 
BRANCH  10  18
ATOM     18  C   UNL A   1      29.901  22.787  26.930  1.00  0.00     0.430 C 
ATOM     19  F   UNL A   1      30.197  22.580  28.209  1.00  0.00    -0.167 F 
ATOM     20  F   UNL A   1      29.296  23.965  26.800  1.00  0.00    -0.167 F 
ATOM     21  F   UNL A   1      29.092  21.823  26.500  1.00  0.00    -0.167 F 
ENDBRANCH  10  18
BRANCH  15  22
ATOM     22  S   UNL A   1      33.878  29.827  26.841  1.00  0.00     0.310 S 
ATOM     23  F   UNL A   1      34.044  28.758  28.002  1.00  0.00    -0.094 F 
ATOM     24  F   UNL A   1      32.565  30.309  27.566  1.00  0.00    -0.094 F 
ATOM     25  F   UNL A   1      34.740  30.798  27.696  1.00  0.00    -0.094 F 
ATOM     26  F   UNL A   1      35.196  29.232  26.204  1.00  0.00    -0.094 F 
ATOM     27  F   UNL A   1      33.029  28.756  26.048  1.00  0.00    -0.094 F 
ENDBRANCH  15  22
ENDBRANCH   6   8
ENDBRANCH   5   6
ENDBRANCH   4   5
ENDBRANCH   3   4
ENDBRANCH   2   3
ENDBRANCH   1   2
BRANCH   1  28
ATOM     28  C   UNL A   1      36.335  23.295  25.009  1.00  0.00     0.261 C 
BRANCH  28  29
ATOM     29  O   UNL A   1      37.043  22.502  25.950  1.00  0.00    -0.460 OA
BRANCH  29  30
ATOM     30  C   UNL A   1      38.437  22.693  26.136  1.00  0.00     0.338 C 
ATOM     31  O   UNL A   1      39.257  21.795  25.766  1.00  0.00    -0.246 OA
BRANCH  30  32
ATOM     32  C   UNL A   1      38.951  23.973  26.777  1.00  0.00     0.060 A 
ATOM     33  C   UNL A   1      39.550  24.852  25.890  1.00  0.00     0.016 A 
ATOM     34  C   UNL A   1      38.755  24.303  28.048  1.00  0.00     0.016 A 
ATOM     35  C   UNL A   1      40.174  25.958  26.513  1.00  0.00     0.010 A 
ATOM     36  C   UNL A   1      39.279  25.466  28.557  1.00  0.00     0.010 A 
ATOM     37  C   UNL A   1      39.935  26.354  27.750  1.00  0.00    -0.014 A 
BRANCH  37  38
ATOM     38  C   UNL A   1      40.365  27.723  28.251  1.00  0.00     0.031 A 
ATOM     39  C   UNL A   1      39.434  28.666  28.690  1.00  0.00     0.074 A 
ATOM     40  C   UNL A   1      41.718  27.981  28.110  1.00  0.00     0.049 A 
ATOM     41  N   UNL A   1      39.665  29.923  29.071  1.00  0.00    -0.248 NA
ATOM     42  C   UNL A   1      37.992  28.405  28.809  1.00  0.00     0.031 C 
ATOM     43  C   UNL A   1      42.666  27.032  27.675  1.00  0.00     0.029 A 
ATOM     44  N   UNL A   1      42.385  29.161  28.352  1.00  0.00    -0.354 N 
ATOM     45  C   UNL A   1      38.526  30.509  29.443  1.00  0.00     0.074 A 
ATOM     46  C   UNL A   1      37.432  29.543  29.274  1.00  0.00     0.031 C 
ATOM     47  C   UNL A   1      43.883  27.635  27.645  1.00  0.00     0.029 A 
ATOM     48  C   UNL A   1      43.718  28.971  28.061  1.00  0.00     0.049 A 
ATOM     49  H   UNL A   1      41.978  29.996  28.677  1.00  0.00     0.167 HD
ATOM     50  C   UNL A   1      38.357  31.810  29.919  1.00  0.00     0.034 A 
ATOM     51  C   UNL A   1      44.744  29.897  28.145  1.00  0.00     0.034 A 
ATOM     52  C   UNL A   1      39.393  32.724  30.044  1.00  0.00     0.049 A 
ATOM     53  C   UNL A   1      44.566  31.217  28.565  1.00  0.00     0.074 A 
ATOM     54  C   UNL A   1      39.241  34.037  30.529  1.00  0.00     0.029 A 
ATOM     55  N   UNL A   1      40.721  32.541  29.729  1.00  0.00    -0.354 N 
ATOM     56  N   UNL A   1      43.433  31.791  28.974  1.00  0.00    -0.248 NA
ATOM     57  C   UNL A   1      45.642  32.216  28.626  1.00  0.00     0.031 C 
ATOM     58  C   UNL A   1      40.458  34.641  30.498  1.00  0.00     0.029 A 
ATOM     59  C   UNL A   1      41.391  33.715  29.993  1.00  0.00     0.049 A 
ATOM     60  H   UNL A   1      41.123  31.715  29.377  1.00  0.00     0.167 HD
ATOM     61  C   UNL A   1      43.659  33.061  29.316  1.00  0.00     0.074 A 
ATOM     62  C   UNL A   1      45.082  33.355  29.090  1.00  0.00     0.031 C 
ATOM     63  C   UNL A   1      42.737  33.986  29.810  1.00  0.00     0.034 A 
BRANCH  50  64
ATOM     64  C   UNL A   1      36.959  32.251  30.323  1.00  0.00     0.023 A 
ATOM     65  C   UNL A   1      36.052  32.748  29.402  1.00  0.00     0.031 A 
ATOM     66  C   UNL A   1      36.605  32.011  31.580  1.00  0.00     0.131 A 
ATOM     67  C   UNL A   1      34.857  33.237  29.983  1.00  0.00     0.055 A 
ATOM     68  C   UNL A   1      35.368  32.394  32.042  1.00  0.00     0.041 A 
ATOM     69  F   UNL A   1      37.453  31.394  32.397  1.00  0.00    -0.206 F 
ATOM     70  C   UNL A   1      34.443  32.947  31.202  1.00  0.00     0.022 A 
BRANCH  67  71
ATOM     71  S   UNL A   1      33.825  34.336  28.982  1.00  0.00     0.124 S 
ATOM     72  O   UNL A   1      32.742  34.962  29.864  1.00  0.00    -0.237 OA
ATOM     73  O   UNL A   1      34.693  35.442  28.377  1.00  0.00    -0.237 OA
ATOM     74  O   UNL A   1      33.088  33.440  27.726  1.00  0.00    -0.744 OA
ENDBRANCH  67  71
ENDBRANCH  50  64
BRANCH  51  75
ATOM     75  C   UNL A   1      46.145  29.452  27.756  1.00  0.00     0.023 A 
ATOM     76  C   UNL A   1      46.499  29.320  26.423  1.00  0.00     0.031 A 
ATOM     77  C   UNL A   1      46.962  29.062  28.728  1.00  0.00     0.131 A 
ATOM     78  C   UNL A   1      47.626  28.491  26.209  1.00  0.00     0.055 A 
ATOM     79  C   UNL A   1      48.115  28.374  28.438  1.00  0.00     0.041 A 
ATOM     80  F   UNL A   1      46.660  29.340  29.993  1.00  0.00    -0.206 F 
ATOM     81  C   UNL A   1      48.497  28.155  27.143  1.00  0.00     0.022 A 
BRANCH  78  82
ATOM     82  S   UNL A   1      47.892  27.845  24.540  1.00  0.00     0.124 S 
ATOM     83  O   UNL A   1      47.680  26.329  24.539  1.00  0.00    -0.237 OA
ATOM     84  O   UNL A   1      46.898  28.499  23.576  1.00  0.00    -0.237 OA
ATOM     85  O   UNL A   1      49.488  28.197  24.038  1.00  0.00    -0.744 OA
ENDBRANCH  78  82
ENDBRANCH  51  75
BRANCH  63  86
ATOM     86  C   UNL A   1      43.243  35.375  30.169  1.00  0.00     0.023 A 
ATOM     87  C   UNL A   1      43.534  35.559  31.510  1.00  0.00     0.031 A 
ATOM     88  C   UNL A   1      43.476  36.329  29.275  1.00  0.00     0.131 A 
ATOM     89  C   UNL A   1      43.805  36.903  31.858  1.00  0.00     0.055 A 
ATOM     90  C   UNL A   1      43.870  37.581  29.677  1.00  0.00     0.041 A 
ATOM     91  F   UNL A   1      43.328  36.068  27.980  1.00  0.00    -0.206 F 
ATOM     92  C   UNL A   1      44.118  37.852  30.995  1.00  0.00     0.022 A 
BRANCH  89  93
ATOM     93  S   UNL A   1      43.713  37.356  33.608  1.00  0.00     0.124 S 
ATOM     94  O   UNL A   1      42.845  36.339  34.353  1.00  0.00    -0.237 OA
ATOM     95  O   UNL A   1      45.122  37.360  34.208  1.00  0.00    -0.237 OA
ATOM     96  O   UNL A   1      43.025  38.914  33.760  1.00  0.00    -0.744 OA
ENDBRANCH  89  93
ENDBRANCH  63  86
ENDBRANCH  37  38
ENDBRANCH  30  32
ENDBRANCH  29  30
ENDBRANCH  28  29
ENDBRANCH   1  28
TORSDOF 19
ENDMDL
