MODEL 1
REMARK VINA RESULT:     -11.0      0.000      0.000
REMARK SMILES Cc1cc2[nH]ccc2nc1C(=O)OCCOCCOC(=O)c1ccc(-c2c3nc(c(-c4cc(S(=O)(=O)[O-])ccc4F)c4ccc([nH]4)c(-c4cc(S(=O)(=O)[O-])ccc4F)c4nc(c(-c5cc(S(=O)(=O)[O-])ccc5F)c5ccc2[nH]5)C=C4)C=C3)cc1
REMARK SMILES IDX 17 1 16 2 15 3 14 4 13 5 11 6 12 7 10 8 1 9 2 10 3 11 4 12
REMARK SMILES IDX 9 13 5 14 8 15 6 16 7 18 18 19 19 20 20 21 21 22 22 23 23 24
REMARK SMILES IDX 84 25 24 26 83 27 25 28 26 29 27 30 77 31 28 32 82 33 76 34
REMARK SMILES IDX 78 35 29 36 81 37 75 38 74 39 30 41 62 42 42 43 61 44 43 45
REMARK SMILES IDX 46 46 60 47 79 48 44 49 45 50 59 52 80 53 47 54 31 55 32 56
REMARK SMILES IDX 40 57 33 58 39 59 41 60 38 61 34 62 35 63 36 64 37 65 63 66
REMARK SMILES IDX 64 67 72 68 65 69 71 70 73 71 70 72 66 73 67 74 68 75 69 76
REMARK SMILES IDX 48 77 49 78 57 79 50 80 56 81 58 82 55 83 51 84 52 85 53 86
REMARK SMILES IDX 54 87
REMARK H PARENT 5 17 78 40 46 51
REMARK Flexibility Score: inf
ROOT
ATOM      1  C   UNL A   1      44.229  26.053  25.508  1.00  0.00     0.202 C 
ENDROOT
BRANCH   1   2
ATOM      2  O   UNL A   1      44.846  25.845  26.775  1.00  0.00    -0.374 OA
BRANCH   2   3
ATOM      3  C   UNL A   1      45.411  24.575  27.097  1.00  0.00     0.202 C 
BRANCH   3   4
ATOM      4  C   UNL A   1      46.546  24.053  26.219  1.00  0.00     0.261 C 
BRANCH   4   5
ATOM      5  O   UNL A   1      46.321  22.694  25.807  1.00  0.00    -0.459 OA
BRANCH   5   6
ATOM      6  C   UNL A   1      45.456  22.548  24.769  1.00  0.00     0.357 C 
ATOM      7  O   UNL A   1      45.511  23.147  23.704  1.00  0.00    -0.244 OA
BRANCH   6   8
ATOM      8  C   UNL A   1      44.478  21.446  25.035  1.00  0.00     0.152 A 
ATOM      9  C   UNL A   1      46.092  19.593  24.313  1.00  0.00     0.047 C 
ATOM     10  C   UNL A   1      44.807  20.087  24.911  1.00  0.00    -0.016 A 
ATOM     11  C   UNL A   1      43.857  19.138  25.325  1.00  0.00     0.034 A 
ATOM     12  C   UNL A   1      42.645  19.630  25.808  1.00  0.00     0.064 A 
ATOM     13  N   UNL A   1      43.283  21.926  25.477  1.00  0.00    -0.239 NA
ATOM     14  N   UNL A   1      41.530  18.997  26.304  1.00  0.00    -0.360 N 
ATOM     15  C   UNL A   1      42.382  20.993  25.842  1.00  0.00     0.089 A 
ATOM     16  C   UNL A   1      40.557  19.920  26.597  1.00  0.00     0.085 A 
ATOM     17  H   UNL A   1      41.443  18.024  26.432  1.00  0.00     0.166 HD
ATOM     18  C   UNL A   1      41.059  21.169  26.306  1.00  0.00     0.048 A 
ENDBRANCH   6   8
ENDBRANCH   5   6
ENDBRANCH   4   5
ENDBRANCH   3   4
ENDBRANCH   2   3
ENDBRANCH   1   2
BRANCH   1  19
ATOM     19  C   UNL A   1      43.169  27.139  25.380  1.00  0.00     0.261 C 
BRANCH  19  20
ATOM     20  O   UNL A   1      41.901  26.616  25.021  1.00  0.00    -0.460 OA
BRANCH  20  21
ATOM     21  C   UNL A   1      41.311  25.908  26.015  1.00  0.00     0.338 C 
ATOM     22  O   UNL A   1      41.353  24.706  26.188  1.00  0.00    -0.246 OA
BRANCH  21  23
ATOM     23  C   UNL A   1      40.503  26.827  26.821  1.00  0.00     0.060 A 
ATOM     24  C   UNL A   1      40.588  28.180  26.485  1.00  0.00     0.016 A 
ATOM     25  C   UNL A   1      40.026  26.386  28.062  1.00  0.00     0.016 A 
ATOM     26  C   UNL A   1      40.481  29.099  27.502  1.00  0.00     0.010 A 
ATOM     27  C   UNL A   1      39.938  27.301  29.075  1.00  0.00     0.010 A 
ATOM     28  C   UNL A   1      40.285  28.621  28.799  1.00  0.00    -0.014 A 
BRANCH  28  29
ATOM     29  C   UNL A   1      40.390  29.539  29.907  1.00  0.00     0.031 A 
ATOM     30  C   UNL A   1      39.164  30.349  30.061  1.00  0.00     0.074 A 
ATOM     31  C   UNL A   1      41.439  29.514  30.751  1.00  0.00     0.049 A 
ATOM     32  N   UNL A   1      39.014  31.602  29.796  1.00  0.00    -0.248 NA
ATOM     33  C   UNL A   1      37.900  29.631  30.306  1.00  0.00     0.031 C 
ATOM     34  C   UNL A   1      42.567  28.581  30.802  1.00  0.00     0.029 A 
ATOM     35  N   UNL A   1      41.667  30.309  31.825  1.00  0.00    -0.354 N 
ATOM     36  C   UNL A   1      37.683  31.873  30.078  1.00  0.00     0.074 A 
ATOM     37  C   UNL A   1      37.010  30.604  30.118  1.00  0.00     0.031 C 
ATOM     38  C   UNL A   1      43.225  28.732  31.979  1.00  0.00     0.029 A 
ATOM     39  C   UNL A   1      42.648  29.854  32.704  1.00  0.00     0.049 A 
ATOM     40  H   UNL A   1      41.175  31.148  31.974  1.00  0.00     0.167 HD
ATOM     41  C   UNL A   1      37.290  33.088  30.541  1.00  0.00     0.034 A 
ATOM     42  C   UNL A   1      42.896  30.349  33.951  1.00  0.00     0.034 A 
ATOM     43  C   UNL A   1      38.296  34.093  30.294  1.00  0.00     0.049 A 
ATOM     44  C   UNL A   1      42.314  31.722  33.968  1.00  0.00     0.074 A 
ATOM     45  C   UNL A   1      38.870  34.603  29.145  1.00  0.00     0.029 A 
ATOM     46  N   UNL A   1      39.180  34.382  31.311  1.00  0.00    -0.354 N 
ATOM     47  N   UNL A   1      42.765  32.690  33.214  1.00  0.00    -0.248 NA
ATOM     48  C   UNL A   1      40.926  31.862  34.388  1.00  0.00     0.031 C 
ATOM     49  C   UNL A   1      40.261  34.713  29.444  1.00  0.00     0.029 A 
ATOM     50  C   UNL A   1      40.451  34.358  30.782  1.00  0.00     0.049 A 
ATOM     51  H   UNL A   1      38.944  34.571  32.247  1.00  0.00     0.167 HD
ATOM     52  C   UNL A   1      41.634  33.329  32.725  1.00  0.00     0.074 A 
ATOM     53  C   UNL A   1      40.529  32.812  33.535  1.00  0.00     0.031 C 
ATOM     54  C   UNL A   1      41.644  33.977  31.522  1.00  0.00     0.034 A 
BRANCH  41  55
ATOM     55  C   UNL A   1      36.140  33.271  31.495  1.00  0.00     0.023 A 
ATOM     56  C   UNL A   1      35.051  34.057  31.088  1.00  0.00     0.031 A 
ATOM     57  C   UNL A   1      36.158  32.897  32.862  1.00  0.00     0.131 A 
ATOM     58  C   UNL A   1      34.068  34.450  32.014  1.00  0.00     0.055 A 
ATOM     59  C   UNL A   1      35.145  33.231  33.760  1.00  0.00     0.041 A 
ATOM     60  F   UNL A   1      37.201  32.274  33.427  1.00  0.00    -0.206 F 
ATOM     61  C   UNL A   1      34.100  34.030  33.343  1.00  0.00     0.022 A 
BRANCH  58  62
ATOM     62  S   UNL A   1      32.797  35.625  31.484  1.00  0.00     0.124 S 
ATOM     63  O   UNL A   1      32.537  35.187  30.117  1.00  0.00    -0.237 OA
ATOM     64  O   UNL A   1      31.737  35.378  32.455  1.00  0.00    -0.237 OA
ATOM     65  O   UNL A   1      33.462  36.920  31.607  1.00  0.00    -0.744 OA
ENDBRANCH  58  62
ENDBRANCH  41  55
BRANCH  42  66
ATOM     66  C   UNL A   1      43.231  29.590  35.197  1.00  0.00     0.023 A 
ATOM     67  C   UNL A   1      42.635  28.351  35.534  1.00  0.00     0.031 A 
ATOM     68  C   UNL A   1      44.359  29.966  35.959  1.00  0.00     0.131 A 
ATOM     69  C   UNL A   1      43.165  27.558  36.584  1.00  0.00     0.055 A 
ATOM     70  C   UNL A   1      44.879  29.180  36.992  1.00  0.00     0.041 A 
ATOM     71  F   UNL A   1      45.058  31.074  35.667  1.00  0.00    -0.206 F 
ATOM     72  C   UNL A   1      44.289  27.967  37.304  1.00  0.00     0.022 A 
BRANCH  69  73
ATOM     73  S   UNL A   1      42.464  25.915  36.974  1.00  0.00     0.124 S 
ATOM     74  O   UNL A   1      42.185  25.376  35.648  1.00  0.00    -0.237 OA
ATOM     75  O   UNL A   1      43.544  25.279  37.721  1.00  0.00    -0.237 OA
ATOM     76  O   UNL A   1      41.277  26.230  37.771  1.00  0.00    -0.744 OA
ENDBRANCH  69  73
ENDBRANCH  42  66
BRANCH  54  77
ATOM     77  C   UNL A   1      42.978  34.154  30.810  1.00  0.00     0.023 A 
ATOM     78  C   UNL A   1      43.502  33.280  29.825  1.00  0.00     0.031 A 
ATOM     79  C   UNL A   1      43.670  35.354  31.045  1.00  0.00     0.131 A 
ATOM     80  C   UNL A   1      44.676  33.629  29.122  1.00  0.00     0.055 A 
ATOM     81  C   UNL A   1      44.817  35.704  30.333  1.00  0.00     0.041 A 
ATOM     82  F   UNL A   1      43.209  36.237  31.945  1.00  0.00    -0.206 F 
ATOM     83  C   UNL A   1      45.327  34.842  29.370  1.00  0.00     0.022 A 
BRANCH  80  84
ATOM     84  S   UNL A   1      45.372  32.518  27.850  1.00  0.00     0.124 S 
ATOM     85  O   UNL A   1      44.390  32.587  26.774  1.00  0.00    -0.237 OA
ATOM     86  O   UNL A   1      46.671  33.124  27.574  1.00  0.00    -0.237 OA
ATOM     87  O   UNL A   1      45.442  31.221  28.528  1.00  0.00    -0.744 OA
ENDBRANCH  80  84
ENDBRANCH  54  77
ENDBRANCH  28  29
ENDBRANCH  21  23
ENDBRANCH  20  21
ENDBRANCH  19  20
ENDBRANCH   1  19
TORSDOF 17
ENDMDL
MODEL 2
REMARK VINA RESULT:     -10.9      3.193      4.596
REMARK SMILES Cc1cc2[nH]ccc2nc1C(=O)OCCOCCOC(=O)c1ccc(-c2c3nc(c(-c4cc(S(=O)(=O)[O-])ccc4F)c4ccc([nH]4)c(-c4cc(S(=O)(=O)[O-])ccc4F)c4nc(c(-c5cc(S(=O)(=O)[O-])ccc5F)c5ccc2[nH]5)C=C4)C=C3)cc1
REMARK SMILES IDX 17 1 16 2 15 3 14 4 13 5 11 6 12 7 10 8 1 9 2 10 3 11 4 12
REMARK SMILES IDX 9 13 5 14 8 15 6 16 7 18 18 19 19 20 20 21 21 22 22 23 23 24
REMARK SMILES IDX 84 25 24 26 83 27 25 28 26 29 27 30 77 31 28 32 82 33 76 34
REMARK SMILES IDX 78 35 29 36 81 37 75 38 74 39 30 41 62 42 42 43 61 44 43 45
REMARK SMILES IDX 46 46 60 47 79 48 44 49 45 50 59 52 80 53 47 54 31 55 32 56
REMARK SMILES IDX 40 57 33 58 39 59 41 60 38 61 34 62 35 63 36 64 37 65 63 66
REMARK SMILES IDX 64 67 72 68 65 69 71 70 73 71 70 72 66 73 67 74 68 75 69 76
REMARK SMILES IDX 48 77 49 78 57 79 50 80 56 81 58 82 55 83 51 84 52 85 53 86
REMARK SMILES IDX 54 87
REMARK H PARENT 5 17 78 40 46 51
REMARK Flexibility Score: inf
ROOT
ATOM      1  C   UNL A   1      39.908  22.004  26.650  1.00  0.00     0.202 C 
ENDROOT
BRANCH   1   2
ATOM      2  O   UNL A   1      39.035  21.463  25.661  1.00  0.00    -0.374 OA
BRANCH   2   3
ATOM      3  C   UNL A   1      37.676  21.896  25.591  1.00  0.00     0.202 C 
BRANCH   3   4
ATOM      4  C   UNL A   1      36.975  21.836  24.236  1.00  0.00     0.261 C 
BRANCH   4   5
ATOM      5  O   UNL A   1      35.676  22.450  24.280  1.00  0.00    -0.459 OA
BRANCH   5   6
ATOM      6  C   UNL A   1      34.839  21.948  25.226  1.00  0.00     0.357 C 
ATOM      7  O   UNL A   1      34.662  22.414  26.343  1.00  0.00    -0.244 OA
BRANCH   6   8
ATOM      8  C   UNL A   1      34.039  20.804  24.684  1.00  0.00     0.152 A 
ATOM      9  C   UNL A   1      32.245  22.311  23.651  1.00  0.00     0.047 C 
ATOM     10  C   UNL A   1      32.899  20.980  23.884  1.00  0.00    -0.016 A 
ATOM     11  C   UNL A   1      32.313  19.839  23.312  1.00  0.00     0.034 A 
ATOM     12  C   UNL A   1      32.904  18.611  23.608  1.00  0.00     0.064 A 
ATOM     13  N   UNL A   1      34.598  19.603  24.999  1.00  0.00    -0.239 NA
ATOM     14  N   UNL A   1      32.607  17.330  23.208  1.00  0.00    -0.360 N 
ATOM     15  C   UNL A   1      33.998  18.525  24.458  1.00  0.00     0.089 A 
ATOM     16  C   UNL A   1      33.449  16.438  23.825  1.00  0.00     0.085 A 
ATOM     17  H   UNL A   1      31.896  17.087  22.572  1.00  0.00     0.166 HD
ATOM     18  C   UNL A   1      34.317  17.157  24.619  1.00  0.00     0.048 A 
ENDBRANCH   6   8
ENDBRANCH   5   6
ENDBRANCH   4   5
ENDBRANCH   3   4
ENDBRANCH   2   3
ENDBRANCH   1   2
BRANCH   1  19
ATOM     19  C   UNL A   1      40.786  23.192  26.278  1.00  0.00     0.261 C 
BRANCH  19  20
ATOM     20  O   UNL A   1      40.443  24.363  27.000  1.00  0.00    -0.460 OA
BRANCH  20  21
ATOM     21  C   UNL A   1      40.710  25.508  26.324  1.00  0.00     0.338 C 
ATOM     22  O   UNL A   1      41.450  25.644  25.370  1.00  0.00    -0.246 OA
BRANCH  21  23
ATOM     23  C   UNL A   1      40.026  26.614  27.000  1.00  0.00     0.060 A 
ATOM     24  C   UNL A   1      40.431  27.901  26.640  1.00  0.00     0.016 A 
ATOM     25  C   UNL A   1      39.328  26.345  28.184  1.00  0.00     0.016 A 
ATOM     26  C   UNL A   1      40.403  28.874  27.610  1.00  0.00     0.010 A 
ATOM     27  C   UNL A   1      39.319  27.311  29.153  1.00  0.00     0.010 A 
ATOM     28  C   UNL A   1      39.964  28.515  28.886  1.00  0.00    -0.014 A 
BRANCH  28  29
ATOM     29  C   UNL A   1      40.132  29.449  29.973  1.00  0.00     0.031 A 
ATOM     30  C   UNL A   1      38.940  30.303  30.145  1.00  0.00     0.074 A 
ATOM     31  C   UNL A   1      41.203  29.402  30.788  1.00  0.00     0.049 A 
ATOM     32  N   UNL A   1      38.825  31.556  29.861  1.00  0.00    -0.248 NA
ATOM     33  C   UNL A   1      37.658  29.635  30.438  1.00  0.00     0.031 C 
ATOM     34  C   UNL A   1      42.299  28.431  30.826  1.00  0.00     0.029 A 
ATOM     35  N   UNL A   1      41.488  30.207  31.840  1.00  0.00    -0.354 N 
ATOM     36  C   UNL A   1      37.513  31.878  30.174  1.00  0.00     0.074 A 
ATOM     37  C   UNL A   1      36.797  30.635  30.257  1.00  0.00     0.031 C 
ATOM     38  C   UNL A   1      42.995  28.580  31.982  1.00  0.00     0.029 A 
ATOM     39  C   UNL A   1      42.477  29.734  32.701  1.00  0.00     0.049 A 
ATOM     40  H   UNL A   1      41.030  31.066  31.987  1.00  0.00     0.167 HD
ATOM     41  C   UNL A   1      37.175  33.115  30.624  1.00  0.00     0.034 A 
ATOM     42  C   UNL A   1      42.777  30.243  33.931  1.00  0.00     0.034 A 
ATOM     43  C   UNL A   1      38.208  34.079  30.331  1.00  0.00     0.049 A 
ATOM     44  C   UNL A   1      42.243  31.635  33.937  1.00  0.00     0.074 A 
ATOM     45  C   UNL A   1      38.767  34.548  29.157  1.00  0.00     0.029 A 
ATOM     46  N   UNL A   1      39.129  34.355  31.318  1.00  0.00    -0.354 N 
ATOM     47  N   UNL A   1      42.706  32.574  33.154  1.00  0.00    -0.248 NA
ATOM     48  C   UNL A   1      40.873  31.831  34.393  1.00  0.00     0.031 C 
ATOM     49  C   UNL A   1      40.168  34.615  29.416  1.00  0.00     0.029 A 
ATOM     50  C   UNL A   1      40.384  34.278  30.755  1.00  0.00     0.049 A 
ATOM     51  H   UNL A   1      38.927  34.570  32.257  1.00  0.00     0.167 HD
ATOM     52  C   UNL A   1      41.585  33.243  32.684  1.00  0.00     0.074 A 
ATOM     53  C   UNL A   1      40.485  32.779  33.533  1.00  0.00     0.031 C 
ATOM     54  C   UNL A   1      41.583  33.868  31.468  1.00  0.00     0.034 A 
BRANCH  41  55
ATOM     55  C   UNL A   1      36.059  33.355  31.606  1.00  0.00     0.023 A 
ATOM     56  C   UNL A   1      34.964  34.130  31.197  1.00  0.00     0.031 A 
ATOM     57  C   UNL A   1      36.121  33.049  32.989  1.00  0.00     0.131 A 
ATOM     58  C   UNL A   1      34.015  34.577  32.135  1.00  0.00     0.055 A 
ATOM     59  C   UNL A   1      35.141  33.435  33.902  1.00  0.00     0.041 A 
ATOM     60  F   UNL A   1      37.177  32.444  33.549  1.00  0.00    -0.206 F 
ATOM     61  C   UNL A   1      34.089  34.223  33.481  1.00  0.00     0.022 A 
BRANCH  58  62
ATOM     62  S   UNL A   1      32.736  35.737  31.591  1.00  0.00     0.124 S 
ATOM     63  O   UNL A   1      33.396  37.023  31.787  1.00  0.00    -0.237 OA
ATOM     64  O   UNL A   1      32.526  35.323  30.207  1.00  0.00    -0.237 OA
ATOM     65  O   UNL A   1      31.624  35.463  32.497  1.00  0.00    -0.744 OA
ENDBRANCH  58  62
ENDBRANCH  41  55
BRANCH  42  66
ATOM     66  C   UNL A   1      43.120  29.495  35.181  1.00  0.00     0.023 A 
ATOM     67  C   UNL A   1      42.523  28.261  35.536  1.00  0.00     0.031 A 
ATOM     68  C   UNL A   1      44.257  29.875  35.930  1.00  0.00     0.131 A 
ATOM     69  C   UNL A   1      43.060  27.477  36.589  1.00  0.00     0.055 A 
ATOM     70  C   UNL A   1      44.783  29.097  36.966  1.00  0.00     0.041 A 
ATOM     71  F   UNL A   1      44.957  30.977  35.620  1.00  0.00    -0.206 F 
ATOM     72  C   UNL A   1      44.192  27.889  37.295  1.00  0.00     0.022 A 
BRANCH  69  73
ATOM     73  S   UNL A   1      42.356  25.841  37.002  1.00  0.00     0.124 S 
ATOM     74  O   UNL A   1      42.121  25.265  35.682  1.00  0.00    -0.237 OA
ATOM     75  O   UNL A   1      43.416  25.232  37.797  1.00  0.00    -0.237 OA
ATOM     76  O   UNL A   1      41.144  26.170  37.753  1.00  0.00    -0.744 OA
ENDBRANCH  69  73
ENDBRANCH  42  66
BRANCH  54  77
ATOM     77  C   UNL A   1      42.902  33.986  30.718  1.00  0.00     0.023 A 
ATOM     78  C   UNL A   1      43.380  33.062  29.755  1.00  0.00     0.031 A 
ATOM     79  C   UNL A   1      43.627  35.177  30.887  1.00  0.00     0.131 A 
ATOM     80  C   UNL A   1      44.544  33.354  29.009  1.00  0.00     0.055 A 
ATOM     81  C   UNL A   1      44.763  35.471  30.134  1.00  0.00     0.041 A 
ATOM     82  F   UNL A   1      43.209  36.106  31.763  1.00  0.00    -0.206 F 
ATOM     83  C   UNL A   1      45.227  34.561  29.193  1.00  0.00     0.022 A 
BRANCH  80  84
ATOM     84  S   UNL A   1      45.181  32.178  27.766  1.00  0.00     0.124 S 
ATOM     85  O   UNL A   1      46.376  31.636  28.402  1.00  0.00    -0.237 OA
ATOM     86  O   UNL A   1      44.065  31.252  27.601  1.00  0.00    -0.237 OA
ATOM     87  O   UNL A   1      45.444  33.023  26.598  1.00  0.00    -0.744 OA
ENDBRANCH  80  84
ENDBRANCH  54  77
ENDBRANCH  28  29
ENDBRANCH  21  23
ENDBRANCH  20  21
ENDBRANCH  19  20
ENDBRANCH   1  19
TORSDOF 17
ENDMDL
MODEL 3
REMARK VINA RESULT:     -10.8      3.806     12.498
REMARK SMILES Cc1cc2[nH]ccc2nc1C(=O)OCCOCCOC(=O)c1ccc(-c2c3nc(c(-c4cc(S(=O)(=O)[O-])ccc4F)c4ccc([nH]4)c(-c4cc(S(=O)(=O)[O-])ccc4F)c4nc(c(-c5cc(S(=O)(=O)[O-])ccc5F)c5ccc2[nH]5)C=C4)C=C3)cc1
REMARK SMILES IDX 17 1 16 2 15 3 14 4 13 5 11 6 12 7 10 8 1 9 2 10 3 11 4 12
REMARK SMILES IDX 9 13 5 14 8 15 6 16 7 18 18 19 19 20 20 21 21 22 22 23 23 24
REMARK SMILES IDX 84 25 24 26 83 27 25 28 26 29 27 30 77 31 28 32 82 33 76 34
REMARK SMILES IDX 78 35 29 36 81 37 75 38 74 39 30 41 62 42 42 43 61 44 43 45
REMARK SMILES IDX 46 46 60 47 79 48 44 49 45 50 59 52 80 53 47 54 31 55 32 56
REMARK SMILES IDX 40 57 33 58 39 59 41 60 38 61 34 62 35 63 36 64 37 65 63 66
REMARK SMILES IDX 64 67 72 68 65 69 71 70 73 71 70 72 66 73 67 74 68 75 69 76
REMARK SMILES IDX 48 77 49 78 57 79 50 80 56 81 58 82 55 83 51 84 52 85 53 86
REMARK SMILES IDX 54 87
REMARK H PARENT 5 17 78 40 46 51
REMARK Flexibility Score: inf
ROOT
ATOM      1  C   UNL A   1      38.767  31.612  31.537  1.00  0.00     0.202 C 
ENDROOT
BRANCH   1   2
ATOM      2  O   UNL A   1      38.893  32.106  32.868  1.00  0.00    -0.374 OA
BRANCH   2   3
ATOM      3  C   UNL A   1      37.850  32.894  33.441  1.00  0.00     0.202 C 
BRANCH   3   4
ATOM      4  C   UNL A   1      37.692  34.334  32.957  1.00  0.00     0.261 C 
BRANCH   4   5
ATOM      5  O   UNL A   1      36.625  35.012  33.640  1.00  0.00    -0.459 OA
BRANCH   5   6
ATOM      6  C   UNL A   1      35.424  34.376  33.598  1.00  0.00     0.357 C 
ATOM      7  O   UNL A   1      34.970  33.649  34.470  1.00  0.00    -0.244 OA
BRANCH   6   8
ATOM      8  C   UNL A   1      34.643  34.782  32.386  1.00  0.00     0.152 A 
ATOM      9  C   UNL A   1      33.795  36.957  33.439  1.00  0.00     0.047 C 
ATOM     10  C   UNL A   1      33.972  36.011  32.287  1.00  0.00    -0.016 A 
ATOM     11  C   UNL A   1      33.393  36.348  31.052  1.00  0.00     0.034 A 
ATOM     12  C   UNL A   1      33.514  35.414  30.024  1.00  0.00     0.064 A 
ATOM     13  N   UNL A   1      34.734  33.856  31.393  1.00  0.00    -0.239 NA
ATOM     14  N   UNL A   1      33.095  35.431  28.715  1.00  0.00    -0.360 N 
ATOM     15  C   UNL A   1      34.147  34.195  30.228  1.00  0.00     0.089 A 
ATOM     16  C   UNL A   1      33.399  34.237  28.109  1.00  0.00     0.085 A 
ATOM     17  H   UNL A   1      32.644  36.188  28.276  1.00  0.00     0.166 HD
ATOM     18  C   UNL A   1      34.042  33.446  29.035  1.00  0.00     0.048 A 
ENDBRANCH   6   8
ENDBRANCH   5   6
ENDBRANCH   4   5
ENDBRANCH   3   4
ENDBRANCH   2   3
ENDBRANCH   1   2
BRANCH   1  19
ATOM     19  C   UNL A   1      37.379  31.534  30.915  1.00  0.00     0.261 C 
BRANCH  19  20
ATOM     20  O   UNL A   1      37.014  30.208  30.574  1.00  0.00    -0.460 OA
BRANCH  20  21
ATOM     21  C   UNL A   1      36.800  30.033  29.246  1.00  0.00     0.338 C 
ATOM     22  O   UNL A   1      35.904  30.509  28.576  1.00  0.00    -0.246 OA
BRANCH  21  23
ATOM     23  C   UNL A   1      37.784  29.073  28.741  1.00  0.00     0.060 A 
ATOM     24  C   UNL A   1      38.181  28.071  29.630  1.00  0.00     0.016 A 
ATOM     25  C   UNL A   1      38.531  29.414  27.606  1.00  0.00     0.016 A 
ATOM     26  C   UNL A   1      39.477  27.620  29.547  1.00  0.00     0.010 A 
ATOM     27  C   UNL A   1      39.825  28.977  27.537  1.00  0.00     0.010 A 
ATOM     28  C   UNL A   1      40.306  28.184  28.576  1.00  0.00    -0.014 A 
BRANCH  28  29
ATOM     29  C   UNL A   1      41.719  27.895  28.608  1.00  0.00     0.031 A 
ATOM     30  C   UNL A   1      42.034  26.637  27.901  1.00  0.00     0.074 A 
ATOM     31  C   UNL A   1      42.611  28.773  29.107  1.00  0.00     0.049 A 
ATOM     32  N   UNL A   1      42.387  25.512  28.422  1.00  0.00    -0.248 NA
ATOM     33  C   UNL A   1      41.681  26.552  26.471  1.00  0.00     0.031 C 
ATOM     34  C   UNL A   1      42.396  30.136  29.599  1.00  0.00     0.029 A 
ATOM     35  N   UNL A   1      43.956  28.637  29.199  1.00  0.00    -0.354 N 
ATOM     36  C   UNL A   1      42.533  24.647  27.347  1.00  0.00     0.074 A 
ATOM     37  C   UNL A   1      41.839  25.249  26.243  1.00  0.00     0.031 C 
ATOM     38  C   UNL A   1      43.592  30.765  29.723  1.00  0.00     0.029 A 
ATOM     39  C   UNL A   1      44.659  29.815  29.445  1.00  0.00     0.049 A 
ATOM     40  H   UNL A   1      44.407  27.767  29.100  1.00  0.00     0.167 HD
ATOM     41  C   UNL A   1      43.451  23.646  27.363  1.00  0.00     0.034 A 
ATOM     42  C   UNL A   1      46.010  29.973  29.355  1.00  0.00     0.034 A 
ATOM     43  C   UNL A   1      43.897  23.366  28.706  1.00  0.00     0.049 A 
ATOM     44  C   UNL A   1      46.590  28.604  29.465  1.00  0.00     0.074 A 
ATOM     45  C   UNL A   1      43.256  22.933  29.852  1.00  0.00     0.029 A 
ATOM     46  N   UNL A   1      45.061  23.966  29.136  1.00  0.00    -0.354 N 
ATOM     47  N   UNL A   1      46.489  27.878  30.548  1.00  0.00    -0.248 NA
ATOM     48  C   UNL A   1      46.780  27.851  28.233  1.00  0.00     0.031 C 
ATOM     49  C   UNL A   1      43.804  23.726  30.904  1.00  0.00     0.029 A 
ATOM     50  C   UNL A   1      44.813  24.530  30.368  1.00  0.00     0.049 A 
ATOM     51  H   UNL A   1      45.916  23.987  28.650  1.00  0.00     0.167 HD
ATOM     52  C   UNL A   1      46.185  26.599  30.103  1.00  0.00     0.074 A 
ATOM     53  C   UNL A   1      46.441  26.630  28.662  1.00  0.00     0.031 C 
ATOM     54  C   UNL A   1      45.467  25.727  30.873  1.00  0.00     0.034 A 
BRANCH  41  55
ATOM     55  C   UNL A   1      44.162  23.163  26.127  1.00  0.00     0.023 A 
ATOM     56  C   UNL A   1      43.956  21.840  25.710  1.00  0.00     0.031 A 
ATOM     57  C   UNL A   1      45.201  23.867  25.467  1.00  0.00     0.131 A 
ATOM     58  C   UNL A   1      44.765  21.272  24.709  1.00  0.00     0.055 A 
ATOM     59  C   UNL A   1      45.954  23.322  24.428  1.00  0.00     0.041 A 
ATOM     60  F   UNL A   1      45.610  25.082  25.854  1.00  0.00    -0.206 F 
ATOM     61  C   UNL A   1      45.753  22.008  24.057  1.00  0.00     0.022 A 
BRANCH  58  62
ATOM     62  S   UNL A   1      44.590  19.506  24.350  1.00  0.00     0.124 S 
ATOM     63  O   UNL A   1      43.303  19.203  24.965  1.00  0.00    -0.237 OA
ATOM     64  O   UNL A   1      44.630  19.492  22.892  1.00  0.00    -0.237 OA
ATOM     65  O   UNL A   1      45.751  18.911  25.009  1.00  0.00    -0.744 OA
ENDBRANCH  58  62
ENDBRANCH  41  55
BRANCH  42  66
ATOM     66  C   UNL A   1      46.770  31.138  28.800  1.00  0.00     0.023 A 
ATOM     67  C   UNL A   1      46.316  31.907  27.701  1.00  0.00     0.031 A 
ATOM     68  C   UNL A   1      47.853  31.675  29.531  1.00  0.00     0.131 A 
ATOM     69  C   UNL A   1      46.939  33.140  27.378  1.00  0.00     0.055 A 
ATOM     70  C   UNL A   1      48.462  32.892  29.209  1.00  0.00     0.041 A 
ATOM     71  F   UNL A   1      48.304  31.079  30.645  1.00  0.00    -0.206 F 
ATOM     72  C   UNL A   1      48.001  33.635  28.136  1.00  0.00     0.022 A 
BRANCH  69  73
ATOM     73  S   UNL A   1      46.310  34.188  26.018  1.00  0.00     0.124 S 
ATOM     74  O   UNL A   1      45.372  33.294  25.348  1.00  0.00    -0.237 OA
ATOM     75  O   UNL A   1      45.731  35.320  26.733  1.00  0.00    -0.237 OA
ATOM     76  O   UNL A   1      47.513  34.505  25.247  1.00  0.00    -0.744 OA
ENDBRANCH  69  73
ENDBRANCH  42  66
BRANCH  54  77
ATOM     77  C   UNL A   1      45.170  26.115  32.314  1.00  0.00     0.023 A 
ATOM     78  C   UNL A   1      43.994  26.769  32.759  1.00  0.00     0.031 A 
ATOM     79  C   UNL A   1      46.066  25.657  33.294  1.00  0.00     0.131 A 
ATOM     80  C   UNL A   1      43.758  26.939  34.142  1.00  0.00     0.055 A 
ATOM     81  C   UNL A   1      45.819  25.808  34.658  1.00  0.00     0.041 A 
ATOM     82  F   UNL A   1      47.184  25.004  32.938  1.00  0.00    -0.206 F 
ATOM     83  C   UNL A   1      44.665  26.451  35.088  1.00  0.00     0.022 A 
BRANCH  80  84
ATOM     84  S   UNL A   1      42.252  27.781  34.740  1.00  0.00     0.124 S 
ATOM     85  O   UNL A   1      41.777  28.493  33.559  1.00  0.00    -0.237 OA
ATOM     86  O   UNL A   1      41.424  26.668  35.194  1.00  0.00    -0.237 OA
ATOM     87  O   UNL A   1      42.746  28.646  35.814  1.00  0.00    -0.744 OA
ENDBRANCH  80  84
ENDBRANCH  54  77
ENDBRANCH  28  29
ENDBRANCH  21  23
ENDBRANCH  20  21
ENDBRANCH  19  20
ENDBRANCH   1  19
TORSDOF 17
ENDMDL
