MODEL 1
REMARK VINA RESULT:     -11.3      0.000      0.000
REMARK SMILES O=C(OCCOCCOC(=O)c1cc2ccc(F)cc2o1)c1ccc(-c2c3nc(c(-c4cc(S(=O)(=O)[O-])ccc4F)c4ccc([nH]4)c(-c4cc(S(=O)(=O)[O-])ccc4F)c4nc(c(-c5cc(S(=O)(=O)[O-])ccc5F)c5ccc2[nH]5)C=C4)C=C3)cc1
REMARK SMILES IDX 4 1 3 2 2 3 1 4 22 5 23 6 84 7 24 8 83 9 25 10 26 11 27 12
REMARK SMILES IDX 77 13 28 14 82 15 76 16 78 17 29 18 81 19 75 20 74 21 30 23
REMARK SMILES IDX 62 24 42 25 61 26 43 27 46 28 60 29 79 30 44 31 45 32 59 34
REMARK SMILES IDX 80 35 47 36 31 37 32 38 40 39 33 40 39 41 41 42 38 43 34 44
REMARK SMILES IDX 35 45 36 46 37 47 63 48 64 49 72 50 65 51 71 52 73 53 70 54
REMARK SMILES IDX 66 55 67 56 68 57 69 58 48 59 49 60 57 61 50 62 56 63 58 64
REMARK SMILES IDX 55 65 51 66 52 67 53 68 54 69 5 70 6 71 7 72 8 73 9 74 10 75
REMARK SMILES IDX 11 76 12 77 13 78 21 79 14 80 20 81 15 82 19 83 16 84 17 85
REMARK SMILES IDX 18 86
REMARK H PARENT 78 22 46 33
REMARK Flexibility Score: inf
ROOT
ATOM      1  C   UNL A   1      34.712  34.293  28.365  1.00  0.00     0.261 C 
ENDROOT
BRANCH   1   2
ATOM      2  O   UNL A   1      35.096  33.090  27.642  1.00  0.00    -0.460 OA
BRANCH   2   3
ATOM      3  C   UNL A   1      34.912  31.776  27.984  1.00  0.00     0.338 C 
ATOM      4  O   UNL A   1      33.783  31.292  27.961  1.00  0.00    -0.246 OA
BRANCH   3   5
ATOM      5  C   UNL A   1      36.051  30.963  28.496  1.00  0.00     0.060 A 
ATOM      6  C   UNL A   1      37.111  31.620  29.152  1.00  0.00     0.016 A 
ATOM      7  C   UNL A   1      36.201  29.640  28.107  1.00  0.00     0.016 A 
ATOM      8  C   UNL A   1      38.384  31.028  29.202  1.00  0.00     0.010 A 
ATOM      9  C   UNL A   1      37.487  29.118  28.039  1.00  0.00     0.010 A 
ATOM     10  C   UNL A   1      38.604  29.813  28.547  1.00  0.00    -0.014 A 
BRANCH  10  11
ATOM     11  C   UNL A   1      39.857  29.036  28.691  1.00  0.00     0.031 A 
ATOM     12  C   UNL A   1      40.121  28.850  30.132  1.00  0.00     0.074 A 
ATOM     13  C   UNL A   1      40.694  28.451  27.797  1.00  0.00     0.049 A 
ATOM     14  N   UNL A   1      40.939  29.599  30.798  1.00  0.00    -0.248 NA
ATOM     15  C   UNL A   1      39.232  28.028  30.967  1.00  0.00     0.031 C 
ATOM     16  C   UNL A   1      40.716  28.510  26.344  1.00  0.00     0.029 A 
ATOM     17  N   UNL A   1      41.712  27.557  28.027  1.00  0.00    -0.354 N 
ATOM     18  C   UNL A   1      40.832  29.155  32.099  1.00  0.00     0.074 A 
ATOM     19  C   UNL A   1      39.573  28.465  32.180  1.00  0.00     0.031 C 
ATOM     20  C   UNL A   1      41.397  27.465  25.817  1.00  0.00     0.029 A 
ATOM     21  C   UNL A   1      42.089  26.808  26.910  1.00  0.00     0.049 A 
ATOM     22  H   UNL A   1      42.141  27.453  28.907  1.00  0.00     0.167 HD
ATOM     23  C   UNL A   1      41.934  29.071  32.889  1.00  0.00     0.034 A 
ATOM     24  C   UNL A   1      43.094  25.907  26.753  1.00  0.00     0.034 A 
ATOM     25  C   UNL A   1      43.046  29.786  32.308  1.00  0.00     0.049 A 
ATOM     26  C   UNL A   1      44.094  26.201  27.796  1.00  0.00     0.074 A 
ATOM     27  C   UNL A   1      43.267  31.099  31.943  1.00  0.00     0.029 A 
ATOM     28  N   UNL A   1      43.974  29.032  31.631  1.00  0.00    -0.354 N 
ATOM     29  N   UNL A   1      44.873  27.243  27.761  1.00  0.00    -0.248 NA
ATOM     30  C   UNL A   1      43.911  25.592  29.102  1.00  0.00     0.031 C 
ATOM     31  C   UNL A   1      44.075  31.041  30.774  1.00  0.00     0.029 A 
ATOM     32  C   UNL A   1      44.382  29.704  30.506  1.00  0.00     0.049 A 
ATOM     33  H   UNL A   1      44.297  28.145  31.910  1.00  0.00     0.167 HD
ATOM     34  C   UNL A   1      44.831  27.722  29.059  1.00  0.00     0.074 A 
ATOM     35  C   UNL A   1      44.354  26.596  29.862  1.00  0.00     0.031 C 
ATOM     36  C   UNL A   1      44.899  29.063  29.309  1.00  0.00     0.034 A 
BRANCH  23  37
ATOM     37  C   UNL A   1      42.086  28.010  33.945  1.00  0.00     0.023 A 
ATOM     38  C   UNL A   1      42.820  26.822  33.746  1.00  0.00     0.031 A 
ATOM     39  C   UNL A   1      41.650  28.246  35.257  1.00  0.00     0.131 A 
ATOM     40  C   UNL A   1      43.035  25.899  34.770  1.00  0.00     0.055 A 
ATOM     41  C   UNL A   1      41.938  27.364  36.307  1.00  0.00     0.041 A 
ATOM     42  F   UNL A   1      40.974  29.363  35.567  1.00  0.00    -0.206 F 
ATOM     43  C   UNL A   1      42.623  26.177  36.065  1.00  0.00     0.022 A 
BRANCH  40  44
ATOM     44  S   UNL A   1      43.847  24.317  34.409  1.00  0.00     0.124 S 
ATOM     45  O   UNL A   1      44.870  24.260  35.447  1.00  0.00    -0.237 OA
ATOM     46  O   UNL A   1      42.740  23.377  34.554  1.00  0.00    -0.237 OA
ATOM     47  O   UNL A   1      44.338  24.484  33.043  1.00  0.00    -0.744 OA
ENDBRANCH  40  44
ENDBRANCH  23  37
BRANCH  24  48
ATOM     48  C   UNL A   1      42.998  24.557  26.137  1.00  0.00     0.023 A 
ATOM     49  C   UNL A   1      42.050  23.625  26.596  1.00  0.00     0.031 A 
ATOM     50  C   UNL A   1      44.037  24.069  25.317  1.00  0.00     0.131 A 
ATOM     51  C   UNL A   1      42.206  22.257  26.313  1.00  0.00     0.055 A 
ATOM     52  C   UNL A   1      44.174  22.709  25.014  1.00  0.00     0.041 A 
ATOM     53  F   UNL A   1      44.987  24.898  24.856  1.00  0.00    -0.206 F 
ATOM     54  C   UNL A   1      43.266  21.792  25.531  1.00  0.00     0.022 A 
BRANCH  51  55
ATOM     55  S   UNL A   1      41.096  21.027  27.056  1.00  0.00     0.124 S 
ATOM     56  O   UNL A   1      40.036  20.916  26.055  1.00  0.00    -0.237 OA
ATOM     57  O   UNL A   1      41.970  19.866  27.171  1.00  0.00    -0.237 OA
ATOM     58  O   UNL A   1      40.690  21.640  28.318  1.00  0.00    -0.744 OA
ENDBRANCH  51  55
ENDBRANCH  24  48
BRANCH  36  59
ATOM     59  C   UNL A   1      45.359  29.989  28.195  1.00  0.00     0.023 A 
ATOM     60  C   UNL A   1      46.747  30.163  28.056  1.00  0.00     0.031 A 
ATOM     61  C   UNL A   1      44.527  30.829  27.429  1.00  0.00     0.131 A 
ATOM     62  C   UNL A   1      47.262  31.175  27.238  1.00  0.00     0.055 A 
ATOM     63  C   UNL A   1      45.047  31.793  26.554  1.00  0.00     0.041 A 
ATOM     64  F   UNL A   1      43.195  30.802  27.551  1.00  0.00    -0.206 F 
ATOM     65  C   UNL A   1      46.422  31.984  26.471  1.00  0.00     0.022 A 
BRANCH  62  66
ATOM     66  S   UNL A   1      49.030  31.564  27.277  1.00  0.00     0.124 S 
ATOM     67  O   UNL A   1      49.115  32.708  26.374  1.00  0.00    -0.237 OA
ATOM     68  O   UNL A   1      49.249  31.864  28.691  1.00  0.00    -0.237 OA
ATOM     69  O   UNL A   1      49.672  30.342  26.800  1.00  0.00    -0.744 OA
ENDBRANCH  62  66
ENDBRANCH  36  59
ENDBRANCH  10  11
ENDBRANCH   3   5
ENDBRANCH   2   3
ENDBRANCH   1   2
BRANCH   1  70
ATOM     70  C   UNL A   1      34.295  34.122  29.825  1.00  0.00     0.202 C 
BRANCH  70  71
ATOM     71  O   UNL A   1      33.075  34.786  30.082  1.00  0.00    -0.374 OA
BRANCH  71  72
ATOM     72  C   UNL A   1      32.984  36.181  29.910  1.00  0.00     0.202 C 
BRANCH  72  73
ATOM     73  C   UNL A   1      32.967  36.934  31.245  1.00  0.00     0.261 C 
BRANCH  73  74
ATOM     74  O   UNL A   1      32.915  36.033  32.369  1.00  0.00    -0.457 OA
BRANCH  74  75
ATOM     75  C   UNL A   1      33.956  36.188  33.229  1.00  0.00     0.374 C 
ATOM     76  O   UNL A   1      34.020  37.057  34.095  1.00  0.00    -0.242 OA
BRANCH  75  77
ATOM     77  C   UNL A   1      34.937  35.162  33.160  1.00  0.00     0.212 A 
ATOM     78  C   UNL A   1      34.719  33.820  33.398  1.00  0.00     0.067 A 
ATOM     79  O   UNL A   1      36.237  35.394  32.833  1.00  0.00    -0.449 OA
ATOM     80  C   UNL A   1      35.935  33.170  33.161  1.00  0.00     0.021 A 
ATOM     81  C   UNL A   1      36.851  34.175  32.865  1.00  0.00     0.138 A 
ATOM     82  C   UNL A   1      36.355  31.836  33.196  1.00  0.00     0.015 A 
ATOM     83  C   UNL A   1      38.199  33.943  32.635  1.00  0.00     0.087 A 
ATOM     84  C   UNL A   1      37.702  31.567  32.952  1.00  0.00     0.040 A 
ATOM     85  C   UNL A   1      38.595  32.606  32.691  1.00  0.00     0.126 A 
ATOM     86  F   UNL A   1      39.885  32.310  32.478  1.00  0.00    -0.207 F 
ENDBRANCH  75  77
ENDBRANCH  74  75
ENDBRANCH  73  74
ENDBRANCH  72  73
ENDBRANCH  71  72
ENDBRANCH  70  71
ENDBRANCH   1  70
TORSDOF 17
ENDMDL
MODEL 2
REMARK VINA RESULT:     -10.8      3.437     11.513
REMARK SMILES O=C(OCCOCCOC(=O)c1cc2ccc(F)cc2o1)c1ccc(-c2c3nc(c(-c4cc(S(=O)(=O)[O-])ccc4F)c4ccc([nH]4)c(-c4cc(S(=O)(=O)[O-])ccc4F)c4nc(c(-c5cc(S(=O)(=O)[O-])ccc5F)c5ccc2[nH]5)C=C4)C=C3)cc1
REMARK SMILES IDX 4 1 3 2 2 3 1 4 22 5 23 6 84 7 24 8 83 9 25 10 26 11 27 12
REMARK SMILES IDX 77 13 28 14 82 15 76 16 78 17 29 18 81 19 75 20 74 21 30 23
REMARK SMILES IDX 62 24 42 25 61 26 43 27 46 28 60 29 79 30 44 31 45 32 59 34
REMARK SMILES IDX 80 35 47 36 31 37 32 38 40 39 33 40 39 41 41 42 38 43 34 44
REMARK SMILES IDX 35 45 36 46 37 47 63 48 64 49 72 50 65 51 71 52 73 53 70 54
REMARK SMILES IDX 66 55 67 56 68 57 69 58 48 59 49 60 57 61 50 62 56 63 58 64
REMARK SMILES IDX 55 65 51 66 52 67 53 68 54 69 5 70 6 71 7 72 8 73 9 74 10 75
REMARK SMILES IDX 11 76 12 77 13 78 21 79 14 80 20 81 15 82 19 83 16 84 17 85
REMARK SMILES IDX 18 86
REMARK H PARENT 78 22 46 33
REMARK Flexibility Score: inf
ROOT
ATOM      1  C   UNL A   1      41.692  20.089  27.178  1.00  0.00     0.261 C 
ENDROOT
BRANCH   1   2
ATOM      2  O   UNL A   1      42.329  21.398  27.122  1.00  0.00    -0.460 OA
BRANCH   2   3
ATOM      3  C   UNL A   1      41.857  22.569  26.590  1.00  0.00     0.338 C 
ATOM      4  O   UNL A   1      41.861  22.732  25.373  1.00  0.00    -0.246 OA
BRANCH   3   5
ATOM      5  C   UNL A   1      41.449  23.692  27.482  1.00  0.00     0.060 A 
ATOM      6  C   UNL A   1      40.235  24.359  27.218  1.00  0.00     0.016 A 
ATOM      7  C   UNL A   1      42.353  24.243  28.378  1.00  0.00     0.016 A 
ATOM      8  C   UNL A   1      40.044  25.675  27.668  1.00  0.00     0.010 A 
ATOM      9  C   UNL A   1      42.217  25.586  28.704  1.00  0.00     0.010 A 
ATOM     10  C   UNL A   1      41.084  26.337  28.325  1.00  0.00    -0.014 A 
BRANCH  10  11
ATOM     11  C   UNL A   1      40.914  27.654  28.983  1.00  0.00     0.031 A 
ATOM     12  C   UNL A   1      41.856  28.606  28.361  1.00  0.00     0.074 A 
ATOM     13  C   UNL A   1      40.058  28.113  29.931  1.00  0.00     0.049 A 
ATOM     14  N   UNL A   1      43.001  28.902  28.883  1.00  0.00    -0.248 NA
ATOM     15  C   UNL A   1      41.702  29.018  26.957  1.00  0.00     0.031 C 
ATOM     16  C   UNL A   1      39.080  27.407  30.744  1.00  0.00     0.029 A 
ATOM     17  N   UNL A   1      39.820  29.409  30.322  1.00  0.00    -0.354 N 
ATOM     18  C   UNL A   1      43.593  29.742  27.963  1.00  0.00     0.074 A 
ATOM     19  C   UNL A   1      42.923  29.497  26.714  1.00  0.00     0.031 C 
ATOM     20  C   UNL A   1      38.138  28.251  31.228  1.00  0.00     0.029 A 
ATOM     21  C   UNL A   1      38.602  29.602  30.977  1.00  0.00     0.049 A 
ATOM     22  H   UNL A   1      40.456  30.141  30.155  1.00  0.00     0.167 HD
ATOM     23  C   UNL A   1      44.318  30.814  28.377  1.00  0.00     0.034 A 
ATOM     24  C   UNL A   1      38.085  30.714  31.562  1.00  0.00     0.034 A 
ATOM     25  C   UNL A   1      44.623  30.722  29.785  1.00  0.00     0.049 A 
ATOM     26  C   UNL A   1      39.223  31.595  31.881  1.00  0.00     0.074 A 
ATOM     27  C   UNL A   1      45.305  29.814  30.570  1.00  0.00     0.029 A 
ATOM     28  N   UNL A   1      43.823  31.448  30.635  1.00  0.00    -0.354 N 
ATOM     29  N   UNL A   1      40.067  31.347  32.840  1.00  0.00    -0.248 NA
ATOM     30  C   UNL A   1      39.690  32.501  30.846  1.00  0.00     0.031 C 
ATOM     31  C   UNL A   1      44.607  29.779  31.809  1.00  0.00     0.029 A 
ATOM     32  C   UNL A   1      43.572  30.717  31.769  1.00  0.00     0.049 A 
ATOM     33  H   UNL A   1      43.482  32.354  30.457  1.00  0.00     0.167 HD
ATOM     34  C   UNL A   1      41.298  31.613  32.266  1.00  0.00     0.074 A 
ATOM     35  C   UNL A   1      40.999  32.453  31.105  1.00  0.00     0.031 C 
ATOM     36  C   UNL A   1      42.399  30.884  32.611  1.00  0.00     0.034 A 
BRANCH  23  37
ATOM     37  C   UNL A   1      44.370  32.098  27.595  1.00  0.00     0.023 A 
ATOM     38  C   UNL A   1      43.706  33.276  27.998  1.00  0.00     0.031 A 
ATOM     39  C   UNL A   1      45.247  32.233  26.509  1.00  0.00     0.131 A 
ATOM     40  C   UNL A   1      43.850  34.483  27.314  1.00  0.00     0.055 A 
ATOM     41  C   UNL A   1      45.461  33.464  25.874  1.00  0.00     0.041 A 
ATOM     42  F   UNL A   1      45.958  31.185  26.064  1.00  0.00    -0.206 F 
ATOM     43  C   UNL A   1      44.752  34.595  26.267  1.00  0.00     0.022 A 
BRANCH  40  44
ATOM     44  S   UNL A   1      42.845  35.918  27.787  1.00  0.00     0.124 S 
ATOM     45  O   UNL A   1      41.733  35.289  28.491  1.00  0.00    -0.237 OA
ATOM     46  O   UNL A   1      43.779  36.672  28.618  1.00  0.00    -0.237 OA
ATOM     47  O   UNL A   1      42.513  36.545  26.510  1.00  0.00    -0.744 OA
ENDBRANCH  40  44
ENDBRANCH  23  37
BRANCH  24  48
ATOM     48  C   UNL A   1      36.713  31.262  31.388  1.00  0.00     0.023 A 
ATOM     49  C   UNL A   1      36.163  31.423  30.104  1.00  0.00     0.031 A 
ATOM     50  C   UNL A   1      36.064  31.919  32.455  1.00  0.00     0.131 A 
ATOM     51  C   UNL A   1      35.068  32.282  29.904  1.00  0.00     0.055 A 
ATOM     52  C   UNL A   1      34.957  32.752  32.257  1.00  0.00     0.041 A 
ATOM     53  F   UNL A   1      36.543  31.823  33.705  1.00  0.00    -0.206 F 
ATOM     54  C   UNL A   1      34.466  32.954  30.971  1.00  0.00     0.022 A 
BRANCH  51  55
ATOM     55  S   UNL A   1      34.470  32.643  28.228  1.00  0.00     0.124 S 
ATOM     56  O   UNL A   1      35.683  33.104  27.555  1.00  0.00    -0.237 OA
ATOM     57  O   UNL A   1      33.974  31.340  27.801  1.00  0.00    -0.237 OA
ATOM     58  O   UNL A   1      33.451  33.669  28.435  1.00  0.00    -0.744 OA
ENDBRANCH  51  55
ENDBRANCH  24  48
BRANCH  36  59
ATOM     59  C   UNL A   1      42.339  30.021  33.860  1.00  0.00     0.023 A 
ATOM     60  C   UNL A   1      42.888  30.573  35.032  1.00  0.00     0.031 A 
ATOM     61  C   UNL A   1      41.970  28.662  33.904  1.00  0.00     0.131 A 
ATOM     62  C   UNL A   1      43.109  29.776  36.161  1.00  0.00     0.055 A 
ATOM     63  C   UNL A   1      42.125  27.886  35.060  1.00  0.00     0.041 A 
ATOM     64  F   UNL A   1      41.519  28.021  32.819  1.00  0.00    -0.206 F 
ATOM     65  C   UNL A   1      42.717  28.438  36.191  1.00  0.00     0.022 A 
BRANCH  62  66
ATOM     66  S   UNL A   1      44.058  30.427  37.559  1.00  0.00     0.124 S 
ATOM     67  O   UNL A   1      43.041  31.155  38.311  1.00  0.00    -0.237 OA
ATOM     68  O   UNL A   1      44.552  29.206  38.193  1.00  0.00    -0.237 OA
ATOM     69  O   UNL A   1      45.085  31.256  36.935  1.00  0.00    -0.744 OA
ENDBRANCH  62  66
ENDBRANCH  36  59
ENDBRANCH  10  11
ENDBRANCH   3   5
ENDBRANCH   2   3
ENDBRANCH   1   2
BRANCH   1  70
ATOM     70  C   UNL A   1      42.381  18.951  26.427  1.00  0.00     0.202 C 
BRANCH  70  71
ATOM     71  O   UNL A   1      42.854  19.388  25.171  1.00  0.00    -0.374 OA
BRANCH  71  72
ATOM     72  C   UNL A   1      44.003  18.797  24.608  1.00  0.00     0.202 C 
BRANCH  72  73
ATOM     73  C   UNL A   1      45.065  19.835  24.226  1.00  0.00     0.261 C 
BRANCH  73  74
ATOM     74  O   UNL A   1      45.104  20.932  25.160  1.00  0.00    -0.457 OA
BRANCH  74  75
ATOM     75  C   UNL A   1      45.019  22.149  24.561  1.00  0.00     0.374 C 
ATOM     76  O   UNL A   1      44.583  22.339  23.428  1.00  0.00    -0.242 OA
BRANCH  75  77
ATOM     77  C   UNL A   1      45.344  23.246  25.403  1.00  0.00     0.212 A 
ATOM     78  C   UNL A   1      44.808  24.515  25.319  1.00  0.00     0.067 A 
ATOM     79  O   UNL A   1      46.240  23.162  26.424  1.00  0.00    -0.449 OA
ATOM     80  C   UNL A   1      45.361  25.252  26.372  1.00  0.00     0.021 A 
ATOM     81  C   UNL A   1      46.270  24.402  26.995  1.00  0.00     0.138 A 
ATOM     82  C   UNL A   1      45.202  26.562  26.839  1.00  0.00     0.015 A 
ATOM     83  C   UNL A   1      47.082  24.787  28.052  1.00  0.00     0.087 A 
ATOM     84  C   UNL A   1      45.992  26.974  27.912  1.00  0.00     0.040 A 
ATOM     85  C   UNL A   1      46.915  26.101  28.488  1.00  0.00     0.126 A 
ATOM     86  F   UNL A   1      47.669  26.538  29.507  1.00  0.00    -0.207 F 
ENDBRANCH  75  77
ENDBRANCH  74  75
ENDBRANCH  73  74
ENDBRANCH  72  73
ENDBRANCH  71  72
ENDBRANCH  70  71
ENDBRANCH   1  70
TORSDOF 17
ENDMDL
MODEL 3
REMARK VINA RESULT:     -10.7      3.413     11.798
REMARK SMILES O=C(OCCOCCOC(=O)c1cc2ccc(F)cc2o1)c1ccc(-c2c3nc(c(-c4cc(S(=O)(=O)[O-])ccc4F)c4ccc([nH]4)c(-c4cc(S(=O)(=O)[O-])ccc4F)c4nc(c(-c5cc(S(=O)(=O)[O-])ccc5F)c5ccc2[nH]5)C=C4)C=C3)cc1
REMARK SMILES IDX 4 1 3 2 2 3 1 4 22 5 23 6 84 7 24 8 83 9 25 10 26 11 27 12
REMARK SMILES IDX 77 13 28 14 82 15 76 16 78 17 29 18 81 19 75 20 74 21 30 23
REMARK SMILES IDX 62 24 42 25 61 26 43 27 46 28 60 29 79 30 44 31 45 32 59 34
REMARK SMILES IDX 80 35 47 36 31 37 32 38 40 39 33 40 39 41 41 42 38 43 34 44
REMARK SMILES IDX 35 45 36 46 37 47 63 48 64 49 72 50 65 51 71 52 73 53 70 54
REMARK SMILES IDX 66 55 67 56 68 57 69 58 48 59 49 60 57 61 50 62 56 63 58 64
REMARK SMILES IDX 55 65 51 66 52 67 53 68 54 69 5 70 6 71 7 72 8 73 9 74 10 75
REMARK SMILES IDX 11 76 12 77 13 78 21 79 14 80 20 81 15 82 19 83 16 84 17 85
REMARK SMILES IDX 18 86
REMARK H PARENT 78 22 46 33
REMARK Flexibility Score: inf
ROOT
ATOM      1  C   UNL A   1      40.921  20.396  26.966  1.00  0.00     0.261 C 
ENDROOT
BRANCH   1   2
ATOM      2  O   UNL A   1      40.666  21.751  27.434  1.00  0.00    -0.460 OA
BRANCH   2   3
ATOM      3  C   UNL A   1      39.886  22.729  26.876  1.00  0.00     0.338 C 
ATOM      4  O   UNL A   1      38.970  22.420  26.118  1.00  0.00    -0.246 OA
BRANCH   3   5
ATOM      5  C   UNL A   1      40.213  24.167  27.088  1.00  0.00     0.060 A 
ATOM      6  C   UNL A   1      41.404  24.498  27.766  1.00  0.00     0.016 A 
ATOM      7  C   UNL A   1      39.254  25.146  26.871  1.00  0.00     0.016 A 
ATOM      8  C   UNL A   1      41.521  25.735  28.420  1.00  0.00     0.010 A 
ATOM      9  C   UNL A   1      39.318  26.308  27.629  1.00  0.00     0.010 A 
ATOM     10  C   UNL A   1      40.429  26.607  28.445  1.00  0.00    -0.014 A 
BRANCH  10  11
ATOM     11  C   UNL A   1      40.518  27.995  28.958  1.00  0.00     0.031 A 
ATOM     12  C   UNL A   1      41.707  28.633  28.358  1.00  0.00     0.074 A 
ATOM     13  C   UNL A   1      39.718  28.739  29.761  1.00  0.00     0.049 A 
ATOM     14  N   UNL A   1      42.842  28.721  28.972  1.00  0.00    -0.248 NA
ATOM     15  C   UNL A   1      41.774  28.907  26.914  1.00  0.00     0.031 C 
ATOM     16  C   UNL A   1      38.536  28.370  30.524  1.00  0.00     0.029 A 
ATOM     17  N   UNL A   1      39.759  30.091  30.005  1.00  0.00    -0.354 N 
ATOM     18  C   UNL A   1      43.690  29.296  28.050  1.00  0.00     0.074 A 
ATOM     19  C   UNL A   1      43.090  29.068  26.763  1.00  0.00     0.031 C 
ATOM     20  C   UNL A   1      37.782  29.452  30.824  1.00  0.00     0.029 A 
ATOM     21  C   UNL A   1      38.569  30.627  30.503  1.00  0.00     0.049 A 
ATOM     22  H   UNL A   1      40.562  30.637  29.842  1.00  0.00     0.167 HD
ATOM     23  C   UNL A   1      44.609  30.217  28.440  1.00  0.00     0.034 A 
ATOM     24  C   UNL A   1      38.281  31.886  30.925  1.00  0.00     0.034 A 
ATOM     25  C   UNL A   1      44.763  30.219  29.876  1.00  0.00     0.049 A 
ATOM     26  C   UNL A   1      39.563  32.519  31.284  1.00  0.00     0.074 A 
ATOM     27  C   UNL A   1      45.143  29.276  30.810  1.00  0.00     0.029 A 
ATOM     28  N   UNL A   1      44.088  31.198  30.564  1.00  0.00    -0.354 N 
ATOM     29  N   UNL A   1      40.241  32.198  32.348  1.00  0.00    -0.248 NA
ATOM     30  C   UNL A   1      40.316  33.173  30.228  1.00  0.00     0.031 C 
ATOM     31  C   UNL A   1      44.355  29.541  31.964  1.00  0.00     0.029 A 
ATOM     32  C   UNL A   1      43.577  30.677  31.726  1.00  0.00     0.049 A 
ATOM     33  H   UNL A   1      43.986  32.132  30.269  1.00  0.00     0.167 HD
ATOM     34  C   UNL A   1      41.544  32.113  31.889  1.00  0.00     0.074 A 
ATOM     35  C   UNL A   1      41.550  32.861  30.632  1.00  0.00     0.031 C 
ATOM     36  C   UNL A   1      42.409  31.198  32.417  1.00  0.00     0.034 A 
BRANCH  23  37
ATOM     37  C   UNL A   1      45.029  31.359  27.555  1.00  0.00     0.023 A 
ATOM     38  C   UNL A   1      44.245  32.516  27.364  1.00  0.00     0.031 A 
ATOM     39  C   UNL A   1      46.323  31.403  27.017  1.00  0.00     0.131 A 
ATOM     40  C   UNL A   1      44.696  33.607  26.621  1.00  0.00     0.055 A 
ATOM     41  C   UNL A   1      46.812  32.531  26.346  1.00  0.00     0.041 A 
ATOM     42  F   UNL A   1      47.167  30.371  27.172  1.00  0.00    -0.206 F 
ATOM     43  C   UNL A   1      45.994  33.636  26.133  1.00  0.00     0.022 A 
BRANCH  40  44
ATOM     44  S   UNL A   1      43.579  34.996  26.279  1.00  0.00     0.124 S 
ATOM     45  O   UNL A   1      42.690  34.960  27.435  1.00  0.00    -0.237 OA
ATOM     46  O   UNL A   1      44.511  36.118  26.227  1.00  0.00    -0.237 OA
ATOM     47  O   UNL A   1      42.970  34.642  24.998  1.00  0.00    -0.744 OA
ENDBRANCH  40  44
ENDBRANCH  23  37
BRANCH  24  48
ATOM     48  C   UNL A   1      37.096  32.706  30.553  1.00  0.00     0.023 A 
ATOM     49  C   UNL A   1      36.409  33.455  31.526  1.00  0.00     0.031 A 
ATOM     50  C   UNL A   1      36.451  32.510  29.315  1.00  0.00     0.131 A 
ATOM     51  C   UNL A   1      35.097  33.898  31.282  1.00  0.00     0.055 A 
ATOM     52  C   UNL A   1      35.155  32.977  29.065  1.00  0.00     0.041 A 
ATOM     53  F   UNL A   1      37.041  31.793  28.345  1.00  0.00    -0.206 F 
ATOM     54  C   UNL A   1      34.463  33.657  30.061  1.00  0.00     0.022 A 
BRANCH  51  55
ATOM     55  S   UNL A   1      34.134  34.699  32.596  1.00  0.00     0.124 S 
ATOM     56  O   UNL A   1      34.978  35.837  32.955  1.00  0.00    -0.237 OA
ATOM     57  O   UNL A   1      32.898  35.033  31.898  1.00  0.00    -0.237 OA
ATOM     58  O   UNL A   1      34.019  33.668  33.623  1.00  0.00    -0.744 OA
ENDBRANCH  51  55
ENDBRANCH  24  48
BRANCH  36  59
ATOM     59  C   UNL A   1      42.043  30.519  33.726  1.00  0.00     0.023 A 
ATOM     60  C   UNL A   1      42.493  31.140  34.904  1.00  0.00     0.031 A 
ATOM     61  C   UNL A   1      41.472  29.237  33.855  1.00  0.00     0.131 A 
ATOM     62  C   UNL A   1      42.428  30.474  36.133  1.00  0.00     0.055 A 
ATOM     63  C   UNL A   1      41.341  28.602  35.097  1.00  0.00     0.041 A 
ATOM     64  F   UNL A   1      41.090  28.526  32.787  1.00  0.00    -0.206 F 
ATOM     65  C   UNL A   1      41.840  29.213  36.242  1.00  0.00     0.022 A 
BRANCH  62  66
ATOM     66  S   UNL A   1      43.253  31.168  37.587  1.00  0.00     0.124 S 
ATOM     67  O   UNL A   1      44.066  30.046  38.047  1.00  0.00    -0.237 OA
ATOM     68  O   UNL A   1      43.998  32.288  37.015  1.00  0.00    -0.237 OA
ATOM     69  O   UNL A   1      42.154  31.546  38.471  1.00  0.00    -0.744 OA
ENDBRANCH  62  66
ENDBRANCH  36  59
ENDBRANCH  10  11
ENDBRANCH   3   5
ENDBRANCH   2   3
ENDBRANCH   1   2
BRANCH   1  70
ATOM     70  C   UNL A   1      42.093  19.650  27.603  1.00  0.00     0.202 C 
BRANCH  70  71
ATOM     71  O   UNL A   1      42.624  18.691  26.714  1.00  0.00    -0.374 OA
BRANCH  71  72
ATOM     72  C   UNL A   1      42.870  19.037  25.371  1.00  0.00     0.202 C 
BRANCH  72  73
ATOM     73  C   UNL A   1      44.306  18.717  24.940  1.00  0.00     0.261 C 
BRANCH  73  74
ATOM     74  O   UNL A   1      44.840  19.725  24.059  1.00  0.00    -0.457 OA
BRANCH  74  75
ATOM     75  C   UNL A   1      45.901  20.391  24.586  1.00  0.00     0.374 C 
ATOM     76  O   UNL A   1      47.051  19.959  24.612  1.00  0.00    -0.242 OA
BRANCH  75  77
ATOM     77  C   UNL A   1      45.620  21.722  24.994  1.00  0.00     0.212 A 
ATOM     78  C   UNL A   1      44.800  22.613  24.331  1.00  0.00     0.067 A 
ATOM     79  O   UNL A   1      46.136  22.282  26.122  1.00  0.00    -0.449 OA
ATOM     80  C   UNL A   1      44.761  23.775  25.109  1.00  0.00     0.021 A 
ATOM     81  C   UNL A   1      45.631  23.550  26.171  1.00  0.00     0.138 A 
ATOM     82  C   UNL A   1      44.098  25.003  25.002  1.00  0.00     0.015 A 
ATOM     83  C   UNL A   1      45.927  24.501  27.137  1.00  0.00     0.087 A 
ATOM     84  C   UNL A   1      44.361  25.974  25.968  1.00  0.00     0.040 A 
ATOM     85  C   UNL A   1      45.264  25.721  26.999  1.00  0.00     0.126 A 
ATOM     86  F   UNL A   1      45.504  26.685  27.900  1.00  0.00    -0.207 F 
ENDBRANCH  75  77
ENDBRANCH  74  75
ENDBRANCH  73  74
ENDBRANCH  72  73
ENDBRANCH  71  72
ENDBRANCH  70  71
ENDBRANCH   1  70
TORSDOF 17
ENDMDL
