MODEL 1
REMARK VINA RESULT:     -11.8      0.000      0.000
REMARK SMILES CC1=C[C@H](C)[C@@H](C(=O)OCCOCCOC(=O)c2ccc(-c3c4nc(c(-c5cc(S(=O)(=O)[O-])ccc5F)c5ccc([nH]5)c(-c5cc(S(=O)(=O)[O-])ccc5F)c5nc(c(-c6cc(S(=O)(=O)[O-])ccc6F)c6ccc3[nH]6)C=C5)C=C4)cc2)[C@H](C(=O)Nc2cccnc2)C1
REMARK SMILES IDX 13 1 12 2 11 3 10 4 9 5 7 6 8 7 6 8 1 9 2 10 3 11 91 12 4 13
REMARK SMILES IDX 81 14 5 15 82 16 83 17 84 18 85 20 86 21 90 22 87 23 89 24
REMARK SMILES IDX 88 25 14 26 15 27 16 28 17 29 18 30 19 31 80 32 20 33 79 34
REMARK SMILES IDX 21 35 22 36 23 37 73 38 24 39 78 40 72 41 74 42 25 43 77 44
REMARK SMILES IDX 71 45 70 46 26 48 58 49 38 50 57 51 39 52 42 53 56 54 75 55
REMARK SMILES IDX 40 56 41 57 55 59 76 60 43 61 27 62 28 63 36 64 29 65 35 66
REMARK SMILES IDX 37 67 34 68 30 69 31 70 32 71 33 72 59 73 60 74 68 75 61 76
REMARK SMILES IDX 67 77 69 78 66 79 62 80 63 81 64 82 65 83 44 84 45 85 53 86
REMARK SMILES IDX 46 87 52 88 54 89 51 90 47 91 48 92 49 93 50 94
REMARK H PARENT 84 19 74 47 42 58
REMARK Flexibility Score: inf
ROOT
ATOM      1  C   UNL A   1      31.421  30.982  26.137  1.00  0.00     0.202 C 
ENDROOT
BRANCH   1   2
ATOM      2  O   UNL A   1      32.502  30.152  25.713  1.00  0.00    -0.374 OA
BRANCH   2   3
ATOM      3  C   UNL A   1      32.286  29.278  24.610  1.00  0.00     0.202 C 
BRANCH   3   4
ATOM      4  C   UNL A   1      30.931  28.579  24.512  1.00  0.00     0.261 C 
BRANCH   4   5
ATOM      5  O   UNL A   1      31.019  27.148  24.498  1.00  0.00    -0.463 OA
BRANCH   5   6
ATOM      6  C   UNL A   1      31.166  26.562  25.721  1.00  0.00     0.310 C 
ATOM      7  O   UNL A   1      30.835  27.059  26.790  1.00  0.00    -0.252 OA
BRANCH   6   8
ATOM      8  C   UNL A   1      31.948  25.264  25.627  1.00  0.00     0.118 C 
ATOM      9  C   UNL A   1      32.670  22.398  22.286  1.00  0.00     0.039 C 
ATOM     10  C   UNL A   1      32.425  23.421  23.358  1.00  0.00    -0.076 C 
ATOM     11  C   UNL A   1      33.275  24.437  23.574  1.00  0.00    -0.024 C 
ATOM     12  C   UNL A   1      31.135  23.276  24.109  1.00  0.00     0.044 C 
ATOM     13  C   UNL A   1      33.015  25.554  24.539  1.00  0.00     0.023 C 
ATOM     14  C   UNL A   1      31.031  24.039  25.433  1.00  0.00     0.097 C 
ATOM     15  C   UNL A   1      34.308  26.085  25.181  1.00  0.00     0.013 C 
BRANCH  14  16
ATOM     16  C   UNL A   1      30.964  23.100  26.657  1.00  0.00     0.228 C 
ATOM     17  O   UNL A   1      30.027  23.229  27.457  1.00  0.00    -0.274 OA
ATOM     18  N   UNL A   1      31.806  22.044  26.859  1.00  0.00    -0.324 N 
ATOM     19  H   UNL A   1      31.429  21.330  27.421  1.00  0.00     0.169 HD
BRANCH  18  20
ATOM     20  C   UNL A   1      33.109  21.794  26.411  1.00  0.00     0.059 A 
ATOM     21  C   UNL A   1      34.186  22.580  26.785  1.00  0.00     0.029 A 
ATOM     22  C   UNL A   1      33.393  20.665  25.651  1.00  0.00     0.137 A 
ATOM     23  C   UNL A   1      35.460  22.312  26.289  1.00  0.00     0.022 A 
ATOM     24  N   UNL A   1      34.622  20.361  25.161  1.00  0.00    -0.263 NA
ATOM     25  C   UNL A   1      35.623  21.213  25.469  1.00  0.00     0.111 A 
ENDBRANCH  18  20
ENDBRANCH  14  16
ENDBRANCH   6   8
ENDBRANCH   5   6
ENDBRANCH   4   5
ENDBRANCH   3   4
ENDBRANCH   2   3
ENDBRANCH   1   2
BRANCH   1  26
ATOM     26  C   UNL A   1      31.742  32.422  26.556  1.00  0.00     0.261 C 
BRANCH  26  27
ATOM     27  O   UNL A   1      32.452  32.509  27.807  1.00  0.00    -0.460 OA
BRANCH  27  28
ATOM     28  C   UNL A   1      33.447  33.430  27.821  1.00  0.00     0.338 C 
ATOM     29  O   UNL A   1      33.318  34.648  27.797  1.00  0.00    -0.246 OA
BRANCH  28  30
ATOM     30  C   UNL A   1      34.755  32.793  28.059  1.00  0.00     0.060 A 
ATOM     31  C   UNL A   1      34.764  31.414  28.298  1.00  0.00     0.016 A 
ATOM     32  C   UNL A   1      35.928  33.542  28.181  1.00  0.00     0.016 A 
ATOM     33  C   UNL A   1      35.932  30.786  28.725  1.00  0.00     0.010 A 
ATOM     34  C   UNL A   1      37.100  32.909  28.618  1.00  0.00     0.010 A 
ATOM     35  C   UNL A   1      37.095  31.538  28.935  1.00  0.00    -0.014 A 
BRANCH  35  36
ATOM     36  C   UNL A   1      38.230  30.913  29.663  1.00  0.00     0.031 A 
ATOM     37  C   UNL A   1      38.480  31.307  31.095  1.00  0.00     0.074 A 
ATOM     38  C   UNL A   1      38.970  29.945  29.088  1.00  0.00     0.049 A 
ATOM     39  N   UNL A   1      39.401  30.889  31.925  1.00  0.00    -0.248 NA
ATOM     40  C   UNL A   1      37.562  32.304  31.668  1.00  0.00     0.031 C 
ATOM     41  C   UNL A   1      38.777  29.429  27.734  1.00  0.00     0.029 A 
ATOM     42  N   UNL A   1      40.025  29.216  29.579  1.00  0.00    -0.354 N 
ATOM     43  C   UNL A   1      39.165  31.559  33.122  1.00  0.00     0.074 A 
ATOM     44  C   UNL A   1      38.048  32.450  32.891  1.00  0.00     0.031 C 
ATOM     45  C   UNL A   1      39.684  28.462  27.503  1.00  0.00     0.029 A 
ATOM     46  C   UNL A   1      40.545  28.318  28.675  1.00  0.00     0.049 A 
ATOM     47  H   UNL A   1      40.376  29.326  30.491  1.00  0.00     0.167 HD
ATOM     48  C   UNL A   1      39.809  31.431  34.309  1.00  0.00     0.034 A 
ATOM     49  C   UNL A   1      41.605  27.490  28.779  1.00  0.00     0.034 A 
ATOM     50  C   UNL A   1      40.934  30.554  34.523  1.00  0.00     0.049 A 
ATOM     51  C   UNL A   1      42.382  27.456  30.076  1.00  0.00     0.074 A 
ATOM     52  C   UNL A   1      41.680  30.372  35.676  1.00  0.00     0.029 A 
ATOM     53  N   UNL A   1      41.478  29.711  33.563  1.00  0.00    -0.354 N 
ATOM     54  N   UNL A   1      42.159  28.112  31.193  1.00  0.00    -0.248 NA
ATOM     55  C   UNL A   1      43.546  26.563  30.128  1.00  0.00     0.031 C 
ATOM     56  C   UNL A   1      42.711  29.468  35.394  1.00  0.00     0.029 A 
ATOM     57  C   UNL A   1      42.563  29.027  34.089  1.00  0.00     0.049 A 
ATOM     58  H   UNL A   1      41.141  29.614  32.642  1.00  0.00     0.167 HD
ATOM     59  C   UNL A   1      43.132  27.674  32.090  1.00  0.00     0.074 A 
ATOM     60  C   UNL A   1      43.929  26.689  31.389  1.00  0.00     0.031 C 
ATOM     61  C   UNL A   1      43.348  28.047  33.377  1.00  0.00     0.034 A 
BRANCH  48  62
ATOM     62  C   UNL A   1      39.331  32.293  35.453  1.00  0.00     0.023 A 
ATOM     63  C   UNL A   1      39.739  33.632  35.586  1.00  0.00     0.031 A 
ATOM     64  C   UNL A   1      38.468  31.766  36.431  1.00  0.00     0.131 A 
ATOM     65  C   UNL A   1      39.333  34.379  36.702  1.00  0.00     0.055 A 
ATOM     66  C   UNL A   1      38.009  32.538  37.500  1.00  0.00     0.041 A 
ATOM     67  F   UNL A   1      38.065  30.487  36.369  1.00  0.00    -0.206 F 
ATOM     68  C   UNL A   1      38.450  33.850  37.647  1.00  0.00     0.022 A 
BRANCH  65  69
ATOM     69  S   UNL A   1      40.071  36.015  36.969  1.00  0.00     0.124 S 
ATOM     70  O   UNL A   1      41.462  35.666  37.253  1.00  0.00    -0.237 OA
ATOM     71  O   UNL A   1      39.827  36.683  35.696  1.00  0.00    -0.237 OA
ATOM     72  O   UNL A   1      39.324  36.547  38.107  1.00  0.00    -0.744 OA
ENDBRANCH  65  69
ENDBRANCH  48  62
BRANCH  49  73
ATOM     73  C   UNL A   1      42.037  26.648  27.625  1.00  0.00     0.023 A 
ATOM     74  C   UNL A   1      41.613  25.316  27.499  1.00  0.00     0.031 A 
ATOM     75  C   UNL A   1      42.962  27.133  26.682  1.00  0.00     0.131 A 
ATOM     76  C   UNL A   1      42.163  24.496  26.500  1.00  0.00     0.055 A 
ATOM     77  C   UNL A   1      43.457  26.334  25.651  1.00  0.00     0.041 A 
ATOM     78  F   UNL A   1      43.407  28.398  26.756  1.00  0.00    -0.206 F 
ATOM     79  C   UNL A   1      43.072  24.999  25.568  1.00  0.00     0.022 A 
BRANCH  76  80
ATOM     80  S   UNL A   1      41.770  22.725  26.519  1.00  0.00     0.124 S 
ATOM     81  O   UNL A   1      42.294  22.290  25.229  1.00  0.00    -0.237 OA
ATOM     82  O   UNL A   1      42.499  22.268  27.696  1.00  0.00    -0.237 OA
ATOM     83  O   UNL A   1      40.314  22.702  26.641  1.00  0.00    -0.744 OA
ENDBRANCH  76  80
ENDBRANCH  49  73
BRANCH  61  84
ATOM     84  C   UNL A   1      44.456  27.339  34.121  1.00  0.00     0.023 A 
ATOM     85  C   UNL A   1      44.249  26.103  34.760  1.00  0.00     0.031 A 
ATOM     86  C   UNL A   1      45.732  27.924  34.210  1.00  0.00     0.131 A 
ATOM     87  C   UNL A   1      45.283  25.525  35.514  1.00  0.00     0.055 A 
ATOM     88  C   UNL A   1      46.774  27.313  34.907  1.00  0.00     0.041 A 
ATOM     89  F   UNL A   1      45.986  29.103  33.619  1.00  0.00    -0.206 F 
ATOM     90  C   UNL A   1      46.548  26.115  35.578  1.00  0.00     0.022 A 
BRANCH  87  91
ATOM     91  S   UNL A   1      44.919  24.044  36.495  1.00  0.00     0.124 S 
ATOM     92  O   UNL A   1      44.524  24.615  37.777  1.00  0.00    -0.237 OA
ATOM     93  O   UNL A   1      43.854  23.412  35.723  1.00  0.00    -0.237 OA
ATOM     94  O   UNL A   1      46.190  23.318  36.504  1.00  0.00    -0.744 OA
ENDBRANCH  87  91
ENDBRANCH  61  84
ENDBRANCH  35  36
ENDBRANCH  28  30
ENDBRANCH  27  28
ENDBRANCH  26  27
ENDBRANCH   1  26
TORSDOF 19
ENDMDL
MODEL 2
REMARK VINA RESULT:     -11.4      4.898      8.143
REMARK SMILES CC1=C[C@H](C)[C@@H](C(=O)OCCOCCOC(=O)c2ccc(-c3c4nc(c(-c5cc(S(=O)(=O)[O-])ccc5F)c5ccc([nH]5)c(-c5cc(S(=O)(=O)[O-])ccc5F)c5nc(c(-c6cc(S(=O)(=O)[O-])ccc6F)c6ccc3[nH]6)C=C5)C=C4)cc2)[C@H](C(=O)Nc2cccnc2)C1
REMARK SMILES IDX 13 1 12 2 11 3 10 4 9 5 7 6 8 7 6 8 1 9 2 10 3 11 91 12 4 13
REMARK SMILES IDX 81 14 5 15 82 16 83 17 84 18 85 20 86 21 90 22 87 23 89 24
REMARK SMILES IDX 88 25 14 26 15 27 16 28 17 29 18 30 19 31 80 32 20 33 79 34
REMARK SMILES IDX 21 35 22 36 23 37 73 38 24 39 78 40 72 41 74 42 25 43 77 44
REMARK SMILES IDX 71 45 70 46 26 48 58 49 38 50 57 51 39 52 42 53 56 54 75 55
REMARK SMILES IDX 40 56 41 57 55 59 76 60 43 61 27 62 28 63 36 64 29 65 35 66
REMARK SMILES IDX 37 67 34 68 30 69 31 70 32 71 33 72 59 73 60 74 68 75 61 76
REMARK SMILES IDX 67 77 69 78 66 79 62 80 63 81 64 82 65 83 44 84 45 85 53 86
REMARK SMILES IDX 46 87 52 88 54 89 51 90 47 91 48 92 49 93 50 94
REMARK H PARENT 84 19 74 47 42 58
REMARK Flexibility Score: inf
ROOT
ATOM      1  C   UNL A   1      36.146  20.063  24.992  1.00  0.00     0.202 C 
ENDROOT
BRANCH   1   2
ATOM      2  O   UNL A   1      35.419  21.251  25.301  1.00  0.00    -0.374 OA
BRANCH   2   3
ATOM      3  C   UNL A   1      34.397  21.667  24.401  1.00  0.00     0.202 C 
BRANCH   3   4
ATOM      4  C   UNL A   1      33.478  22.803  24.846  1.00  0.00     0.261 C 
BRANCH   4   5
ATOM      5  O   UNL A   1      33.836  24.081  24.303  1.00  0.00    -0.463 OA
BRANCH   5   6
ATOM      6  C   UNL A   1      32.937  24.613  23.426  1.00  0.00     0.310 C 
ATOM      7  O   UNL A   1      32.589  24.101  22.370  1.00  0.00    -0.252 OA
BRANCH   6   8
ATOM      8  C   UNL A   1      32.524  26.017  23.833  1.00  0.00     0.118 C 
ATOM      9  C   UNL A   1      28.817  28.401  23.149  1.00  0.00     0.039 C 
ATOM     10  C   UNL A   1      30.020  27.532  23.381  1.00  0.00    -0.076 C 
ATOM     11  C   UNL A   1      30.142  26.770  24.479  1.00  0.00    -0.024 C 
ATOM     12  C   UNL A   1      31.030  27.516  22.272  1.00  0.00     0.044 C 
ATOM     13  C   UNL A   1      31.257  25.792  24.698  1.00  0.00     0.023 C 
ATOM     14  C   UNL A   1      32.417  26.970  22.625  1.00  0.00     0.097 C 
ATOM     15  C   UNL A   1      31.634  25.659  26.183  1.00  0.00     0.013 C 
BRANCH  14  16
ATOM     16  C   UNL A   1      33.514  28.055  22.578  1.00  0.00     0.228 C 
ATOM     17  O   UNL A   1      34.261  28.105  21.591  1.00  0.00    -0.274 OA
ATOM     18  N   UNL A   1      33.643  29.054  23.500  1.00  0.00    -0.324 N 
ATOM     19  H   UNL A   1      34.091  29.862  23.159  1.00  0.00     0.169 HD
BRANCH  18  20
ATOM     20  C   UNL A   1      33.254  29.137  24.842  1.00  0.00     0.059 A 
ATOM     21  C   UNL A   1      32.065  29.729  25.235  1.00  0.00     0.029 A 
ATOM     22  C   UNL A   1      34.004  28.521  25.838  1.00  0.00     0.137 A 
ATOM     23  C   UNL A   1      31.734  29.817  26.585  1.00  0.00     0.022 A 
ATOM     24  N   UNL A   1      33.708  28.571  27.161  1.00  0.00    -0.263 NA
ATOM     25  C   UNL A   1      32.591  29.247  27.506  1.00  0.00     0.111 A 
ENDBRANCH  18  20
ENDBRANCH  14  16
ENDBRANCH   6   8
ENDBRANCH   5   6
ENDBRANCH   4   5
ENDBRANCH   3   4
ENDBRANCH   2   3
ENDBRANCH   1   2
BRANCH   1  26
ATOM     26  C   UNL A   1      37.675  20.158  24.901  1.00  0.00     0.261 C 
BRANCH  26  27
ATOM     27  O   UNL A   1      38.204  21.383  25.444  1.00  0.00    -0.460 OA
BRANCH  27  28
ATOM     28  C   UNL A   1      39.348  21.228  26.156  1.00  0.00     0.338 C 
ATOM     29  O   UNL A   1      40.069  20.237  26.177  1.00  0.00    -0.246 OA
BRANCH  28  30
ATOM     30  C   UNL A   1      39.752  22.495  26.793  1.00  0.00     0.060 A 
ATOM     31  C   UNL A   1      39.244  23.679  26.246  1.00  0.00     0.016 A 
ATOM     32  C   UNL A   1      40.708  22.536  27.811  1.00  0.00     0.016 A 
ATOM     33  C   UNL A   1      39.737  24.912  26.668  1.00  0.00     0.010 A 
ATOM     34  C   UNL A   1      41.208  23.778  28.228  1.00  0.00     0.010 A 
ATOM     35  C   UNL A   1      40.757  24.968  27.627  1.00  0.00    -0.014 A 
BRANCH  35  36
ATOM     36  C   UNL A   1      41.466  26.256  27.844  1.00  0.00     0.031 A 
ATOM     37  C   UNL A   1      40.767  27.348  28.611  1.00  0.00     0.074 A 
ATOM     38  C   UNL A   1      42.741  26.419  27.445  1.00  0.00     0.049 A 
ATOM     39  N   UNL A   1      41.191  28.545  28.928  1.00  0.00    -0.248 NA
ATOM     40  C   UNL A   1      39.408  27.045  29.088  1.00  0.00     0.031 C 
ATOM     41  C   UNL A   1      43.545  25.408  26.758  1.00  0.00     0.029 A 
ATOM     42  N   UNL A   1      43.588  27.492  27.572  1.00  0.00    -0.354 N 
ATOM     43  C   UNL A   1      40.159  29.132  29.654  1.00  0.00     0.074 A 
ATOM     44  C   UNL A   1      39.070  28.179  29.683  1.00  0.00     0.031 C 
ATOM     45  C   UNL A   1      44.771  25.911  26.528  1.00  0.00     0.029 A 
ATOM     46  C   UNL A   1      44.828  27.288  27.013  1.00  0.00     0.049 A 
ATOM     47  H   UNL A   1      43.331  28.329  28.021  1.00  0.00     0.167 HD
ATOM     48  C   UNL A   1      40.128  30.348  30.256  1.00  0.00     0.034 A 
ATOM     49  C   UNL A   1      45.880  28.125  26.893  1.00  0.00     0.034 A 
ATOM     50  C   UNL A   1      41.211  31.298  30.204  1.00  0.00     0.049 A 
ATOM     51  C   UNL A   1      45.773  29.520  27.467  1.00  0.00     0.074 A 
ATOM     52  C   UNL A   1      41.272  32.569  30.751  1.00  0.00     0.029 A 
ATOM     53  N   UNL A   1      42.426  31.084  29.567  1.00  0.00    -0.354 N 
ATOM     54  N   UNL A   1      44.783  30.069  28.133  1.00  0.00    -0.248 NA
ATOM     55  C   UNL A   1      46.932  30.403  27.282  1.00  0.00     0.031 C 
ATOM     56  C   UNL A   1      42.496  33.145  30.391  1.00  0.00     0.029 A 
ATOM     57  C   UNL A   1      43.232  32.207  29.686  1.00  0.00     0.049 A 
ATOM     58  H   UNL A   1      42.679  30.255  29.099  1.00  0.00     0.167 HD
ATOM     59  C   UNL A   1      45.221  31.345  28.481  1.00  0.00     0.074 A 
ATOM     60  C   UNL A   1      46.567  31.476  27.966  1.00  0.00     0.031 C 
ATOM     61  C   UNL A   1      44.573  32.321  29.167  1.00  0.00     0.034 A 
BRANCH  48  62
ATOM     62  C   UNL A   1      38.862  30.726  30.987  1.00  0.00     0.023 A 
ATOM     63  C   UNL A   1      37.743  31.238  30.306  1.00  0.00     0.031 A 
ATOM     64  C   UNL A   1      38.777  30.589  32.384  1.00  0.00     0.131 A 
ATOM     65  C   UNL A   1      36.612  31.648  31.027  1.00  0.00     0.055 A 
ATOM     66  C   UNL A   1      37.621  30.931  33.088  1.00  0.00     0.041 A 
ATOM     67  F   UNL A   1      39.823  30.129  33.090  1.00  0.00    -0.206 F 
ATOM     68  C   UNL A   1      36.533  31.474  32.411  1.00  0.00     0.022 A 
BRANCH  65  69
ATOM     69  S   UNL A   1      35.291  32.525  30.148  1.00  0.00     0.124 S 
ATOM     70  O   UNL A   1      34.293  32.687  31.203  1.00  0.00    -0.237 OA
ATOM     71  O   UNL A   1      35.959  33.744  29.708  1.00  0.00    -0.237 OA
ATOM     72  O   UNL A   1      34.915  31.600  29.081  1.00  0.00    -0.744 OA
ENDBRANCH  65  69
ENDBRANCH  48  62
BRANCH  49  73
ATOM     73  C   UNL A   1      47.116  27.705  26.168  1.00  0.00     0.023 A 
ATOM     74  C   UNL A   1      47.280  27.968  24.799  1.00  0.00     0.031 A 
ATOM     75  C   UNL A   1      48.108  26.944  26.813  1.00  0.00     0.131 A 
ATOM     76  C   UNL A   1      48.371  27.419  24.106  1.00  0.00     0.055 A 
ATOM     77  C   UNL A   1      49.225  26.455  26.133  1.00  0.00     0.041 A 
ATOM     78  F   UNL A   1      48.002  26.656  28.121  1.00  0.00    -0.206 F 
ATOM     79  C   UNL A   1      49.350  26.675  24.766  1.00  0.00     0.022 A 
BRANCH  76  80
ATOM     80  S   UNL A   1      48.419  27.582  22.299  1.00  0.00     0.124 S 
ATOM     81  O   UNL A   1      47.096  28.124  22.014  1.00  0.00    -0.237 OA
ATOM     82  O   UNL A   1      49.542  28.494  22.110  1.00  0.00    -0.237 OA
ATOM     83  O   UNL A   1      48.645  26.213  21.842  1.00  0.00    -0.744 OA
ENDBRANCH  76  80
ENDBRANCH  49  73
BRANCH  61  84
ATOM     84  C   UNL A   1      45.343  33.591  29.446  1.00  0.00     0.023 A 
ATOM     85  C   UNL A   1      45.275  34.703  28.587  1.00  0.00     0.031 A 
ATOM     86  C   UNL A   1      46.174  33.679  30.577  1.00  0.00     0.131 A 
ATOM     87  C   UNL A   1      46.076  35.829  28.838  1.00  0.00     0.055 A 
ATOM     88  C   UNL A   1      46.918  34.826  30.856  1.00  0.00     0.041 A 
ATOM     89  F   UNL A   1      46.277  32.648  31.431  1.00  0.00    -0.206 F 
ATOM     90  C   UNL A   1      46.884  35.903  29.975  1.00  0.00     0.022 A 
BRANCH  87  91
ATOM     91  S   UNL A   1      46.122  37.155  27.601  1.00  0.00     0.124 S 
ATOM     92  O   UNL A   1      47.104  36.650  26.648  1.00  0.00    -0.237 OA
ATOM     93  O   UNL A   1      44.741  37.194  27.132  1.00  0.00    -0.237 OA
ATOM     94  O   UNL A   1      46.547  38.325  28.369  1.00  0.00    -0.744 OA
ENDBRANCH  87  91
ENDBRANCH  61  84
ENDBRANCH  35  36
ENDBRANCH  28  30
ENDBRANCH  27  28
ENDBRANCH  26  27
ENDBRANCH   1  26
TORSDOF 19
ENDMDL
MODEL 3
REMARK VINA RESULT:     -11.3      4.550     10.189
REMARK SMILES CC1=C[C@H](C)[C@@H](C(=O)OCCOCCOC(=O)c2ccc(-c3c4nc(c(-c5cc(S(=O)(=O)[O-])ccc5F)c5ccc([nH]5)c(-c5cc(S(=O)(=O)[O-])ccc5F)c5nc(c(-c6cc(S(=O)(=O)[O-])ccc6F)c6ccc3[nH]6)C=C5)C=C4)cc2)[C@H](C(=O)Nc2cccnc2)C1
REMARK SMILES IDX 13 1 12 2 11 3 10 4 9 5 7 6 8 7 6 8 1 9 2 10 3 11 91 12 4 13
REMARK SMILES IDX 81 14 5 15 82 16 83 17 84 18 85 20 86 21 90 22 87 23 89 24
REMARK SMILES IDX 88 25 14 26 15 27 16 28 17 29 18 30 19 31 80 32 20 33 79 34
REMARK SMILES IDX 21 35 22 36 23 37 73 38 24 39 78 40 72 41 74 42 25 43 77 44
REMARK SMILES IDX 71 45 70 46 26 48 58 49 38 50 57 51 39 52 42 53 56 54 75 55
REMARK SMILES IDX 40 56 41 57 55 59 76 60 43 61 27 62 28 63 36 64 29 65 35 66
REMARK SMILES IDX 37 67 34 68 30 69 31 70 32 71 33 72 59 73 60 74 68 75 61 76
REMARK SMILES IDX 67 77 69 78 66 79 62 80 63 81 64 82 65 83 44 84 45 85 53 86
REMARK SMILES IDX 46 87 52 88 54 89 51 90 47 91 48 92 49 93 50 94
REMARK H PARENT 84 19 74 47 42 58
REMARK Flexibility Score: inf
ROOT
ATOM      1  C   UNL A   1      36.748  19.272  24.833  1.00  0.00     0.202 C 
ENDROOT
BRANCH   1   2
ATOM      2  O   UNL A   1      36.075  20.531  24.810  1.00  0.00    -0.374 OA
BRANCH   2   3
ATOM      3  C   UNL A   1      34.653  20.532  24.754  1.00  0.00     0.202 C 
BRANCH   3   4
ATOM      4  C   UNL A   1      33.890  20.684  26.068  1.00  0.00     0.261 C 
BRANCH   4   5
ATOM      5  O   UNL A   1      34.546  21.527  27.024  1.00  0.00    -0.463 OA
BRANCH   5   6
ATOM      6  C   UNL A   1      33.829  22.614  27.429  1.00  0.00     0.310 C 
ATOM      7  O   UNL A   1      33.522  22.871  28.586  1.00  0.00    -0.252 OA
BRANCH   6   8
ATOM      8  C   UNL A   1      33.304  23.409  26.245  1.00  0.00     0.118 C 
ATOM      9  C   UNL A   1      32.029  27.657  25.776  1.00  0.00     0.039 C 
ATOM     10  C   UNL A   1      32.511  26.250  25.988  1.00  0.00    -0.076 C 
ATOM     11  C   UNL A   1      33.785  25.896  25.755  1.00  0.00    -0.024 C 
ATOM     12  C   UNL A   1      31.499  25.297  26.550  1.00  0.00     0.044 C 
ATOM     13  C   UNL A   1      34.347  24.543  26.071  1.00  0.00     0.023 C 
ATOM     14  C   UNL A   1      31.824  23.806  26.416  1.00  0.00     0.097 C 
ATOM     15  C   UNL A   1      35.444  24.120  25.079  1.00  0.00     0.013 C 
BRANCH  14  16
ATOM     16  C   UNL A   1      30.859  23.070  25.461  1.00  0.00     0.228 C 
ATOM     17  O   UNL A   1      30.197  22.119  25.899  1.00  0.00    -0.274 OA
ATOM     18  N   UNL A   1      30.587  23.475  24.185  1.00  0.00    -0.324 N 
ATOM     19  H   UNL A   1      29.710  23.182  23.848  1.00  0.00     0.169 HD
BRANCH  18  20
ATOM     20  C   UNL A   1      31.331  24.230  23.271  1.00  0.00     0.059 A 
ATOM     21  C   UNL A   1      30.960  25.509  22.891  1.00  0.00     0.029 A 
ATOM     22  C   UNL A   1      32.547  23.761  22.787  1.00  0.00     0.137 A 
ATOM     23  C   UNL A   1      31.714  26.212  21.953  1.00  0.00     0.022 A 
ATOM     24  N   UNL A   1      33.317  24.420  21.884  1.00  0.00    -0.263 NA
ATOM     25  C   UNL A   1      32.864  25.621  21.466  1.00  0.00     0.111 A 
ENDBRANCH  18  20
ENDBRANCH  14  16
ENDBRANCH   6   8
ENDBRANCH   5   6
ENDBRANCH   4   5
ENDBRANCH   3   4
ENDBRANCH   2   3
ENDBRANCH   1   2
BRANCH   1  26
ATOM     26  C   UNL A   1      38.219  19.250  25.270  1.00  0.00     0.261 C 
BRANCH  26  27
ATOM     27  O   UNL A   1      38.724  20.548  25.640  1.00  0.00    -0.460 OA
BRANCH  27  28
ATOM     28  C   UNL A   1      39.927  20.519  26.266  1.00  0.00     0.338 C 
ATOM     29  O   UNL A   1      40.777  19.641  26.179  1.00  0.00    -0.246 OA
BRANCH  28  30
ATOM     30  C   UNL A   1      40.198  21.795  26.953  1.00  0.00     0.060 A 
ATOM     31  C   UNL A   1      39.545  22.936  26.470  1.00  0.00     0.016 A 
ATOM     32  C   UNL A   1      41.166  21.902  27.954  1.00  0.00     0.016 A 
ATOM     33  C   UNL A   1      39.903  24.198  26.939  1.00  0.00     0.010 A 
ATOM     34  C   UNL A   1      41.530  23.174  28.419  1.00  0.00     0.010 A 
ATOM     35  C   UNL A   1      40.932  24.329  27.881  1.00  0.00    -0.014 A 
BRANCH  35  36
ATOM     36  C   UNL A   1      41.493  25.680  28.144  1.00  0.00     0.031 A 
ATOM     37  C   UNL A   1      42.885  25.994  27.660  1.00  0.00     0.074 A 
ATOM     38  C   UNL A   1      40.746  26.638  28.724  1.00  0.00     0.049 A 
ATOM     39  N   UNL A   1      43.573  27.102  27.768  1.00  0.00    -0.248 NA
ATOM     40  C   UNL A   1      43.591  24.913  26.955  1.00  0.00     0.031 C 
ATOM     41  C   UNL A   1      39.363  26.473  29.169  1.00  0.00     0.029 A 
ATOM     42  N   UNL A   1      41.043  27.943  29.025  1.00  0.00    -0.354 N 
ATOM     43  C   UNL A   1      44.786  26.858  27.131  1.00  0.00     0.074 A 
ATOM     44  C   UNL A   1      44.758  25.480  26.688  1.00  0.00     0.031 C 
ATOM     45  C   UNL A   1      38.930  27.638  29.684  1.00  0.00     0.029 A 
ATOM     46  C   UNL A   1      40.014  28.617  29.643  1.00  0.00     0.049 A 
ATOM     47  H   UNL A   1      41.910  28.359  28.819  1.00  0.00     0.167 HD
ATOM     48  C   UNL A   1      45.822  27.708  26.920  1.00  0.00     0.034 A 
ATOM     49  C   UNL A   1      39.963  29.873  30.132  1.00  0.00     0.034 A 
ATOM     50  C   UNL A   1      45.848  29.074  27.382  1.00  0.00     0.049 A 
ATOM     51  C   UNL A   1      41.178  30.763  29.991  1.00  0.00     0.074 A 
ATOM     52  C   UNL A   1      46.859  30.011  27.251  1.00  0.00     0.029 A 
ATOM     53  N   UNL A   1      44.815  29.700  28.068  1.00  0.00    -0.354 N 
ATOM     54  N   UNL A   1      42.326  30.511  29.405  1.00  0.00    -0.248 NA
ATOM     55  C   UNL A   1      41.084  32.109  30.569  1.00  0.00     0.031 C 
ATOM     56  C   UNL A   1      46.463  31.181  27.911  1.00  0.00     0.029 A 
ATOM     57  C   UNL A   1      45.174  31.001  28.387  1.00  0.00     0.049 A 
ATOM     58  H   UNL A   1      43.953  29.281  28.294  1.00  0.00     0.167 HD
ATOM     59  C   UNL A   1      43.071  31.684  29.509  1.00  0.00     0.074 A 
ATOM     60  C   UNL A   1      42.236  32.646  30.198  1.00  0.00     0.031 C 
ATOM     61  C   UNL A   1      44.329  31.948  29.073  1.00  0.00     0.034 A 
BRANCH  48  62
ATOM     62  C   UNL A   1      47.026  27.165  26.189  1.00  0.00     0.023 A 
ATOM     63  C   UNL A   1      48.047  26.473  26.864  1.00  0.00     0.031 A 
ATOM     64  C   UNL A   1      47.164  27.355  24.802  1.00  0.00     0.131 A 
ATOM     65  C   UNL A   1      49.186  26.048  26.163  1.00  0.00     0.055 A 
ATOM     66  C   UNL A   1      48.266  26.865  24.098  1.00  0.00     0.041 A 
ATOM     67  F   UNL A   1      46.233  28.030  24.109  1.00  0.00    -0.206 F 
ATOM     68  C   UNL A   1      49.291  26.216  24.780  1.00  0.00     0.022 A 
BRANCH  65  69
ATOM     69  S   UNL A   1      50.586  25.379  27.103  1.00  0.00     0.124 S 
ATOM     70  O   UNL A   1      49.941  24.320  27.877  1.00  0.00    -0.237 OA
ATOM     71  O   UNL A   1      51.493  24.939  26.049  1.00  0.00    -0.237 OA
ATOM     72  O   UNL A   1      51.050  26.522  27.887  1.00  0.00    -0.744 OA
ENDBRANCH  65  69
ENDBRANCH  48  62
BRANCH  49  73
ATOM     73  C   UNL A   1      38.747  30.371  30.841  1.00  0.00     0.023 A 
ATOM     74  C   UNL A   1      37.737  31.061  30.152  1.00  0.00     0.031 A 
ATOM     75  C   UNL A   1      38.624  30.253  32.237  1.00  0.00     0.131 A 
ATOM     76  C   UNL A   1      36.688  31.664  30.865  1.00  0.00     0.055 A 
ATOM     77  C   UNL A   1      37.545  30.798  32.935  1.00  0.00     0.041 A 
ATOM     78  F   UNL A   1      39.563  29.608  32.950  1.00  0.00    -0.206 F 
ATOM     79  C   UNL A   1      36.578  31.526  32.249  1.00  0.00     0.022 A 
BRANCH  76  80
ATOM     80  S   UNL A   1      35.538  32.743  29.967  1.00  0.00     0.124 S 
ATOM     81  O   UNL A   1      34.744  33.302  31.055  1.00  0.00    -0.237 OA
ATOM     82  O   UNL A   1      36.450  33.663  29.298  1.00  0.00    -0.237 OA
ATOM     83  O   UNL A   1      34.827  31.820  29.085  1.00  0.00    -0.744 OA
ENDBRANCH  76  80
ENDBRANCH  49  73
BRANCH  61  84
ATOM     84  C   UNL A   1      44.848  33.352  29.281  1.00  0.00     0.023 A 
ATOM     85  C   UNL A   1      44.463  34.416  28.445  1.00  0.00     0.031 A 
ATOM     86  C   UNL A   1      45.759  33.621  30.318  1.00  0.00     0.131 A 
ATOM     87  C   UNL A   1      45.039  35.684  28.620  1.00  0.00     0.055 A 
ATOM     88  C   UNL A   1      46.278  34.900  30.527  1.00  0.00     0.041 A 
ATOM     89  F   UNL A   1      46.160  32.644  31.147  1.00  0.00    -0.206 F 
ATOM     90  C   UNL A   1      45.931  35.936  29.666  1.00  0.00     0.022 A 
BRANCH  87  91
ATOM     91  S   UNL A   1      44.682  36.977  27.398  1.00  0.00     0.124 S 
ATOM     92  O   UNL A   1      43.778  36.290  26.483  1.00  0.00    -0.237 OA
ATOM     93  O   UNL A   1      44.083  38.025  28.218  1.00  0.00    -0.237 OA
ATOM     94  O   UNL A   1      45.997  37.300  26.846  1.00  0.00    -0.744 OA
ENDBRANCH  87  91
ENDBRANCH  61  84
ENDBRANCH  35  36
ENDBRANCH  28  30
ENDBRANCH  27  28
ENDBRANCH  26  27
ENDBRANCH   1  26
TORSDOF 19
ENDMDL
