MODEL 1
REMARK VINA RESULT:     -11.1      0.000      0.000
REMARK SMILES CC(C)Cc1cc2c(cc1Cl)C=C(C(=O)OCCOCCOC(=O)c1ccc(-c3c4nc(c(-c5cc(S(=O)(=O)[O-])ccc5F)c5ccc([nH]5)c(-c5cc(S(=O)(=O)[O-])ccc5F)c5nc(c(-c6cc(S(=O)(=O)[O-])ccc6F)c6ccc3[nH]6)C=C5)C=C4)cc1)[C@@H](C(F)(F)F)O2
REMARK SMILES IDX 20 1 19 2 18 3 17 4 16 5 14 6 15 7 13 8 5 9 6 10 10 11 7 12
REMARK SMILES IDX 9 13 11 14 8 15 93 16 12 17 88 18 4 19 2 20 1 21 3 22 89 23
REMARK SMILES IDX 90 24 91 25 92 26 21 27 22 28 23 29 24 30 25 31 26 32 87 33
REMARK SMILES IDX 27 34 86 35 28 36 29 37 30 38 80 39 31 40 85 41 79 42 81 43
REMARK SMILES IDX 32 44 84 45 78 46 77 47 33 49 65 50 45 51 64 52 46 53 49 54
REMARK SMILES IDX 63 55 82 56 47 57 48 58 62 60 83 61 50 62 34 63 35 64 43 65
REMARK SMILES IDX 36 66 42 67 44 68 41 69 37 70 38 71 39 72 40 73 66 74 67 75
REMARK SMILES IDX 75 76 68 77 74 78 76 79 73 80 69 81 70 82 71 83 72 84 51 85
REMARK SMILES IDX 52 86 60 87 53 88 59 89 61 90 58 91 54 92 55 93 56 94 57 95
REMARK H PARENT 81 48 49 59
REMARK Flexibility Score: inf
ROOT
ATOM      1  C   UNL A   1      37.436  19.796  24.996  1.00  0.00     0.202 C 
ENDROOT
BRANCH   1   2
ATOM      2  O   UNL A   1      37.001  21.154  25.023  1.00  0.00    -0.374 OA
BRANCH   2   3
ATOM      3  C   UNL A   1      35.605  21.416  24.898  1.00  0.00     0.202 C 
BRANCH   3   4
ATOM      4  C   UNL A   1      34.886  22.004  26.116  1.00  0.00     0.261 C 
BRANCH   4   5
ATOM      5  O   UNL A   1      34.602  23.402  25.950  1.00  0.00    -0.460 OA
BRANCH   5   6
ATOM      6  C   UNL A   1      33.358  23.768  26.336  1.00  0.00     0.338 C 
ATOM      7  O   UNL A   1      32.755  23.400  27.330  1.00  0.00    -0.246 OA
BRANCH   6   8
ATOM      8  C   UNL A   1      32.859  24.836  25.450  1.00  0.00     0.087 C 
ATOM      9  C   UNL A   1      30.615  29.082  24.047  1.00  0.00    -0.025 A 
ATOM     10  C   UNL A   1      30.757  27.806  23.469  1.00  0.00     0.052 A 
ATOM     11  C   UNL A   1      31.420  29.405  25.151  1.00  0.00     0.045 A 
ATOM     12  C   UNL A   1      31.583  26.843  24.051  1.00  0.00     0.128 A 
ATOM     13  C   UNL A   1      32.208  28.428  25.760  1.00  0.00     0.032 A 
ATOM     14  Cl  UNL A   1      31.458  30.990  25.842  1.00  0.00    -0.084 Cl
ATOM     15  C   UNL A   1      32.245  27.132  25.239  1.00  0.00     0.019 A 
ATOM     16  O   UNL A   1      31.645  25.632  23.425  1.00  0.00    -0.475 OA
ATOM     17  C   UNL A   1      32.863  26.061  25.992  1.00  0.00     0.027 C 
ATOM     18  C   UNL A   1      32.364  24.533  24.063  1.00  0.00     0.316 C 
BRANCH   9  19
ATOM     19  C   UNL A   1      29.532  30.003  23.525  1.00  0.00     0.040 C 
BRANCH  19  20
ATOM     20  C   UNL A   1      28.525  29.292  22.585  1.00  0.00    -0.013 C 
ATOM     21  C   UNL A   1      27.231  28.854  23.279  1.00  0.00     0.008 C 
ATOM     22  C   UNL A   1      28.167  30.214  21.416  1.00  0.00     0.008 C 
ENDBRANCH  19  20
ENDBRANCH   9  19
BRANCH  18  23
ATOM     23  C   UNL A   1      31.451  23.299  23.991  1.00  0.00     0.430 C 
ATOM     24  F   UNL A   1      30.624  23.374  22.919  1.00  0.00    -0.167 F 
ATOM     25  F   UNL A   1      32.151  22.152  23.865  1.00  0.00    -0.167 F 
ATOM     26  F   UNL A   1      30.677  23.189  25.094  1.00  0.00    -0.167 F 
ENDBRANCH  18  23
ENDBRANCH   6   8
ENDBRANCH   5   6
ENDBRANCH   4   5
ENDBRANCH   3   4
ENDBRANCH   2   3
ENDBRANCH   1   2
BRANCH   1  27
ATOM     27  C   UNL A   1      38.828  19.466  25.552  1.00  0.00     0.261 C 
BRANCH  27  28
ATOM     28  O   UNL A   1      39.632  20.636  25.772  1.00  0.00    -0.460 OA
BRANCH  28  29
ATOM     29  C   UNL A   1      40.355  20.631  26.921  1.00  0.00     0.338 C 
ATOM     30  O   UNL A   1      40.797  19.657  27.508  1.00  0.00    -0.246 OA
BRANCH  29  31
ATOM     31  C   UNL A   1      40.717  22.020  27.257  1.00  0.00     0.060 A 
ATOM     32  C   UNL A   1      41.554  22.303  28.339  1.00  0.00     0.016 A 
ATOM     33  C   UNL A   1      40.212  23.052  26.456  1.00  0.00     0.016 A 
ATOM     34  C   UNL A   1      41.884  23.632  28.617  1.00  0.00     0.010 A 
ATOM     35  C   UNL A   1      40.539  24.377  26.741  1.00  0.00     0.010 A 
ATOM     36  C   UNL A   1      41.383  24.677  27.820  1.00  0.00    -0.014 A 
BRANCH  36  37
ATOM     37  C   UNL A   1      41.811  26.077  28.055  1.00  0.00     0.031 A 
ATOM     38  C   UNL A   1      43.186  26.540  27.674  1.00  0.00     0.074 A 
ATOM     39  C   UNL A   1      40.951  26.925  28.651  1.00  0.00     0.049 A 
ATOM     40  N   UNL A   1      43.713  27.729  27.797  1.00  0.00    -0.248 NA
ATOM     41  C   UNL A   1      44.087  25.539  27.082  1.00  0.00     0.031 C 
ATOM     42  C   UNL A   1      39.600  26.569  29.084  1.00  0.00     0.029 A 
ATOM     43  N   UNL A   1      41.078  28.247  29.001  1.00  0.00    -0.354 N 
ATOM     44  C   UNL A   1      45.003  27.629  27.289  1.00  0.00     0.074 A 
ATOM     45  C   UNL A   1      45.193  26.248  26.899  1.00  0.00     0.031 C 
ATOM     46  C   UNL A   1      39.017  27.648  29.626  1.00  0.00     0.029 A 
ATOM     47  C   UNL A   1      39.965  28.761  29.623  1.00  0.00     0.049 A 
ATOM     48  H   UNL A   1      41.890  28.775  28.825  1.00  0.00     0.167 HD
ATOM     49  C   UNL A   1      45.928  28.607  27.147  1.00  0.00     0.034 A 
ATOM     50  C   UNL A   1      39.732  29.985  30.143  1.00  0.00     0.034 A 
ATOM     51  C   UNL A   1      45.714  29.976  27.548  1.00  0.00     0.049 A 
ATOM     52  C   UNL A   1      40.799  31.044  30.018  1.00  0.00     0.074 A 
ATOM     53  C   UNL A   1      46.573  31.051  27.394  1.00  0.00     0.029 A 
ATOM     54  N   UNL A   1      44.584  30.460  28.190  1.00  0.00    -0.354 N 
ATOM     55  N   UNL A   1      41.973  30.964  29.436  1.00  0.00    -0.248 NA
ATOM     56  C   UNL A   1      40.515  32.360  30.609  1.00  0.00     0.031 C 
ATOM     57  C   UNL A   1      46.001  32.159  28.015  1.00  0.00     0.029 A 
ATOM     58  C   UNL A   1      44.743  31.807  28.479  1.00  0.00     0.049 A 
ATOM     59  H   UNL A   1      43.786  29.927  28.409  1.00  0.00     0.167 HD
ATOM     60  C   UNL A   1      42.556  32.221  29.570  1.00  0.00     0.074 A 
ATOM     61  C   UNL A   1      41.596  33.052  30.267  1.00  0.00     0.031 C 
ATOM     62  C   UNL A   1      43.777  32.641  29.156  1.00  0.00     0.034 A 
BRANCH  49  63
ATOM     63  C   UNL A   1      47.256  28.272  26.513  1.00  0.00     0.023 A 
ATOM     64  C   UNL A   1      47.380  28.241  25.111  1.00  0.00     0.031 A 
ATOM     65  C   UNL A   1      48.342  27.824  27.286  1.00  0.00     0.131 A 
ATOM     66  C   UNL A   1      48.543  27.727  24.526  1.00  0.00     0.055 A 
ATOM     67  C   UNL A   1      49.518  27.357  26.697  1.00  0.00     0.041 A 
ATOM     68  F   UNL A   1      48.271  27.826  28.627  1.00  0.00    -0.206 F 
ATOM     69  C   UNL A   1      49.616  27.292  25.310  1.00  0.00     0.022 A 
BRANCH  66  70
ATOM     70  S   UNL A   1      48.677  27.521  22.728  1.00  0.00     0.124 S 
ATOM     71  O   UNL A   1      47.479  28.212  22.257  1.00  0.00    -0.237 OA
ATOM     72  O   UNL A   1      49.940  28.194  22.437  1.00  0.00    -0.237 OA
ATOM     73  O   UNL A   1      48.673  26.074  22.540  1.00  0.00    -0.744 OA
ENDBRANCH  66  70
ENDBRANCH  49  63
BRANCH  50  74
ATOM     74  C   UNL A   1      38.409  30.263  30.776  1.00  0.00     0.023 A 
ATOM     75  C   UNL A   1      37.431  31.018  30.102  1.00  0.00     0.031 A 
ATOM     76  C   UNL A   1      38.149  29.881  32.102  1.00  0.00     0.131 A 
ATOM     77  C   UNL A   1      36.278  31.432  30.782  1.00  0.00     0.055 A 
ATOM     78  C   UNL A   1      36.964  30.231  32.751  1.00  0.00     0.041 A 
ATOM     79  F   UNL A   1      39.056  29.172  32.792  1.00  0.00    -0.206 F 
ATOM     80  C   UNL A   1      36.029  31.028  32.096  1.00  0.00     0.022 A 
BRANCH  77  81
ATOM     81  S   UNL A   1      35.138  32.629  30.032  1.00  0.00     0.124 S 
ATOM     82  O   UNL A   1      34.450  33.169  31.200  1.00  0.00    -0.237 OA
ATOM     83  O   UNL A   1      36.065  33.543  29.367  1.00  0.00    -0.237 OA
ATOM     84  O   UNL A   1      34.322  31.815  29.138  1.00  0.00    -0.744 OA
ENDBRANCH  77  81
ENDBRANCH  50  74
BRANCH  62  85
ATOM     85  C   UNL A   1      44.194  34.069  29.427  1.00  0.00     0.023 A 
ATOM     86  C   UNL A   1      44.778  34.407  30.665  1.00  0.00     0.031 A 
ATOM     87  C   UNL A   1      43.832  35.112  28.558  1.00  0.00     0.131 A 
ATOM     88  C   UNL A   1      44.914  35.752  31.028  1.00  0.00     0.055 A 
ATOM     89  C   UNL A   1      44.024  36.451  28.901  1.00  0.00     0.041 A 
ATOM     90  F   UNL A   1      43.265  34.844  27.371  1.00  0.00    -0.206 F 
ATOM     91  C   UNL A   1      44.547  36.777  30.149  1.00  0.00     0.022 A 
BRANCH  88  92
ATOM     92  S   UNL A   1      45.462  36.222  32.694  1.00  0.00     0.124 S 
ATOM     93  O   UNL A   1      46.467  35.201  32.981  1.00  0.00    -0.237 OA
ATOM     94  O   UNL A   1      45.984  37.568  32.477  1.00  0.00    -0.237 OA
ATOM     95  O   UNL A   1      44.248  36.139  33.500  1.00  0.00    -0.744 OA
ENDBRANCH  88  92
ENDBRANCH  62  85
ENDBRANCH  36  37
ENDBRANCH  29  31
ENDBRANCH  28  29
ENDBRANCH  27  28
ENDBRANCH   1  27
TORSDOF 20
ENDMDL
MODEL 2
REMARK VINA RESULT:     -11.0      5.043     10.506
REMARK SMILES CC(C)Cc1cc2c(cc1Cl)C=C(C(=O)OCCOCCOC(=O)c1ccc(-c3c4nc(c(-c5cc(S(=O)(=O)[O-])ccc5F)c5ccc([nH]5)c(-c5cc(S(=O)(=O)[O-])ccc5F)c5nc(c(-c6cc(S(=O)(=O)[O-])ccc6F)c6ccc3[nH]6)C=C5)C=C4)cc1)[C@@H](C(F)(F)F)O2
REMARK SMILES IDX 20 1 19 2 18 3 17 4 16 5 14 6 15 7 13 8 5 9 6 10 10 11 7 12
REMARK SMILES IDX 9 13 11 14 8 15 93 16 12 17 88 18 4 19 2 20 1 21 3 22 89 23
REMARK SMILES IDX 90 24 91 25 92 26 21 27 22 28 23 29 24 30 25 31 26 32 87 33
REMARK SMILES IDX 27 34 86 35 28 36 29 37 30 38 80 39 31 40 85 41 79 42 81 43
REMARK SMILES IDX 32 44 84 45 78 46 77 47 33 49 65 50 45 51 64 52 46 53 49 54
REMARK SMILES IDX 63 55 82 56 47 57 48 58 62 60 83 61 50 62 34 63 35 64 43 65
REMARK SMILES IDX 36 66 42 67 44 68 41 69 37 70 38 71 39 72 40 73 66 74 67 75
REMARK SMILES IDX 75 76 68 77 74 78 76 79 73 80 69 81 70 82 71 83 72 84 51 85
REMARK SMILES IDX 52 86 60 87 53 88 59 89 61 90 58 91 54 92 55 93 56 94 57 95
REMARK H PARENT 81 48 49 59
REMARK Flexibility Score: inf
ROOT
ATOM      1  C   UNL A   1      31.809  31.195  26.743  1.00  0.00     0.202 C 
ENDROOT
BRANCH   1   2
ATOM      2  O   UNL A   1      33.075  30.569  26.541  1.00  0.00    -0.374 OA
BRANCH   2   3
ATOM      3  C   UNL A   1      33.342  29.352  27.234  1.00  0.00     0.202 C 
BRANCH   3   4
ATOM      4  C   UNL A   1      34.011  28.222  26.445  1.00  0.00     0.261 C 
BRANCH   4   5
ATOM      5  O   UNL A   1      33.068  27.215  26.046  1.00  0.00    -0.460 OA
BRANCH   5   6
ATOM      6  C   UNL A   1      33.357  26.615  24.868  1.00  0.00     0.338 C 
ATOM      7  O   UNL A   1      33.955  27.098  23.921  1.00  0.00    -0.246 OA
BRANCH   6   8
ATOM      8  C   UNL A   1      32.980  25.191  24.931  1.00  0.00     0.087 C 
ATOM      9  C   UNL A   1      33.268  20.242  24.256  1.00  0.00    -0.025 A 
ATOM     10  C   UNL A   1      32.209  21.170  24.293  1.00  0.00     0.052 A 
ATOM     11  C   UNL A   1      34.530  20.654  24.711  1.00  0.00     0.045 A 
ATOM     12  C   UNL A   1      32.435  22.500  24.652  1.00  0.00     0.128 A 
ATOM     13  C   UNL A   1      34.765  21.993  25.024  1.00  0.00     0.032 A 
ATOM     14  Cl  UNL A   1      35.862  19.563  24.872  1.00  0.00    -0.084 Cl
ATOM     15  C   UNL A   1      33.727  22.925  24.941  1.00  0.00     0.019 A 
ATOM     16  O   UNL A   1      31.350  23.327  24.645  1.00  0.00    -0.475 OA
ATOM     17  C   UNL A   1      34.011  24.342  25.029  1.00  0.00     0.027 C 
ATOM     18  C   UNL A   1      31.541  24.760  24.858  1.00  0.00     0.316 C 
BRANCH   9  19
ATOM     19  C   UNL A   1      33.025  18.883  23.632  1.00  0.00     0.040 C 
BRANCH  19  20
ATOM     20  C   UNL A   1      32.490  17.833  24.640  1.00  0.00    -0.013 C 
ATOM     21  C   UNL A   1      33.042  16.421  24.416  1.00  0.00     0.008 C 
ATOM     22  C   UNL A   1      32.823  18.269  26.069  1.00  0.00     0.008 C 
ENDBRANCH  19  20
ENDBRANCH   9  19
BRANCH  18  23
ATOM     23  C   UNL A   1      30.735  25.486  23.769  1.00  0.00     0.430 C 
ATOM     24  F   UNL A   1      29.661  24.749  23.393  1.00  0.00    -0.167 F 
ATOM     25  F   UNL A   1      30.263  26.678  24.191  1.00  0.00    -0.167 F 
ATOM     26  F   UNL A   1      31.482  25.708  22.664  1.00  0.00    -0.167 F 
ENDBRANCH  18  23
ENDBRANCH   6   8
ENDBRANCH   5   6
ENDBRANCH   4   5
ENDBRANCH   3   4
ENDBRANCH   2   3
ENDBRANCH   1   2
BRANCH   1  27
ATOM     27  C   UNL A   1      31.767  32.720  26.904  1.00  0.00     0.261 C 
BRANCH  27  28
ATOM     28  O   UNL A   1      33.075  33.316  26.903  1.00  0.00    -0.460 OA
BRANCH  28  29
ATOM     29  C   UNL A   1      33.433  33.924  28.063  1.00  0.00     0.338 C 
ATOM     30  O   UNL A   1      32.811  34.784  28.665  1.00  0.00    -0.246 OA
BRANCH  29  31
ATOM     31  C   UNL A   1      34.612  33.232  28.614  1.00  0.00     0.060 A 
ATOM     32  C   UNL A   1      35.905  33.664  28.313  1.00  0.00     0.016 A 
ATOM     33  C   UNL A   1      34.404  32.135  29.461  1.00  0.00     0.016 A 
ATOM     34  C   UNL A   1      36.996  32.990  28.867  1.00  0.00     0.010 A 
ATOM     35  C   UNL A   1      35.496  31.461  30.005  1.00  0.00     0.010 A 
ATOM     36  C   UNL A   1      36.801  31.887  29.717  1.00  0.00    -0.014 A 
BRANCH  36  37
ATOM     37  C   UNL A   1      37.954  31.232  30.381  1.00  0.00     0.031 A 
ATOM     38  C   UNL A   1      38.382  31.634  31.761  1.00  0.00     0.074 A 
ATOM     39  C   UNL A   1      38.637  30.287  29.707  1.00  0.00     0.049 A 
ATOM     40  N   UNL A   1      39.356  31.155  32.488  1.00  0.00    -0.248 NA
ATOM     41  C   UNL A   1      37.622  32.715  32.408  1.00  0.00     0.031 C 
ATOM     42  C   UNL A   1      38.319  29.841  28.351  1.00  0.00     0.029 A 
ATOM     43  N   UNL A   1      39.734  29.538  30.058  1.00  0.00    -0.354 N 
ATOM     44  C   UNL A   1      39.325  31.863  33.683  1.00  0.00     0.074 A 
ATOM     45  C   UNL A   1      38.262  32.838  33.564  1.00  0.00     0.031 C 
ATOM     46  C   UNL A   1      39.189  28.887  27.991  1.00  0.00     0.029 A 
ATOM     47  C   UNL A   1      40.155  28.682  29.068  1.00  0.00     0.049 A 
ATOM     48  H   UNL A   1      40.177  29.609  30.934  1.00  0.00     0.167 HD
ATOM     49  C   UNL A   1      40.100  31.695  34.780  1.00  0.00     0.034 A 
ATOM     50  C   UNL A   1      41.205  27.835  29.025  1.00  0.00     0.034 A 
ATOM     51  C   UNL A   1      41.157  30.718  34.872  1.00  0.00     0.049 A 
ATOM     52  C   UNL A   1      42.087  27.703  30.241  1.00  0.00     0.074 A 
ATOM     53  C   UNL A   1      41.962  30.437  35.963  1.00  0.00     0.029 A 
ATOM     54  N   UNL A   1      41.569  29.879  33.848  1.00  0.00    -0.354 N 
ATOM     55  N   UNL A   1      41.977  28.301  31.405  1.00  0.00    -0.248 NA
ATOM     56  C   UNL A   1      43.228  26.782  30.151  1.00  0.00     0.031 C 
ATOM     57  C   UNL A   1      42.911  29.494  35.574  1.00  0.00     0.029 A 
ATOM     58  C   UNL A   1      42.646  29.113  34.267  1.00  0.00     0.049 A 
ATOM     59  H   UNL A   1      41.158  29.834  32.954  1.00  0.00     0.167 HD
ATOM     60  C   UNL A   1      43.017  27.812  32.190  1.00  0.00     0.074 A 
ATOM     61  C   UNL A   1      43.733  26.850  31.377  1.00  0.00     0.031 C 
ATOM     62  C   UNL A   1      43.348  28.138  33.464  1.00  0.00     0.034 A 
BRANCH  49  63
ATOM     63  C   UNL A   1      39.846  32.554  35.995  1.00  0.00     0.023 A 
ATOM     64  C   UNL A   1      38.932  32.130  36.979  1.00  0.00     0.031 A 
ATOM     65  C   UNL A   1      40.373  33.854  36.094  1.00  0.00     0.131 A 
ATOM     66  C   UNL A   1      38.538  33.014  37.991  1.00  0.00     0.055 A 
ATOM     67  C   UNL A   1      40.012  34.714  37.132  1.00  0.00     0.041 A 
ATOM     68  F   UNL A   1      41.241  34.310  35.177  1.00  0.00    -0.206 F 
ATOM     69  C   UNL A   1      39.077  34.301  38.077  1.00  0.00     0.022 A 
BRANCH  66  70
ATOM     70  S   UNL A   1      37.245  32.561  39.181  1.00  0.00     0.124 S 
ATOM     71  O   UNL A   1      37.446  33.556  40.233  1.00  0.00    -0.237 OA
ATOM     72  O   UNL A   1      36.029  32.727  38.390  1.00  0.00    -0.237 OA
ATOM     73  O   UNL A   1      37.576  31.190  39.553  1.00  0.00    -0.744 OA
ENDBRANCH  66  70
ENDBRANCH  49  63
BRANCH  50  74
ATOM     74  C   UNL A   1      41.426  27.019  27.793  1.00  0.00     0.023 A 
ATOM     75  C   UNL A   1      41.063  25.659  27.753  1.00  0.00     0.031 A 
ATOM     76  C   UNL A   1      42.107  27.553  26.687  1.00  0.00     0.131 A 
ATOM     77  C   UNL A   1      41.454  24.865  26.667  1.00  0.00     0.055 A 
ATOM     78  C   UNL A   1      42.425  26.776  25.572  1.00  0.00     0.041 A 
ATOM     79  F   UNL A   1      42.485  28.841  26.682  1.00  0.00    -0.206 F 
ATOM     80  C   UNL A   1      42.115  25.418  25.568  1.00  0.00     0.022 A 
BRANCH  77  81
ATOM     81  S   UNL A   1      41.245  23.063  26.714  1.00  0.00     0.124 S 
ATOM     82  O   UNL A   1      39.822  22.913  26.430  1.00  0.00    -0.237 OA
ATOM     83  O   UNL A   1      42.150  22.633  25.650  1.00  0.00    -0.237 OA
ATOM     84  O   UNL A   1      41.660  22.703  28.065  1.00  0.00    -0.744 OA
ENDBRANCH  77  81
ENDBRANCH  50  74
BRANCH  62  85
ATOM     85  C   UNL A   1      44.540  27.468  34.108  1.00  0.00     0.023 A 
ATOM     86  C   UNL A   1      44.370  26.252  34.802  1.00  0.00     0.031 A 
ATOM     87  C   UNL A   1      45.778  28.123  34.211  1.00  0.00     0.131 A 
ATOM     88  C   UNL A   1      45.396  25.769  35.624  1.00  0.00     0.055 A 
ATOM     89  C   UNL A   1      46.818  27.606  34.986  1.00  0.00     0.041 A 
ATOM     90  F   UNL A   1      45.988  29.288  33.577  1.00  0.00    -0.206 F 
ATOM     91  C   UNL A   1      46.623  26.436  35.713  1.00  0.00     0.022 A 
BRANCH  88  92
ATOM     92  S   UNL A   1      45.138  24.326  36.693  1.00  0.00     0.124 S 
ATOM     93  O   UNL A   1      46.506  23.855  36.903  1.00  0.00    -0.237 OA
ATOM     94  O   UNL A   1      44.496  24.920  37.862  1.00  0.00    -0.237 OA
ATOM     95  O   UNL A   1      44.296  23.441  35.894  1.00  0.00    -0.744 OA
ENDBRANCH  88  92
ENDBRANCH  62  85
ENDBRANCH  36  37
ENDBRANCH  29  31
ENDBRANCH  28  29
ENDBRANCH  27  28
ENDBRANCH   1  27
TORSDOF 20
ENDMDL
MODEL 3
REMARK VINA RESULT:     -10.9      4.898      8.414
REMARK SMILES CC(C)Cc1cc2c(cc1Cl)C=C(C(=O)OCCOCCOC(=O)c1ccc(-c3c4nc(c(-c5cc(S(=O)(=O)[O-])ccc5F)c5ccc([nH]5)c(-c5cc(S(=O)(=O)[O-])ccc5F)c5nc(c(-c6cc(S(=O)(=O)[O-])ccc6F)c6ccc3[nH]6)C=C5)C=C4)cc1)[C@@H](C(F)(F)F)O2
REMARK SMILES IDX 20 1 19 2 18 3 17 4 16 5 14 6 15 7 13 8 5 9 6 10 10 11 7 12
REMARK SMILES IDX 9 13 11 14 8 15 93 16 12 17 88 18 4 19 2 20 1 21 3 22 89 23
REMARK SMILES IDX 90 24 91 25 92 26 21 27 22 28 23 29 24 30 25 31 26 32 87 33
REMARK SMILES IDX 27 34 86 35 28 36 29 37 30 38 80 39 31 40 85 41 79 42 81 43
REMARK SMILES IDX 32 44 84 45 78 46 77 47 33 49 65 50 45 51 64 52 46 53 49 54
REMARK SMILES IDX 63 55 82 56 47 57 48 58 62 60 83 61 50 62 34 63 35 64 43 65
REMARK SMILES IDX 36 66 42 67 44 68 41 69 37 70 38 71 39 72 40 73 66 74 67 75
REMARK SMILES IDX 75 76 68 77 74 78 76 79 73 80 69 81 70 82 71 83 72 84 51 85
REMARK SMILES IDX 52 86 60 87 53 88 59 89 61 90 58 91 54 92 55 93 56 94 57 95
REMARK H PARENT 81 48 49 59
REMARK Flexibility Score: inf
ROOT
ATOM      1  C   UNL A   1      31.628  29.507  25.764  1.00  0.00     0.202 C 
ENDROOT
BRANCH   1   2
ATOM      2  O   UNL A   1      32.800  28.768  25.422  1.00  0.00    -0.374 OA
BRANCH   2   3
ATOM      3  C   UNL A   1      32.980  28.384  24.061  1.00  0.00     0.202 C 
BRANCH   3   4
ATOM      4  C   UNL A   1      31.821  27.656  23.373  1.00  0.00     0.261 C 
BRANCH   4   5
ATOM      5  O   UNL A   1      32.130  26.278  23.114  1.00  0.00    -0.460 OA
BRANCH   5   6
ATOM      6  C   UNL A   1      31.167  25.408  23.499  1.00  0.00     0.338 C 
ATOM      7  O   UNL A   1      29.960  25.557  23.410  1.00  0.00    -0.246 OA
BRANCH   6   8
ATOM      8  C   UNL A   1      31.786  24.136  23.914  1.00  0.00     0.087 C 
ATOM      9  C   UNL A   1      32.514  19.202  24.323  1.00  0.00    -0.025 A 
ATOM     10  C   UNL A   1      32.706  20.300  25.184  1.00  0.00     0.052 A 
ATOM     11  C   UNL A   1      32.278  19.457  22.962  1.00  0.00     0.045 A 
ATOM     12  C   UNL A   1      32.542  21.608  24.724  1.00  0.00     0.128 A 
ATOM     13  C   UNL A   1      32.067  20.762  22.515  1.00  0.00     0.032 A 
ATOM     14  Cl  UNL A   1      32.193  18.197  21.782  1.00  0.00    -0.084 Cl
ATOM     15  C   UNL A   1      32.146  21.831  23.410  1.00  0.00     0.019 A 
ATOM     16  O   UNL A   1      32.736  22.605  25.636  1.00  0.00    -0.475 OA
ATOM     17  C   UNL A   1      31.699  23.150  23.012  1.00  0.00     0.027 C 
ATOM     18  C   UNL A   1      32.429  23.984  25.264  1.00  0.00     0.316 C 
BRANCH   9  19
ATOM     19  C   UNL A   1      32.463  17.810  24.917  1.00  0.00     0.040 C 
BRANCH  19  20
ATOM     20  C   UNL A   1      33.601  16.887  24.411  1.00  0.00    -0.013 C 
ATOM     21  C   UNL A   1      34.986  17.542  24.427  1.00  0.00     0.008 C 
ATOM     22  C   UNL A   1      33.650  15.613  25.258  1.00  0.00     0.008 C 
ENDBRANCH  19  20
ENDBRANCH   9  19
BRANCH  18  23
ATOM     23  C   UNL A   1      31.602  24.583  26.412  1.00  0.00     0.430 C 
ATOM     24  F   UNL A   1      31.947  24.024  27.598  1.00  0.00    -0.167 F 
ATOM     25  F   UNL A   1      31.790  25.914  26.538  1.00  0.00    -0.167 F 
ATOM     26  F   UNL A   1      30.278  24.371  26.233  1.00  0.00    -0.167 F 
ENDBRANCH  18  23
ENDBRANCH   6   8
ENDBRANCH   5   6
ENDBRANCH   4   5
ENDBRANCH   3   4
ENDBRANCH   2   3
ENDBRANCH   1   2
BRANCH   1  27
ATOM     27  C   UNL A   1      31.800  30.883  26.420  1.00  0.00     0.261 C 
BRANCH  27  28
ATOM     28  O   UNL A   1      33.153  31.364  26.360  1.00  0.00    -0.460 OA
BRANCH  28  29
ATOM     29  C   UNL A   1      33.471  32.308  27.283  1.00  0.00     0.338 C 
ATOM     30  O   UNL A   1      32.801  33.274  27.608  1.00  0.00    -0.246 OA
BRANCH  29  31
ATOM     31  C   UNL A   1      34.681  31.874  28.004  1.00  0.00     0.060 A 
ATOM     32  C   UNL A   1      35.768  32.736  28.167  1.00  0.00     0.016 A 
ATOM     33  C   UNL A   1      34.711  30.578  28.534  1.00  0.00     0.016 A 
ATOM     34  C   UNL A   1      36.892  32.292  28.869  1.00  0.00     0.010 A 
ATOM     35  C   UNL A   1      35.838  30.137  29.228  1.00  0.00     0.010 A 
ATOM     36  C   UNL A   1      36.935  30.993  29.405  1.00  0.00    -0.014 A 
BRANCH  36  37
ATOM     37  C   UNL A   1      38.086  30.555  30.232  1.00  0.00     0.031 A 
ATOM     38  C   UNL A   1      39.057  29.531  29.723  1.00  0.00     0.074 A 
ATOM     39  C   UNL A   1      38.228  31.070  31.467  1.00  0.00     0.049 A 
ATOM     40  N   UNL A   1      40.121  29.051  30.310  1.00  0.00    -0.248 NA
ATOM     41  C   UNL A   1      38.801  28.972  28.387  1.00  0.00     0.031 C 
ATOM     42  C   UNL A   1      37.325  32.052  32.066  1.00  0.00     0.029 A 
ATOM     43  N   UNL A   1      39.169  30.843  32.441  1.00  0.00    -0.354 N 
ATOM     44  C   UNL A   1      40.671  28.140  29.416  1.00  0.00     0.074 A 
ATOM     45  C   UNL A   1      39.796  28.103  28.264  1.00  0.00     0.031 C 
ATOM     46  C   UNL A   1      37.763  32.356  33.296  1.00  0.00     0.029 A 
ATOM     47  C   UNL A   1      38.952  31.559  33.595  1.00  0.00     0.049 A 
ATOM     48  H   UNL A   1      39.927  30.225  32.324  1.00  0.00     0.167 HD
ATOM     49  C   UNL A   1      41.813  27.423  29.543  1.00  0.00     0.034 A 
ATOM     50  C   UNL A   1      39.623  31.567  34.766  1.00  0.00     0.034 A 
ATOM     51  C   UNL A   1      42.667  27.474  30.704  1.00  0.00     0.049 A 
ATOM     52  C   UNL A   1      40.862  30.719  34.902  1.00  0.00     0.074 A 
ATOM     53  C   UNL A   1      43.873  26.824  30.902  1.00  0.00     0.029 A 
ATOM     54  N   UNL A   1      42.410  28.195  31.861  1.00  0.00    -0.354 N 
ATOM     55  N   UNL A   1      41.432  29.946  34.006  1.00  0.00    -0.248 NA
ATOM     56  C   UNL A   1      41.558  30.743  36.196  1.00  0.00     0.031 C 
ATOM     57  C   UNL A   1      44.299  27.082  32.203  1.00  0.00     0.029 A 
ATOM     58  C   UNL A   1      43.411  27.969  32.792  1.00  0.00     0.049 A 
ATOM     59  H   UNL A   1      41.631  28.781  32.001  1.00  0.00     0.167 HD
ATOM     60  C   UNL A   1      42.562  29.413  34.619  1.00  0.00     0.074 A 
ATOM     61  C   UNL A   1      42.610  29.970  35.956  1.00  0.00     0.031 C 
ATOM     62  C   UNL A   1      43.470  28.539  34.119  1.00  0.00     0.034 A 
BRANCH  49  63
ATOM     63  C   UNL A   1      42.246  26.528  28.406  1.00  0.00     0.023 A 
ATOM     64  C   UNL A   1      41.811  25.190  28.358  1.00  0.00     0.031 A 
ATOM     65  C   UNL A   1      43.213  26.946  27.476  1.00  0.00     0.131 A 
ATOM     66  C   UNL A   1      42.377  24.307  27.431  1.00  0.00     0.055 A 
ATOM     67  C   UNL A   1      43.739  26.073  26.523  1.00  0.00     0.041 A 
ATOM     68  F   UNL A   1      43.667  28.210  27.485  1.00  0.00    -0.206 F 
ATOM     69  C   UNL A   1      43.333  24.742  26.508  1.00  0.00     0.022 A 
BRANCH  66  70
ATOM     70  S   UNL A   1      41.962  22.540  27.443  1.00  0.00     0.124 S 
ATOM     71  O   UNL A   1      42.829  22.036  28.505  1.00  0.00    -0.237 OA
ATOM     72  O   UNL A   1      40.537  22.564  27.760  1.00  0.00    -0.237 OA
ATOM     73  O   UNL A   1      42.303  22.091  26.098  1.00  0.00    -0.744 OA
ENDBRANCH  66  70
ENDBRANCH  49  63
BRANCH  50  74
ATOM     74  C   UNL A   1      39.145  32.455  35.868  1.00  0.00     0.023 A 
ATOM     75  C   UNL A   1      39.563  33.797  35.945  1.00  0.00     0.031 A 
ATOM     76  C   UNL A   1      38.364  31.946  36.917  1.00  0.00     0.131 A 
ATOM     77  C   UNL A   1      39.264  34.556  37.084  1.00  0.00     0.055 A 
ATOM     78  C   UNL A   1      38.003  32.730  38.014  1.00  0.00     0.041 A 
ATOM     79  F   UNL A   1      37.952  30.669  36.897  1.00  0.00    -0.206 F 
ATOM     80  C   UNL A   1      38.470  34.038  38.111  1.00  0.00     0.022 A 
BRANCH  77  81
ATOM     81  S   UNL A   1      40.017  36.188  37.335  1.00  0.00     0.124 S 
ATOM     82  O   UNL A   1      41.349  35.838  37.819  1.00  0.00    -0.237 OA
ATOM     83  O   UNL A   1      39.962  36.749  35.987  1.00  0.00    -0.237 OA
ATOM     84  O   UNL A   1      39.140  36.827  38.310  1.00  0.00    -0.744 OA
ENDBRANCH  77  81
ENDBRANCH  50  74
BRANCH  62  85
ATOM     85  C   UNL A   1      44.623  28.096  34.991  1.00  0.00     0.023 A 
ATOM     86  C   UNL A   1      44.425  27.085  35.955  1.00  0.00     0.031 A 
ATOM     87  C   UNL A   1      45.837  28.803  35.011  1.00  0.00     0.131 A 
ATOM     88  C   UNL A   1      45.395  26.862  36.939  1.00  0.00     0.055 A 
ATOM     89  C   UNL A   1      46.825  28.535  35.959  1.00  0.00     0.041 A 
ATOM     90  F   UNL A   1      46.071  29.780  34.120  1.00  0.00    -0.206 F 
ATOM     91  C   UNL A   1      46.598  27.576  36.942  1.00  0.00     0.022 A 
BRANCH  88  92
ATOM     92  S   UNL A   1      45.085  25.721  38.317  1.00  0.00     0.124 S 
ATOM     93  O   UNL A   1      46.405  25.629  38.937  1.00  0.00    -0.237 OA
ATOM     94  O   UNL A   1      44.080  26.442  39.092  1.00  0.00    -0.237 OA
ATOM     95  O   UNL A   1      44.621  24.500  37.665  1.00  0.00    -0.744 OA
ENDBRANCH  88  92
ENDBRANCH  62  85
ENDBRANCH  36  37
ENDBRANCH  29  31
ENDBRANCH  28  29
ENDBRANCH  27  28
ENDBRANCH   1  27
TORSDOF 20
ENDMDL
