MODEL 1
REMARK VINA RESULT:     -11.1      0.000      0.000
REMARK SMILES CC[C@@]1(C(=O)OCCOCCOC(=O)c2ccc(-c3c4nc(c(-c5cc(S(=O)(=O)[O-])ccc5F)c5ccc([nH]5)c(-c5cc(S(=O)(=O)[O-])ccc5F)c5nc(c(-c6cc(S(=O)(=O)[O-])ccc6F)c6ccc3[nH]6)C=C5)C=C4)cc2)CCC[N@@H+](Cc2ccc(C3CC3)cc2)C1
REMARK SMILES IDX 9 1 8 2 7 3 6 4 4 5 5 6 3 7 78 8 92 9 79 10 81 11 80 12 2 14
REMARK SMILES IDX 1 15 82 16 83 17 84 18 91 19 85 20 90 21 86 22 87 23 88 24
REMARK SMILES IDX 89 25 10 26 11 27 12 28 13 29 14 30 15 31 16 32 77 33 17 34
REMARK SMILES IDX 76 35 18 36 19 37 20 38 70 39 21 40 75 41 69 42 71 43 22 44
REMARK SMILES IDX 74 45 68 46 67 47 23 49 55 50 35 51 54 52 36 53 39 54 53 55
REMARK SMILES IDX 72 56 37 57 38 58 52 60 73 61 40 62 24 63 25 64 33 65 26 66
REMARK SMILES IDX 32 67 34 68 31 69 27 70 28 71 29 72 30 73 56 74 57 75 65 76
REMARK SMILES IDX 58 77 64 78 66 79 63 80 59 81 60 82 61 83 62 84 41 85 42 86
REMARK SMILES IDX 50 87 43 88 49 89 51 90 48 91 44 92 45 93 46 94 47 95
REMARK H PARENT 81 13 71 48 39 59
REMARK Flexibility Score: inf
ROOT
ATOM      1  O   UNL A   1      36.221  22.947  24.810  1.00  0.00    -0.374 OA
ENDROOT
BRANCH   1   2
ATOM      2  C   UNL A   1      35.718  23.325  26.094  1.00  0.00     0.202 C 
BRANCH   2   3
ATOM      3  C   UNL A   1      34.409  24.114  26.094  1.00  0.00     0.261 C 
BRANCH   3   4
ATOM      4  O   UNL A   1      34.383  25.016  24.976  1.00  0.00    -0.463 OA
BRANCH   4   5
ATOM      5  C   UNL A   1      33.690  26.167  25.137  1.00  0.00     0.317 C 
ATOM      6  O   UNL A   1      33.941  26.981  26.022  1.00  0.00    -0.251 OA
BRANCH   5   7
ATOM      7  C   UNL A   1      32.488  26.308  24.177  1.00  0.00     0.117 C 
ATOM      8  C   UNL A   1      31.242  26.439  25.087  1.00  0.00     0.030 C 
ATOM      9  C   UNL A   1      32.215  25.111  23.221  1.00  0.00     0.281 C 
ATOM     10  C   UNL A   1      30.872  25.101  25.745  1.00  0.00     0.063 C 
ATOM     11  N   UNL A   1      31.882  23.845  23.867  1.00  0.00    -0.330 N 
ATOM     12  C   UNL A   1      30.706  23.966  24.727  1.00  0.00     0.262 C 
ATOM     13  H   UNL A   1      32.664  23.626  24.484  1.00  0.00     0.348 HD
BRANCH   7  14
ATOM     14  C   UNL A   1      32.633  27.564  23.236  1.00  0.00     0.021 C 
ATOM     15  C   UNL A   1      33.978  27.876  22.593  1.00  0.00     0.005 C 
ENDBRANCH   7  14
BRANCH  11  16
ATOM     16  C   UNL A   1      31.837  22.695  22.944  1.00  0.00     0.299 C 
BRANCH  16  17
ATOM     17  C   UNL A   1      32.197  21.342  23.522  1.00  0.00     0.006 A 
ATOM     18  C   UNL A   1      32.133  20.194  22.729  1.00  0.00     0.010 A 
ATOM     19  C   UNL A   1      32.619  21.205  24.849  1.00  0.00     0.010 A 
ATOM     20  C   UNL A   1      32.559  18.958  23.231  1.00  0.00     0.004 A 
ATOM     21  C   UNL A   1      33.061  19.970  25.336  1.00  0.00     0.004 A 
ATOM     22  C   UNL A   1      33.075  18.819  24.531  1.00  0.00    -0.045 A 
BRANCH  22  23
ATOM     23  C   UNL A   1      33.634  17.483  24.983  1.00  0.00     0.019 C 
ATOM     24  C   UNL A   1      32.724  16.379  25.469  1.00  0.00     0.009 C 
ATOM     25  C   UNL A   1      33.448  16.232  24.161  1.00  0.00     0.009 C 
ENDBRANCH  22  23
ENDBRANCH  16  17
ENDBRANCH  11  16
ENDBRANCH   5   7
ENDBRANCH   4   5
ENDBRANCH   3   4
ENDBRANCH   2   3
ENDBRANCH   1   2
BRANCH   1  26
ATOM     26  C   UNL A   1      36.295  21.545  24.548  1.00  0.00     0.202 C 
BRANCH  26  27
ATOM     27  C   UNL A   1      37.338  20.746  25.340  1.00  0.00     0.261 C 
BRANCH  27  28
ATOM     28  O   UNL A   1      38.677  21.234  25.131  1.00  0.00    -0.460 OA
BRANCH  28  29
ATOM     29  C   UNL A   1      39.530  21.011  26.158  1.00  0.00     0.338 C 
ATOM     30  O   UNL A   1      40.046  19.943  26.460  1.00  0.00    -0.246 OA
BRANCH  29  31
ATOM     31  C   UNL A   1      39.944  22.292  26.765  1.00  0.00     0.060 A 
ATOM     32  C   UNL A   1      39.263  23.444  26.350  1.00  0.00     0.016 A 
ATOM     33  C   UNL A   1      41.003  22.386  27.672  1.00  0.00     0.016 A 
ATOM     34  C   UNL A   1      39.670  24.698  26.796  1.00  0.00     0.010 A 
ATOM     35  C   UNL A   1      41.417  23.651  28.113  1.00  0.00     0.010 A 
ATOM     36  C   UNL A   1      40.775  24.815  27.648  1.00  0.00    -0.014 A 
BRANCH  36  37
ATOM     37  C   UNL A   1      41.335  26.164  27.917  1.00  0.00     0.031 A 
ATOM     38  C   UNL A   1      42.704  26.505  27.394  1.00  0.00     0.074 A 
ATOM     39  C   UNL A   1      40.611  27.094  28.568  1.00  0.00     0.049 A 
ATOM     40  N   UNL A   1      43.387  27.616  27.508  1.00  0.00    -0.248 NA
ATOM     41  C   UNL A   1      43.397  25.447  26.643  1.00  0.00     0.031 C 
ATOM     42  C   UNL A   1      39.256  26.898  29.081  1.00  0.00     0.029 A 
ATOM     43  N   UNL A   1      40.915  28.389  28.906  1.00  0.00    -0.354 N 
ATOM     44  C   UNL A   1      44.592  27.389  26.850  1.00  0.00     0.074 A 
ATOM     45  C   UNL A   1      44.559  26.023  26.375  1.00  0.00     0.031 C 
ATOM     46  C   UNL A   1      38.848  28.031  29.678  1.00  0.00     0.029 A 
ATOM     47  C   UNL A   1      39.925  29.019  29.624  1.00  0.00     0.049 A 
ATOM     48  H   UNL A   1      41.761  28.827  28.658  1.00  0.00     0.167 HD
ATOM     49  C   UNL A   1      45.626  28.247  26.656  1.00  0.00     0.034 A 
ATOM     50  C   UNL A   1      39.900  30.239  30.197  1.00  0.00     0.034 A 
ATOM     51  C   UNL A   1      45.644  29.606  27.142  1.00  0.00     0.049 A 
ATOM     52  C   UNL A   1      41.095  31.148  30.040  1.00  0.00     0.074 A 
ATOM     53  C   UNL A   1      46.622  30.569  26.969  1.00  0.00     0.029 A 
ATOM     54  N   UNL A   1      44.648  30.190  27.916  1.00  0.00    -0.354 N 
ATOM     55  N   UNL A   1      42.219  30.933  29.396  1.00  0.00    -0.248 NA
ATOM     56  C   UNL A   1      41.013  32.467  30.680  1.00  0.00     0.031 C 
ATOM     57  C   UNL A   1      46.260  31.701  27.708  1.00  0.00     0.029 A 
ATOM     58  C   UNL A   1      45.012  31.482  28.269  1.00  0.00     0.049 A 
ATOM     59  H   UNL A   1      43.806  29.751  28.175  1.00  0.00     0.167 HD
ATOM     60  C   UNL A   1      42.968  32.098  29.535  1.00  0.00     0.074 A 
ATOM     61  C   UNL A   1      42.159  33.019  30.308  1.00  0.00     0.031 C 
ATOM     62  C   UNL A   1      44.210  32.385  29.064  1.00  0.00     0.034 A 
BRANCH  49  63
ATOM     63  C   UNL A   1      46.847  27.713  25.941  1.00  0.00     0.023 A 
ATOM     64  C   UNL A   1      47.128  28.032  24.601  1.00  0.00     0.031 A 
ATOM     65  C   UNL A   1      47.729  26.842  26.606  1.00  0.00     0.131 A 
ATOM     66  C   UNL A   1      48.213  27.427  23.948  1.00  0.00     0.055 A 
ATOM     67  C   UNL A   1      48.855  26.309  25.977  1.00  0.00     0.041 A 
ATOM     68  F   UNL A   1      47.501  26.480  27.879  1.00  0.00    -0.206 F 
ATOM     69  C   UNL A   1      49.094  26.587  24.635  1.00  0.00     0.022 A 
BRANCH  66  70
ATOM     70  S   UNL A   1      48.369  27.625  22.152  1.00  0.00     0.124 S 
ATOM     71  O   UNL A   1      47.075  28.210  21.806  1.00  0.00    -0.237 OA
ATOM     72  O   UNL A   1      49.522  28.509  22.032  1.00  0.00    -0.237 OA
ATOM     73  O   UNL A   1      48.574  26.260  21.672  1.00  0.00    -0.744 OA
ENDBRANCH  66  70
ENDBRANCH  49  63
BRANCH  50  74
ATOM     74  C   UNL A   1      38.728  30.655  31.022  1.00  0.00     0.023 A 
ATOM     75  C   UNL A   1      37.605  31.270  30.448  1.00  0.00     0.031 A 
ATOM     76  C   UNL A   1      38.737  30.471  32.418  1.00  0.00     0.131 A 
ATOM     77  C   UNL A   1      36.554  31.712  31.269  1.00  0.00     0.055 A 
ATOM     78  C   UNL A   1      37.667  30.862  33.223  1.00  0.00     0.041 A 
ATOM     79  F   UNL A   1      39.789  29.892  33.019  1.00  0.00    -0.206 F 
ATOM     80  C   UNL A   1      36.570  31.497  32.650  1.00  0.00     0.022 A 
BRANCH  77  81
ATOM     81  S   UNL A   1      35.191  32.642  30.516  1.00  0.00     0.124 S 
ATOM     82  O   UNL A   1      34.232  32.705  31.613  1.00  0.00    -0.237 OA
ATOM     83  O   UNL A   1      35.842  33.898  30.158  1.00  0.00    -0.237 OA
ATOM     84  O   UNL A   1      34.793  31.806  29.385  1.00  0.00    -0.744 OA
ENDBRANCH  77  81
ENDBRANCH  50  74
BRANCH  62  85
ATOM     85  C   UNL A   1      44.755  33.765  29.349  1.00  0.00     0.023 A 
ATOM     86  C   UNL A   1      44.409  34.877  28.561  1.00  0.00     0.031 A 
ATOM     87  C   UNL A   1      45.642  33.969  30.422  1.00  0.00     0.131 A 
ATOM     88  C   UNL A   1      44.990  36.128  28.822  1.00  0.00     0.055 A 
ATOM     89  C   UNL A   1      46.165  35.229  30.717  1.00  0.00     0.041 A 
ATOM     90  F   UNL A   1      46.013  32.945  31.207  1.00  0.00    -0.206 F 
ATOM     91  C   UNL A   1      45.850  36.315  29.905  1.00  0.00     0.022 A 
BRANCH  88  92
ATOM     92  S   UNL A   1      44.685  37.489  27.661  1.00  0.00     0.124 S 
ATOM     93  O   UNL A   1      43.508  37.014  26.940  1.00  0.00    -0.237 OA
ATOM     94  O   UNL A   1      44.473  38.622  28.555  1.00  0.00    -0.237 OA
ATOM     95  O   UNL A   1      45.914  37.546  26.870  1.00  0.00    -0.744 OA
ENDBRANCH  88  92
ENDBRANCH  62  85
ENDBRANCH  36  37
ENDBRANCH  29  31
ENDBRANCH  28  29
ENDBRANCH  27  28
ENDBRANCH  26  27
ENDBRANCH   1  26
TORSDOF 21
ENDMDL
MODEL 2
REMARK VINA RESULT:     -11.0      4.917      8.048
REMARK SMILES CC[C@@]1(C(=O)OCCOCCOC(=O)c2ccc(-c3c4nc(c(-c5cc(S(=O)(=O)[O-])ccc5F)c5ccc([nH]5)c(-c5cc(S(=O)(=O)[O-])ccc5F)c5nc(c(-c6cc(S(=O)(=O)[O-])ccc6F)c6ccc3[nH]6)C=C5)C=C4)cc2)CCC[N@@H+](Cc2ccc(C3CC3)cc2)C1
REMARK SMILES IDX 9 1 8 2 7 3 6 4 4 5 5 6 3 7 78 8 92 9 79 10 81 11 80 12 2 14
REMARK SMILES IDX 1 15 82 16 83 17 84 18 91 19 85 20 90 21 86 22 87 23 88 24
REMARK SMILES IDX 89 25 10 26 11 27 12 28 13 29 14 30 15 31 16 32 77 33 17 34
REMARK SMILES IDX 76 35 18 36 19 37 20 38 70 39 21 40 75 41 69 42 71 43 22 44
REMARK SMILES IDX 74 45 68 46 67 47 23 49 55 50 35 51 54 52 36 53 39 54 53 55
REMARK SMILES IDX 72 56 37 57 38 58 52 60 73 61 40 62 24 63 25 64 33 65 26 66
REMARK SMILES IDX 32 67 34 68 31 69 27 70 28 71 29 72 30 73 56 74 57 75 65 76
REMARK SMILES IDX 58 77 64 78 66 79 63 80 59 81 60 82 61 83 62 84 41 85 42 86
REMARK SMILES IDX 50 87 43 88 49 89 51 90 48 91 44 92 45 93 46 94 47 95
REMARK H PARENT 81 13 71 48 39 59
REMARK Flexibility Score: inf
ROOT
ATOM      1  O   UNL A   1      31.928  27.961  26.302  1.00  0.00    -0.374 OA
ENDROOT
BRANCH   1   2
ATOM      2  C   UNL A   1      33.248  27.443  26.488  1.00  0.00     0.202 C 
BRANCH   2   3
ATOM      3  C   UNL A   1      33.673  26.333  25.527  1.00  0.00     0.261 C 
BRANCH   3   4
ATOM      4  O   UNL A   1      33.474  25.051  26.143  1.00  0.00    -0.463 OA
BRANCH   4   5
ATOM      5  C   UNL A   1      34.298  24.052  25.750  1.00  0.00     0.317 C 
ATOM      6  O   UNL A   1      35.521  24.129  25.815  1.00  0.00    -0.251 OA
BRANCH   5   7
ATOM      7  C   UNL A   1      33.561  22.852  25.113  1.00  0.00     0.117 C 
ATOM      8  C   UNL A   1      34.364  22.501  23.837  1.00  0.00     0.030 C 
ATOM      9  C   UNL A   1      32.093  23.098  24.659  1.00  0.00     0.281 C 
ATOM     10  C   UNL A   1      34.151  23.537  22.723  1.00  0.00     0.063 C 
ATOM     11  N   UNL A   1      31.910  24.098  23.612  1.00  0.00    -0.330 N 
ATOM     12  C   UNL A   1      32.668  23.769  22.406  1.00  0.00     0.262 C 
ATOM     13  H   UNL A   1      32.312  24.964  23.972  1.00  0.00     0.348 HD
BRANCH   7  14
ATOM     14  C   UNL A   1      33.490  21.619  26.092  1.00  0.00     0.021 C 
ATOM     15  C   UNL A   1      34.067  20.277  25.660  1.00  0.00     0.005 C 
ENDBRANCH   7  14
BRANCH  11  16
ATOM     16  C   UNL A   1      30.500  24.450  23.359  1.00  0.00     0.299 C 
BRANCH  16  17
ATOM     17  C   UNL A   1      30.173  25.926  23.261  1.00  0.00     0.006 A 
ATOM     18  C   UNL A   1      31.012  26.792  22.557  1.00  0.00     0.010 A 
ATOM     19  C   UNL A   1      29.021  26.459  23.851  1.00  0.00     0.010 A 
ATOM     20  C   UNL A   1      30.663  28.136  22.380  1.00  0.00     0.004 A 
ATOM     21  C   UNL A   1      28.669  27.799  23.653  1.00  0.00     0.004 A 
ATOM     22  C   UNL A   1      29.463  28.666  22.885  1.00  0.00    -0.045 A 
BRANCH  22  23
ATOM     23  C   UNL A   1      29.075  30.097  22.562  1.00  0.00     0.019 C 
ATOM     24  C   UNL A   1      28.180  30.417  21.387  1.00  0.00     0.009 C 
ATOM     25  C   UNL A   1      27.672  30.604  22.788  1.00  0.00     0.009 C 
ENDBRANCH  22  23
ENDBRANCH  16  17
ENDBRANCH  11  16
ENDBRANCH   5   7
ENDBRANCH   4   5
ENDBRANCH   3   4
ENDBRANCH   2   3
ENDBRANCH   1   2
BRANCH   1  26
ATOM     26  C   UNL A   1      31.830  29.204  25.606  1.00  0.00     0.202 C 
BRANCH  26  27
ATOM     27  C   UNL A   1      32.886  30.267  25.933  1.00  0.00     0.261 C 
BRANCH  27  28
ATOM     28  O   UNL A   1      32.722  30.814  27.257  1.00  0.00    -0.460 OA
BRANCH  28  29
ATOM     29  C   UNL A   1      33.501  31.887  27.528  1.00  0.00     0.338 C 
ATOM     30  O   UNL A   1      33.140  33.055  27.588  1.00  0.00    -0.246 OA
BRANCH  29  31
ATOM     31  C   UNL A   1      34.841  31.447  27.967  1.00  0.00     0.060 A 
ATOM     32  C   UNL A   1      34.958  30.131  28.433  1.00  0.00     0.016 A 
ATOM     33  C   UNL A   1      35.945  32.302  27.982  1.00  0.00     0.016 A 
ATOM     34  C   UNL A   1      36.164  29.680  28.964  1.00  0.00     0.010 A 
ATOM     35  C   UNL A   1      37.156  31.849  28.526  1.00  0.00     0.010 A 
ATOM     36  C   UNL A   1      37.259  30.547  29.052  1.00  0.00    -0.014 A 
BRANCH  36  37
ATOM     37  C   UNL A   1      38.450  30.125  29.834  1.00  0.00     0.031 A 
ATOM     38  C   UNL A   1      39.392  29.111  29.241  1.00  0.00     0.074 A 
ATOM     39  C   UNL A   1      38.722  30.679  31.030  1.00  0.00     0.049 A 
ATOM     40  N   UNL A   1      40.487  28.600  29.741  1.00  0.00    -0.248 NA
ATOM     41  C   UNL A   1      39.046  28.605  27.904  1.00  0.00     0.031 C 
ATOM     42  C   UNL A   1      37.911  31.704  31.686  1.00  0.00     0.029 A 
ATOM     43  N   UNL A   1      39.757  30.459  31.903  1.00  0.00    -0.354 N 
ATOM     44  C   UNL A   1      40.960  27.706  28.785  1.00  0.00     0.074 A 
ATOM     45  C   UNL A   1      40.008  27.719  27.694  1.00  0.00     0.031 C 
ATOM     46  C   UNL A   1      38.475  32.018  32.864  1.00  0.00     0.029 A 
ATOM     47  C   UNL A   1      39.664  31.190  33.065  1.00  0.00     0.049 A 
ATOM     48  H   UNL A   1      40.497  29.837  31.717  1.00  0.00     0.167 HD
ATOM     49  C   UNL A   1      42.087  26.951  28.813  1.00  0.00     0.034 A 
ATOM     50  C   UNL A   1      40.431  31.173  34.174  1.00  0.00     0.034 A 
ATOM     51  C   UNL A   1      43.022  26.948  29.913  1.00  0.00     0.049 A 
ATOM     52  C   UNL A   1      41.635  30.264  34.219  1.00  0.00     0.074 A 
ATOM     53  C   UNL A   1      44.213  26.251  30.028  1.00  0.00     0.029 A 
ATOM     54  N   UNL A   1      42.865  27.657  31.097  1.00  0.00    -0.354 N 
ATOM     55  N   UNL A   1      42.086  29.442  33.300  1.00  0.00    -0.248 NA
ATOM     56  C   UNL A   1      42.438  30.288  35.449  1.00  0.00     0.031 C 
ATOM     57  C   UNL A   1      44.727  26.469  31.311  1.00  0.00     0.029 A 
ATOM     58  C   UNL A   1      43.909  27.375  31.967  1.00  0.00     0.049 A 
ATOM     59  H   UNL A   1      42.120  28.271  31.292  1.00  0.00     0.167 HD
ATOM     60  C   UNL A   1      43.238  28.868  33.833  1.00  0.00     0.074 A 
ATOM     61  C   UNL A   1      43.421  29.453  35.145  1.00  0.00     0.031 C 
ATOM     62  C   UNL A   1      44.071  27.944  33.286  1.00  0.00     0.034 A 
BRANCH  49  63
ATOM     63  C   UNL A   1      42.331  26.021  27.646  1.00  0.00     0.023 A 
ATOM     64  C   UNL A   1      41.835  24.706  27.623  1.00  0.00     0.031 A 
ATOM     65  C   UNL A   1      43.103  26.452  26.552  1.00  0.00     0.131 A 
ATOM     66  C   UNL A   1      42.179  23.846  26.567  1.00  0.00     0.055 A 
ATOM     67  C   UNL A   1      43.371  25.618  25.465  1.00  0.00     0.041 A 
ATOM     68  F   UNL A   1      43.625  27.688  26.528  1.00  0.00    -0.206 F 
ATOM     69  C   UNL A   1      42.922  24.301  25.476  1.00  0.00     0.022 A 
BRANCH  66  70
ATOM     70  S   UNL A   1      41.777  22.083  26.716  1.00  0.00     0.124 S 
ATOM     71  O   UNL A   1      40.317  22.115  26.757  1.00  0.00    -0.237 OA
ATOM     72  O   UNL A   1      42.370  21.523  25.507  1.00  0.00    -0.237 OA
ATOM     73  O   UNL A   1      42.419  21.689  27.968  1.00  0.00    -0.744 OA
ENDBRANCH  66  70
ENDBRANCH  49  63
BRANCH  50  74
ATOM     74  C   UNL A   1      40.054  32.001  35.357  1.00  0.00     0.023 A 
ATOM     75  C   UNL A   1      39.137  31.542  36.315  1.00  0.00     0.031 A 
ATOM     76  C   UNL A   1      40.588  33.294  35.522  1.00  0.00     0.131 A 
ATOM     77  C   UNL A   1      38.755  32.380  37.375  1.00  0.00     0.055 A 
ATOM     78  C   UNL A   1      40.246  34.101  36.606  1.00  0.00     0.041 A 
ATOM     79  F   UNL A   1      41.465  33.784  34.632  1.00  0.00    -0.206 F 
ATOM     80  C   UNL A   1      39.315  33.650  37.536  1.00  0.00     0.022 A 
BRANCH  77  81
ATOM     81  S   UNL A   1      37.454  31.817  38.507  1.00  0.00     0.124 S 
ATOM     82  O   UNL A   1      37.213  30.460  38.030  1.00  0.00    -0.237 OA
ATOM     83  O   UNL A   1      38.109  31.934  39.805  1.00  0.00    -0.237 OA
ATOM     84  O   UNL A   1      36.366  32.765  38.273  1.00  0.00    -0.744 OA
ENDBRANCH  77  81
ENDBRANCH  50  74
BRANCH  62  85
ATOM     85  C   UNL A   1      45.275  27.533  34.101  1.00  0.00     0.023 A 
ATOM     86  C   UNL A   1      45.229  26.452  34.999  1.00  0.00     0.031 A 
ATOM     87  C   UNL A   1      46.487  28.239  33.982  1.00  0.00     0.131 A 
ATOM     88  C   UNL A   1      46.353  26.146  35.784  1.00  0.00     0.055 A 
ATOM     89  C   UNL A   1      47.620  27.887  34.716  1.00  0.00     0.041 A 
ATOM     90  F   UNL A   1      46.590  29.283  33.144  1.00  0.00    -0.206 F 
ATOM     91  C   UNL A   1      47.552  26.844  35.634  1.00  0.00     0.022 A 
BRANCH  88  92
ATOM     92  S   UNL A   1      46.193  24.885  37.079  1.00  0.00     0.124 S 
ATOM     93  O   UNL A   1      47.266  23.958  36.734  1.00  0.00    -0.237 OA
ATOM     94  O   UNL A   1      46.388  25.662  38.299  1.00  0.00    -0.237 OA
ATOM     95  O   UNL A   1      44.839  24.366  36.886  1.00  0.00    -0.744 OA
ENDBRANCH  88  92
ENDBRANCH  62  85
ENDBRANCH  36  37
ENDBRANCH  29  31
ENDBRANCH  28  29
ENDBRANCH  27  28
ENDBRANCH  26  27
ENDBRANCH   1  26
TORSDOF 21
ENDMDL
MODEL 3
REMARK VINA RESULT:     -10.9      5.203      8.023
REMARK SMILES CC[C@@]1(C(=O)OCCOCCOC(=O)c2ccc(-c3c4nc(c(-c5cc(S(=O)(=O)[O-])ccc5F)c5ccc([nH]5)c(-c5cc(S(=O)(=O)[O-])ccc5F)c5nc(c(-c6cc(S(=O)(=O)[O-])ccc6F)c6ccc3[nH]6)C=C5)C=C4)cc2)CCC[N@@H+](Cc2ccc(C3CC3)cc2)C1
REMARK SMILES IDX 9 1 8 2 7 3 6 4 4 5 5 6 3 7 78 8 92 9 79 10 81 11 80 12 2 14
REMARK SMILES IDX 1 15 82 16 83 17 84 18 91 19 85 20 90 21 86 22 87 23 88 24
REMARK SMILES IDX 89 25 10 26 11 27 12 28 13 29 14 30 15 31 16 32 77 33 17 34
REMARK SMILES IDX 76 35 18 36 19 37 20 38 70 39 21 40 75 41 69 42 71 43 22 44
REMARK SMILES IDX 74 45 68 46 67 47 23 49 55 50 35 51 54 52 36 53 39 54 53 55
REMARK SMILES IDX 72 56 37 57 38 58 52 60 73 61 40 62 24 63 25 64 33 65 26 66
REMARK SMILES IDX 32 67 34 68 31 69 27 70 28 71 29 72 30 73 56 74 57 75 65 76
REMARK SMILES IDX 58 77 64 78 66 79 63 80 59 81 60 82 61 83 62 84 41 85 42 86
REMARK SMILES IDX 50 87 43 88 49 89 51 90 48 91 44 92 45 93 46 94 47 95
REMARK H PARENT 81 13 71 48 39 59
REMARK Flexibility Score: inf
ROOT
ATOM      1  O   UNL A   1      33.409  31.111  27.288  1.00  0.00    -0.374 OA
ENDROOT
BRANCH   1   2
ATOM      2  C   UNL A   1      33.653  29.779  26.831  1.00  0.00     0.202 C 
BRANCH   2   3
ATOM      3  C   UNL A   1      32.683  28.711  27.335  1.00  0.00     0.261 C 
BRANCH   3   4
ATOM      4  O   UNL A   1      31.854  28.254  26.254  1.00  0.00    -0.463 OA
BRANCH   4   5
ATOM      5  C   UNL A   1      32.212  27.093  25.659  1.00  0.00     0.317 C 
ATOM      6  O   UNL A   1      33.292  26.545  25.859  1.00  0.00    -0.251 OA
BRANCH   5   7
ATOM      7  C   UNL A   1      31.184  26.580  24.627  1.00  0.00     0.117 C 
ATOM      8  C   UNL A   1      30.078  25.879  25.454  1.00  0.00     0.030 C 
ATOM      9  C   UNL A   1      31.695  25.533  23.595  1.00  0.00     0.281 C 
ATOM     10  C   UNL A   1      30.552  24.531  26.017  1.00  0.00     0.063 C 
ATOM     11  N   UNL A   1      32.157  24.265  24.151  1.00  0.00    -0.330 N 
ATOM     12  C   UNL A   1      31.115  23.602  24.933  1.00  0.00     0.262 C 
ATOM     13  H   UNL A   1      32.901  24.497  24.808  1.00  0.00     0.348 HD
BRANCH   7  14
ATOM     14  C   UNL A   1      30.583  27.753  23.763  1.00  0.00     0.021 C 
ATOM     15  C   UNL A   1      29.125  27.699  23.324  1.00  0.00     0.005 C 
ENDBRANCH   7  14
BRANCH  11  16
ATOM     16  C   UNL A   1      32.823  23.388  23.170  1.00  0.00     0.299 C 
BRANCH  16  17
ATOM     17  C   UNL A   1      32.881  21.912  23.503  1.00  0.00     0.006 A 
ATOM     18  C   UNL A   1      32.048  21.004  22.844  1.00  0.00     0.010 A 
ATOM     19  C   UNL A   1      33.773  21.414  24.459  1.00  0.00     0.010 A 
ATOM     20  C   UNL A   1      32.167  19.629  23.078  1.00  0.00     0.004 A 
ATOM     21  C   UNL A   1      33.900  20.037  24.672  1.00  0.00     0.004 A 
ATOM     22  C   UNL A   1      33.124  19.104  23.964  1.00  0.00    -0.045 A 
BRANCH  22  23
ATOM     23  C   UNL A   1      33.293  17.601  24.090  1.00  0.00     0.019 C 
ATOM     24  C   UNL A   1      34.207  16.838  23.160  1.00  0.00     0.009 C 
ATOM     25  C   UNL A   1      34.571  16.992  24.609  1.00  0.00     0.009 C 
ENDBRANCH  22  23
ENDBRANCH  16  17
ENDBRANCH  11  16
ENDBRANCH   5   7
ENDBRANCH   4   5
ENDBRANCH   3   4
ENDBRANCH   2   3
ENDBRANCH   1   2
BRANCH   1  26
ATOM     26  C   UNL A   1      32.179  31.706  26.873  1.00  0.00     0.202 C 
BRANCH  26  27
ATOM     27  C   UNL A   1      31.861  33.101  27.425  1.00  0.00     0.261 C 
BRANCH  27  28
ATOM     28  O   UNL A   1      33.018  33.959  27.447  1.00  0.00    -0.460 OA
BRANCH  28  29
ATOM     29  C   UNL A   1      33.384  34.387  28.678  1.00  0.00     0.338 C 
ATOM     30  O   UNL A   1      32.745  35.131  29.411  1.00  0.00    -0.246 OA
BRANCH  29  31
ATOM     31  C   UNL A   1      34.585  33.661  29.136  1.00  0.00     0.060 A 
ATOM     32  C   UNL A   1      34.383  32.587  30.014  1.00  0.00     0.016 A 
ATOM     33  C   UNL A   1      35.878  34.041  28.771  1.00  0.00     0.016 A 
ATOM     34  C   UNL A   1      35.473  31.925  30.573  1.00  0.00     0.010 A 
ATOM     35  C   UNL A   1      36.974  33.378  29.342  1.00  0.00     0.010 A 
ATOM     36  C   UNL A   1      36.776  32.341  30.274  1.00  0.00    -0.014 A 
BRANCH  36  37
ATOM     37  C   UNL A   1      37.907  31.783  31.059  1.00  0.00     0.031 A 
ATOM     38  C   UNL A   1      38.740  30.682  30.459  1.00  0.00     0.074 A 
ATOM     39  C   UNL A   1      38.225  32.289  32.265  1.00  0.00     0.049 A 
ATOM     40  N   UNL A   1      39.771  30.051  30.961  1.00  0.00    -0.248 NA
ATOM     41  C   UNL A   1      38.355  30.234  29.112  1.00  0.00     0.031 C 
ATOM     42  C   UNL A   1      37.522  33.386  32.929  1.00  0.00     0.029 A 
ATOM     43  N   UNL A   1      39.223  31.948  33.143  1.00  0.00    -0.354 N 
ATOM     44  C   UNL A   1      40.154  29.124  29.995  1.00  0.00     0.074 A 
ATOM     45  C   UNL A   1      39.219  29.253  28.897  1.00  0.00     0.031 C 
ATOM     46  C   UNL A   1      38.106  33.621  34.116  1.00  0.00     0.029 A 
ATOM     47  C   UNL A   1      39.197  32.669  34.314  1.00  0.00     0.049 A 
ATOM     48  H   UNL A   1      39.894  31.252  32.954  1.00  0.00     0.167 HD
ATOM     49  C   UNL A   1      41.193  28.252  30.022  1.00  0.00     0.034 A 
ATOM     50  C   UNL A   1      39.948  32.555  35.429  1.00  0.00     0.034 A 
ATOM     51  C   UNL A   1      42.113  28.134  31.129  1.00  0.00     0.049 A 
ATOM     52  C   UNL A   1      41.048  31.522  35.471  1.00  0.00     0.074 A 
ATOM     53  C   UNL A   1      43.220  27.312  31.243  1.00  0.00     0.029 A 
ATOM     54  N   UNL A   1      42.021  28.840  32.322  1.00  0.00    -0.354 N 
ATOM     55  N   UNL A   1      41.416  30.668  34.543  1.00  0.00    -0.248 NA
ATOM     56  C   UNL A   1      41.837  31.443  36.707  1.00  0.00     0.031 C 
ATOM     57  C   UNL A   1      43.743  27.457  32.533  1.00  0.00     0.029 A 
ATOM     58  C   UNL A   1      43.021  28.436  33.195  1.00  0.00     0.049 A 
ATOM     59  H   UNL A   1      41.344  29.527  32.519  1.00  0.00     0.167 HD
ATOM     60  C   UNL A   1      42.495  29.967  35.077  1.00  0.00     0.074 A 
ATOM     61  C   UNL A   1      42.728  30.512  36.399  1.00  0.00     0.031 C 
ATOM     62  C   UNL A   1      43.230  28.967  34.524  1.00  0.00     0.034 A 
BRANCH  49  63
ATOM     63  C   UNL A   1      41.348  27.317  28.844  1.00  0.00     0.023 A 
ATOM     64  C   UNL A   1      42.352  27.493  27.876  1.00  0.00     0.031 A 
ATOM     65  C   UNL A   1      40.450  26.248  28.671  1.00  0.00     0.131 A 
ATOM     66  C   UNL A   1      42.388  26.664  26.744  1.00  0.00     0.055 A 
ATOM     67  C   UNL A   1      40.542  25.375  27.585  1.00  0.00     0.041 A 
ATOM     68  F   UNL A   1      39.453  26.043  29.547  1.00  0.00    -0.206 F 
ATOM     69  C   UNL A   1      41.505  25.590  26.605  1.00  0.00     0.022 A 
BRANCH  66  70
ATOM     70  S   UNL A   1      43.499  27.102  25.379  1.00  0.00     0.124 S 
ATOM     71  O   UNL A   1      43.909  25.785  24.896  1.00  0.00    -0.237 OA
ATOM     72  O   UNL A   1      42.625  27.863  24.494  1.00  0.00    -0.237 OA
ATOM     73  O   UNL A   1      44.555  27.875  26.030  1.00  0.00    -0.744 OA
ENDBRANCH  66  70
ENDBRANCH  49  63
BRANCH  50  74
ATOM     74  C   UNL A   1      39.651  33.402  36.621  1.00  0.00     0.023 A 
ATOM     75  C   UNL A   1      38.975  32.889  37.739  1.00  0.00     0.031 A 
ATOM     76  C   UNL A   1      40.012  34.763  36.636  1.00  0.00     0.131 A 
ATOM     77  C   UNL A   1      38.651  33.738  38.810  1.00  0.00     0.055 A 
ATOM     78  C   UNL A   1      39.736  35.589  37.726  1.00  0.00     0.041 A 
ATOM     79  F   UNL A   1      40.656  35.306  35.591  1.00  0.00    -0.206 F 
ATOM     80  C   UNL A   1      39.041  35.080  38.818  1.00  0.00     0.022 A 
BRANCH  77  81
ATOM     81  S   UNL A   1      37.642  33.083  40.168  1.00  0.00     0.124 S 
ATOM     82  O   UNL A   1      36.366  32.847  39.503  1.00  0.00    -0.237 OA
ATOM     83  O   UNL A   1      38.394  31.893  40.556  1.00  0.00    -0.237 OA
ATOM     84  O   UNL A   1      37.646  34.166  41.148  1.00  0.00    -0.744 OA
ENDBRANCH  77  81
ENDBRANCH  50  74
BRANCH  62  85
ATOM     85  C   UNL A   1      44.376  28.419  35.342  1.00  0.00     0.023 A 
ATOM     86  C   UNL A   1      44.186  27.402  36.296  1.00  0.00     0.031 A 
ATOM     87  C   UNL A   1      45.677  28.926  35.170  1.00  0.00     0.131 A 
ATOM     88  C   UNL A   1      45.268  26.968  37.080  1.00  0.00     0.055 A 
ATOM     89  C   UNL A   1      46.760  28.443  35.906  1.00  0.00     0.041 A 
ATOM     90  F   UNL A   1      45.918  29.900  34.279  1.00  0.00    -0.206 F 
ATOM     91  C   UNL A   1      46.555  27.468  36.878  1.00  0.00     0.022 A 
BRANCH  88  92
ATOM     92  S   UNL A   1      44.947  25.811  38.440  1.00  0.00     0.124 S 
ATOM     93  O   UNL A   1      46.215  25.833  39.162  1.00  0.00    -0.237 OA
ATOM     94  O   UNL A   1      43.815  26.432  39.120  1.00  0.00    -0.237 OA
ATOM     95  O   UNL A   1      44.645  24.554  37.756  1.00  0.00    -0.744 OA
ENDBRANCH  88  92
ENDBRANCH  62  85
ENDBRANCH  36  37
ENDBRANCH  29  31
ENDBRANCH  28  29
ENDBRANCH  27  28
ENDBRANCH  26  27
ENDBRANCH   1  26
TORSDOF 21
ENDMDL
