MODEL 1
REMARK VINA RESULT:     -11.5      0.000      0.000
REMARK SMILES NS(=O)(=O)c1ccc(-n2nc(C(=O)OCCOCCOC(=O)c3ccc(-c4c5nc(c(-c6cc(S(=O)(=O)[O-])ccc6F)c6ccc([nH]6)c(-c6cc(S(=O)(=O)[O-])ccc6F)c6nc(c(-c7cc(S(=O)(=O)[O-])ccc7F)c7ccc4[nH]7)C=C6)C=C5)cc3)cc2-c2ccc(Cl)s2)cc1
REMARK SMILES IDX 17 1 16 2 15 3 14 4 12 5 13 6 11 7 9 8 10 9 87 10 86 11 8 12
REMARK SMILES IDX 5 13 6 14 95 15 7 16 94 17 2 18 3 19 4 20 1 21 88 24 89 25
REMARK SMILES IDX 93 26 90 27 91 28 92 29 18 30 19 31 20 32 21 33 22 34 23 35
REMARK SMILES IDX 24 36 85 37 25 38 84 39 26 40 27 41 28 42 78 43 29 44 83 45
REMARK SMILES IDX 77 46 79 47 30 48 82 49 76 50 75 51 31 53 63 54 43 55 62 56
REMARK SMILES IDX 44 57 47 58 61 59 80 60 45 61 46 62 60 64 81 65 48 66 32 67
REMARK SMILES IDX 33 68 41 69 34 70 40 71 42 72 39 73 35 74 36 75 37 76 38 77
REMARK SMILES IDX 64 78 65 79 73 80 66 81 72 82 74 83 71 84 67 85 68 86 69 87
REMARK SMILES IDX 70 88 49 89 50 90 58 91 51 92 57 93 59 94 56 95 52 96 53 97
REMARK SMILES IDX 54 98 55 99
REMARK H PARENT 1 22 1 23 79 52 47 63
REMARK Flexibility Score: inf
ROOT
ATOM      1  O   UNL A   1      33.223  29.409  25.719  1.00  0.00    -0.374 OA
ENDROOT
BRANCH   1   2
ATOM      2  C   UNL A   1      31.885  28.919  25.790  1.00  0.00     0.202 C 
BRANCH   2   3
ATOM      3  C   UNL A   1      31.046  28.943  24.511  1.00  0.00     0.261 C 
BRANCH   3   4
ATOM      4  O   UNL A   1      31.329  27.830  23.650  1.00  0.00    -0.458 OA
BRANCH   4   5
ATOM      5  C   UNL A   1      30.886  26.621  24.108  1.00  0.00     0.358 C 
ATOM      6  O   UNL A   1      29.743  26.398  24.488  1.00  0.00    -0.244 OA
BRANCH   5   7
ATOM      7  C   UNL A   1      31.930  25.590  24.025  1.00  0.00     0.171 A 
ATOM      8  N   UNL A   1      32.786  23.634  23.903  1.00  0.00    -0.231 N 
ATOM      9  N   UNL A   1      31.639  24.317  23.693  1.00  0.00    -0.160 NA
ATOM     10  C   UNL A   1      33.840  24.473  24.221  1.00  0.00     0.085 A 
ATOM     11  C   UNL A   1      33.319  25.748  24.243  1.00  0.00     0.068 A 
BRANCH   8  12
ATOM     12  C   UNL A   1      32.739  22.224  23.991  1.00  0.00     0.065 A 
ATOM     13  C   UNL A   1      32.680  19.459  24.186  1.00  0.00     0.082 A 
ATOM     14  C   UNL A   1      32.984  20.222  25.317  1.00  0.00     0.024 A 
ATOM     15  C   UNL A   1      32.398  20.071  22.958  1.00  0.00     0.024 A 
ATOM     16  C   UNL A   1      33.029  21.610  25.216  1.00  0.00     0.030 A 
ATOM     17  C   UNL A   1      32.393  21.466  22.867  1.00  0.00     0.030 A 
BRANCH  13  18
ATOM     18  S   UNL A   1      32.684  17.696  24.305  1.00  0.00     0.238 S 
ATOM     19  O   UNL A   1      32.641  17.128  22.973  1.00  0.00    -0.207 OA
ATOM     20  O   UNL A   1      31.779  17.303  25.351  1.00  0.00    -0.207 OA
BRANCH  18  21
ATOM     21  N   UNL A   1      34.230  17.346  24.872  1.00  0.00    -0.225 NA
ATOM     22  H   UNL A   1      34.918  17.613  24.168  1.00  0.00     0.137 HD
ATOM     23  H   UNL A   1      34.306  16.346  25.058  1.00  0.00     0.137 HD
ENDBRANCH  18  21
ENDBRANCH  13  18
ENDBRANCH   8  12
BRANCH  10  24
ATOM     24  C   UNL A   1      35.178  24.045  24.502  1.00  0.00     0.054 A 
ATOM     25  C   UNL A   1      36.033  23.422  23.614  1.00  0.00     0.024 A 
ATOM     26  S   UNL A   1      35.920  24.295  26.027  1.00  0.00    -0.122 S 
ATOM     27  C   UNL A   1      37.330  23.217  24.172  1.00  0.00     0.033 A 
ATOM     28  C   UNL A   1      37.384  23.657  25.469  1.00  0.00     0.094 A 
ATOM     29  Cl  UNL A   1      38.753  23.622  26.503  1.00  0.00    -0.072 Cl
ENDBRANCH  10  24
ENDBRANCH   5   7
ENDBRANCH   4   5
ENDBRANCH   3   4
ENDBRANCH   2   3
ENDBRANCH   1   2
BRANCH   1  30
ATOM     30  C   UNL A   1      33.777  30.134  26.811  1.00  0.00     0.202 C 
BRANCH  30  31
ATOM     31  C   UNL A   1      34.806  29.459  27.704  1.00  0.00     0.261 C 
BRANCH  31  32
ATOM     32  O   UNL A   1      36.135  29.632  27.240  1.00  0.00    -0.460 OA
BRANCH  32  33
ATOM     33  C   UNL A   1      37.038  29.759  28.243  1.00  0.00     0.338 C 
ATOM     34  O   UNL A   1      36.987  30.540  29.178  1.00  0.00    -0.246 OA
BRANCH  33  35
ATOM     35  C   UNL A   1      38.198  28.922  27.933  1.00  0.00     0.060 A 
ATOM     36  C   UNL A   1      38.523  27.945  28.874  1.00  0.00     0.016 A 
ATOM     37  C   UNL A   1      39.093  29.316  26.926  1.00  0.00     0.016 A 
ATOM     38  C   UNL A   1      39.832  27.529  28.949  1.00  0.00     0.010 A 
ATOM     39  C   UNL A   1      40.403  28.915  27.017  1.00  0.00     0.010 A 
ATOM     40  C   UNL A   1      40.774  28.095  28.079  1.00  0.00    -0.014 A 
BRANCH  40  41
ATOM     41  C   UNL A   1      42.144  27.632  28.153  1.00  0.00     0.031 A 
ATOM     42  C   UNL A   1      42.296  26.370  27.396  1.00  0.00     0.074 A 
ATOM     43  C   UNL A   1      43.140  28.321  28.744  1.00  0.00     0.049 A 
ATOM     44  N   UNL A   1      42.370  25.181  27.894  1.00  0.00    -0.248 NA
ATOM     45  C   UNL A   1      42.033  26.388  25.944  1.00  0.00     0.031 C 
ATOM     46  C   UNL A   1      43.102  29.661  29.329  1.00  0.00     0.029 A 
ATOM     47  N   UNL A   1      44.451  27.978  28.880  1.00  0.00    -0.354 N 
ATOM     48  C   UNL A   1      42.485  24.340  26.798  1.00  0.00     0.074 A 
ATOM     49  C   UNL A   1      41.981  25.082  25.679  1.00  0.00     0.031 C 
ATOM     50  C   UNL A   1      44.368  30.097  29.542  1.00  0.00     0.029 A 
ATOM     51  C   UNL A   1      45.304  29.030  29.223  1.00  0.00     0.049 A 
ATOM     52  H   UNL A   1      44.773  27.057  28.746  1.00  0.00     0.167 HD
ATOM     53  C   UNL A   1      43.306  23.257  26.858  1.00  0.00     0.034 A 
ATOM     54  C   UNL A   1      46.672  29.020  29.180  1.00  0.00     0.034 A 
ATOM     55  C   UNL A   1      43.603  22.924  28.237  1.00  0.00     0.049 A 
ATOM     56  C   UNL A   1      47.078  27.588  29.236  1.00  0.00     0.074 A 
ATOM     57  C   UNL A   1      42.829  22.625  29.343  1.00  0.00     0.029 A 
ATOM     58  N   UNL A   1      44.836  23.289  28.737  1.00  0.00    -0.354 N 
ATOM     59  N   UNL A   1      46.883  26.842  30.290  1.00  0.00    -0.248 NA
ATOM     60  C   UNL A   1      47.171  26.863  27.975  1.00  0.00     0.031 C 
ATOM     61  C   UNL A   1      43.458  23.302  30.429  1.00  0.00     0.029 A 
ATOM     62  C   UNL A   1      44.642  23.876  29.964  1.00  0.00     0.049 A 
ATOM     63  H   UNL A   1      45.705  23.153  28.292  1.00  0.00     0.167 HD
ATOM     64  C   UNL A   1      46.385  25.645  29.797  1.00  0.00     0.074 A 
ATOM     65  C   UNL A   1      46.647  25.692  28.356  1.00  0.00     0.031 C 
ATOM     66  C   UNL A   1      45.533  24.871  30.534  1.00  0.00     0.034 A 
BRANCH  53  67
ATOM     67  C   UNL A   1      44.187  22.807  25.710  1.00  0.00     0.023 A 
ATOM     68  C   UNL A   1      44.240  21.423  25.477  1.00  0.00     0.031 A 
ATOM     69  C   UNL A   1      45.180  23.575  25.057  1.00  0.00     0.131 A 
ATOM     70  C   UNL A   1      45.309  20.851  24.769  1.00  0.00     0.055 A 
ATOM     71  C   UNL A   1      46.204  23.007  24.296  1.00  0.00     0.041 A 
ATOM     72  F   UNL A   1      45.282  24.903  25.172  1.00  0.00    -0.206 F 
ATOM     73  C   UNL A   1      46.297  21.633  24.181  1.00  0.00     0.022 A 
BRANCH  70  74
ATOM     74  S   UNL A   1      45.480  19.053  24.805  1.00  0.00     0.124 S 
ATOM     75  O   UNL A   1      46.616  18.893  25.706  1.00  0.00    -0.237 OA
ATOM     76  O   UNL A   1      44.181  18.641  25.325  1.00  0.00    -0.237 OA
ATOM     77  O   UNL A   1      45.731  18.710  23.408  1.00  0.00    -0.744 OA
ENDBRANCH  70  74
ENDBRANCH  53  67
BRANCH  54  78
ATOM     78  C   UNL A   1      47.593  30.117  28.728  1.00  0.00     0.023 A 
ATOM     79  C   UNL A   1      47.227  31.128  27.800  1.00  0.00     0.031 A 
ATOM     80  C   UNL A   1      48.806  30.328  29.422  1.00  0.00     0.131 A 
ATOM     81  C   UNL A   1      48.057  32.268  27.608  1.00  0.00     0.055 A 
ATOM     82  C   UNL A   1      49.613  31.453  29.233  1.00  0.00     0.041 A 
ATOM     83  F   UNL A   1      49.215  29.486  30.383  1.00  0.00    -0.206 F 
ATOM     84  C   UNL A   1      49.237  32.433  28.333  1.00  0.00     0.022 A 
BRANCH  81  85
ATOM     85  S   UNL A   1      47.587  33.617  26.462  1.00  0.00     0.124 S 
ATOM     86  O   UNL A   1      47.476  34.762  27.356  1.00  0.00    -0.237 OA
ATOM     87  O   UNL A   1      48.698  33.634  25.517  1.00  0.00    -0.237 OA
ATOM     88  O   UNL A   1      46.316  33.159  25.896  1.00  0.00    -0.744 OA
ENDBRANCH  81  85
ENDBRANCH  54  78
BRANCH  66  89
ATOM     89  C   UNL A   1      45.372  25.163  32.014  1.00  0.00     0.023 A 
ATOM     90  C   UNL A   1      46.220  24.702  33.048  1.00  0.00     0.031 A 
ATOM     91  C   UNL A   1      44.357  26.073  32.364  1.00  0.00     0.131 A 
ATOM     92  C   UNL A   1      46.023  25.152  34.372  1.00  0.00     0.055 A 
ATOM     93  C   UNL A   1      44.185  26.535  33.666  1.00  0.00     0.041 A 
ATOM     94  F   UNL A   1      43.530  26.564  31.425  1.00  0.00    -0.206 F 
ATOM     95  C   UNL A   1      45.014  26.072  34.677  1.00  0.00     0.022 A 
BRANCH  92  96
ATOM     96  S   UNL A   1      47.057  24.530  35.740  1.00  0.00     0.124 S 
ATOM     97  O   UNL A   1      47.996  23.632  35.078  1.00  0.00    -0.237 OA
ATOM     98  O   UNL A   1      47.628  25.759  36.288  1.00  0.00    -0.237 OA
ATOM     99  O   UNL A   1      46.094  23.864  36.620  1.00  0.00    -0.744 OA
ENDBRANCH  92  96
ENDBRANCH  66  89
ENDBRANCH  40  41
ENDBRANCH  33  35
ENDBRANCH  32  33
ENDBRANCH  31  32
ENDBRANCH  30  31
ENDBRANCH   1  30
TORSDOF 21
ENDMDL
MODEL 2
REMARK VINA RESULT:     -11.0      2.149      7.307
REMARK SMILES NS(=O)(=O)c1ccc(-n2nc(C(=O)OCCOCCOC(=O)c3ccc(-c4c5nc(c(-c6cc(S(=O)(=O)[O-])ccc6F)c6ccc([nH]6)c(-c6cc(S(=O)(=O)[O-])ccc6F)c6nc(c(-c7cc(S(=O)(=O)[O-])ccc7F)c7ccc4[nH]7)C=C6)C=C5)cc3)cc2-c2ccc(Cl)s2)cc1
REMARK SMILES IDX 17 1 16 2 15 3 14 4 12 5 13 6 11 7 9 8 10 9 87 10 86 11 8 12
REMARK SMILES IDX 5 13 6 14 95 15 7 16 94 17 2 18 3 19 4 20 1 21 88 24 89 25
REMARK SMILES IDX 93 26 90 27 91 28 92 29 18 30 19 31 20 32 21 33 22 34 23 35
REMARK SMILES IDX 24 36 85 37 25 38 84 39 26 40 27 41 28 42 78 43 29 44 83 45
REMARK SMILES IDX 77 46 79 47 30 48 82 49 76 50 75 51 31 53 63 54 43 55 62 56
REMARK SMILES IDX 44 57 47 58 61 59 80 60 45 61 46 62 60 64 81 65 48 66 32 67
REMARK SMILES IDX 33 68 41 69 34 70 40 71 42 72 39 73 35 74 36 75 37 76 38 77
REMARK SMILES IDX 64 78 65 79 73 80 66 81 72 82 74 83 71 84 67 85 68 86 69 87
REMARK SMILES IDX 70 88 49 89 50 90 58 91 51 92 57 93 59 94 56 95 52 96 53 97
REMARK SMILES IDX 54 98 55 99
REMARK H PARENT 1 22 1 23 79 52 47 63
REMARK Flexibility Score: inf
ROOT
ATOM      1  O   UNL A   1      32.604  29.257  25.196  1.00  0.00    -0.374 OA
ENDROOT
BRANCH   1   2
ATOM      2  C   UNL A   1      31.352  28.579  25.287  1.00  0.00     0.202 C 
BRANCH   2   3
ATOM      3  C   UNL A   1      30.497  28.485  24.022  1.00  0.00     0.261 C 
BRANCH   3   4
ATOM      4  O   UNL A   1      30.575  27.193  23.403  1.00  0.00    -0.458 OA
BRANCH   4   5
ATOM      5  C   UNL A   1      30.423  26.136  24.256  1.00  0.00     0.358 C 
ATOM      6  O   UNL A   1      29.454  25.968  24.988  1.00  0.00    -0.244 OA
BRANCH   5   7
ATOM      7  C   UNL A   1      31.530  25.177  24.142  1.00  0.00     0.171 A 
ATOM      8  N   UNL A   1      32.517  23.283  24.041  1.00  0.00    -0.231 N 
ATOM      9  N   UNL A   1      31.311  23.874  23.884  1.00  0.00    -0.160 NA
ATOM     10  C   UNL A   1      33.526  24.207  24.251  1.00  0.00     0.085 A 
ATOM     11  C   UNL A   1      32.916  25.442  24.256  1.00  0.00     0.068 A 
BRANCH   8  12
ATOM     12  C   UNL A   1      32.579  21.879  24.190  1.00  0.00     0.065 A 
ATOM     13  C   UNL A   1      32.734  19.128  24.505  1.00  0.00     0.082 A 
ATOM     14  C   UNL A   1      32.983  19.961  25.600  1.00  0.00     0.024 A 
ATOM     15  C   UNL A   1      32.400  19.663  23.254  1.00  0.00     0.024 A 
ATOM     16  C   UNL A   1      32.921  21.342  25.439  1.00  0.00     0.030 A 
ATOM     17  C   UNL A   1      32.287  21.048  23.102  1.00  0.00     0.030 A 
BRANCH  13  18
ATOM     18  S   UNL A   1      32.874  17.377  24.700  1.00  0.00     0.238 S 
ATOM     19  O   UNL A   1      31.699  16.879  25.388  1.00  0.00    -0.207 OA
ATOM     20  O   UNL A   1      34.214  17.065  25.116  1.00  0.00    -0.207 OA
BRANCH  18  21
ATOM     21  N   UNL A   1      32.727  16.798  23.126  1.00  0.00    -0.225 NA
ATOM     22  H   UNL A   1      33.042  15.828  23.090  1.00  0.00     0.137 HD
ATOM     23  H   UNL A   1      33.302  17.363  22.501  1.00  0.00     0.137 HD
ENDBRANCH  18  21
ENDBRANCH  13  18
ENDBRANCH   8  12
BRANCH  10  24
ATOM     24  C   UNL A   1      34.907  23.887  24.454  1.00  0.00     0.054 A 
ATOM     25  C   UNL A   1      35.765  23.356  23.511  1.00  0.00     0.024 A 
ATOM     26  S   UNL A   1      35.704  24.168  25.947  1.00  0.00    -0.122 S 
ATOM     27  C   UNL A   1      37.101  23.250  23.998  1.00  0.00     0.033 A 
ATOM     28  C   UNL A   1      37.185  23.666  25.302  1.00  0.00     0.094 A 
ATOM     29  Cl  UNL A   1      38.603  23.725  26.266  1.00  0.00    -0.072 Cl
ENDBRANCH  10  24
ENDBRANCH   5   7
ENDBRANCH   4   5
ENDBRANCH   3   4
ENDBRANCH   2   3
ENDBRANCH   1   2
BRANCH   1  30
ATOM     30  C   UNL A   1      32.841  30.425  25.973  1.00  0.00     0.202 C 
BRANCH  30  31
ATOM     31  C   UNL A   1      33.586  30.301  27.292  1.00  0.00     0.261 C 
BRANCH  31  32
ATOM     32  O   UNL A   1      34.989  30.462  27.149  1.00  0.00    -0.460 OA
BRANCH  32  33
ATOM     33  C   UNL A   1      35.506  31.395  27.984  1.00  0.00     0.338 C 
ATOM     34  O   UNL A   1      35.240  32.584  28.008  1.00  0.00    -0.246 OA
BRANCH  33  35
ATOM     35  C   UNL A   1      36.589  30.779  28.754  1.00  0.00     0.060 A 
ATOM     36  C   UNL A   1      37.732  31.557  28.940  1.00  0.00     0.016 A 
ATOM     37  C   UNL A   1      36.582  29.395  28.983  1.00  0.00     0.016 A 
ATOM     38  C   UNL A   1      38.931  30.909  29.132  1.00  0.00     0.010 A 
ATOM     39  C   UNL A   1      37.782  28.751  29.153  1.00  0.00     0.010 A 
ATOM     40  C   UNL A   1      38.950  29.507  29.139  1.00  0.00    -0.014 A 
BRANCH  40  41
ATOM     41  C   UNL A   1      40.215  28.839  29.364  1.00  0.00     0.031 A 
ATOM     42  C   UNL A   1      40.529  28.818  30.809  1.00  0.00     0.074 A 
ATOM     43  C   UNL A   1      40.932  28.238  28.394  1.00  0.00     0.049 A 
ATOM     44  N   UNL A   1      41.369  29.583  31.422  1.00  0.00    -0.248 NA
ATOM     45  C   UNL A   1      39.612  28.102  31.716  1.00  0.00     0.031 C 
ATOM     46  C   UNL A   1      40.582  28.044  26.987  1.00  0.00     0.029 A 
ATOM     47  N   UNL A   1      42.127  27.594  28.491  1.00  0.00    -0.354 N 
ATOM     48  C   UNL A   1      41.299  29.201  32.753  1.00  0.00     0.074 A 
ATOM     49  C   UNL A   1      40.036  28.537  32.903  1.00  0.00     0.031 C 
ATOM     50  C   UNL A   1      41.428  27.142  26.431  1.00  0.00     0.029 A 
ATOM     51  C   UNL A   1      42.452  26.782  27.400  1.00  0.00     0.049 A 
ATOM     52  H   UNL A   1      42.720  27.694  29.271  1.00  0.00     0.167 HD
ATOM     53  C   UNL A   1      42.430  29.156  33.506  1.00  0.00     0.034 A 
ATOM     54  C   UNL A   1      43.451  25.849  27.346  1.00  0.00     0.034 A 
ATOM     55  C   UNL A   1      43.481  29.941  32.888  1.00  0.00     0.049 A 
ATOM     56  C   UNL A   1      44.431  26.227  28.401  1.00  0.00     0.074 A 
ATOM     57  C   UNL A   1      43.585  31.259  32.484  1.00  0.00     0.029 A 
ATOM     58  N   UNL A   1      44.476  29.266  32.211  1.00  0.00    -0.354 N 
ATOM     59  N   UNL A   1      45.144  27.321  28.340  1.00  0.00    -0.248 NA
ATOM     60  C   UNL A   1      44.209  25.709  29.746  1.00  0.00     0.031 C 
ATOM     61  C   UNL A   1      44.278  31.210  31.239  1.00  0.00     0.029 A 
ATOM     62  C   UNL A   1      44.668  29.891  31.002  1.00  0.00     0.049 A 
ATOM     63  H   UNL A   1      44.964  28.475  32.538  1.00  0.00     0.167 HD
ATOM     64  C   UNL A   1      45.076  27.866  29.613  1.00  0.00     0.074 A 
ATOM     65  C   UNL A   1      44.540  26.794  30.456  1.00  0.00     0.031 C 
ATOM     66  C   UNL A   1      45.158  29.216  29.814  1.00  0.00     0.034 A 
BRANCH  53  67
ATOM     67  C   UNL A   1      42.724  28.063  34.514  1.00  0.00     0.023 A 
ATOM     68  C   UNL A   1      43.666  27.097  34.122  1.00  0.00     0.031 A 
ATOM     69  C   UNL A   1      41.950  27.735  35.652  1.00  0.00     0.131 A 
ATOM     70  C   UNL A   1      43.707  25.837  34.740  1.00  0.00     0.055 A 
ATOM     71  C   UNL A   1      42.042  26.504  36.306  1.00  0.00     0.041 A 
ATOM     72  F   UNL A   1      41.005  28.532  36.159  1.00  0.00    -0.206 F 
ATOM     73  C   UNL A   1      42.897  25.530  35.827  1.00  0.00     0.022 A 
BRANCH  70  74
ATOM     74  S   UNL A   1      44.704  24.547  33.961  1.00  0.00     0.124 S 
ATOM     75  O   UNL A   1      43.799  24.077  32.918  1.00  0.00    -0.237 OA
ATOM     76  O   UNL A   1      45.869  25.303  33.512  1.00  0.00    -0.237 OA
ATOM     77  O   UNL A   1      44.951  23.608  35.051  1.00  0.00    -0.744 OA
ENDBRANCH  70  74
ENDBRANCH  53  67
BRANCH  54  78
ATOM     78  C   UNL A   1      43.413  24.488  26.710  1.00  0.00     0.023 A 
ATOM     79  C   UNL A   1      42.591  23.423  27.165  1.00  0.00     0.031 A 
ATOM     80  C   UNL A   1      44.029  24.298  25.452  1.00  0.00     0.131 A 
ATOM     81  C   UNL A   1      42.423  22.251  26.374  1.00  0.00     0.055 A 
ATOM     82  C   UNL A   1      43.853  23.148  24.678  1.00  0.00     0.041 A 
ATOM     83  F   UNL A   1      44.760  25.266  24.881  1.00  0.00    -0.206 F 
ATOM     84  C   UNL A   1      43.041  22.123  25.130  1.00  0.00     0.022 A 
BRANCH  81  85
ATOM     85  S   UNL A   1      41.326  20.884  26.904  1.00  0.00     0.124 S 
ATOM     86  O   UNL A   1      40.362  20.816  25.812  1.00  0.00    -0.237 OA
ATOM     87  O   UNL A   1      42.250  19.763  27.026  1.00  0.00    -0.237 OA
ATOM     88  O   UNL A   1      40.775  21.358  28.175  1.00  0.00    -0.744 OA
ENDBRANCH  81  85
ENDBRANCH  54  78
BRANCH  66  89
ATOM     89  C   UNL A   1      45.633  30.099  28.675  1.00  0.00     0.023 A 
ATOM     90  C   UNL A   1      44.844  31.038  27.969  1.00  0.00     0.031 A 
ATOM     91  C   UNL A   1      47.009  30.060  28.386  1.00  0.00     0.131 A 
ATOM     92  C   UNL A   1      45.446  31.883  27.011  1.00  0.00     0.055 A 
ATOM     93  C   UNL A   1      47.603  30.915  27.461  1.00  0.00     0.041 A 
ATOM     94  F   UNL A   1      47.816  29.205  29.036  1.00  0.00    -0.206 F 
ATOM     95  C   UNL A   1      46.822  31.826  26.765  1.00  0.00     0.022 A 
BRANCH  92  96
ATOM     96  S   UNL A   1      44.450  33.061  26.038  1.00  0.00     0.124 S 
ATOM     97  O   UNL A   1      45.440  33.742  25.211  1.00  0.00    -0.237 OA
ATOM     98  O   UNL A   1      43.523  32.181  25.330  1.00  0.00    -0.237 OA
ATOM     99  O   UNL A   1      43.825  33.905  27.059  1.00  0.00    -0.744 OA
ENDBRANCH  92  96
ENDBRANCH  66  89
ENDBRANCH  40  41
ENDBRANCH  33  35
ENDBRANCH  32  33
ENDBRANCH  31  32
ENDBRANCH  30  31
ENDBRANCH   1  30
TORSDOF 21
ENDMDL
MODEL 3
REMARK VINA RESULT:     -10.7      5.080      8.725
REMARK SMILES NS(=O)(=O)c1ccc(-n2nc(C(=O)OCCOCCOC(=O)c3ccc(-c4c5nc(c(-c6cc(S(=O)(=O)[O-])ccc6F)c6ccc([nH]6)c(-c6cc(S(=O)(=O)[O-])ccc6F)c6nc(c(-c7cc(S(=O)(=O)[O-])ccc7F)c7ccc4[nH]7)C=C6)C=C5)cc3)cc2-c2ccc(Cl)s2)cc1
REMARK SMILES IDX 17 1 16 2 15 3 14 4 12 5 13 6 11 7 9 8 10 9 87 10 86 11 8 12
REMARK SMILES IDX 5 13 6 14 95 15 7 16 94 17 2 18 3 19 4 20 1 21 88 24 89 25
REMARK SMILES IDX 93 26 90 27 91 28 92 29 18 30 19 31 20 32 21 33 22 34 23 35
REMARK SMILES IDX 24 36 85 37 25 38 84 39 26 40 27 41 28 42 78 43 29 44 83 45
REMARK SMILES IDX 77 46 79 47 30 48 82 49 76 50 75 51 31 53 63 54 43 55 62 56
REMARK SMILES IDX 44 57 47 58 61 59 80 60 45 61 46 62 60 64 81 65 48 66 32 67
REMARK SMILES IDX 33 68 41 69 34 70 40 71 42 72 39 73 35 74 36 75 37 76 38 77
REMARK SMILES IDX 64 78 65 79 73 80 66 81 72 82 74 83 71 84 67 85 68 86 69 87
REMARK SMILES IDX 70 88 49 89 50 90 58 91 51 92 57 93 59 94 56 95 52 96 53 97
REMARK SMILES IDX 54 98 55 99
REMARK H PARENT 1 22 1 23 79 52 47 63
REMARK Flexibility Score: inf
ROOT
ATOM      1  O   UNL A   1      35.212  34.038  29.437  1.00  0.00    -0.374 OA
ENDROOT
BRANCH   1   2
ATOM      2  C   UNL A   1      33.846  34.361  29.687  1.00  0.00     0.202 C 
BRANCH   2   3
ATOM      3  C   UNL A   1      33.547  35.470  30.697  1.00  0.00     0.261 C 
BRANCH   3   4
ATOM      4  O   UNL A   1      33.509  34.985  32.048  1.00  0.00    -0.458 OA
BRANCH   4   5
ATOM      5  C   UNL A   1      34.414  35.564  32.893  1.00  0.00     0.358 C 
ATOM      6  O   UNL A   1      34.415  36.748  33.205  1.00  0.00    -0.244 OA
BRANCH   5   7
ATOM      7  C   UNL A   1      35.353  34.578  33.446  1.00  0.00     0.171 A 
ATOM      8  N   UNL A   1      36.729  33.702  34.828  1.00  0.00    -0.231 N 
ATOM      9  N   UNL A   1      35.742  34.619  34.735  1.00  0.00    -0.160 NA
ATOM     10  C   UNL A   1      36.876  32.974  33.659  1.00  0.00     0.085 A 
ATOM     11  C   UNL A   1      35.951  33.484  32.775  1.00  0.00     0.068 A 
BRANCH   8  12
ATOM     12  C   UNL A   1      37.593  33.734  35.946  1.00  0.00     0.065 A 
ATOM     13  C   UNL A   1      39.255  33.801  38.164  1.00  0.00     0.082 A 
ATOM     14  C   UNL A   1      38.067  33.067  38.218  1.00  0.00     0.024 A 
ATOM     15  C   UNL A   1      39.622  34.496  37.004  1.00  0.00     0.024 A 
ATOM     16  C   UNL A   1      37.224  33.046  37.110  1.00  0.00     0.030 A 
ATOM     17  C   UNL A   1      38.803  34.434  35.874  1.00  0.00     0.030 A 
BRANCH  13  18
ATOM     18  S   UNL A   1      40.292  33.874  39.594  1.00  0.00     0.238 S 
ATOM     19  O   UNL A   1      41.179  35.015  39.481  1.00  0.00    -0.207 OA
ATOM     20  O   UNL A   1      40.759  32.548  39.892  1.00  0.00    -0.207 OA
BRANCH  18  21
ATOM     21  N   UNL A   1      39.224  34.281  40.829  1.00  0.00    -0.225 NA
ATOM     22  H   UNL A   1      39.725  34.306  41.718  1.00  0.00     0.137 HD
ATOM     23  H   UNL A   1      38.481  33.584  40.879  1.00  0.00     0.137 HD
ENDBRANCH  18  21
ENDBRANCH  13  18
ENDBRANCH   8  12
BRANCH  10  24
ATOM     24  C   UNL A   1      37.839  31.935  33.451  1.00  0.00     0.054 A 
ATOM     25  C   UNL A   1      37.684  30.605  33.791  1.00  0.00     0.024 A 
ATOM     26  S   UNL A   1      39.349  32.222  32.691  1.00  0.00    -0.122 S 
ATOM     27  C   UNL A   1      38.784  29.808  33.357  1.00  0.00     0.033 A 
ATOM     28  C   UNL A   1      39.740  30.577  32.745  1.00  0.00     0.094 A 
ATOM     29  Cl  UNL A   1      41.211  30.023  32.058  1.00  0.00    -0.072 Cl
ENDBRANCH  10  24
ENDBRANCH   5   7
ENDBRANCH   4   5
ENDBRANCH   3   4
ENDBRANCH   2   3
ENDBRANCH   1   2
BRANCH   1  30
ATOM     30  C   UNL A   1      35.548  32.840  28.746  1.00  0.00     0.202 C 
BRANCH  30  31
ATOM     31  C   UNL A   1      35.599  31.529  29.515  1.00  0.00     0.261 C 
BRANCH  31  32
ATOM     32  O   UNL A   1      36.484  30.585  28.934  1.00  0.00    -0.460 OA
BRANCH  32  33
ATOM     33  C   UNL A   1      36.793  29.561  29.767  1.00  0.00     0.338 C 
ATOM     34  O   UNL A   1      36.329  29.354  30.875  1.00  0.00    -0.246 OA
BRANCH  33  35
ATOM     35  C   UNL A   1      37.923  28.825  29.198  1.00  0.00     0.060 A 
ATOM     36  C   UNL A   1      38.549  27.908  30.044  1.00  0.00     0.016 A 
ATOM     37  C   UNL A   1      38.518  29.270  28.008  1.00  0.00     0.016 A 
ATOM     38  C   UNL A   1      39.873  27.616  29.812  1.00  0.00     0.010 A 
ATOM     39  C   UNL A   1      39.845  28.993  27.792  1.00  0.00     0.010 A 
ATOM     40  C   UNL A   1      40.529  28.240  28.742  1.00  0.00    -0.014 A 
BRANCH  40  41
ATOM     41  C   UNL A   1      41.916  27.906  28.496  1.00  0.00     0.031 A 
ATOM     42  C   UNL A   1      42.011  26.596  27.814  1.00  0.00     0.074 A 
ATOM     43  C   UNL A   1      42.948  28.731  28.763  1.00  0.00     0.049 A 
ATOM     44  N   UNL A   1      42.332  25.470  28.358  1.00  0.00    -0.248 NA
ATOM     45  C   UNL A   1      41.396  26.454  26.480  1.00  0.00     0.031 C 
ATOM     46  C   UNL A   1      42.912  30.111  29.244  1.00  0.00     0.029 A 
ATOM     47  N   UNL A   1      44.280  28.516  28.583  1.00  0.00    -0.354 N 
ATOM     48  C   UNL A   1      42.263  24.542  27.330  1.00  0.00     0.074 A 
ATOM     49  C   UNL A   1      41.421  25.130  26.328  1.00  0.00     0.031 C 
ATOM     50  C   UNL A   1      44.138  30.673  29.096  1.00  0.00     0.029 A 
ATOM     51  C   UNL A   1      45.075  29.665  28.623  1.00  0.00     0.049 A 
ATOM     52  H   UNL A   1      44.656  27.618  28.436  1.00  0.00     0.167 HD
ATOM     53  C   UNL A   1      43.184  23.544  27.254  1.00  0.00     0.034 A 
ATOM     54  C   UNL A   1      46.382  29.769  28.233  1.00  0.00     0.034 A 
ATOM     55  C   UNL A   1      43.847  23.370  28.531  1.00  0.00     0.049 A 
ATOM     56  C   UNL A   1      46.941  28.389  28.283  1.00  0.00     0.074 A 
ATOM     57  C   UNL A   1      43.406  23.111  29.816  1.00  0.00     0.029 A 
ATOM     58  N   UNL A   1      45.119  23.886  28.673  1.00  0.00    -0.354 N 
ATOM     59  N   UNL A   1      47.093  27.732  29.402  1.00  0.00    -0.248 NA
ATOM     60  C   UNL A   1      46.796  27.559  27.093  1.00  0.00     0.031 C 
ATOM     61  C   UNL A   1      44.208  23.939  30.655  1.00  0.00     0.029 A 
ATOM     62  C   UNL A   1      45.172  24.567  29.865  1.00  0.00     0.049 A 
ATOM     63  H   UNL A   1      45.860  23.783  28.032  1.00  0.00     0.167 HD
ATOM     64  C   UNL A   1      46.620  26.455  29.136  1.00  0.00     0.074 A 
ATOM     65  C   UNL A   1      46.511  26.389  27.676  1.00  0.00     0.031 C 
ATOM     66  C   UNL A   1      46.065  25.683  30.118  1.00  0.00     0.034 A 
BRANCH  53  67
ATOM     67  C   UNL A   1      43.796  23.066  25.953  1.00  0.00     0.023 A 
ATOM     68  C   UNL A   1      43.799  21.676  25.745  1.00  0.00     0.031 A 
ATOM     69  C   UNL A   1      44.624  23.816  25.084  1.00  0.00     0.131 A 
ATOM     70  C   UNL A   1      44.690  21.085  24.836  1.00  0.00     0.055 A 
ATOM     71  C   UNL A   1      45.461  23.227  24.133  1.00  0.00     0.041 A 
ATOM     72  F   UNL A   1      44.748  25.145  25.145  1.00  0.00    -0.206 F 
ATOM     73  C   UNL A   1      45.527  21.850  24.031  1.00  0.00     0.022 A 
BRANCH  70  74
ATOM     74  S   UNL A   1      44.867  19.287  24.874  1.00  0.00     0.124 S 
ATOM     75  O   UNL A   1      43.697  18.902  25.656  1.00  0.00    -0.237 OA
ATOM     76  O   UNL A   1      44.832  18.955  23.453  1.00  0.00    -0.237 OA
ATOM     77  O   UNL A   1      46.156  19.089  25.530  1.00  0.00    -0.744 OA
ENDBRANCH  70  74
ENDBRANCH  53  67
BRANCH  54  78
ATOM     78  C   UNL A   1      47.040  30.894  27.486  1.00  0.00     0.023 A 
ATOM     79  C   UNL A   1      46.341  32.015  26.963  1.00  0.00     0.031 A 
ATOM     80  C   UNL A   1      48.450  30.998  27.498  1.00  0.00     0.131 A 
ATOM     81  C   UNL A   1      47.051  33.153  26.489  1.00  0.00     0.055 A 
ATOM     82  C   UNL A   1      49.140  32.122  27.037  1.00  0.00     0.041 A 
ATOM     83  F   UNL A   1      49.214  30.040  28.043  1.00  0.00    -0.206 F 
ATOM     84  C   UNL A   1      48.444  33.209  26.540  1.00  0.00     0.022 A 
BRANCH  81  85
ATOM     85  S   UNL A   1      46.180  34.636  25.862  1.00  0.00     0.124 S 
ATOM     86  O   UNL A   1      45.381  34.092  24.770  1.00  0.00    -0.237 OA
ATOM     87  O   UNL A   1      45.448  35.097  27.036  1.00  0.00    -0.237 OA
ATOM     88  O   UNL A   1      47.268  35.520  25.438  1.00  0.00    -0.744 OA
ENDBRANCH  81  85
ENDBRANCH  54  78
BRANCH  66  89
ATOM     89  C   UNL A   1      46.244  26.099  31.567  1.00  0.00     0.023 A 
ATOM     90  C   UNL A   1      45.238  26.632  32.406  1.00  0.00     0.031 A 
ATOM     91  C   UNL A   1      47.491  25.811  32.149  1.00  0.00     0.131 A 
ATOM     92  C   UNL A   1      45.512  26.862  33.773  1.00  0.00     0.055 A 
ATOM     93  C   UNL A   1      47.748  26.013  33.503  1.00  0.00     0.041 A 
ATOM     94  F   UNL A   1      48.483  25.285  31.410  1.00  0.00    -0.206 F 
ATOM     95  C   UNL A   1      46.760  26.545  34.319  1.00  0.00     0.022 A 
BRANCH  92  96
ATOM     96  S   UNL A   1      44.260  27.607  34.871  1.00  0.00     0.124 S 
ATOM     97  O   UNL A   1      43.042  27.573  34.071  1.00  0.00    -0.237 OA
ATOM     98  O   UNL A   1      44.288  26.717  36.030  1.00  0.00    -0.237 OA
ATOM     99  O   UNL A   1      44.785  28.950  35.125  1.00  0.00    -0.744 OA
ENDBRANCH  92  96
ENDBRANCH  66  89
ENDBRANCH  40  41
ENDBRANCH  33  35
ENDBRANCH  32  33
ENDBRANCH  31  32
ENDBRANCH  30  31
ENDBRANCH   1  30
TORSDOF 21
ENDMDL
