MODEL 1
REMARK VINA RESULT:      -9.3      0.000      0.000
REMARK SMILES CC(C)[C@@H](CC(=O)OC(C)(C)C)C(=O)OCCOCCOC(=O)c1ccc(-c2c3nc(c(-c4cc(S(=O)(=O)[O-])ccc4F)c4ccc([nH]4)c(-c4cc(S(=O)(=O)[O-])ccc4F)c4nc(c(-c5cc(S(=O)(=O)[O-])ccc5F)c5ccc2[nH]5)C=C4)C=C3)cc1
REMARK SMILES IDX 17 1 16 2 15 3 13 4 14 5 4 6 2 7 1 8 3 9 5 10 6 11 7 12 8 13
REMARK SMILES IDX 9 14 10 15 11 16 12 17 18 18 19 19 20 20 21 21 22 22 23 23
REMARK SMILES IDX 24 24 25 25 86 26 26 27 85 28 27 29 28 30 29 31 79 32 30 33
REMARK SMILES IDX 84 34 78 35 80 36 31 37 83 38 77 39 76 40 32 42 64 43 44 44
REMARK SMILES IDX 63 45 45 46 48 47 62 48 81 49 46 50 47 51 61 53 82 54 49 55
REMARK SMILES IDX 33 56 34 57 42 58 35 59 41 60 43 61 40 62 36 63 37 64 38 65
REMARK SMILES IDX 39 66 65 67 66 68 74 69 67 70 73 71 75 72 72 73 68 74 69 75
REMARK SMILES IDX 70 76 71 77 50 78 51 79 59 80 52 81 58 82 60 83 57 84 53 85
REMARK SMILES IDX 54 86 55 87 56 88
REMARK H PARENT 80 41 48 52
REMARK Flexibility Score: inf
ROOT
ATOM      1  C   UNL A   1      36.734  22.213  24.505  1.00  0.00     0.202 C 
ENDROOT
BRANCH   1   2
ATOM      2  C   UNL A   1      36.467  22.981  23.206  1.00  0.00     0.261 C 
BRANCH   2   3
ATOM      3  O   UNL A   1      35.074  23.082  22.843  1.00  0.00    -0.463 OA
BRANCH   3   4
ATOM      4  C   UNL A   1      34.376  24.037  23.509  1.00  0.00     0.309 C 
ATOM      5  O   UNL A   1      34.875  24.924  24.195  1.00  0.00    -0.252 OA
BRANCH   4   6
ATOM      6  C   UNL A   1      32.870  23.845  23.438  1.00  0.00     0.113 C 
BRANCH   6   7
ATOM      7  C   UNL A   1      32.088  24.638  22.356  1.00  0.00    -0.003 C 
ATOM      8  C   UNL A   1      31.297  25.789  22.994  1.00  0.00     0.008 C 
ATOM      9  C   UNL A   1      32.986  25.228  21.267  1.00  0.00     0.008 C 
ENDBRANCH   6   7
BRANCH   6  10
ATOM     10  C   UNL A   1      32.612  22.328  23.471  1.00  0.00     0.138 C 
BRANCH  10  11
ATOM     11  C   UNL A   1      31.763  21.871  24.635  1.00  0.00     0.307 C 
ATOM     12  O   UNL A   1      31.853  20.763  25.139  1.00  0.00    -0.252 OA
BRANCH  11  13
ATOM     13  O   UNL A   1      30.927  22.864  25.021  1.00  0.00    -0.460 OA
BRANCH  13  14
ATOM     14  C   UNL A   1      30.878  23.332  26.394  1.00  0.00     0.104 C 
ATOM     15  C   UNL A   1      29.692  22.738  27.162  1.00  0.00     0.056 C 
ATOM     16  C   UNL A   1      32.213  23.066  27.091  1.00  0.00     0.056 C 
ATOM     17  C   UNL A   1      30.665  24.849  26.274  1.00  0.00     0.056 C 
ENDBRANCH  13  14
ENDBRANCH  11  13
ENDBRANCH  10  11
ENDBRANCH   6  10
ENDBRANCH   4   6
ENDBRANCH   3   4
ENDBRANCH   2   3
ENDBRANCH   1   2
BRANCH   1  18
ATOM     18  O   UNL A   1      37.435  20.976  24.395  1.00  0.00    -0.374 OA
BRANCH  18  19
ATOM     19  C   UNL A   1      37.819  20.337  25.610  1.00  0.00     0.202 C 
BRANCH  19  20
ATOM     20  C   UNL A   1      38.976  19.335  25.512  1.00  0.00     0.261 C 
BRANCH  20  21
ATOM     21  O   UNL A   1      40.260  19.990  25.462  1.00  0.00    -0.460 OA
BRANCH  21  22
ATOM     22  C   UNL A   1      40.866  20.106  26.668  1.00  0.00     0.338 C 
ATOM     23  O   UNL A   1      41.462  19.221  27.271  1.00  0.00    -0.246 OA
BRANCH  22  24
ATOM     24  C   UNL A   1      40.893  21.508  27.125  1.00  0.00     0.060 A 
ATOM     25  C   UNL A   1      40.457  22.475  26.211  1.00  0.00     0.016 A 
ATOM     26  C   UNL A   1      41.467  21.892  28.340  1.00  0.00     0.016 A 
ATOM     27  C   UNL A   1      40.681  23.825  26.462  1.00  0.00     0.010 A 
ATOM     28  C   UNL A   1      41.692  23.254  28.591  1.00  0.00     0.010 A 
ATOM     29  C   UNL A   1      41.356  24.222  27.625  1.00  0.00    -0.014 A 
BRANCH  29  30
ATOM     30  C   UNL A   1      41.881  25.614  27.687  1.00  0.00     0.031 A 
ATOM     31  C   UNL A   1      41.077  26.663  28.416  1.00  0.00     0.074 A 
ATOM     32  C   UNL A   1      43.104  25.917  27.213  1.00  0.00     0.049 A 
ATOM     33  N   UNL A   1      41.380  27.908  28.684  1.00  0.00    -0.248 NA
ATOM     34  C   UNL A   1      39.753  26.250  28.908  1.00  0.00     0.031 C 
ATOM     35  C   UNL A   1      43.997  24.983  26.525  1.00  0.00     0.029 A 
ATOM     36  N   UNL A   1      43.815  27.091  27.256  1.00  0.00    -0.354 N 
ATOM     37  C   UNL A   1      40.290  28.425  29.379  1.00  0.00     0.074 A 
ATOM     38  C   UNL A   1      39.300  27.372  29.448  1.00  0.00     0.031 C 
ATOM     39  C   UNL A   1      45.140  25.621  26.219  1.00  0.00     0.029 A 
ATOM     40  C   UNL A   1      45.056  27.010  26.667  1.00  0.00     0.049 A 
ATOM     41  H   UNL A   1      43.469  27.914  27.670  1.00  0.00     0.167 HD
ATOM     42  C   UNL A   1      40.131  29.657  29.923  1.00  0.00     0.034 A 
ATOM     43  C   UNL A   1      46.012  27.948  26.506  1.00  0.00     0.034 A 
ATOM     44  C   UNL A   1      41.122  30.704  29.852  1.00  0.00     0.049 A 
ATOM     45  C   UNL A   1      45.794  29.328  27.083  1.00  0.00     0.074 A 
ATOM     46  C   UNL A   1      41.064  31.984  30.376  1.00  0.00     0.029 A 
ATOM     47  N   UNL A   1      42.350  30.595  29.215  1.00  0.00    -0.354 N 
ATOM     48  N   UNL A   1      44.764  29.794  27.751  1.00  0.00    -0.248 NA
ATOM     49  C   UNL A   1      46.881  30.299  26.902  1.00  0.00     0.031 C 
ATOM     50  C   UNL A   1      42.225  32.669  30.000  1.00  0.00     0.029 A 
ATOM     51  C   UNL A   1      43.046  31.792  29.308  1.00  0.00     0.049 A 
ATOM     52  H   UNL A   1      42.681  29.786  28.762  1.00  0.00     0.167 HD
ATOM     53  C   UNL A   1      45.098  31.102  28.099  1.00  0.00     0.074 A 
ATOM     54  C   UNL A   1      46.430  31.340  27.584  1.00  0.00     0.031 C 
ATOM     55  C   UNL A   1      44.371  32.022  28.786  1.00  0.00     0.034 A 
BRANCH  42  56
ATOM     56  C   UNL A   1      38.812  29.954  30.597  1.00  0.00     0.023 A 
ATOM     57  C   UNL A   1      37.797  30.690  29.958  1.00  0.00     0.031 A 
ATOM     58  C   UNL A   1      38.576  29.511  31.911  1.00  0.00     0.131 A 
ATOM     59  C   UNL A   1      36.621  31.011  30.654  1.00  0.00     0.055 A 
ATOM     60  C   UNL A   1      37.374  29.771  32.572  1.00  0.00     0.041 A 
ATOM     61  F   UNL A   1      39.517  28.826  32.579  1.00  0.00    -0.206 F 
ATOM     62  C   UNL A   1      36.393  30.536  31.948  1.00  0.00     0.022 A 
BRANCH  59  63
ATOM     63  S   UNL A   1      35.448  32.167  29.895  1.00  0.00     0.124 S 
ATOM     64  O   UNL A   1      36.324  33.278  29.529  1.00  0.00    -0.237 OA
ATOM     65  O   UNL A   1      34.908  31.387  28.788  1.00  0.00    -0.237 OA
ATOM     66  O   UNL A   1      34.505  32.457  30.973  1.00  0.00    -0.744 OA
ENDBRANCH  59  63
ENDBRANCH  42  56
BRANCH  43  67
ATOM     67  C   UNL A   1      47.256  27.638  25.743  1.00  0.00     0.023 A 
ATOM     68  C   UNL A   1      47.362  27.907  24.369  1.00  0.00     0.031 A 
ATOM     69  C   UNL A   1      48.335  26.992  26.372  1.00  0.00     0.131 A 
ATOM     70  C   UNL A   1      48.496  27.483  23.657  1.00  0.00     0.055 A 
ATOM     71  C   UNL A   1      49.485  26.621  25.672  1.00  0.00     0.041 A 
ATOM     72  F   UNL A   1      48.287  26.708  27.683  1.00  0.00    -0.206 F 
ATOM     73  C   UNL A   1      49.562  26.852  24.302  1.00  0.00     0.022 A 
BRANCH  70  74
ATOM     74  S   UNL A   1      48.515  27.676  21.853  1.00  0.00     0.124 S 
ATOM     75  O   UNL A   1      47.197  28.246  21.601  1.00  0.00    -0.237 OA
ATOM     76  O   UNL A   1      49.650  28.572  21.658  1.00  0.00    -0.237 OA
ATOM     77  O   UNL A   1      48.710  26.312  21.367  1.00  0.00    -0.744 OA
ENDBRANCH  70  74
ENDBRANCH  43  67
BRANCH  55  78
ATOM     78  C   UNL A   1      45.033  33.353  29.061  1.00  0.00     0.023 A 
ATOM     79  C   UNL A   1      44.832  34.470  28.231  1.00  0.00     0.031 A 
ATOM     80  C   UNL A   1      45.905  33.495  30.156  1.00  0.00     0.131 A 
ATOM     81  C   UNL A   1      45.547  35.654  28.464  1.00  0.00     0.055 A 
ATOM     82  C   UNL A   1      46.565  34.697  30.421  1.00  0.00     0.041 A 
ATOM     83  F   UNL A   1      46.137  32.464  30.984  1.00  0.00    -0.206 F 
ATOM     84  C   UNL A   1      46.402  35.779  29.562  1.00  0.00     0.022 A 
BRANCH  81  85
ATOM     85  S   UNL A   1      45.440  36.992  27.242  1.00  0.00     0.124 S 
ATOM     86  O   UNL A   1      45.835  38.156  28.030  1.00  0.00    -0.237 OA
ATOM     87  O   UNL A   1      46.393  36.560  26.225  1.00  0.00    -0.237 OA
ATOM     88  O   UNL A   1      44.039  36.970  26.830  1.00  0.00    -0.744 OA
ENDBRANCH  81  85
ENDBRANCH  55  78
ENDBRANCH  29  30
ENDBRANCH  22  24
ENDBRANCH  21  22
ENDBRANCH  20  21
ENDBRANCH  19  20
ENDBRANCH  18  19
ENDBRANCH   1  18
TORSDOF 22
ENDMDL
MODEL 2
REMARK VINA RESULT:      -9.2      1.705      7.851
REMARK SMILES CC(C)[C@@H](CC(=O)OC(C)(C)C)C(=O)OCCOCCOC(=O)c1ccc(-c2c3nc(c(-c4cc(S(=O)(=O)[O-])ccc4F)c4ccc([nH]4)c(-c4cc(S(=O)(=O)[O-])ccc4F)c4nc(c(-c5cc(S(=O)(=O)[O-])ccc5F)c5ccc2[nH]5)C=C4)C=C3)cc1
REMARK SMILES IDX 17 1 16 2 15 3 13 4 14 5 4 6 2 7 1 8 3 9 5 10 6 11 7 12 8 13
REMARK SMILES IDX 9 14 10 15 11 16 12 17 18 18 19 19 20 20 21 21 22 22 23 23
REMARK SMILES IDX 24 24 25 25 86 26 26 27 85 28 27 29 28 30 29 31 79 32 30 33
REMARK SMILES IDX 84 34 78 35 80 36 31 37 83 38 77 39 76 40 32 42 64 43 44 44
REMARK SMILES IDX 63 45 45 46 48 47 62 48 81 49 46 50 47 51 61 53 82 54 49 55
REMARK SMILES IDX 33 56 34 57 42 58 35 59 41 60 43 61 40 62 36 63 37 64 38 65
REMARK SMILES IDX 39 66 65 67 66 68 74 69 67 70 73 71 75 72 72 73 68 74 69 75
REMARK SMILES IDX 70 76 71 77 50 78 51 79 59 80 52 81 58 82 60 83 57 84 53 85
REMARK SMILES IDX 54 86 55 87 56 88
REMARK H PARENT 80 41 48 52
REMARK Flexibility Score: inf
ROOT
ATOM      1  C   UNL A   1      37.401  21.846  25.413  1.00  0.00     0.202 C 
ENDROOT
BRANCH   1   2
ATOM      2  C   UNL A   1      36.012  22.482  25.315  1.00  0.00     0.261 C 
BRANCH   2   3
ATOM      3  O   UNL A   1      35.805  23.295  24.141  1.00  0.00    -0.463 OA
BRANCH   3   4
ATOM      4  C   UNL A   1      34.594  23.146  23.547  1.00  0.00     0.309 C 
ATOM      5  O   UNL A   1      34.369  23.320  22.354  1.00  0.00    -0.252 OA
BRANCH   4   6
ATOM      6  C   UNL A   1      33.470  22.854  24.528  1.00  0.00     0.113 C 
BRANCH   6   7
ATOM      7  C   UNL A   1      32.549  24.031  24.948  1.00  0.00    -0.003 C 
ATOM      8  C   UNL A   1      31.203  23.954  24.212  1.00  0.00     0.008 C 
ATOM      9  C   UNL A   1      32.264  24.075  26.451  1.00  0.00     0.008 C 
ENDBRANCH   6   7
BRANCH   6  10
ATOM     10  C   UNL A   1      32.750  21.593  24.017  1.00  0.00     0.138 C 
BRANCH  10  11
ATOM     11  C   UNL A   1      32.674  20.472  25.029  1.00  0.00     0.307 C 
ATOM     12  O   UNL A   1      32.998  20.599  26.200  1.00  0.00    -0.252 OA
BRANCH  11  13
ATOM     13  O   UNL A   1      32.190  19.350  24.447  1.00  0.00    -0.460 OA
BRANCH  13  14
ATOM     14  C   UNL A   1      32.991  18.146  24.322  1.00  0.00     0.104 C 
ATOM     15  C   UNL A   1      34.490  18.436  24.465  1.00  0.00     0.056 C 
ATOM     16  C   UNL A   1      32.508  17.084  25.310  1.00  0.00     0.056 C 
ATOM     17  C   UNL A   1      32.728  17.659  22.889  1.00  0.00     0.056 C 
ENDBRANCH  13  14
ENDBRANCH  11  13
ENDBRANCH  10  11
ENDBRANCH   6  10
ENDBRANCH   4   6
ENDBRANCH   3   4
ENDBRANCH   2   3
ENDBRANCH   1   2
BRANCH   1  18
ATOM     18  O   UNL A   1      37.526  20.489  24.991  1.00  0.00    -0.374 OA
BRANCH  18  19
ATOM     19  C   UNL A   1      38.729  19.809  25.335  1.00  0.00     0.202 C 
BRANCH  19  20
ATOM     20  C   UNL A   1      39.778  20.628  26.099  1.00  0.00     0.261 C 
BRANCH  20  21
ATOM     21  O   UNL A   1      41.045  19.946  26.183  1.00  0.00    -0.460 OA
BRANCH  21  22
ATOM     22  C   UNL A   1      42.119  20.768  26.100  1.00  0.00     0.338 C 
ATOM     23  O   UNL A   1      43.121  20.589  25.418  1.00  0.00    -0.246 OA
BRANCH  22  24
ATOM     24  C   UNL A   1      41.879  22.041  26.805  1.00  0.00     0.060 A 
ATOM     25  C   UNL A   1      41.541  23.144  26.011  1.00  0.00     0.016 A 
ATOM     26  C   UNL A   1      42.124  22.202  28.171  1.00  0.00     0.016 A 
ATOM     27  C   UNL A   1      41.543  24.424  26.557  1.00  0.00     0.010 A 
ATOM     28  C   UNL A   1      42.124  23.494  28.720  1.00  0.00     0.010 A 
ATOM     29  C   UNL A   1      41.896  24.616  27.899  1.00  0.00    -0.014 A 
BRANCH  29  30
ATOM     30  C   UNL A   1      42.225  25.998  28.344  1.00  0.00     0.031 A 
ATOM     31  C   UNL A   1      43.641  26.498  28.181  1.00  0.00     0.074 A 
ATOM     32  C   UNL A   1      41.264  26.839  28.771  1.00  0.00     0.049 A 
ATOM     33  N   UNL A   1      44.134  27.689  28.402  1.00  0.00    -0.248 NA
ATOM     34  C   UNL A   1      44.630  25.519  27.705  1.00  0.00     0.031 C 
ATOM     35  C   UNL A   1      39.851  26.491  28.933  1.00  0.00     0.029 A 
ATOM     36  N   UNL A   1      41.326  28.164  29.126  1.00  0.00    -0.354 N 
ATOM     37  C   UNL A   1      45.488  27.606  28.087  1.00  0.00     0.074 A 
ATOM     38  C   UNL A   1      45.745  26.234  27.707  1.00  0.00     0.031 C 
ATOM     39  C   UNL A   1      39.181  27.580  29.348  1.00  0.00     0.029 A 
ATOM     40  C   UNL A   1      40.114  28.694  29.503  1.00  0.00     0.049 A 
ATOM     41  H   UNL A   1      42.160  28.685  29.113  1.00  0.00     0.167 HD
ATOM     42  C   UNL A   1      46.429  28.583  28.100  1.00  0.00     0.034 A 
ATOM     43  C   UNL A   1      39.794  29.935  29.925  1.00  0.00     0.034 A 
ATOM     44  C   UNL A   1      46.168  29.950  28.480  1.00  0.00     0.049 A 
ATOM     45  C   UNL A   1      40.869  30.997  29.973  1.00  0.00     0.074 A 
ATOM     46  C   UNL A   1      47.047  31.018  28.519  1.00  0.00     0.029 A 
ATOM     47  N   UNL A   1      44.935  30.440  28.890  1.00  0.00    -0.354 N 
ATOM     48  N   UNL A   1      42.141  30.904  29.656  1.00  0.00    -0.248 NA
ATOM     49  C   UNL A   1      40.457  32.335  30.413  1.00  0.00     0.031 C 
ATOM     50  C   UNL A   1      46.364  32.135  29.015  1.00  0.00     0.029 A 
ATOM     51  C   UNL A   1      45.037  31.786  29.211  1.00  0.00     0.049 A 
ATOM     52  H   UNL A   1      44.108  29.909  28.947  1.00  0.00     0.167 HD
ATOM     53  C   UNL A   1      42.668  32.182  29.826  1.00  0.00     0.074 A 
ATOM     54  C   UNL A   1      41.574  33.028  30.253  1.00  0.00     0.031 C 
ATOM     55  C   UNL A   1      43.942  32.620  29.642  1.00  0.00     0.034 A 
BRANCH  42  56
ATOM     56  C   UNL A   1      47.843  28.190  27.740  1.00  0.00     0.023 A 
ATOM     57  C   UNL A   1      48.330  28.286  26.423  1.00  0.00     0.031 A 
ATOM     58  C   UNL A   1      48.710  27.692  28.729  1.00  0.00     0.131 A 
ATOM     59  C   UNL A   1      49.624  27.832  26.122  1.00  0.00     0.055 A 
ATOM     60  C   UNL A   1      50.021  27.312  28.435  1.00  0.00     0.041 A 
ATOM     61  F   UNL A   1      48.293  27.556  29.997  1.00  0.00    -0.206 F 
ATOM     62  C   UNL A   1      50.481  27.369  27.123  1.00  0.00     0.022 A 
BRANCH  59  63
ATOM     63  S   UNL A   1      50.130  27.734  24.383  1.00  0.00     0.124 S 
ATOM     64  O   UNL A   1      48.847  27.864  23.696  1.00  0.00    -0.237 OA
ATOM     65  O   UNL A   1      51.042  28.864  24.255  1.00  0.00    -0.237 OA
ATOM     66  O   UNL A   1      50.751  26.415  24.280  1.00  0.00    -0.744 OA
ENDBRANCH  59  63
ENDBRANCH  42  56
BRANCH  43  67
ATOM     67  C   UNL A   1      38.405  30.249  30.369  1.00  0.00     0.023 A 
ATOM     68  C   UNL A   1      37.467  30.824  29.496  1.00  0.00     0.031 A 
ATOM     69  C   UNL A   1      38.020  30.045  31.706  1.00  0.00     0.131 A 
ATOM     70  C   UNL A   1      36.212  31.225  29.982  1.00  0.00     0.055 A 
ATOM     71  C   UNL A   1      36.752  30.395  32.173  1.00  0.00     0.041 A 
ATOM     72  F   UNL A   1      38.878  29.501  32.585  1.00  0.00    -0.206 F 
ATOM     73  C   UNL A   1      35.845  31.004  31.312  1.00  0.00     0.022 A 
BRANCH  70  74
ATOM     74  S   UNL A   1      35.100  32.136  28.876  1.00  0.00     0.124 S 
ATOM     75  O   UNL A   1      34.542  31.060  28.064  1.00  0.00    -0.237 OA
ATOM     76  O   UNL A   1      34.184  32.767  29.821  1.00  0.00    -0.237 OA
ATOM     77  O   UNL A   1      35.994  33.052  28.172  1.00  0.00    -0.744 OA
ENDBRANCH  70  74
ENDBRANCH  43  67
BRANCH  55  78
ATOM     78  C   UNL A   1      44.198  34.094  29.854  1.00  0.00     0.023 A 
ATOM     79  C   UNL A   1      44.161  35.016  28.793  1.00  0.00     0.031 A 
ATOM     80  C   UNL A   1      44.518  34.578  31.136  1.00  0.00     0.131 A 
ATOM     81  C   UNL A   1      44.508  36.357  29.017  1.00  0.00     0.055 A 
ATOM     82  C   UNL A   1      44.799  35.927  31.365  1.00  0.00     0.041 A 
ATOM     83  F   UNL A   1      44.569  33.746  32.189  1.00  0.00    -0.206 F 
ATOM     84  C   UNL A   1      44.813  36.821  30.299  1.00  0.00     0.022 A 
BRANCH  81  85
ATOM     85  S   UNL A   1      44.674  37.465  27.589  1.00  0.00     0.124 S 
ATOM     86  O   UNL A   1      45.612  36.732  26.743  1.00  0.00    -0.237 OA
ATOM     87  O   UNL A   1      43.303  37.545  27.098  1.00  0.00    -0.237 OA
ATOM     88  O   UNL A   1      45.198  38.698  28.171  1.00  0.00    -0.744 OA
ENDBRANCH  81  85
ENDBRANCH  55  78
ENDBRANCH  29  30
ENDBRANCH  22  24
ENDBRANCH  21  22
ENDBRANCH  20  21
ENDBRANCH  19  20
ENDBRANCH  18  19
ENDBRANCH   1  18
TORSDOF 22
ENDMDL
MODEL 3
REMARK VINA RESULT:      -9.2      1.641      7.973
REMARK SMILES CC(C)[C@@H](CC(=O)OC(C)(C)C)C(=O)OCCOCCOC(=O)c1ccc(-c2c3nc(c(-c4cc(S(=O)(=O)[O-])ccc4F)c4ccc([nH]4)c(-c4cc(S(=O)(=O)[O-])ccc4F)c4nc(c(-c5cc(S(=O)(=O)[O-])ccc5F)c5ccc2[nH]5)C=C4)C=C3)cc1
REMARK SMILES IDX 17 1 16 2 15 3 13 4 14 5 4 6 2 7 1 8 3 9 5 10 6 11 7 12 8 13
REMARK SMILES IDX 9 14 10 15 11 16 12 17 18 18 19 19 20 20 21 21 22 22 23 23
REMARK SMILES IDX 24 24 25 25 86 26 26 27 85 28 27 29 28 30 29 31 79 32 30 33
REMARK SMILES IDX 84 34 78 35 80 36 31 37 83 38 77 39 76 40 32 42 64 43 44 44
REMARK SMILES IDX 63 45 45 46 48 47 62 48 81 49 46 50 47 51 61 53 82 54 49 55
REMARK SMILES IDX 33 56 34 57 42 58 35 59 41 60 43 61 40 62 36 63 37 64 38 65
REMARK SMILES IDX 39 66 65 67 66 68 74 69 67 70 73 71 75 72 72 73 68 74 69 75
REMARK SMILES IDX 70 76 71 77 50 78 51 79 59 80 52 81 58 82 60 83 57 84 53 85
REMARK SMILES IDX 54 86 55 87 56 88
REMARK H PARENT 80 41 48 52
REMARK Flexibility Score: inf
ROOT
ATOM      1  C   UNL A   1      36.214  21.044  25.198  1.00  0.00     0.202 C 
ENDROOT
BRANCH   1   2
ATOM      2  C   UNL A   1      34.850  21.491  24.664  1.00  0.00     0.261 C 
BRANCH   2   3
ATOM      3  O   UNL A   1      34.089  22.315  25.572  1.00  0.00    -0.463 OA
BRANCH   3   4
ATOM      4  C   UNL A   1      34.166  23.649  25.337  1.00  0.00     0.309 C 
ATOM      5  O   UNL A   1      35.126  24.360  25.617  1.00  0.00    -0.252 OA
BRANCH   4   6
ATOM      6  C   UNL A   1      32.877  24.242  24.789  1.00  0.00     0.113 C 
BRANCH   6   7
ATOM      7  C   UNL A   1      31.627  23.323  24.721  1.00  0.00    -0.003 C 
ATOM      8  C   UNL A   1      30.696  23.586  25.914  1.00  0.00     0.008 C 
ATOM      9  C   UNL A   1      30.813  23.499  23.437  1.00  0.00     0.008 C 
ENDBRANCH   6   7
BRANCH   6  10
ATOM     10  C   UNL A   1      32.673  25.593  25.497  1.00  0.00     0.138 C 
BRANCH  10  11
ATOM     11  C   UNL A   1      32.897  26.796  24.609  1.00  0.00     0.307 C 
ATOM     12  O   UNL A   1      33.900  26.953  23.929  1.00  0.00    -0.252 OA
BRANCH  11  13
ATOM     13  O   UNL A   1      31.834  27.631  24.678  1.00  0.00    -0.460 OA
BRANCH  13  14
ATOM     14  C   UNL A   1      30.752  27.573  23.712  1.00  0.00     0.104 C 
ATOM     15  C   UNL A   1      31.224  27.050  22.351  1.00  0.00     0.056 C 
ATOM     16  C   UNL A   1      29.585  26.761  24.274  1.00  0.00     0.056 C 
ATOM     17  C   UNL A   1      30.313  29.036  23.542  1.00  0.00     0.056 C 
ENDBRANCH  13  14
ENDBRANCH  11  13
ENDBRANCH  10  11
ENDBRANCH   6  10
ENDBRANCH   4   6
ENDBRANCH   3   4
ENDBRANCH   2   3
ENDBRANCH   1   2
BRANCH   1  18
ATOM     18  O   UNL A   1      36.570  19.677  25.006  1.00  0.00    -0.374 OA
BRANCH  18  19
ATOM     19  C   UNL A   1      37.960  19.364  24.989  1.00  0.00     0.202 C 
BRANCH  19  20
ATOM     20  C   UNL A   1      38.901  20.419  25.585  1.00  0.00     0.261 C 
BRANCH  20  21
ATOM     21  O   UNL A   1      39.989  19.823  26.320  1.00  0.00    -0.460 OA
BRANCH  21  22
ATOM     22  C   UNL A   1      41.162  20.491  26.204  1.00  0.00     0.338 C 
ATOM     23  O   UNL A   1      42.110  20.178  25.494  1.00  0.00    -0.246 OA
BRANCH  22  24
ATOM     24  C   UNL A   1      41.119  21.785  26.910  1.00  0.00     0.060 A 
ATOM     25  C   UNL A   1      40.620  22.877  26.189  1.00  0.00     0.016 A 
ATOM     26  C   UNL A   1      41.685  21.971  28.174  1.00  0.00     0.016 A 
ATOM     27  C   UNL A   1      40.774  24.169  26.683  1.00  0.00     0.010 A 
ATOM     28  C   UNL A   1      41.838  23.276  28.671  1.00  0.00     0.010 A 
ATOM     29  C   UNL A   1      41.439  24.383  27.898  1.00  0.00    -0.014 A 
BRANCH  29  30
ATOM     30  C   UNL A   1      41.888  25.767  28.213  1.00  0.00     0.031 A 
ATOM     31  C   UNL A   1      43.227  26.235  27.695  1.00  0.00     0.074 A 
ATOM     32  C   UNL A   1      41.074  26.636  28.843  1.00  0.00     0.049 A 
ATOM     33  N   UNL A   1      43.777  27.420  27.757  1.00  0.00    -0.248 NA
ATOM     34  C   UNL A   1      44.054  25.226  27.013  1.00  0.00     0.031 C 
ATOM     35  C   UNL A   1      39.740  26.320  29.356  1.00  0.00     0.029 A 
ATOM     36  N   UNL A   1      41.241  27.966  29.139  1.00  0.00    -0.354 N 
ATOM     37  C   UNL A   1      45.010  27.303  27.121  1.00  0.00     0.074 A 
ATOM     38  C   UNL A   1      45.145  25.918  26.723  1.00  0.00     0.031 C 
ATOM     39  C   UNL A   1      39.209  27.431  29.896  1.00  0.00     0.029 A 
ATOM     40  C   UNL A   1      40.168  28.529  29.789  1.00  0.00     0.049 A 
ATOM     41  H   UNL A   1      42.054  28.470  28.907  1.00  0.00     0.167 HD
ATOM     42  C   UNL A   1      45.940  28.260  26.877  1.00  0.00     0.034 A 
ATOM     43  C   UNL A   1      39.980  29.785  30.246  1.00  0.00     0.034 A 
ATOM     44  C   UNL A   1      45.800  29.640  27.276  1.00  0.00     0.049 A 
ATOM     45  C   UNL A   1      41.049  30.825  30.001  1.00  0.00     0.074 A 
ATOM     46  C   UNL A   1      46.677  30.691  27.071  1.00  0.00     0.029 A 
ATOM     47  N   UNL A   1      44.713  30.163  27.965  1.00  0.00    -0.354 N 
ATOM     48  N   UNL A   1      42.202  30.699  29.383  1.00  0.00    -0.248 NA
ATOM     49  C   UNL A   1      40.778  32.180  30.496  1.00  0.00     0.031 C 
ATOM     50  C   UNL A   1      46.154  31.831  27.692  1.00  0.00     0.029 A 
ATOM     51  C   UNL A   1      44.911  31.513  28.217  1.00  0.00     0.049 A 
ATOM     52  H   UNL A   1      43.918  29.651  28.236  1.00  0.00     0.167 HD
ATOM     53  C   UNL A   1      42.774  31.970  29.386  1.00  0.00     0.074 A 
ATOM     54  C   UNL A   1      41.831  32.847  30.048  1.00  0.00     0.031 C 
ATOM     55  C   UNL A   1      43.968  32.378  28.884  1.00  0.00     0.034 A 
BRANCH  42  56
ATOM     56  C   UNL A   1      47.215  27.832  26.190  1.00  0.00     0.023 A 
ATOM     57  C   UNL A   1      47.406  27.994  24.806  1.00  0.00     0.031 A 
ATOM     58  C   UNL A   1      48.248  27.233  26.932  1.00  0.00     0.131 A 
ATOM     59  C   UNL A   1      48.574  27.505  24.199  1.00  0.00     0.055 A 
ATOM     60  C   UNL A   1      49.439  26.816  26.333  1.00  0.00     0.041 A 
ATOM     61  F   UNL A   1      48.113  27.031  28.252  1.00  0.00    -0.206 F 
ATOM     62  C   UNL A   1      49.602  26.940  24.957  1.00  0.00     0.022 A 
BRANCH  59  63
ATOM     63  S   UNL A   1      48.678  27.501  22.389  1.00  0.00     0.124 S 
ATOM     64  O   UNL A   1      47.451  28.203  22.021  1.00  0.00    -0.237 OA
ATOM     65  O   UNL A   1      49.923  28.218  22.142  1.00  0.00    -0.237 OA
ATOM     66  O   UNL A   1      48.698  26.079  22.049  1.00  0.00    -0.744 OA
ENDBRANCH  59  63
ENDBRANCH  42  56
BRANCH  43  67
ATOM     67  C   UNL A   1      38.748  30.136  31.010  1.00  0.00     0.023 A 
ATOM     68  C   UNL A   1      37.680  30.820  30.408  1.00  0.00     0.031 A 
ATOM     69  C   UNL A   1      38.657  29.853  32.385  1.00  0.00     0.131 A 
ATOM     70  C   UNL A   1      36.594  31.249  31.189  1.00  0.00     0.055 A 
ATOM     71  C   UNL A   1      37.550  30.232  33.146  1.00  0.00     0.041 A 
ATOM     72  F   UNL A   1      39.650  29.202  33.012  1.00  0.00    -0.206 F 
ATOM     73  C   UNL A   1      36.516  30.949  32.551  1.00  0.00     0.022 A 
BRANCH  70  74
ATOM     74  S   UNL A   1      35.327  32.295  30.419  1.00  0.00     0.124 S 
ATOM     75  O   UNL A   1      34.298  32.324  31.452  1.00  0.00    -0.237 OA
ATOM     76  O   UNL A   1      36.055  33.540  30.203  1.00  0.00    -0.237 OA
ATOM     77  O   UNL A   1      34.973  31.563  29.204  1.00  0.00    -0.744 OA
ENDBRANCH  70  74
ENDBRANCH  43  67
BRANCH  55  78
ATOM     78  C   UNL A   1      44.291  33.851  28.990  1.00  0.00     0.023 A 
ATOM     79  C   UNL A   1      44.865  34.406  30.147  1.00  0.00     0.031 A 
ATOM     80  C   UNL A   1      43.988  34.718  27.924  1.00  0.00     0.131 A 
ATOM     81  C   UNL A   1      45.051  35.793  30.241  1.00  0.00     0.055 A 
ATOM     82  C   UNL A   1      44.236  36.091  27.998  1.00  0.00     0.041 A 
ATOM     83  F   UNL A   1      43.440  34.247  26.793  1.00  0.00    -0.206 F 
ATOM     84  C   UNL A   1      44.753  36.638  29.168  1.00  0.00     0.022 A 
BRANCH  81  85
ATOM     85  S   UNL A   1      45.574  36.498  31.830  1.00  0.00     0.124 S 
ATOM     86  O   UNL A   1      44.306  36.621  32.541  1.00  0.00    -0.237 OA
ATOM     87  O   UNL A   1      46.490  35.479  32.333  1.00  0.00    -0.237 OA
ATOM     88  O   UNL A   1      46.200  37.764  31.454  1.00  0.00    -0.744 OA
ENDBRANCH  81  85
ENDBRANCH  55  78
ENDBRANCH  29  30
ENDBRANCH  22  24
ENDBRANCH  21  22
ENDBRANCH  20  21
ENDBRANCH  19  20
ENDBRANCH  18  19
ENDBRANCH   1  18
TORSDOF 22
ENDMDL
