MODEL 1
REMARK VINA RESULT:     -11.9      0.000      0.000
REMARK SMILES C[C@@H]1CCC[C@H](C)[N@H+]1Cc1cc2c(cc1Cl)C=C(C(=O)OCCOCCOC(=O)c1ccc(-c3c4nc(c(-c5cc(S(=O)(=O)[O-])ccc5F)c5ccc([nH]5)c(-c5cc(S(=O)(=O)[O-])ccc5F)c5nc(c(-c6cc(S(=O)(=O)[O-])ccc6F)c6ccc3[nH]6)C=C5)C=C4)cc1)[C@@H](C(F)(F)F)O2
REMARK SMILES IDX 25 1 24 2 23 3 22 4 21 5 19 6 20 7 18 8 10 9 11 10 15 11
REMARK SMILES IDX 12 12 14 13 16 14 13 15 98 16 17 17 93 18 9 19 8 20 7 21
REMARK SMILES IDX 6 22 5 23 4 24 2 25 3 27 1 28 94 29 95 30 96 31 97 32 26 33
REMARK SMILES IDX 27 34 28 35 29 36 30 37 31 38 92 39 32 40 91 41 33 42 34 43
REMARK SMILES IDX 35 44 85 45 36 46 90 47 84 48 86 49 37 50 89 51 83 52 82 53
REMARK SMILES IDX 38 55 70 56 50 57 69 58 51 59 54 60 68 61 87 62 52 63 53 64
REMARK SMILES IDX 67 66 88 67 55 68 39 69 40 70 48 71 41 72 47 73 49 74 46 75
REMARK SMILES IDX 42 76 43 77 44 78 45 79 71 80 72 81 80 82 73 83 79 84 81 85
REMARK SMILES IDX 78 86 74 87 75 88 76 89 77 90 56 91 57 92 65 93 58 94 64 95
REMARK SMILES IDX 66 96 63 97 59 98 60 99 61 100 62 101
REMARK H PARENT 8 26 86 54 54 65
REMARK Flexibility Score: inf
ROOT
ATOM      1  C   UNL A   1      41.623  20.347  26.727  1.00  0.00     0.202 C 
ENDROOT
BRANCH   1   2
ATOM      2  O   UNL A   1      40.317  20.227  26.168  1.00  0.00    -0.374 OA
BRANCH   2   3
ATOM      3  C   UNL A   1      39.367  21.258  26.425  1.00  0.00     0.202 C 
BRANCH   3   4
ATOM      4  C   UNL A   1      38.401  21.637  25.300  1.00  0.00     0.261 C 
BRANCH   4   5
ATOM      5  O   UNL A   1      37.034  21.675  25.740  1.00  0.00    -0.460 OA
BRANCH   5   6
ATOM      6  C   UNL A   1      36.219  20.860  25.034  1.00  0.00     0.338 C 
ATOM      7  O   UNL A   1      36.292  19.642  24.966  1.00  0.00    -0.246 OA
BRANCH   6   8
ATOM      8  C   UNL A   1      35.121  21.619  24.411  1.00  0.00     0.087 C 
ATOM      9  C   UNL A   1      32.418  25.441  22.577  1.00  0.00     0.029 A 
ATOM     10  C   UNL A   1      32.155  24.065  22.776  1.00  0.00     0.058 A 
ATOM     11  C   UNL A   1      33.614  25.962  23.098  1.00  0.00     0.050 A 
ATOM     12  C   UNL A   1      33.129  23.219  23.316  1.00  0.00     0.128 A 
ATOM     13  C   UNL A   1      34.612  25.107  23.556  1.00  0.00     0.033 A 
ATOM     14  Cl  UNL A   1      33.949  27.655  23.204  1.00  0.00    -0.084 Cl
ATOM     15  C   UNL A   1      34.383  23.737  23.623  1.00  0.00     0.019 A 
ATOM     16  O   UNL A   1      32.829  21.890  23.460  1.00  0.00    -0.475 OA
ATOM     17  C   UNL A   1      35.453  22.860  24.039  1.00  0.00     0.027 C 
ATOM     18  C   UNL A   1      33.718  21.084  24.308  1.00  0.00     0.316 C 
BRANCH   9  19
ATOM     19  C   UNL A   1      31.463  26.282  21.749  1.00  0.00     0.301 C 
BRANCH  19  20
ATOM     20  N   UNL A   1      30.392  27.014  22.474  1.00  0.00    -0.327 N 
ATOM     21  C   UNL A   1      29.204  29.193  22.418  1.00  0.00     0.075 C 
ATOM     22  C   UNL A   1      30.561  28.474  22.521  1.00  0.00     0.181 C 
ATOM     23  C   UNL A   1      31.329  28.972  23.755  1.00  0.00     0.065 C 
ATOM     24  C   UNL A   1      30.837  28.371  25.066  1.00  0.00     0.012 C 
ATOM     25  C   UNL A   1      29.922  26.385  23.719  1.00  0.00     0.181 C 
ATOM     26  H   UNL A   1      29.583  26.900  21.863  1.00  0.00     0.348 HD
ATOM     27  C   UNL A   1      30.659  26.860  24.983  1.00  0.00     0.065 C 
ATOM     28  C   UNL A   1      28.403  26.521  23.905  1.00  0.00     0.075 C 
ENDBRANCH  19  20
ENDBRANCH   9  19
BRANCH  18  29
ATOM     29  C   UNL A   1      33.099  20.891  25.700  1.00  0.00     0.430 C 
ATOM     30  F   UNL A   1      33.717  21.654  26.630  1.00  0.00    -0.167 F 
ATOM     31  F   UNL A   1      31.790  21.235  25.710  1.00  0.00    -0.167 F 
ATOM     32  F   UNL A   1      33.179  19.603  26.113  1.00  0.00    -0.167 F 
ENDBRANCH  18  29
ENDBRANCH   6   8
ENDBRANCH   5   6
ENDBRANCH   4   5
ENDBRANCH   3   4
ENDBRANCH   2   3
ENDBRANCH   1   2
BRANCH   1  33
ATOM     33  C   UNL A   1      42.692  21.121  25.944  1.00  0.00     0.261 C 
BRANCH  33  34
ATOM     34  O   UNL A   1      43.118  22.321  26.608  1.00  0.00    -0.460 OA
BRANCH  34  35
ATOM     35  C   UNL A   1      42.977  23.456  25.877  1.00  0.00     0.338 C 
ATOM     36  O   UNL A   1      43.086  23.565  24.664  1.00  0.00    -0.246 OA
BRANCH  35  37
ATOM     37  C   UNL A   1      42.449  24.529  26.741  1.00  0.00     0.060 A 
ATOM     38  C   UNL A   1      41.361  24.308  27.586  1.00  0.00     0.016 A 
ATOM     39  C   UNL A   1      43.085  25.778  26.713  1.00  0.00     0.016 A 
ATOM     40  C   UNL A   1      40.931  25.335  28.428  1.00  0.00     0.010 A 
ATOM     41  C   UNL A   1      42.658  26.800  27.561  1.00  0.00     0.010 A 
ATOM     42  C   UNL A   1      41.589  26.580  28.440  1.00  0.00    -0.014 A 
BRANCH  42  43
ATOM     43  C   UNL A   1      41.250  27.579  29.485  1.00  0.00     0.031 A 
ATOM     44  C   UNL A   1      40.083  28.506  29.350  1.00  0.00     0.074 A 
ATOM     45  C   UNL A   1      42.041  27.649  30.572  1.00  0.00     0.049 A 
ATOM     46  N   UNL A   1      39.591  29.331  30.236  1.00  0.00    -0.248 NA
ATOM     47  C   UNL A   1      39.385  28.523  28.056  1.00  0.00     0.031 C 
ATOM     48  C   UNL A   1      43.250  26.850  30.769  1.00  0.00     0.029 A 
ATOM     49  N   UNL A   1      41.952  28.409  31.711  1.00  0.00    -0.354 N 
ATOM     50  C   UNL A   1      38.519  29.962  29.619  1.00  0.00     0.074 A 
ATOM     51  C   UNL A   1      38.467  29.459  28.261  1.00  0.00     0.031 C 
ATOM     52  C   UNL A   1      43.766  27.129  31.973  1.00  0.00     0.029 A 
ATOM     53  C   UNL A   1      42.951  28.154  32.621  1.00  0.00     0.049 A 
ATOM     54  H   UNL A   1      41.241  29.074  31.862  1.00  0.00     0.167 HD
ATOM     55  C   UNL A   1      37.656  30.864  30.147  1.00  0.00     0.034 A 
ATOM     56  C   UNL A   1      43.186  28.674  33.844  1.00  0.00     0.034 A 
ATOM     57  C   UNL A   1      37.740  31.357  31.501  1.00  0.00     0.049 A 
ATOM     58  C   UNL A   1      42.204  29.659  34.420  1.00  0.00     0.074 A 
ATOM     59  C   UNL A   1      36.861  32.204  32.153  1.00  0.00     0.029 A 
ATOM     60  N   UNL A   1      38.759  31.076  32.402  1.00  0.00    -0.354 N 
ATOM     61  N   UNL A   1      41.106  30.135  33.880  1.00  0.00    -0.248 NA
ATOM     62  C   UNL A   1      42.471  30.162  35.773  1.00  0.00     0.031 C 
ATOM     63  C   UNL A   1      37.397  32.513  33.404  1.00  0.00     0.029 A 
ATOM     64  C   UNL A   1      38.555  31.773  33.584  1.00  0.00     0.049 A 
ATOM     65  H   UNL A   1      39.516  30.471  32.227  1.00  0.00     0.167 HD
ATOM     66  C   UNL A   1      40.542  30.976  34.835  1.00  0.00     0.074 A 
ATOM     67  C   UNL A   1      41.405  30.921  35.996  1.00  0.00     0.031 C 
ATOM     68  C   UNL A   1      39.411  31.723  34.749  1.00  0.00     0.034 A 
BRANCH  55  69
ATOM     69  C   UNL A   1      36.528  31.383  29.286  1.00  0.00     0.023 A 
ATOM     70  C   UNL A   1      35.583  30.487  28.751  1.00  0.00     0.031 A 
ATOM     71  C   UNL A   1      36.472  32.727  28.873  1.00  0.00     0.131 A 
ATOM     72  C   UNL A   1      34.651  30.933  27.807  1.00  0.00     0.055 A 
ATOM     73  C   UNL A   1      35.506  33.178  27.971  1.00  0.00     0.041 A 
ATOM     74  F   UNL A   1      37.355  33.624  29.342  1.00  0.00    -0.206 F 
ATOM     75  C   UNL A   1      34.601  32.277  27.422  1.00  0.00     0.022 A 
BRANCH  72  76
ATOM     76  S   UNL A   1      33.529  29.776  26.976  1.00  0.00     0.124 S 
ATOM     77  O   UNL A   1      32.551  30.684  26.380  1.00  0.00    -0.237 OA
ATOM     78  O   UNL A   1      34.422  29.112  26.029  1.00  0.00    -0.237 OA
ATOM     79  O   UNL A   1      33.022  28.939  28.058  1.00  0.00    -0.744 OA
ENDBRANCH  72  76
ENDBRANCH  55  69
BRANCH  56  80
ATOM     80  C   UNL A   1      44.371  28.184  34.606  1.00  0.00     0.023 A 
ATOM     81  C   UNL A   1      44.208  27.271  35.665  1.00  0.00     0.031 A 
ATOM     82  C   UNL A   1      45.644  28.737  34.399  1.00  0.00     0.131 A 
ATOM     83  C   UNL A   1      45.276  27.017  36.533  1.00  0.00     0.055 A 
ATOM     84  C   UNL A   1      46.729  28.415  35.218  1.00  0.00     0.041 A 
ATOM     85  F   UNL A   1      45.845  29.625  33.413  1.00  0.00    -0.206 F 
ATOM     86  C   UNL A   1      46.541  27.567  36.307  1.00  0.00     0.022 A 
BRANCH  83  87
ATOM     87  S   UNL A   1      45.014  26.098  38.076  1.00  0.00     0.124 S 
ATOM     88  O   UNL A   1      43.671  26.520  38.460  1.00  0.00    -0.237 OA
ATOM     89  O   UNL A   1      45.135  24.716  37.619  1.00  0.00    -0.237 OA
ATOM     90  O   UNL A   1      46.092  26.562  38.942  1.00  0.00    -0.744 OA
ENDBRANCH  83  87
ENDBRANCH  56  80
BRANCH  68  91
ATOM     91  C   UNL A   1      39.000  32.567  35.936  1.00  0.00     0.023 A 
ATOM     92  C   UNL A   1      39.457  33.896  36.042  1.00  0.00     0.031 A 
ATOM     93  C   UNL A   1      38.308  32.018  37.030  1.00  0.00     0.131 A 
ATOM     94  C   UNL A   1      39.266  34.610  37.232  1.00  0.00     0.055 A 
ATOM     95  C   UNL A   1      38.066  32.755  38.191  1.00  0.00     0.041 A 
ATOM     96  F   UNL A   1      37.861  30.752  36.989  1.00  0.00    -0.206 F 
ATOM     97  C   UNL A   1      38.562  34.051  38.303  1.00  0.00     0.022 A 
BRANCH  94  98
ATOM     98  S   UNL A   1      40.017  36.244  37.476  1.00  0.00     0.124 S 
ATOM     99  O   UNL A   1      41.361  35.895  37.932  1.00  0.00    -0.237 OA
ATOM    100  O   UNL A   1      39.944  36.819  36.136  1.00  0.00    -0.237 OA
ATOM    101  O   UNL A   1      39.166  36.877  38.478  1.00  0.00    -0.744 OA
ENDBRANCH  94  98
ENDBRANCH  68  91
ENDBRANCH  42  43
ENDBRANCH  35  37
ENDBRANCH  34  35
ENDBRANCH  33  34
ENDBRANCH   1  33
TORSDOF 20
ENDMDL
MODEL 2
REMARK VINA RESULT:     -11.8      4.752      8.160
REMARK SMILES C[C@@H]1CCC[C@H](C)[N@H+]1Cc1cc2c(cc1Cl)C=C(C(=O)OCCOCCOC(=O)c1ccc(-c3c4nc(c(-c5cc(S(=O)(=O)[O-])ccc5F)c5ccc([nH]5)c(-c5cc(S(=O)(=O)[O-])ccc5F)c5nc(c(-c6cc(S(=O)(=O)[O-])ccc6F)c6ccc3[nH]6)C=C5)C=C4)cc1)[C@@H](C(F)(F)F)O2
REMARK SMILES IDX 25 1 24 2 23 3 22 4 21 5 19 6 20 7 18 8 10 9 11 10 15 11
REMARK SMILES IDX 12 12 14 13 16 14 13 15 98 16 17 17 93 18 9 19 8 20 7 21
REMARK SMILES IDX 6 22 5 23 4 24 2 25 3 27 1 28 94 29 95 30 96 31 97 32 26 33
REMARK SMILES IDX 27 34 28 35 29 36 30 37 31 38 92 39 32 40 91 41 33 42 34 43
REMARK SMILES IDX 35 44 85 45 36 46 90 47 84 48 86 49 37 50 89 51 83 52 82 53
REMARK SMILES IDX 38 55 70 56 50 57 69 58 51 59 54 60 68 61 87 62 52 63 53 64
REMARK SMILES IDX 67 66 88 67 55 68 39 69 40 70 48 71 41 72 47 73 49 74 46 75
REMARK SMILES IDX 42 76 43 77 44 78 45 79 71 80 72 81 80 82 73 83 79 84 81 85
REMARK SMILES IDX 78 86 74 87 75 88 76 89 77 90 56 91 57 92 65 93 58 94 64 95
REMARK SMILES IDX 66 96 63 97 59 98 60 99 61 100 62 101
REMARK H PARENT 8 26 86 54 54 65
REMARK Flexibility Score: inf
ROOT
ATOM      1  C   UNL A   1      37.336  19.563  24.727  1.00  0.00     0.202 C 
ENDROOT
BRANCH   1   2
ATOM      2  O   UNL A   1      36.319  18.681  25.197  1.00  0.00    -0.374 OA
BRANCH   2   3
ATOM      3  C   UNL A   1      35.151  18.501  24.401  1.00  0.00     0.202 C 
BRANCH   3   4
ATOM      4  C   UNL A   1      33.818  19.001  24.963  1.00  0.00     0.261 C 
BRANCH   4   5
ATOM      5  O   UNL A   1      33.608  20.400  24.713  1.00  0.00    -0.460 OA
BRANCH   5   6
ATOM      6  C   UNL A   1      33.798  21.177  25.802  1.00  0.00     0.338 C 
ATOM      7  O   UNL A   1      33.978  20.789  26.948  1.00  0.00    -0.246 OA
BRANCH   6   8
ATOM      8  C   UNL A   1      33.871  22.601  25.432  1.00  0.00     0.087 C 
ATOM      9  C   UNL A   1      33.313  26.886  22.863  1.00  0.00     0.029 A 
ATOM     10  C   UNL A   1      33.997  26.542  24.052  1.00  0.00     0.058 A 
ATOM     11  C   UNL A   1      32.755  25.845  22.102  1.00  0.00     0.050 A 
ATOM     12  C   UNL A   1      33.970  25.232  24.543  1.00  0.00     0.128 A 
ATOM     13  C   UNL A   1      32.656  24.562  22.633  1.00  0.00     0.033 A 
ATOM     14  Cl  UNL A   1      32.152  26.056  20.496  1.00  0.00    -0.084 Cl
ATOM     15  C   UNL A   1      33.225  24.271  23.869  1.00  0.00     0.019 A 
ATOM     16  O   UNL A   1      34.628  24.963  25.713  1.00  0.00    -0.475 OA
ATOM     17  C   UNL A   1      33.055  22.952  24.432  1.00  0.00     0.027 C 
ATOM     18  C   UNL A   1      34.862  23.551  26.049  1.00  0.00     0.316 C 
BRANCH   9  19
ATOM     19  C   UNL A   1      33.125  28.347  22.493  1.00  0.00     0.301 C 
BRANCH  19  20
ATOM     20  N   UNL A   1      31.929  29.041  23.035  1.00  0.00    -0.327 N 
ATOM     21  C   UNL A   1      31.191  30.252  25.072  1.00  0.00     0.075 C 
ATOM     22  C   UNL A   1      31.762  28.946  24.493  1.00  0.00     0.181 C 
ATOM     23  C   UNL A   1      30.908  27.751  24.944  1.00  0.00     0.065 C 
ATOM     24  C   UNL A   1      29.605  27.602  24.169  1.00  0.00     0.012 C 
ATOM     25  C   UNL A   1      30.697  28.899  22.240  1.00  0.00     0.181 C 
ATOM     26  H   UNL A   1      32.154  30.027  22.897  1.00  0.00     0.348 HD
ATOM     27  C   UNL A   1      29.806  27.719  22.663  1.00  0.00     0.065 C 
ATOM     28  C   UNL A   1      29.877  30.198  22.198  1.00  0.00     0.075 C 
ENDBRANCH  19  20
ENDBRANCH   9  19
BRANCH  18  29
ATOM     29  C   UNL A   1      36.302  23.150  25.696  1.00  0.00     0.430 C 
ATOM     30  F   UNL A   1      36.379  22.610  24.458  1.00  0.00    -0.167 F 
ATOM     31  F   UNL A   1      37.131  24.220  25.714  1.00  0.00    -0.167 F 
ATOM     32  F   UNL A   1      36.800  22.241  26.568  1.00  0.00    -0.167 F 
ENDBRANCH  18  29
ENDBRANCH   6   8
ENDBRANCH   5   6
ENDBRANCH   4   5
ENDBRANCH   3   4
ENDBRANCH   2   3
ENDBRANCH   1   2
BRANCH   1  33
ATOM     33  C   UNL A   1      38.737  19.471  25.349  1.00  0.00     0.261 C 
BRANCH  33  34
ATOM     34  O   UNL A   1      39.254  20.745  25.761  1.00  0.00    -0.460 OA
BRANCH  34  35
ATOM     35  C   UNL A   1      40.373  20.684  26.527  1.00  0.00     0.338 C 
ATOM     36  O   UNL A   1      41.123  19.725  26.653  1.00  0.00    -0.246 OA
BRANCH  35  37
ATOM     37  C   UNL A   1      40.692  22.032  27.033  1.00  0.00     0.060 A 
ATOM     38  C   UNL A   1      41.502  22.210  28.155  1.00  0.00     0.016 A 
ATOM     39  C   UNL A   1      40.179  23.139  26.342  1.00  0.00     0.016 A 
ATOM     40  C   UNL A   1      41.824  23.505  28.565  1.00  0.00     0.010 A 
ATOM     41  C   UNL A   1      40.509  24.431  26.750  1.00  0.00     0.010 A 
ATOM     42  C   UNL A   1      41.351  24.625  27.853  1.00  0.00    -0.014 A 
BRANCH  42  43
ATOM     43  C   UNL A   1      41.873  25.976  28.180  1.00  0.00     0.031 A 
ATOM     44  C   UNL A   1      43.253  26.410  27.796  1.00  0.00     0.074 A 
ATOM     45  C   UNL A   1      41.070  26.816  28.860  1.00  0.00     0.049 A 
ATOM     46  N   UNL A   1      43.791  27.597  27.896  1.00  0.00    -0.248 NA
ATOM     47  C   UNL A   1      44.149  25.385  27.243  1.00  0.00     0.031 C 
ATOM     48  C   UNL A   1      39.738  26.469  29.354  1.00  0.00     0.029 A 
ATOM     49  N   UNL A   1      41.241  28.122  29.245  1.00  0.00    -0.354 N 
ATOM     50  C   UNL A   1      45.086  27.472  27.410  1.00  0.00     0.074 A 
ATOM     51  C   UNL A   1      45.268  26.078  27.064  1.00  0.00     0.031 C 
ATOM     52  C   UNL A   1      39.195  27.545  29.938  1.00  0.00     0.029 A 
ATOM     53  C   UNL A   1      40.151  28.649  29.898  1.00  0.00     0.049 A 
ATOM     54  H   UNL A   1      42.066  28.632  29.072  1.00  0.00     0.167 HD
ATOM     55  C   UNL A   1      46.023  28.439  27.257  1.00  0.00     0.034 A 
ATOM     56  C   UNL A   1      39.934  29.883  30.400  1.00  0.00     0.034 A 
ATOM     57  C   UNL A   1      45.818  29.820  27.622  1.00  0.00     0.049 A 
ATOM     58  C   UNL A   1      40.980  30.947  30.201  1.00  0.00     0.074 A 
ATOM     59  C   UNL A   1      46.676  30.889  27.424  1.00  0.00     0.029 A 
ATOM     60  N   UNL A   1      44.702  30.327  28.275  1.00  0.00    -0.354 N 
ATOM     61  N   UNL A   1      42.144  30.852  29.603  1.00  0.00    -0.248 NA
ATOM     62  C   UNL A   1      40.681  32.288  30.720  1.00  0.00     0.031 C 
ATOM     63  C   UNL A   1      46.127  32.012  28.042  1.00  0.00     0.029 A 
ATOM     64  C   UNL A   1      44.873  31.679  28.531  1.00  0.00     0.049 A 
ATOM     65  H   UNL A   1      43.906  29.802  28.522  1.00  0.00     0.167 HD
ATOM     66  C   UNL A   1      42.707  32.123  29.653  1.00  0.00     0.074 A 
ATOM     67  C   UNL A   1      41.743  32.976  30.317  1.00  0.00     0.031 C 
ATOM     68  C   UNL A   1      43.915  32.539  29.191  1.00  0.00     0.034 A 
BRANCH  55  69
ATOM     69  C   UNL A   1      47.361  28.069  26.659  1.00  0.00     0.023 A 
ATOM     70  C   UNL A   1      47.508  27.998  25.260  1.00  0.00     0.031 A 
ATOM     71  C   UNL A   1      48.436  27.644  27.459  1.00  0.00     0.131 A 
ATOM     72  C   UNL A   1      48.684  27.477  24.707  1.00  0.00     0.055 A 
ATOM     73  C   UNL A   1      49.627  27.175  26.901  1.00  0.00     0.041 A 
ATOM     74  F   UNL A   1      48.346  27.677  28.799  1.00  0.00    -0.206 F 
ATOM     75  C   UNL A   1      49.749  27.075  25.520  1.00  0.00     0.022 A 
BRANCH  72  76
ATOM     76  S   UNL A   1      48.845  27.218  22.918  1.00  0.00     0.124 S 
ATOM     77  O   UNL A   1      48.027  28.306  22.385  1.00  0.00    -0.237 OA
ATOM     78  O   UNL A   1      50.284  27.363  22.717  1.00  0.00    -0.237 OA
ATOM     79  O   UNL A   1      48.310  25.878  22.708  1.00  0.00    -0.744 OA
ENDBRANCH  72  76
ENDBRANCH  55  69
BRANCH  56  80
ATOM     80  C   UNL A   1      38.625  30.158  31.061  1.00  0.00     0.023 A 
ATOM     81  C   UNL A   1      37.636  30.906  30.396  1.00  0.00     0.031 A 
ATOM     82  C   UNL A   1      38.410  29.823  32.408  1.00  0.00     0.131 A 
ATOM     83  C   UNL A   1      36.526  31.377  31.107  1.00  0.00     0.055 A 
ATOM     84  C   UNL A   1      37.259  30.225  33.090  1.00  0.00     0.041 A 
ATOM     85  F   UNL A   1      39.332  29.126  33.088  1.00  0.00    -0.206 F 
ATOM     86  C   UNL A   1      36.321  31.026  32.445  1.00  0.00     0.022 A 
BRANCH  83  87
ATOM     87  S   UNL A   1      35.403  32.595  30.367  1.00  0.00     0.124 S 
ATOM     88  O   UNL A   1      35.190  32.045  29.033  1.00  0.00    -0.237 OA
ATOM     89  O   UNL A   1      34.257  32.525  31.270  1.00  0.00    -0.237 OA
ATOM     90  O   UNL A   1      36.160  33.841  30.422  1.00  0.00    -0.744 OA
ENDBRANCH  83  87
ENDBRANCH  56  80
BRANCH  68  91
ATOM     91  C   UNL A   1      44.306  33.990  29.368  1.00  0.00     0.023 A 
ATOM     92  C   UNL A   1      43.786  34.967  28.495  1.00  0.00     0.031 A 
ATOM     93  C   UNL A   1      45.305  34.382  30.276  1.00  0.00     0.131 A 
ATOM     94  C   UNL A   1      44.305  36.268  28.510  1.00  0.00     0.055 A 
ATOM     95  C   UNL A   1      45.775  35.696  30.330  1.00  0.00     0.041 A 
ATOM     96  F   UNL A   1      45.845  33.491  31.123  1.00  0.00    -0.206 F 
ATOM     97  C   UNL A   1      45.288  36.641  29.431  1.00  0.00     0.022 A 
BRANCH  94  98
ATOM     98  S   UNL A   1      43.804  37.491  27.266  1.00  0.00     0.124 S 
ATOM     99  O   UNL A   1      43.021  36.677  26.339  1.00  0.00    -0.237 OA
ATOM    100  O   UNL A   1      43.035  38.442  28.063  1.00  0.00    -0.237 OA
ATOM    101  O   UNL A   1      45.067  37.993  26.737  1.00  0.00    -0.744 OA
ENDBRANCH  94  98
ENDBRANCH  68  91
ENDBRANCH  42  43
ENDBRANCH  35  37
ENDBRANCH  34  35
ENDBRANCH  33  34
ENDBRANCH   1  33
TORSDOF 20
ENDMDL
MODEL 3
REMARK VINA RESULT:     -11.5      1.766      2.135
REMARK SMILES C[C@@H]1CCC[C@H](C)[N@H+]1Cc1cc2c(cc1Cl)C=C(C(=O)OCCOCCOC(=O)c1ccc(-c3c4nc(c(-c5cc(S(=O)(=O)[O-])ccc5F)c5ccc([nH]5)c(-c5cc(S(=O)(=O)[O-])ccc5F)c5nc(c(-c6cc(S(=O)(=O)[O-])ccc6F)c6ccc3[nH]6)C=C5)C=C4)cc1)[C@@H](C(F)(F)F)O2
REMARK SMILES IDX 25 1 24 2 23 3 22 4 21 5 19 6 20 7 18 8 10 9 11 10 15 11
REMARK SMILES IDX 12 12 14 13 16 14 13 15 98 16 17 17 93 18 9 19 8 20 7 21
REMARK SMILES IDX 6 22 5 23 4 24 2 25 3 27 1 28 94 29 95 30 96 31 97 32 26 33
REMARK SMILES IDX 27 34 28 35 29 36 30 37 31 38 92 39 32 40 91 41 33 42 34 43
REMARK SMILES IDX 35 44 85 45 36 46 90 47 84 48 86 49 37 50 89 51 83 52 82 53
REMARK SMILES IDX 38 55 70 56 50 57 69 58 51 59 54 60 68 61 87 62 52 63 53 64
REMARK SMILES IDX 67 66 88 67 55 68 39 69 40 70 48 71 41 72 47 73 49 74 46 75
REMARK SMILES IDX 42 76 43 77 44 78 45 79 71 80 72 81 80 82 73 83 79 84 81 85
REMARK SMILES IDX 78 86 74 87 75 88 76 89 77 90 56 91 57 92 65 93 58 94 64 95
REMARK SMILES IDX 66 96 63 97 59 98 60 99 61 100 62 101
REMARK H PARENT 8 26 86 54 54 65
REMARK Flexibility Score: inf
ROOT
ATOM      1  C   UNL A   1      41.285  19.861  26.268  1.00  0.00     0.202 C 
ENDROOT
BRANCH   1   2
ATOM      2  O   UNL A   1      40.306  19.529  25.285  1.00  0.00    -0.374 OA
BRANCH   2   3
ATOM      3  C   UNL A   1      38.993  19.184  25.719  1.00  0.00     0.202 C 
BRANCH   3   4
ATOM      4  C   UNL A   1      37.812  19.652  24.864  1.00  0.00     0.261 C 
BRANCH   4   5
ATOM      5  O   UNL A   1      36.862  20.422  25.617  1.00  0.00    -0.460 OA
BRANCH   5   6
ATOM      6  C   UNL A   1      35.661  20.540  25.008  1.00  0.00     0.338 C 
ATOM      7  O   UNL A   1      34.921  19.624  24.679  1.00  0.00    -0.246 OA
BRANCH   6   8
ATOM      8  C   UNL A   1      35.274  21.955  24.867  1.00  0.00     0.087 C 
ATOM      9  C   UNL A   1      33.412  26.212  22.948  1.00  0.00     0.029 A 
ATOM     10  C   UNL A   1      34.141  25.905  24.122  1.00  0.00     0.058 A 
ATOM     11  C   UNL A   1      33.245  25.193  21.995  1.00  0.00     0.050 A 
ATOM     12  C   UNL A   1      34.530  24.591  24.402  1.00  0.00     0.128 A 
ATOM     13  C   UNL A   1      33.557  23.875  22.314  1.00  0.00     0.033 A 
ATOM     14  Cl  UNL A   1      32.649  25.473  20.397  1.00  0.00    -0.084 Cl
ATOM     15  C   UNL A   1      34.158  23.573  23.532  1.00  0.00     0.019 A 
ATOM     16  O   UNL A   1      35.210  24.349  25.566  1.00  0.00    -0.475 OA
ATOM     17  C   UNL A   1      34.414  22.193  23.871  1.00  0.00     0.027 C 
ATOM     18  C   UNL A   1      35.884  23.051  25.699  1.00  0.00     0.316 C 
BRANCH   9  19
ATOM     19  C   UNL A   1      32.768  27.578  22.792  1.00  0.00     0.301 C 
BRANCH  19  20
ATOM     20  N   UNL A   1      31.477  27.809  23.492  1.00  0.00    -0.327 N 
ATOM     21  C   UNL A   1      29.715  29.542  23.709  1.00  0.00     0.075 C 
ATOM     22  C   UNL A   1      31.209  29.208  23.856  1.00  0.00     0.181 C 
ATOM     23  C   UNL A   1      31.702  29.591  25.260  1.00  0.00     0.065 C 
ATOM     24  C   UNL A   1      31.305  28.593  26.340  1.00  0.00     0.012 C 
ATOM     25  C   UNL A   1      31.116  26.805  24.506  1.00  0.00     0.181 C 
ATOM     26  H   UNL A   1      30.786  27.628  22.763  1.00  0.00     0.348 HD
ATOM     27  C   UNL A   1      31.582  27.151  25.931  1.00  0.00     0.065 C 
ATOM     28  C   UNL A   1      29.613  26.484  24.501  1.00  0.00     0.075 C 
ENDBRANCH  19  20
ENDBRANCH   9  19
BRANCH  18  29
ATOM     29  C   UNL A   1      37.384  23.194  25.405  1.00  0.00     0.430 C 
ATOM     30  F   UNL A   1      37.814  24.460  25.611  1.00  0.00    -0.167 F 
ATOM     31  F   UNL A   1      38.123  22.389  26.205  1.00  0.00    -0.167 F 
ATOM     32  F   UNL A   1      37.680  22.868  24.124  1.00  0.00    -0.167 F 
ENDBRANCH  18  29
ENDBRANCH   6   8
ENDBRANCH   5   6
ENDBRANCH   4   5
ENDBRANCH   3   4
ENDBRANCH   2   3
ENDBRANCH   1   2
BRANCH   1  33
ATOM     33  C   UNL A   1      42.582  20.544  25.814  1.00  0.00     0.261 C 
BRANCH  33  34
ATOM     34  O   UNL A   1      42.865  21.752  26.537  1.00  0.00    -0.460 OA
BRANCH  34  35
ATOM     35  C   UNL A   1      42.849  22.882  25.785  1.00  0.00     0.338 C 
ATOM     36  O   UNL A   1      43.049  22.962  24.581  1.00  0.00    -0.246 OA
BRANCH  35  37
ATOM     37  C   UNL A   1      42.335  24.001  26.597  1.00  0.00     0.060 A 
ATOM     38  C   UNL A   1      41.232  23.839  27.434  1.00  0.00     0.016 A 
ATOM     39  C   UNL A   1      43.001  25.233  26.526  1.00  0.00     0.016 A 
ATOM     40  C   UNL A   1      40.815  24.909  28.227  1.00  0.00     0.010 A 
ATOM     41  C   UNL A   1      42.586  26.298  27.325  1.00  0.00     0.010 A 
ATOM     42  C   UNL A   1      41.501  26.139  28.198  1.00  0.00    -0.014 A 
BRANCH  42  43
ATOM     43  C   UNL A   1      41.172  27.188  29.196  1.00  0.00     0.031 A 
ATOM     44  C   UNL A   1      39.976  28.077  29.051  1.00  0.00     0.074 A 
ATOM     45  C   UNL A   1      41.998  27.340  30.248  1.00  0.00     0.049 A 
ATOM     46  N   UNL A   1      39.493  28.939  29.906  1.00  0.00    -0.248 NA
ATOM     47  C   UNL A   1      39.234  28.002  27.784  1.00  0.00     0.031 C 
ATOM     48  C   UNL A   1      43.233  26.583  30.447  1.00  0.00     0.029 A 
ATOM     49  N   UNL A   1      41.927  28.162  31.345  1.00  0.00    -0.354 N 
ATOM     50  C   UNL A   1      38.384  29.507  29.292  1.00  0.00     0.074 A 
ATOM     51  C   UNL A   1      38.298  28.925  27.969  1.00  0.00     0.031 C 
ATOM     52  C   UNL A   1      43.783  26.943  31.614  1.00  0.00     0.029 A 
ATOM     53  C   UNL A   1      42.963  27.984  32.232  1.00  0.00     0.049 A 
ATOM     54  H   UNL A   1      41.204  28.817  31.483  1.00  0.00     0.167 HD
ATOM     55  C   UNL A   1      37.516  30.415  29.799  1.00  0.00     0.034 A 
ATOM     56  C   UNL A   1      43.226  28.579  33.414  1.00  0.00     0.034 A 
ATOM     57  C   UNL A   1      37.633  30.987  31.120  1.00  0.00     0.049 A 
ATOM     58  C   UNL A   1      42.238  29.571  33.968  1.00  0.00     0.074 A 
ATOM     59  C   UNL A   1      36.754  31.849  31.754  1.00  0.00     0.029 A 
ATOM     60  N   UNL A   1      38.689  30.784  31.998  1.00  0.00    -0.354 N 
ATOM     61  N   UNL A   1      41.111  29.988  33.442  1.00  0.00    -0.248 NA
ATOM     62  C   UNL A   1      42.539  30.157  35.280  1.00  0.00     0.031 C 
ATOM     63  C   UNL A   1      37.325  32.242  32.965  1.00  0.00     0.029 A 
ATOM     64  C   UNL A   1      38.508  31.543  33.145  1.00  0.00     0.049 A 
ATOM     65  H   UNL A   1      39.456  30.189  31.830  1.00  0.00     0.167 HD
ATOM     66  C   UNL A   1      40.557  30.868  34.367  1.00  0.00     0.074 A 
ATOM     67  C   UNL A   1      41.461  30.901  35.497  1.00  0.00     0.031 C 
ATOM     68  C   UNL A   1      39.404  31.581  34.279  1.00  0.00     0.034 A 
BRANCH  55  69
ATOM     69  C   UNL A   1      36.345  30.856  28.952  1.00  0.00     0.023 A 
ATOM     70  C   UNL A   1      35.983  32.216  28.908  1.00  0.00     0.031 A 
ATOM     71  C   UNL A   1      35.503  29.927  28.314  1.00  0.00     0.131 A 
ATOM     72  C   UNL A   1      34.795  32.604  28.279  1.00  0.00     0.055 A 
ATOM     73  C   UNL A   1      34.345  30.326  27.642  1.00  0.00     0.041 A 
ATOM     74  F   UNL A   1      35.792  28.616  28.334  1.00  0.00    -0.206 F 
ATOM     75  C   UNL A   1      33.979  31.667  27.636  1.00  0.00     0.022 A 
BRANCH  72  76
ATOM     76  S   UNL A   1      34.215  34.322  28.345  1.00  0.00     0.124 S 
ATOM     77  O   UNL A   1      32.766  34.151  28.256  1.00  0.00    -0.237 OA
ATOM     78  O   UNL A   1      34.713  34.761  29.646  1.00  0.00    -0.237 OA
ATOM     79  O   UNL A   1      34.839  34.949  27.185  1.00  0.00    -0.744 OA
ENDBRANCH  72  76
ENDBRANCH  55  69
BRANCH  56  80
ATOM     80  C   UNL A   1      44.449  28.163  34.160  1.00  0.00     0.023 A 
ATOM     81  C   UNL A   1      44.412  27.052  35.023  1.00  0.00     0.031 A 
ATOM     82  C   UNL A   1      45.609  28.955  34.147  1.00  0.00     0.131 A 
ATOM     83  C   UNL A   1      45.474  26.824  35.907  1.00  0.00     0.055 A 
ATOM     84  C   UNL A   1      46.700  28.672  34.971  1.00  0.00     0.041 A 
ATOM     85  F   UNL A   1      45.684  30.033  33.353  1.00  0.00    -0.206 F 
ATOM     86  C   UNL A   1      46.626  27.615  35.875  1.00  0.00     0.022 A 
BRANCH  83  87
ATOM     87  S   UNL A   1      45.321  25.599  37.237  1.00  0.00     0.124 S 
ATOM     88  O   UNL A   1      43.926  25.750  37.634  1.00  0.00    -0.237 OA
ATOM     89  O   UNL A   1      45.649  24.360  36.535  1.00  0.00    -0.237 OA
ATOM     90  O   UNL A   1      46.307  26.033  38.221  1.00  0.00    -0.744 OA
ENDBRANCH  83  87
ENDBRANCH  56  80
BRANCH  68  91
ATOM     91  C   UNL A   1      39.012  32.481  35.431  1.00  0.00     0.023 A 
ATOM     92  C   UNL A   1      39.532  33.789  35.506  1.00  0.00     0.031 A 
ATOM     93  C   UNL A   1      38.272  32.001  36.526  1.00  0.00     0.131 A 
ATOM     94  C   UNL A   1      39.354  34.548  36.669  1.00  0.00     0.055 A 
ATOM     95  C   UNL A   1      38.043  32.786  37.659  1.00  0.00     0.041 A 
ATOM     96  F   UNL A   1      37.764  30.759  36.515  1.00  0.00    -0.206 F 
ATOM     97  C   UNL A   1      38.601  34.059  37.741  1.00  0.00     0.022 A 
BRANCH  94  98
ATOM     98  S   UNL A   1      40.180  36.151  36.879  1.00  0.00     0.124 S 
ATOM     99  O   UNL A   1      39.909  36.800  35.598  1.00  0.00    -0.237 OA
ATOM    100  O   UNL A   1      39.474  36.713  38.025  1.00  0.00    -0.237 OA
ATOM    101  O   UNL A   1      41.576  35.799  37.112  1.00  0.00    -0.744 OA
ENDBRANCH  94  98
ENDBRANCH  68  91
ENDBRANCH  42  43
ENDBRANCH  35  37
ENDBRANCH  34  35
ENDBRANCH  33  34
ENDBRANCH   1  33
TORSDOF 20
ENDMDL
