MODEL 1
REMARK VINA RESULT:     -11.2      0.000      0.000
REMARK SMILES C[C@@H](C(=O)[C@H](C)[C@@H](C)C(=O)OCCOCCOC(=O)c1ccc(-c2c3nc(c(-c4cc(S(=O)(=O)[O-])ccc4F)c4ccc([nH]4)c(-c4cc(S(=O)(=O)[O-])ccc4F)c4nc(c(-c5cc(S(=O)(=O)[O-])ccc5F)c5ccc2[nH]5)C=C4)C=C3)cc1)c1ccccc1
REMARK SMILES IDX 13 1 12 2 11 3 9 4 10 5 7 6 8 7 5 8 6 9 3 10 4 11 2 12 1 13
REMARK SMILES IDX 83 14 84 15 88 16 85 17 87 18 86 19 14 20 15 21 16 22 17 23
REMARK SMILES IDX 18 24 19 25 20 26 21 27 82 28 22 29 81 30 23 31 24 32 25 33
REMARK SMILES IDX 75 34 26 35 80 36 74 37 76 38 27 39 79 40 73 41 72 42 28 44
REMARK SMILES IDX 60 45 40 46 59 47 41 48 44 49 58 50 77 51 42 52 43 53 57 55
REMARK SMILES IDX 78 56 45 57 29 58 30 59 38 60 31 61 37 62 39 63 36 64 32 65
REMARK SMILES IDX 33 66 34 67 35 68 61 69 62 70 70 71 63 72 69 73 71 74 68 75
REMARK SMILES IDX 64 76 65 77 66 78 67 79 46 80 47 81 55 82 48 83 54 84 56 85
REMARK SMILES IDX 53 86 49 87 50 88 51 89 52 90
REMARK H PARENT 76 43 44 54
REMARK Flexibility Score: inf
ROOT
ATOM      1  C   UNL A   1      34.736  22.871  25.896  1.00  0.00     0.202 C 
ENDROOT
BRANCH   1   2
ATOM      2  C   UNL A   1      33.382  23.190  26.533  1.00  0.00     0.261 C 
BRANCH   2   3
ATOM      3  O   UNL A   1      32.348  23.586  25.604  1.00  0.00    -0.463 OA
BRANCH   3   4
ATOM      4  C   UNL A   1      31.243  24.127  26.192  1.00  0.00     0.309 C 
ATOM      5  O   UNL A   1      30.755  23.744  27.251  1.00  0.00    -0.252 OA
BRANCH   4   6
ATOM      6  C   UNL A   1      30.517  25.111  25.291  1.00  0.00     0.106 C 
ATOM      7  C   UNL A   1      30.641  24.541  23.869  1.00  0.00     0.021 C 
BRANCH   6   8
ATOM      8  C   UNL A   1      30.896  26.620  25.382  1.00  0.00     0.067 C 
ATOM      9  C   UNL A   1      31.385  26.906  26.816  1.00  0.00     0.017 C 
BRANCH   8  10
ATOM     10  C   UNL A   1      31.977  27.035  24.355  1.00  0.00     0.143 C 
ATOM     11  O   UNL A   1      33.146  26.709  24.584  1.00  0.00    -0.299 OA
BRANCH  10  12
ATOM     12  C   UNL A   1      31.603  27.934  23.118  1.00  0.00     0.083 C 
ATOM     13  C   UNL A   1      32.700  28.955  22.757  1.00  0.00     0.021 C 
BRANCH  12  14
ATOM     14  C   UNL A   1      30.209  28.611  23.175  1.00  0.00    -0.038 A 
ATOM     15  C   UNL A   1      30.062  30.012  23.279  1.00  0.00     0.004 A 
ATOM     16  C   UNL A   1      29.020  27.870  23.059  1.00  0.00     0.004 A 
ATOM     17  C   UNL A   1      28.806  30.628  23.325  1.00  0.00     0.000 A 
ATOM     18  C   UNL A   1      27.759  28.481  23.133  1.00  0.00     0.000 A 
ATOM     19  C   UNL A   1      27.653  29.860  23.269  1.00  0.00     0.000 A 
ENDBRANCH  12  14
ENDBRANCH  10  12
ENDBRANCH   8  10
ENDBRANCH   6   8
ENDBRANCH   4   6
ENDBRANCH   3   4
ENDBRANCH   2   3
ENDBRANCH   1   2
BRANCH   1  20
ATOM     20  O   UNL A   1      35.312  21.588  26.115  1.00  0.00    -0.374 OA
BRANCH  20  21
ATOM     21  C   UNL A   1      35.878  20.909  25.004  1.00  0.00     0.202 C 
BRANCH  21  22
ATOM     22  C   UNL A   1      37.387  20.618  25.006  1.00  0.00     0.261 C 
BRANCH  22  23
ATOM     23  O   UNL A   1      38.234  21.740  25.274  1.00  0.00    -0.460 OA
BRANCH  23  24
ATOM     24  C   UNL A   1      39.283  21.437  26.081  1.00  0.00     0.338 C 
ATOM     25  O   UNL A   1      39.890  20.382  26.132  1.00  0.00    -0.246 OA
BRANCH  24  26
ATOM     26  C   UNL A   1      39.709  22.638  26.825  1.00  0.00     0.060 A 
ATOM     27  C   UNL A   1      39.063  23.839  26.516  1.00  0.00     0.016 A 
ATOM     28  C   UNL A   1      40.759  22.613  27.749  1.00  0.00     0.016 A 
ATOM     29  C   UNL A   1      39.502  25.030  27.084  1.00  0.00     0.010 A 
ATOM     30  C   UNL A   1      41.203  23.813  28.317  1.00  0.00     0.010 A 
ATOM     31  C   UNL A   1      40.600  25.031  27.955  1.00  0.00    -0.014 A 
BRANCH  31  32
ATOM     32  C   UNL A   1      41.187  26.336  28.345  1.00  0.00     0.031 A 
ATOM     33  C   UNL A   1      42.607  26.643  27.950  1.00  0.00     0.074 A 
ATOM     34  C   UNL A   1      40.429  27.267  28.952  1.00  0.00     0.049 A 
ATOM     35  N   UNL A   1      43.282  27.756  28.073  1.00  0.00    -0.248 NA
ATOM     36  C   UNL A   1      43.365  25.544  27.332  1.00  0.00     0.031 C 
ATOM     37  C   UNL A   1      39.038  27.079  29.366  1.00  0.00     0.029 A 
ATOM     38  N   UNL A   1      40.715  28.560  29.308  1.00  0.00    -0.354 N 
ATOM     39  C   UNL A   1      44.534  27.503  27.524  1.00  0.00     0.074 A 
ATOM     40  C   UNL A   1      44.543  26.111  27.126  1.00  0.00     0.031 C 
ATOM     41  C   UNL A   1      38.591  28.220  29.917  1.00  0.00     0.029 A 
ATOM     42  C   UNL A   1      39.662  29.214  29.905  1.00  0.00     0.049 A 
ATOM     43  H   UNL A   1      41.592  28.979  29.152  1.00  0.00     0.167 HD
ATOM     44  C   UNL A   1      45.572  28.358  27.346  1.00  0.00     0.034 A 
ATOM     45  C   UNL A   1      39.577  30.472  30.379  1.00  0.00     0.034 A 
ATOM     46  C   UNL A   1      45.558  29.735  27.778  1.00  0.00     0.049 A 
ATOM     47  C   UNL A   1      40.758  31.394  30.209  1.00  0.00     0.074 A 
ATOM     48  C   UNL A   1      46.560  30.684  27.684  1.00  0.00     0.029 A 
ATOM     49  N   UNL A   1      44.481  30.358  28.399  1.00  0.00    -0.354 N 
ATOM     50  N   UNL A   1      41.931  31.145  29.669  1.00  0.00    -0.248 NA
ATOM     51  C   UNL A   1      40.594  32.773  30.684  1.00  0.00     0.031 C 
ATOM     52  C   UNL A   1      46.109  31.862  28.293  1.00  0.00     0.029 A 
ATOM     53  C   UNL A   1      44.800  31.671  28.707  1.00  0.00     0.049 A 
ATOM     54  H   UNL A   1      43.616  29.929  28.591  1.00  0.00     0.167 HD
ATOM     55  C   UNL A   1      42.634  32.347  29.720  1.00  0.00     0.074 A 
ATOM     56  C   UNL A   1      41.742  33.321  30.314  1.00  0.00     0.031 C 
ATOM     57  C   UNL A   1      43.902  32.622  29.319  1.00  0.00     0.034 A 
BRANCH  44  58
ATOM     58  C   UNL A   1      46.814  27.803  26.688  1.00  0.00     0.023 A 
ATOM     59  C   UNL A   1      47.073  28.005  25.320  1.00  0.00     0.031 A 
ATOM     60  C   UNL A   1      47.729  27.032  27.424  1.00  0.00     0.131 A 
ATOM     61  C   UNL A   1      48.179  27.386  24.718  1.00  0.00     0.055 A 
ATOM     62  C   UNL A   1      48.869  26.480  26.835  1.00  0.00     0.041 A 
ATOM     63  F   UNL A   1      47.523  26.785  28.728  1.00  0.00    -0.206 F 
ATOM     64  C   UNL A   1      49.092  26.644  25.470  1.00  0.00     0.022 A 
BRANCH  61  65
ATOM     65  S   UNL A   1      48.335  27.451  22.912  1.00  0.00     0.124 S 
ATOM     66  O   UNL A   1      47.153  28.225  22.541  1.00  0.00    -0.237 OA
ATOM     67  O   UNL A   1      49.620  28.116  22.729  1.00  0.00    -0.237 OA
ATOM     68  O   UNL A   1      48.299  26.045  22.513  1.00  0.00    -0.744 OA
ENDBRANCH  61  65
ENDBRANCH  44  58
BRANCH  45  69
ATOM     69  C   UNL A   1      38.340  30.934  31.074  1.00  0.00     0.023 A 
ATOM     70  C   UNL A   1      37.290  31.553  30.378  1.00  0.00     0.031 A 
ATOM     71  C   UNL A   1      38.220  30.809  32.471  1.00  0.00     0.131 A 
ATOM     72  C   UNL A   1      36.191  32.069  31.082  1.00  0.00     0.055 A 
ATOM     73  C   UNL A   1      37.101  31.279  33.161  1.00  0.00     0.041 A 
ATOM     74  F   UNL A   1      39.193  30.221  33.186  1.00  0.00    -0.206 F 
ATOM     75  C   UNL A   1      36.085  31.927  32.468  1.00  0.00     0.022 A 
BRANCH  72  76
ATOM     76  S   UNL A   1      34.940  33.017  30.171  1.00  0.00     0.124 S 
ATOM     77  O   UNL A   1      34.028  33.412  31.239  1.00  0.00    -0.237 OA
ATOM     78  O   UNL A   1      35.742  34.085  29.584  1.00  0.00    -0.237 OA
ATOM     79  O   UNL A   1      34.405  32.045  29.220  1.00  0.00    -0.744 OA
ENDBRANCH  72  76
ENDBRANCH  45  69
BRANCH  57  80
ATOM     80  C   UNL A   1      44.372  34.048  29.491  1.00  0.00     0.023 A 
ATOM     81  C   UNL A   1      43.987  35.062  28.596  1.00  0.00     0.031 A 
ATOM     82  C   UNL A   1      45.250  34.385  30.536  1.00  0.00     0.131 A 
ATOM     83  C   UNL A   1      44.541  36.345  28.716  1.00  0.00     0.055 A 
ATOM     84  C   UNL A   1      45.747  35.680  30.687  1.00  0.00     0.041 A 
ATOM     85  F   UNL A   1      45.650  33.457  31.419  1.00  0.00    -0.206 F 
ATOM     86  C   UNL A   1      45.408  36.664  29.763  1.00  0.00     0.022 A 
BRANCH  83  87
ATOM     87  S   UNL A   1      44.209  37.557  27.407  1.00  0.00     0.124 S 
ATOM     88  O   UNL A   1      43.618  38.661  28.157  1.00  0.00    -0.237 OA
ATOM     89  O   UNL A   1      45.540  37.798  26.862  1.00  0.00    -0.237 OA
ATOM     90  O   UNL A   1      43.291  36.854  26.513  1.00  0.00    -0.744 OA
ENDBRANCH  83  87
ENDBRANCH  57  80
ENDBRANCH  31  32
ENDBRANCH  24  26
ENDBRANCH  23  24
ENDBRANCH  22  23
ENDBRANCH  21  22
ENDBRANCH  20  21
ENDBRANCH   1  20
TORSDOF 21
ENDMDL
MODEL 2
REMARK VINA RESULT:     -11.0      1.858      2.808
REMARK SMILES C[C@@H](C(=O)[C@H](C)[C@@H](C)C(=O)OCCOCCOC(=O)c1ccc(-c2c3nc(c(-c4cc(S(=O)(=O)[O-])ccc4F)c4ccc([nH]4)c(-c4cc(S(=O)(=O)[O-])ccc4F)c4nc(c(-c5cc(S(=O)(=O)[O-])ccc5F)c5ccc2[nH]5)C=C4)C=C3)cc1)c1ccccc1
REMARK SMILES IDX 13 1 12 2 11 3 9 4 10 5 7 6 8 7 5 8 6 9 3 10 4 11 2 12 1 13
REMARK SMILES IDX 83 14 84 15 88 16 85 17 87 18 86 19 14 20 15 21 16 22 17 23
REMARK SMILES IDX 18 24 19 25 20 26 21 27 82 28 22 29 81 30 23 31 24 32 25 33
REMARK SMILES IDX 75 34 26 35 80 36 74 37 76 38 27 39 79 40 73 41 72 42 28 44
REMARK SMILES IDX 60 45 40 46 59 47 41 48 44 49 58 50 77 51 42 52 43 53 57 55
REMARK SMILES IDX 78 56 45 57 29 58 30 59 38 60 31 61 37 62 39 63 36 64 32 65
REMARK SMILES IDX 33 66 34 67 35 68 61 69 62 70 70 71 63 72 69 73 71 74 68 75
REMARK SMILES IDX 64 76 65 77 66 78 67 79 46 80 47 81 55 82 48 83 54 84 56 85
REMARK SMILES IDX 53 86 49 87 50 88 51 89 52 90
REMARK H PARENT 76 43 44 54
REMARK Flexibility Score: inf
ROOT
ATOM      1  C   UNL A   1      35.145  23.550  25.468  1.00  0.00     0.202 C 
ENDROOT
BRANCH   1   2
ATOM      2  C   UNL A   1      33.973  24.444  25.056  1.00  0.00     0.261 C 
BRANCH   2   3
ATOM      3  O   UNL A   1      34.318  25.823  24.802  1.00  0.00    -0.463 OA
BRANCH   3   4
ATOM      4  C   UNL A   1      33.456  26.474  23.969  1.00  0.00     0.309 C 
ATOM      5  O   UNL A   1      33.705  27.522  23.383  1.00  0.00    -0.252 OA
BRANCH   4   6
ATOM      6  C   UNL A   1      32.050  25.899  24.008  1.00  0.00     0.106 C 
ATOM      7  C   UNL A   1      31.667  25.643  22.542  1.00  0.00     0.021 C 
BRANCH   6   8
ATOM      8  C   UNL A   1      30.953  26.671  24.802  1.00  0.00     0.067 C 
ATOM      9  C   UNL A   1      29.841  25.672  25.177  1.00  0.00     0.017 C 
BRANCH   8  10
ATOM     10  C   UNL A   1      31.501  27.362  26.074  1.00  0.00     0.143 C 
ATOM     11  O   UNL A   1      31.756  26.654  27.053  1.00  0.00    -0.299 OA
BRANCH  10  12
ATOM     12  C   UNL A   1      31.625  28.930  26.142  1.00  0.00     0.083 C 
ATOM     13  C   UNL A   1      31.262  29.625  24.815  1.00  0.00     0.021 C 
BRANCH  12  14
ATOM     14  C   UNL A   1      32.962  29.476  26.708  1.00  0.00    -0.038 A 
ATOM     15  C   UNL A   1      34.135  28.689  26.743  1.00  0.00     0.004 A 
ATOM     16  C   UNL A   1      33.092  30.803  27.153  1.00  0.00     0.004 A 
ATOM     17  C   UNL A   1      35.345  29.180  27.247  1.00  0.00     0.000 A 
ATOM     18  C   UNL A   1      34.296  31.289  27.684  1.00  0.00     0.000 A 
ATOM     19  C   UNL A   1      35.422  30.476  27.734  1.00  0.00     0.000 A 
ENDBRANCH  12  14
ENDBRANCH  10  12
ENDBRANCH   8  10
ENDBRANCH   6   8
ENDBRANCH   4   6
ENDBRANCH   3   4
ENDBRANCH   2   3
ENDBRANCH   1   2
BRANCH   1  20
ATOM     20  O   UNL A   1      34.904  22.164  25.692  1.00  0.00    -0.374 OA
BRANCH  20  21
ATOM     21  C   UNL A   1      35.502  21.229  24.805  1.00  0.00     0.202 C 
BRANCH  21  22
ATOM     22  C   UNL A   1      36.872  20.638  25.168  1.00  0.00     0.261 C 
BRANCH  22  23
ATOM     23  O   UNL A   1      37.982  21.536  25.063  1.00  0.00    -0.460 OA
BRANCH  23  24
ATOM     24  C   UNL A   1      39.034  21.179  25.845  1.00  0.00     0.338 C 
ATOM     25  O   UNL A   1      39.598  20.099  25.871  1.00  0.00    -0.246 OA
BRANCH  24  26
ATOM     26  C   UNL A   1      39.525  22.352  26.594  1.00  0.00     0.060 A 
ATOM     27  C   UNL A   1      39.032  23.603  26.210  1.00  0.00     0.016 A 
ATOM     28  C   UNL A   1      40.494  22.247  27.598  1.00  0.00     0.016 A 
ATOM     29  C   UNL A   1      39.548  24.759  26.785  1.00  0.00     0.010 A 
ATOM     30  C   UNL A   1      41.015  23.412  28.173  1.00  0.00     0.010 A 
ATOM     31  C   UNL A   1      40.572  24.674  27.739  1.00  0.00    -0.014 A 
BRANCH  31  32
ATOM     32  C   UNL A   1      41.260  25.923  28.145  1.00  0.00     0.031 A 
ATOM     33  C   UNL A   1      42.672  26.160  27.682  1.00  0.00     0.074 A 
ATOM     34  C   UNL A   1      40.595  26.872  28.830  1.00  0.00     0.049 A 
ATOM     35  N   UNL A   1      43.422  27.224  27.810  1.00  0.00    -0.248 NA
ATOM     36  C   UNL A   1      43.325  25.044  26.980  1.00  0.00     0.031 C 
ATOM     37  C   UNL A   1      39.220  26.752  29.315  1.00  0.00     0.029 A 
ATOM     38  N   UNL A   1      40.981  28.129  29.219  1.00  0.00    -0.354 N 
ATOM     39  C   UNL A   1      44.623  26.919  27.181  1.00  0.00     0.074 A 
ATOM     40  C   UNL A   1      44.524  25.547  26.730  1.00  0.00     0.031 C 
ATOM     41  C   UNL A   1      38.876  27.893  29.934  1.00  0.00     0.029 A 
ATOM     42  C   UNL A   1      40.006  28.819  29.899  1.00  0.00     0.049 A 
ATOM     43  H   UNL A   1      41.872  28.501  29.030  1.00  0.00     0.167 HD
ATOM     44  C   UNL A   1      45.702  27.716  26.978  1.00  0.00     0.034 A 
ATOM     45  C   UNL A   1      40.025  30.059  30.427  1.00  0.00     0.034 A 
ATOM     46  C   UNL A   1      45.798  29.072  27.464  1.00  0.00     0.049 A 
ATOM     47  C   UNL A   1      41.251  30.914  30.225  1.00  0.00     0.074 A 
ATOM     48  C   UNL A   1      46.851  29.962  27.350  1.00  0.00     0.029 A 
ATOM     49  N   UNL A   1      44.798  29.732  28.168  1.00  0.00    -0.354 N 
ATOM     50  N   UNL A   1      42.375  30.618  29.611  1.00  0.00    -0.248 NA
ATOM     51  C   UNL A   1      41.200  32.280  30.762  1.00  0.00     0.031 C 
ATOM     52  C   UNL A   1      46.509  31.138  28.029  1.00  0.00     0.029 A 
ATOM     53  C   UNL A   1      45.215  31.010  28.509  1.00  0.00     0.049 A 
ATOM     54  H   UNL A   1      43.919  29.348  28.393  1.00  0.00     0.167 HD
ATOM     55  C   UNL A   1      43.154  31.772  29.669  1.00  0.00     0.074 A 
ATOM     56  C   UNL A   1      42.358  32.772  30.350  1.00  0.00     0.031 C 
ATOM     57  C   UNL A   1      44.413  31.987  29.207  1.00  0.00     0.034 A 
BRANCH  44  58
ATOM     58  C   UNL A   1      46.869  27.116  26.230  1.00  0.00     0.023 A 
ATOM     59  C   UNL A   1      47.903  26.439  26.902  1.00  0.00     0.031 A 
ATOM     60  C   UNL A   1      46.972  27.255  24.835  1.00  0.00     0.131 A 
ATOM     61  C   UNL A   1      49.025  25.989  26.190  1.00  0.00     0.055 A 
ATOM     62  C   UNL A   1      48.056  26.738  24.122  1.00  0.00     0.041 A 
ATOM     63  F   UNL A   1      46.028  27.911  24.142  1.00  0.00    -0.206 F 
ATOM     64  C   UNL A   1      49.098  26.112  24.801  1.00  0.00     0.022 A 
BRANCH  61  65
ATOM     65  S   UNL A   1      50.450  25.358  27.119  1.00  0.00     0.124 S 
ATOM     66  O   UNL A   1      49.863  24.219  27.821  1.00  0.00    -0.237 OA
ATOM     67  O   UNL A   1      51.401  25.038  26.062  1.00  0.00    -0.237 OA
ATOM     68  O   UNL A   1      50.825  26.482  27.976  1.00  0.00    -0.744 OA
ENDBRANCH  61  65
ENDBRANCH  44  58
BRANCH  45  69
ATOM     69  C   UNL A   1      38.859  30.566  31.208  1.00  0.00     0.023 A 
ATOM     70  C   UNL A   1      37.915  31.437  30.643  1.00  0.00     0.031 A 
ATOM     71  C   UNL A   1      38.708  30.221  32.564  1.00  0.00     0.131 A 
ATOM     72  C   UNL A   1      36.893  31.975  31.441  1.00  0.00     0.055 A 
ATOM     73  C   UNL A   1      37.660  30.719  33.341  1.00  0.00     0.041 A 
ATOM     74  F   UNL A   1      39.580  29.387  33.154  1.00  0.00    -0.206 F 
ATOM     75  C   UNL A   1      36.753  31.614  32.783  1.00  0.00     0.022 A 
BRANCH  72  76
ATOM     76  S   UNL A   1      35.799  33.232  30.724  1.00  0.00     0.124 S 
ATOM     77  O   UNL A   1      36.412  33.455  29.420  1.00  0.00    -0.237 OA
ATOM     78  O   UNL A   1      34.513  32.543  30.719  1.00  0.00    -0.237 OA
ATOM     79  O   UNL A   1      35.902  34.348  31.663  1.00  0.00    -0.744 OA
ENDBRANCH  72  76
ENDBRANCH  45  69
BRANCH  57  80
ATOM     80  C   UNL A   1      44.980  33.372  29.408  1.00  0.00     0.023 A 
ATOM     81  C   UNL A   1      44.835  34.374  28.432  1.00  0.00     0.031 A 
ATOM     82  C   UNL A   1      45.712  33.680  30.568  1.00  0.00     0.131 A 
ATOM     83  C   UNL A   1      45.480  35.609  28.598  1.00  0.00     0.055 A 
ATOM     84  C   UNL A   1      46.297  34.932  30.757  1.00  0.00     0.041 A 
ATOM     85  F   UNL A   1      45.881  32.762  31.533  1.00  0.00    -0.206 F 
ATOM     86  C   UNL A   1      46.199  35.899  29.760  1.00  0.00     0.022 A 
BRANCH  83  87
ATOM     87  S   UNL A   1      45.470  36.785  27.216  1.00  0.00     0.124 S 
ATOM     88  O   UNL A   1      46.233  36.067  26.200  1.00  0.00    -0.237 OA
ATOM     89  O   UNL A   1      44.045  36.941  26.951  1.00  0.00    -0.237 OA
ATOM     90  O   UNL A   1      46.131  37.966  27.767  1.00  0.00    -0.744 OA
ENDBRANCH  83  87
ENDBRANCH  57  80
ENDBRANCH  31  32
ENDBRANCH  24  26
ENDBRANCH  23  24
ENDBRANCH  22  23
ENDBRANCH  21  22
ENDBRANCH  20  21
ENDBRANCH   1  20
TORSDOF 21
ENDMDL
MODEL 3
REMARK VINA RESULT:     -10.8      4.729     10.523
REMARK SMILES C[C@@H](C(=O)[C@H](C)[C@@H](C)C(=O)OCCOCCOC(=O)c1ccc(-c2c3nc(c(-c4cc(S(=O)(=O)[O-])ccc4F)c4ccc([nH]4)c(-c4cc(S(=O)(=O)[O-])ccc4F)c4nc(c(-c5cc(S(=O)(=O)[O-])ccc5F)c5ccc2[nH]5)C=C4)C=C3)cc1)c1ccccc1
REMARK SMILES IDX 13 1 12 2 11 3 9 4 10 5 7 6 8 7 5 8 6 9 3 10 4 11 2 12 1 13
REMARK SMILES IDX 83 14 84 15 88 16 85 17 87 18 86 19 14 20 15 21 16 22 17 23
REMARK SMILES IDX 18 24 19 25 20 26 21 27 82 28 22 29 81 30 23 31 24 32 25 33
REMARK SMILES IDX 75 34 26 35 80 36 74 37 76 38 27 39 79 40 73 41 72 42 28 44
REMARK SMILES IDX 60 45 40 46 59 47 41 48 44 49 58 50 77 51 42 52 43 53 57 55
REMARK SMILES IDX 78 56 45 57 29 58 30 59 38 60 31 61 37 62 39 63 36 64 32 65
REMARK SMILES IDX 33 66 34 67 35 68 61 69 62 70 70 71 63 72 69 73 71 74 68 75
REMARK SMILES IDX 64 76 65 77 66 78 67 79 46 80 47 81 55 82 48 83 54 84 56 85
REMARK SMILES IDX 53 86 49 87 50 88 51 89 52 90
REMARK H PARENT 76 43 44 54
REMARK Flexibility Score: inf
ROOT
ATOM      1  C   UNL A   1      31.364  29.400  24.289  1.00  0.00     0.202 C 
ENDROOT
BRANCH   1   2
ATOM      2  C   UNL A   1      31.355  27.986  23.704  1.00  0.00     0.261 C 
BRANCH   2   3
ATOM      3  O   UNL A   1      32.409  27.121  24.181  1.00  0.00    -0.463 OA
BRANCH   3   4
ATOM      4  C   UNL A   1      33.122  26.509  23.194  1.00  0.00     0.309 C 
ATOM      5  O   UNL A   1      33.780  27.094  22.339  1.00  0.00    -0.252 OA
BRANCH   4   6
ATOM      6  C   UNL A   1      32.844  25.018  23.102  1.00  0.00     0.106 C 
ATOM      7  C   UNL A   1      32.559  24.742  21.616  1.00  0.00     0.021 C 
BRANCH   6   8
ATOM      8  C   UNL A   1      31.778  24.400  24.056  1.00  0.00     0.067 C 
ATOM      9  C   UNL A   1      30.524  24.069  23.223  1.00  0.00     0.017 C 
BRANCH   8  10
ATOM     10  C   UNL A   1      32.283  23.133  24.787  1.00  0.00     0.143 C 
ATOM     11  O   UNL A   1      32.162  23.087  26.015  1.00  0.00    -0.299 OA
BRANCH  10  12
ATOM     12  C   UNL A   1      33.022  21.992  23.993  1.00  0.00     0.083 C 
ATOM     13  C   UNL A   1      32.396  20.601  24.208  1.00  0.00     0.021 C 
BRANCH  12  14
ATOM     14  C   UNL A   1      34.563  21.942  24.165  1.00  0.00    -0.038 A 
ATOM     15  C   UNL A   1      35.429  22.741  23.387  1.00  0.00     0.004 A 
ATOM     16  C   UNL A   1      35.172  21.147  25.153  1.00  0.00     0.004 A 
ATOM     17  C   UNL A   1      36.819  22.703  23.544  1.00  0.00     0.000 A 
ATOM     18  C   UNL A   1      36.566  21.086  25.294  1.00  0.00     0.000 A 
ATOM     19  C   UNL A   1      37.390  21.862  24.487  1.00  0.00     0.000 A 
ENDBRANCH  12  14
ENDBRANCH  10  12
ENDBRANCH   8  10
ENDBRANCH   6   8
ENDBRANCH   4   6
ENDBRANCH   3   4
ENDBRANCH   2   3
ENDBRANCH   1   2
BRANCH   1  20
ATOM     20  O   UNL A   1      32.495  29.824  25.042  1.00  0.00    -0.374 OA
BRANCH  20  21
ATOM     21  C   UNL A   1      32.298  30.187  26.401  1.00  0.00     0.202 C 
BRANCH  21  22
ATOM     22  C   UNL A   1      32.221  31.678  26.764  1.00  0.00     0.261 C 
BRANCH  22  23
ATOM     23  O   UNL A   1      32.765  32.033  28.040  1.00  0.00    -0.460 OA
BRANCH  23  24
ATOM     24  C   UNL A   1      33.725  32.991  27.963  1.00  0.00     0.338 C 
ATOM     25  O   UNL A   1      33.558  34.189  27.823  1.00  0.00    -0.246 OA
BRANCH  24  26
ATOM     26  C   UNL A   1      35.051  32.396  28.223  1.00  0.00     0.060 A 
ATOM     27  C   UNL A   1      35.076  31.072  28.672  1.00  0.00     0.016 A 
ATOM     28  C   UNL A   1      36.236  33.128  28.100  1.00  0.00     0.016 A 
ATOM     29  C   UNL A   1      36.280  30.493  29.058  1.00  0.00     0.010 A 
ATOM     30  C   UNL A   1      37.447  32.545  28.492  1.00  0.00     0.010 A 
ATOM     31  C   UNL A   1      37.466  31.238  29.011  1.00  0.00    -0.014 A 
BRANCH  31  32
ATOM     32  C   UNL A   1      38.677  30.674  29.655  1.00  0.00     0.031 A 
ATOM     33  C   UNL A   1      39.006  31.078  31.067  1.00  0.00     0.074 A 
ATOM     34  C   UNL A   1      39.409  29.740  29.021  1.00  0.00     0.049 A 
ATOM     35  N   UNL A   1      39.935  30.623  31.866  1.00  0.00    -0.248 NA
ATOM     36  C   UNL A   1      38.172  32.138  31.654  1.00  0.00     0.031 C 
ATOM     37  C   UNL A   1      39.171  29.266  27.658  1.00  0.00     0.029 A 
ATOM     38  N   UNL A   1      40.490  29.011  29.447  1.00  0.00    -0.354 N 
ATOM     39  C   UNL A   1      39.782  31.319  33.060  1.00  0.00     0.074 A 
ATOM     40  C   UNL A   1      38.711  32.272  32.856  1.00  0.00     0.031 C 
ATOM     41  C   UNL A   1      40.078  28.320  27.362  1.00  0.00     0.029 A 
ATOM     42  C   UNL A   1      40.966  28.128  28.506  1.00  0.00     0.049 A 
ATOM     43  H   UNL A   1      40.888  29.111  30.342  1.00  0.00     0.167 HD
ATOM     44  C   UNL A   1      40.456  31.163  34.228  1.00  0.00     0.034 A 
ATOM     45  C   UNL A   1      41.997  27.263  28.567  1.00  0.00     0.034 A 
ATOM     46  C   UNL A   1      41.543  30.230  34.404  1.00  0.00     0.049 A 
ATOM     47  C   UNL A   1      42.760  27.135  29.862  1.00  0.00     0.074 A 
ATOM     48  C   UNL A   1      42.322  30.008  35.527  1.00  0.00     0.029 A 
ATOM     49  N   UNL A   1      42.013  29.366  33.422  1.00  0.00    -0.354 N 
ATOM     50  N   UNL A   1      42.591  27.788  30.991  1.00  0.00    -0.248 NA
ATOM     51  C   UNL A   1      43.833  26.133  29.901  1.00  0.00     0.031 C 
ATOM     52  C   UNL A   1      43.293  29.051  35.207  1.00  0.00     0.029 A 
ATOM     53  C   UNL A   1      43.079  28.624  33.906  1.00  0.00     0.049 A 
ATOM     54  H   UNL A   1      41.642  29.292  32.513  1.00  0.00     0.167 HD
ATOM     55  C   UNL A   1      43.523  27.256  31.880  1.00  0.00     0.074 A 
ATOM     56  C   UNL A   1      44.226  26.211  31.163  1.00  0.00     0.031 C 
ATOM     57  C   UNL A   1      43.780  27.600  33.168  1.00  0.00     0.034 A 
BRANCH  44  58
ATOM     58  C   UNL A   1      40.050  32.051  35.380  1.00  0.00     0.023 A 
ATOM     59  C   UNL A   1      39.177  31.597  36.385  1.00  0.00     0.031 A 
ATOM     60  C   UNL A   1      40.507  33.378  35.455  1.00  0.00     0.131 A 
ATOM     61  C   UNL A   1      38.735  32.481  37.381  1.00  0.00     0.055 A 
ATOM     62  C   UNL A   1      40.122  34.231  36.492  1.00  0.00     0.041 A 
ATOM     63  F   UNL A   1      41.323  33.875  34.512  1.00  0.00    -0.206 F 
ATOM     64  C   UNL A   1      39.220  33.788  37.455  1.00  0.00     0.022 A 
BRANCH  61  65
ATOM     65  S   UNL A   1      37.414  31.940  38.501  1.00  0.00     0.124 S 
ATOM     66  O   UNL A   1      38.063  32.066  39.804  1.00  0.00    -0.237 OA
ATOM     67  O   UNL A   1      36.349  32.895  38.220  1.00  0.00    -0.237 OA
ATOM     68  O   UNL A   1      37.148  30.566  38.078  1.00  0.00    -0.744 OA
ENDBRANCH  61  65
ENDBRANCH  44  58
BRANCH  45  69
ATOM     69  C   UNL A   1      42.382  26.461  27.370  1.00  0.00     0.023 A 
ATOM     70  C   UNL A   1      42.062  25.099  27.261  1.00  0.00     0.031 A 
ATOM     71  C   UNL A   1      43.134  27.046  26.334  1.00  0.00     0.131 A 
ATOM     72  C   UNL A   1      42.535  24.354  26.168  1.00  0.00     0.055 A 
ATOM     73  C   UNL A   1      43.558  26.313  25.224  1.00  0.00     0.041 A 
ATOM     74  F   UNL A   1      43.464  28.346  26.385  1.00  0.00    -0.206 F 
ATOM     75  C   UNL A   1      43.271  24.954  25.145  1.00  0.00     0.022 A 
BRANCH  72  76
ATOM     76  S   UNL A   1      42.252  22.561  26.149  1.00  0.00     0.124 S 
ATOM     77  O   UNL A   1      42.919  22.140  27.375  1.00  0.00    -0.237 OA
ATOM     78  O   UNL A   1      40.795  22.487  26.152  1.00  0.00    -0.237 OA
ATOM     79  O   UNL A   1      42.894  22.130  24.908  1.00  0.00    -0.744 OA
ENDBRANCH  72  76
ENDBRANCH  45  69
BRANCH  57  80
ATOM     80  C   UNL A   1      44.852  26.808  33.878  1.00  0.00     0.023 A 
ATOM     81  C   UNL A   1      44.573  25.570  34.485  1.00  0.00     0.031 A 
ATOM     82  C   UNL A   1      46.158  27.318  33.989  1.00  0.00     0.131 A 
ATOM     83  C   UNL A   1      45.562  24.923  35.240  1.00  0.00     0.055 A 
ATOM     84  C   UNL A   1      47.155  26.638  34.688  1.00  0.00     0.041 A 
ATOM     85  F   UNL A   1      46.481  28.495  33.429  1.00  0.00    -0.206 F 
ATOM     86  C   UNL A   1      46.855  25.443  35.335  1.00  0.00     0.022 A 
BRANCH  83  87
ATOM     87  S   UNL A   1      45.097  23.457  36.202  1.00  0.00     0.124 S 
ATOM     88  O   UNL A   1      44.889  24.019  37.533  1.00  0.00    -0.237 OA
ATOM     89  O   UNL A   1      43.897  22.999  35.510  1.00  0.00    -0.237 OA
ATOM     90  O   UNL A   1      46.259  22.581  36.074  1.00  0.00    -0.744 OA
ENDBRANCH  83  87
ENDBRANCH  57  80
ENDBRANCH  31  32
ENDBRANCH  24  26
ENDBRANCH  23  24
ENDBRANCH  22  23
ENDBRANCH  21  22
ENDBRANCH  20  21
ENDBRANCH   1  20
TORSDOF 21
ENDMDL
