MODEL 1
REMARK VINA RESULT:     -10.4      0.000      0.000
REMARK SMILES C[C@@H](NC(=O)NCCC(=O)NC1CC1)C(=O)OCCOCCOC(=O)c1ccc(-c2c3nc(c(-c4cc(S(=O)(=O)[O-])ccc4F)c4ccc([nH]4)c(-c4cc(S(=O)(=O)[O-])ccc4F)c4nc(c(-c5cc(S(=O)(=O)[O-])ccc5F)c5ccc2[nH]5)C=C4)C=C3)cc1
REMARK SMILES IDX 19 1 18 2 17 3 15 4 16 5 2 6 1 7 3 8 4 9 5 11 6 12 7 14 8 15
REMARK SMILES IDX 9 16 10 17 11 18 12 20 13 21 14 22 20 23 21 24 22 25 23 26
REMARK SMILES IDX 24 27 25 28 26 29 27 30 88 31 28 32 87 33 29 34 30 35 31 36
REMARK SMILES IDX 81 37 32 38 86 39 80 40 82 41 33 42 85 43 79 44 78 45 34 47
REMARK SMILES IDX 66 48 46 49 65 50 47 51 50 52 64 53 83 54 48 55 49 56 63 58
REMARK SMILES IDX 84 59 51 60 35 61 36 62 44 63 37 64 43 65 45 66 42 67 38 68
REMARK SMILES IDX 39 69 40 70 41 71 67 72 68 73 76 74 69 75 75 76 77 77 74 78
REMARK SMILES IDX 70 79 71 80 72 81 73 82 52 83 53 84 61 85 54 86 60 87 62 88
REMARK SMILES IDX 59 89 55 90 56 91 57 92 58 93
REMARK H PARENT 3 10 6 13 11 19 82 46 50 57
REMARK Flexibility Score: inf
ROOT
ATOM      1  C   UNL A   1      33.964  23.078  22.850  1.00  0.00     0.202 C 
ENDROOT
BRANCH   1   2
ATOM      2  C   UNL A   1      33.164  22.421  23.987  1.00  0.00     0.261 C 
BRANCH   2   3
ATOM      3  O   UNL A   1      31.740  22.588  24.073  1.00  0.00    -0.462 OA
BRANCH   3   4
ATOM      4  C   UNL A   1      31.226  23.843  24.126  1.00  0.00     0.328 C 
ATOM      5  O   UNL A   1      30.843  24.483  23.154  1.00  0.00    -0.250 OA
BRANCH   4   6
ATOM      6  C   UNL A   1      31.200  24.418  25.540  1.00  0.00     0.190 C 
ATOM      7  C   UNL A   1      30.722  23.416  26.587  1.00  0.00     0.043 C 
BRANCH   6   8
ATOM      8  N   UNL A   1      32.368  25.210  25.956  1.00  0.00    -0.325 N 
ATOM      9  C   UNL A   1      33.177  25.909  25.131  1.00  0.00     0.315 C 
ATOM     10  H   UNL A   1      32.579  25.234  26.918  1.00  0.00     0.166 HD
ATOM     11  O   UNL A   1      34.332  25.538  24.943  1.00  0.00    -0.249 OA
ATOM     12  N   UNL A   1      32.753  27.084  24.613  1.00  0.00    -0.338 N 
ATOM     13  H   UNL A   1      33.346  27.471  23.929  1.00  0.00     0.165 HD
BRANCH  12  14
ATOM     14  C   UNL A   1      31.558  27.872  24.901  1.00  0.00     0.127 C 
BRANCH  14  15
ATOM     15  C   UNL A   1      31.631  28.967  25.956  1.00  0.00     0.121 C 
BRANCH  15  16
ATOM     16  C   UNL A   1      31.967  28.484  27.344  1.00  0.00     0.221 C 
ATOM     17  O   UNL A   1      31.128  27.971  28.081  1.00  0.00    -0.275 OA
ATOM     18  N   UNL A   1      33.260  28.646  27.772  1.00  0.00    -0.353 N 
ATOM     19  H   UNL A   1      33.497  28.213  28.623  1.00  0.00     0.163 HD
BRANCH  18  20
ATOM     20  C   UNL A   1      34.300  29.375  27.119  1.00  0.00     0.082 C 
ATOM     21  C   UNL A   1      34.744  30.672  27.735  1.00  0.00     0.027 C 
ATOM     22  C   UNL A   1      35.683  29.501  27.672  1.00  0.00     0.027 C 
ENDBRANCH  18  20
ENDBRANCH  15  16
ENDBRANCH  14  15
ENDBRANCH  12  14
ENDBRANCH   6   8
ENDBRANCH   4   6
ENDBRANCH   3   4
ENDBRANCH   2   3
ENDBRANCH   1   2
BRANCH   1  23
ATOM     23  O   UNL A   1      35.357  22.949  22.672  1.00  0.00    -0.374 OA
BRANCH  23  24
ATOM     24  C   UNL A   1      36.273  22.928  23.744  1.00  0.00     0.202 C 
BRANCH  24  25
ATOM     25  C   UNL A   1      36.969  21.650  24.234  1.00  0.00     0.261 C 
BRANCH  25  26
ATOM     26  O   UNL A   1      37.321  21.593  25.617  1.00  0.00    -0.460 OA
BRANCH  26  27
ATOM     27  C   UNL A   1      38.627  21.355  25.853  1.00  0.00     0.338 C 
ATOM     28  O   UNL A   1      39.274  20.384  25.467  1.00  0.00    -0.246 OA
BRANCH  27  29
ATOM     29  C   UNL A   1      39.225  22.521  26.527  1.00  0.00     0.060 A 
ATOM     30  C   UNL A   1      38.587  23.757  26.376  1.00  0.00     0.016 A 
ATOM     31  C   UNL A   1      40.420  22.423  27.248  1.00  0.00     0.016 A 
ATOM     32  C   UNL A   1      39.174  24.911  26.883  1.00  0.00     0.010 A 
ATOM     33  C   UNL A   1      41.020  23.587  27.742  1.00  0.00     0.010 A 
ATOM     34  C   UNL A   1      40.423  24.840  27.514  1.00  0.00    -0.014 A 
BRANCH  34  35
ATOM     35  C   UNL A   1      41.197  26.091  27.696  1.00  0.00     0.031 A 
ATOM     36  C   UNL A   1      40.576  27.193  28.513  1.00  0.00     0.074 A 
ATOM     37  C   UNL A   1      42.444  26.222  27.214  1.00  0.00     0.049 A 
ATOM     38  N   UNL A   1      41.051  28.369  28.827  1.00  0.00    -0.248 NA
ATOM     39  C   UNL A   1      39.233  26.922  29.048  1.00  0.00     0.031 C 
ATOM     40  C   UNL A   1      43.171  25.199  26.465  1.00  0.00     0.029 A 
ATOM     41  N   UNL A   1      43.323  27.273  27.293  1.00  0.00    -0.354 N 
ATOM     42  C   UNL A   1      40.067  28.980  29.599  1.00  0.00     0.074 A 
ATOM     43  C   UNL A   1      38.952  28.060  29.663  1.00  0.00     0.031 C 
ATOM     44  C   UNL A   1      44.389  25.675  26.150  1.00  0.00     0.029 A 
ATOM     45  C   UNL A   1      44.514  27.046  26.645  1.00  0.00     0.049 A 
ATOM     46  H   UNL A   1      43.119  28.110  27.768  1.00  0.00     0.167 HD
ATOM     47  C   UNL A   1      40.094  30.192  30.208  1.00  0.00     0.034 A 
ATOM     48  C   UNL A   1      45.573  27.860  26.459  1.00  0.00     0.034 A 
ATOM     49  C   UNL A   1      41.207  31.105  30.113  1.00  0.00     0.049 A 
ATOM     50  C   UNL A   1      45.541  29.248  27.053  1.00  0.00     0.074 A 
ATOM     51  C   UNL A   1      41.344  32.360  30.681  1.00  0.00     0.029 A 
ATOM     52  N   UNL A   1      42.369  30.871  29.387  1.00  0.00    -0.354 N 
ATOM     53  N   UNL A   1      44.605  29.819  27.778  1.00  0.00    -0.248 NA
ATOM     54  C   UNL A   1      46.713  30.099  26.809  1.00  0.00     0.031 C 
ATOM     55  C   UNL A   1      42.551  32.913  30.235  1.00  0.00     0.029 A 
ATOM     56  C   UNL A   1      43.210  31.971  29.460  1.00  0.00     0.049 A 
ATOM     57  H   UNL A   1      42.566  30.043  28.891  1.00  0.00     0.167 HD
ATOM     58  C   UNL A   1      45.094  31.083  28.104  1.00  0.00     0.074 A 
ATOM     59  C   UNL A   1      46.408  31.186  27.503  1.00  0.00     0.031 C 
ATOM     60  C   UNL A   1      44.513  32.065  28.843  1.00  0.00     0.034 A 
BRANCH  47  61
ATOM     61  C   UNL A   1      38.854  30.609  30.964  1.00  0.00     0.023 A 
ATOM     62  C   UNL A   1      37.895  31.470  30.399  1.00  0.00     0.031 A 
ATOM     63  C   UNL A   1      38.663  30.195  32.293  1.00  0.00     0.131 A 
ATOM     64  C   UNL A   1      36.843  31.960  31.190  1.00  0.00     0.055 A 
ATOM     65  C   UNL A   1      37.565  30.615  33.045  1.00  0.00     0.041 A 
ATOM     66  F   UNL A   1      39.557  29.394  32.896  1.00  0.00    -0.206 F 
ATOM     67  C   UNL A   1      36.657  31.518  32.502  1.00  0.00     0.022 A 
BRANCH  64  68
ATOM     68  S   UNL A   1      35.828  33.316  30.539  1.00  0.00     0.124 S 
ATOM     69  O   UNL A   1      36.319  34.451  31.318  1.00  0.00    -0.237 OA
ATOM     70  O   UNL A   1      36.172  33.315  29.123  1.00  0.00    -0.237 OA
ATOM     71  O   UNL A   1      34.462  32.902  30.851  1.00  0.00    -0.744 OA
ENDBRANCH  64  68
ENDBRANCH  47  61
BRANCH  48  72
ATOM     72  C   UNL A   1      46.737  27.406  25.648  1.00  0.00     0.023 A 
ATOM     73  C   UNL A   1      46.929  27.852  24.330  1.00  0.00     0.031 A 
ATOM     74  C   UNL A   1      47.657  26.478  26.169  1.00  0.00     0.131 A 
ATOM     75  C   UNL A   1      47.993  27.343  23.567  1.00  0.00     0.055 A 
ATOM     76  C   UNL A   1      48.742  26.013  25.423  1.00  0.00     0.041 A 
ATOM     77  F   UNL A   1      47.520  26.017  27.423  1.00  0.00    -0.206 F 
ATOM     78  C   UNL A   1      48.908  26.438  24.110  1.00  0.00     0.022 A 
BRANCH  75  79
ATOM     79  S   UNL A   1      48.129  27.831  21.825  1.00  0.00     0.124 S 
ATOM     80  O   UNL A   1      49.271  28.738  21.858  1.00  0.00    -0.237 OA
ATOM     81  O   UNL A   1      48.346  26.548  21.166  1.00  0.00    -0.237 OA
ATOM     82  O   UNL A   1      46.839  28.461  21.547  1.00  0.00    -0.744 OA
ENDBRANCH  75  79
ENDBRANCH  48  72
BRANCH  60  83
ATOM     83  C   UNL A   1      45.322  33.319  29.081  1.00  0.00     0.023 A 
ATOM     84  C   UNL A   1      45.289  34.408  28.192  1.00  0.00     0.031 A 
ATOM     85  C   UNL A   1      46.148  33.419  30.216  1.00  0.00     0.131 A 
ATOM     86  C   UNL A   1      46.107  35.526  28.426  1.00  0.00     0.055 A 
ATOM     87  C   UNL A   1      46.910  34.559  30.475  1.00  0.00     0.041 A 
ATOM     88  F   UNL A   1      46.221  32.409  31.098  1.00  0.00    -0.206 F 
ATOM     89  C   UNL A   1      46.902  35.615  29.570  1.00  0.00     0.022 A 
BRANCH  86  90
ATOM     90  S   UNL A   1      46.191  36.824  27.161  1.00  0.00     0.124 S 
ATOM     91  O   UNL A   1      46.413  36.048  25.944  1.00  0.00    -0.237 OA
ATOM     92  O   UNL A   1      44.883  37.462  27.280  1.00  0.00    -0.237 OA
ATOM     93  O   UNL A   1      47.322  37.646  27.587  1.00  0.00    -0.744 OA
ENDBRANCH  86  90
ENDBRANCH  60  83
ENDBRANCH  34  35
ENDBRANCH  27  29
ENDBRANCH  26  27
ENDBRANCH  25  26
ENDBRANCH  24  25
ENDBRANCH  23  24
ENDBRANCH   1  23
TORSDOF 22
ENDMDL
MODEL 2
REMARK VINA RESULT:     -10.1      5.043      8.287
REMARK SMILES C[C@@H](NC(=O)NCCC(=O)NC1CC1)C(=O)OCCOCCOC(=O)c1ccc(-c2c3nc(c(-c4cc(S(=O)(=O)[O-])ccc4F)c4ccc([nH]4)c(-c4cc(S(=O)(=O)[O-])ccc4F)c4nc(c(-c5cc(S(=O)(=O)[O-])ccc5F)c5ccc2[nH]5)C=C4)C=C3)cc1
REMARK SMILES IDX 19 1 18 2 17 3 15 4 16 5 2 6 1 7 3 8 4 9 5 11 6 12 7 14 8 15
REMARK SMILES IDX 9 16 10 17 11 18 12 20 13 21 14 22 20 23 21 24 22 25 23 26
REMARK SMILES IDX 24 27 25 28 26 29 27 30 88 31 28 32 87 33 29 34 30 35 31 36
REMARK SMILES IDX 81 37 32 38 86 39 80 40 82 41 33 42 85 43 79 44 78 45 34 47
REMARK SMILES IDX 66 48 46 49 65 50 47 51 50 52 64 53 83 54 48 55 49 56 63 58
REMARK SMILES IDX 84 59 51 60 35 61 36 62 44 63 37 64 43 65 45 66 42 67 38 68
REMARK SMILES IDX 39 69 40 70 41 71 67 72 68 73 76 74 69 75 75 76 77 77 74 78
REMARK SMILES IDX 70 79 71 80 72 81 73 82 52 83 53 84 61 85 54 86 60 87 62 88
REMARK SMILES IDX 59 89 55 90 56 91 57 92 58 93
REMARK H PARENT 3 10 6 13 11 19 82 46 50 57
REMARK Flexibility Score: inf
ROOT
ATOM      1  C   UNL A   1      33.091  29.122  26.186  1.00  0.00     0.202 C 
ENDROOT
BRANCH   1   2
ATOM      2  C   UNL A   1      32.387  28.202  25.175  1.00  0.00     0.261 C 
BRANCH   2   3
ATOM      3  O   UNL A   1      32.667  26.794  25.146  1.00  0.00    -0.462 OA
BRANCH   3   4
ATOM      4  C   UNL A   1      31.947  25.963  25.941  1.00  0.00     0.328 C 
ATOM      5  O   UNL A   1      31.078  26.325  26.726  1.00  0.00    -0.250 OA
BRANCH   4   6
ATOM      6  C   UNL A   1      32.352  24.498  25.797  1.00  0.00     0.190 C 
ATOM      7  C   UNL A   1      31.818  23.614  26.920  1.00  0.00     0.043 C 
BRANCH   6   8
ATOM      8  N   UNL A   1      32.229  23.904  24.456  1.00  0.00    -0.325 N 
ATOM      9  C   UNL A   1      33.259  23.538  23.663  1.00  0.00     0.315 C 
ATOM     10  H   UNL A   1      31.319  23.760  24.107  1.00  0.00     0.166 HD
ATOM     11  O   UNL A   1      33.496  24.165  22.634  1.00  0.00    -0.249 OA
ATOM     12  N   UNL A   1      33.948  22.408  23.937  1.00  0.00    -0.338 N 
ATOM     13  H   UNL A   1      34.756  22.274  23.389  1.00  0.00     0.165 HD
BRANCH  12  14
ATOM     14  C   UNL A   1      33.692  21.354  24.914  1.00  0.00     0.127 C 
BRANCH  14  15
ATOM     15  C   UNL A   1      32.503  20.425  24.705  1.00  0.00     0.121 C 
BRANCH  15  16
ATOM     16  C   UNL A   1      32.314  19.953  23.286  1.00  0.00     0.221 C 
ATOM     17  O   UNL A   1      31.811  20.665  22.420  1.00  0.00    -0.275 OA
ATOM     18  N   UNL A   1      32.718  18.677  22.987  1.00  0.00    -0.353 N 
ATOM     19  H   UNL A   1      32.710  18.427  22.035  1.00  0.00     0.163 HD
BRANCH  18  20
ATOM     20  C   UNL A   1      33.150  17.672  23.905  1.00  0.00     0.082 C 
ATOM     21  C   UNL A   1      34.019  16.565  23.378  1.00  0.00     0.027 C 
ATOM     22  C   UNL A   1      34.563  17.547  24.377  1.00  0.00     0.027 C 
ENDBRANCH  18  20
ENDBRANCH  15  16
ENDBRANCH  14  15
ENDBRANCH  12  14
ENDBRANCH   6   8
ENDBRANCH   4   6
ENDBRANCH   3   4
ENDBRANCH   2   3
ENDBRANCH   1   2
BRANCH   1  23
ATOM     23  O   UNL A   1      32.993  30.528  26.194  1.00  0.00    -0.374 OA
BRANCH  23  24
ATOM     24  C   UNL A   1      31.971  31.227  26.868  1.00  0.00     0.202 C 
BRANCH  24  25
ATOM     25  C   UNL A   1      31.962  32.754  27.039  1.00  0.00     0.261 C 
BRANCH  25  26
ATOM     26  O   UNL A   1      33.231  33.407  27.096  1.00  0.00    -0.460 OA
BRANCH  26  27
ATOM     27  C   UNL A   1      33.707  33.596  28.343  1.00  0.00     0.338 C 
ATOM     28  O   UNL A   1      33.136  34.180  29.262  1.00  0.00    -0.246 OA
BRANCH  27  29
ATOM     29  C   UNL A   1      34.973  32.860  28.503  1.00  0.00     0.060 A 
ATOM     30  C   UNL A   1      34.898  31.503  28.839  1.00  0.00     0.016 A 
ATOM     31  C   UNL A   1      36.215  33.493  28.383  1.00  0.00     0.016 A 
ATOM     32  C   UNL A   1      36.058  30.791  29.126  1.00  0.00     0.010 A 
ATOM     33  C   UNL A   1      37.379  32.782  28.691  1.00  0.00     0.010 A 
ATOM     34  C   UNL A   1      37.298  31.443  29.113  1.00  0.00    -0.014 A 
BRANCH  34  35
ATOM     35  C   UNL A   1      38.448  30.789  29.782  1.00  0.00     0.031 A 
ATOM     36  C   UNL A   1      38.745  31.170  31.208  1.00  0.00     0.074 A 
ATOM     37  C   UNL A   1      39.166  29.833  29.171  1.00  0.00     0.049 A 
ATOM     38  N   UNL A   1      39.680  30.736  32.012  1.00  0.00    -0.248 NA
ATOM     39  C   UNL A   1      37.858  32.182  31.805  1.00  0.00     0.031 C 
ATOM     40  C   UNL A   1      38.930  29.337  27.816  1.00  0.00     0.029 A 
ATOM     41  N   UNL A   1      40.237  29.101  29.618  1.00  0.00    -0.354 N 
ATOM     42  C   UNL A   1      39.494  31.419  33.211  1.00  0.00     0.074 A 
ATOM     43  C   UNL A   1      38.387  32.329  33.009  1.00  0.00     0.031 C 
ATOM     44  C   UNL A   1      39.835  28.380  27.541  1.00  0.00     0.029 A 
ATOM     45  C   UNL A   1      40.732  28.222  28.685  1.00  0.00     0.049 A 
ATOM     46  H   UNL A   1      40.616  29.198  30.521  1.00  0.00     0.167 HD
ATOM     47  C   UNL A   1      40.176  31.291  34.376  1.00  0.00     0.034 A 
ATOM     48  C   UNL A   1      41.799  27.398  28.745  1.00  0.00     0.034 A 
ATOM     49  C   UNL A   1      41.293  30.395  34.550  1.00  0.00     0.049 A 
ATOM     50  C   UNL A   1      42.614  27.348  30.015  1.00  0.00     0.074 A 
ATOM     51  C   UNL A   1      42.063  30.185  35.681  1.00  0.00     0.029 A 
ATOM     52  N   UNL A   1      41.813  29.571  33.559  1.00  0.00    -0.354 N 
ATOM     53  N   UNL A   1      42.434  28.000  31.142  1.00  0.00    -0.248 NA
ATOM     54  C   UNL A   1      43.774  26.447  30.022  1.00  0.00     0.031 C 
ATOM     55  C   UNL A   1      43.093  29.296  35.351  1.00  0.00     0.029 A 
ATOM     56  C   UNL A   1      42.916  28.881  34.040  1.00  0.00     0.049 A 
ATOM     57  H   UNL A   1      41.451  29.488  32.648  1.00  0.00     0.167 HD
ATOM     58  C   UNL A   1      43.438  27.558  32.002  1.00  0.00     0.074 A 
ATOM     59  C   UNL A   1      44.213  26.581  31.265  1.00  0.00     0.031 C 
ATOM     60  C   UNL A   1      43.689  27.919  33.288  1.00  0.00     0.034 A 
BRANCH  47  61
ATOM     61  C   UNL A   1      39.766  32.196  35.515  1.00  0.00     0.023 A 
ATOM     62  C   UNL A   1      38.942  31.744  36.562  1.00  0.00     0.031 A 
ATOM     63  C   UNL A   1      40.146  33.549  35.516  1.00  0.00     0.131 A 
ATOM     64  C   UNL A   1      38.453  32.655  37.512  1.00  0.00     0.055 A 
ATOM     65  C   UNL A   1      39.729  34.430  36.516  1.00  0.00     0.041 A 
ATOM     66  F   UNL A   1      40.910  34.046  34.531  1.00  0.00    -0.206 F 
ATOM     67  C   UNL A   1      38.862  33.991  37.510  1.00  0.00     0.022 A 
BRANCH  64  68
ATOM     68  S   UNL A   1      37.138  32.112  38.638  1.00  0.00     0.124 S 
ATOM     69  O   UNL A   1      35.994  32.876  38.145  1.00  0.00    -0.237 OA
ATOM     70  O   UNL A   1      37.097  30.674  38.404  1.00  0.00    -0.237 OA
ATOM     71  O   UNL A   1      37.625  32.518  39.954  1.00  0.00    -0.744 OA
ENDBRANCH  64  68
ENDBRANCH  47  61
BRANCH  48  72
ATOM     72  C   UNL A   1      42.185  26.580  27.560  1.00  0.00     0.023 A 
ATOM     73  C   UNL A   1      41.834  25.224  27.463  1.00  0.00     0.031 A 
ATOM     74  C   UNL A   1      42.953  27.138  26.522  1.00  0.00     0.131 A 
ATOM     75  C   UNL A   1      42.280  24.463  26.369  1.00  0.00     0.055 A 
ATOM     76  C   UNL A   1      43.352  26.389  25.413  1.00  0.00     0.041 A 
ATOM     77  F   UNL A   1      43.318  28.429  26.566  1.00  0.00    -0.206 F 
ATOM     78  C   UNL A   1      43.024  25.040  25.338  1.00  0.00     0.022 A 
BRANCH  75  79
ATOM     79  S   UNL A   1      41.930  22.683  26.345  1.00  0.00     0.124 S 
ATOM     80  O   UNL A   1      40.474  22.665  26.426  1.00  0.00    -0.237 OA
ATOM     81  O   UNL A   1      42.508  22.276  25.069  1.00  0.00    -0.237 OA
ATOM     82  O   UNL A   1      42.627  22.183  27.529  1.00  0.00    -0.744 OA
ENDBRANCH  75  79
ENDBRANCH  48  72
BRANCH  60  83
ATOM     83  C   UNL A   1      44.824  27.213  33.994  1.00  0.00     0.023 A 
ATOM     84  C   UNL A   1      44.621  26.043  34.747  1.00  0.00     0.031 A 
ATOM     85  C   UNL A   1      46.131  27.728  33.915  1.00  0.00     0.131 A 
ATOM     86  C   UNL A   1      45.697  25.459  35.434  1.00  0.00     0.055 A 
ATOM     87  C   UNL A   1      47.208  27.107  34.549  1.00  0.00     0.041 A 
ATOM     88  F   UNL A   1      46.384  28.844  33.212  1.00  0.00    -0.206 F 
ATOM     89  C   UNL A   1      46.991  25.974  35.326  1.00  0.00     0.022 A 
BRANCH  86  90
ATOM     90  S   UNL A   1      45.366  24.071  36.555  1.00  0.00     0.124 S 
ATOM     91  O   UNL A   1      46.712  23.677  36.958  1.00  0.00    -0.237 OA
ATOM     92  O   UNL A   1      44.546  24.693  37.590  1.00  0.00    -0.237 OA
ATOM     93  O   UNL A   1      44.665  23.106  35.708  1.00  0.00    -0.744 OA
ENDBRANCH  86  90
ENDBRANCH  60  83
ENDBRANCH  34  35
ENDBRANCH  27  29
ENDBRANCH  26  27
ENDBRANCH  25  26
ENDBRANCH  24  25
ENDBRANCH  23  24
ENDBRANCH   1  23
TORSDOF 22
ENDMDL
MODEL 3
REMARK VINA RESULT:      -9.9      1.735      2.404
REMARK SMILES C[C@@H](NC(=O)NCCC(=O)NC1CC1)C(=O)OCCOCCOC(=O)c1ccc(-c2c3nc(c(-c4cc(S(=O)(=O)[O-])ccc4F)c4ccc([nH]4)c(-c4cc(S(=O)(=O)[O-])ccc4F)c4nc(c(-c5cc(S(=O)(=O)[O-])ccc5F)c5ccc2[nH]5)C=C4)C=C3)cc1
REMARK SMILES IDX 19 1 18 2 17 3 15 4 16 5 2 6 1 7 3 8 4 9 5 11 6 12 7 14 8 15
REMARK SMILES IDX 9 16 10 17 11 18 12 20 13 21 14 22 20 23 21 24 22 25 23 26
REMARK SMILES IDX 24 27 25 28 26 29 27 30 88 31 28 32 87 33 29 34 30 35 31 36
REMARK SMILES IDX 81 37 32 38 86 39 80 40 82 41 33 42 85 43 79 44 78 45 34 47
REMARK SMILES IDX 66 48 46 49 65 50 47 51 50 52 64 53 83 54 48 55 49 56 63 58
REMARK SMILES IDX 84 59 51 60 35 61 36 62 44 63 37 64 43 65 45 66 42 67 38 68
REMARK SMILES IDX 39 69 40 70 41 71 67 72 68 73 76 74 69 75 75 76 77 77 74 78
REMARK SMILES IDX 70 79 71 80 72 81 73 82 52 83 53 84 61 85 54 86 60 87 62 88
REMARK SMILES IDX 59 89 55 90 56 91 57 92 58 93
REMARK H PARENT 3 10 6 13 11 19 82 46 50 57
REMARK Flexibility Score: inf
ROOT
ATOM      1  C   UNL A   1      34.261  23.169  23.085  1.00  0.00     0.202 C 
ENDROOT
BRANCH   1   2
ATOM      2  C   UNL A   1      33.222  22.206  23.682  1.00  0.00     0.261 C 
BRANCH   2   3
ATOM      3  O   UNL A   1      31.818  22.500  23.604  1.00  0.00    -0.462 OA
BRANCH   3   4
ATOM      4  C   UNL A   1      31.395  23.762  23.869  1.00  0.00     0.328 C 
ATOM      5  O   UNL A   1      31.272  24.648  23.031  1.00  0.00    -0.250 OA
BRANCH   4   6
ATOM      6  C   UNL A   1      31.113  24.000  25.350  1.00  0.00     0.190 C 
ATOM      7  C   UNL A   1      30.682  22.736  26.089  1.00  0.00     0.043 C 
BRANCH   6   8
ATOM      8  N   UNL A   1      32.084  24.824  26.087  1.00  0.00    -0.325 N 
ATOM      9  C   UNL A   1      32.929  25.721  25.536  1.00  0.00     0.315 C 
ATOM     10  H   UNL A   1      32.121  24.712  27.065  1.00  0.00     0.166 HD
ATOM     11  O   UNL A   1      34.137  25.499  25.520  1.00  0.00    -0.249 OA
ATOM     12  N   UNL A   1      32.458  26.917  25.117  1.00  0.00    -0.338 N 
ATOM     13  H   UNL A   1      33.108  27.465  24.619  1.00  0.00     0.165 HD
BRANCH  12  14
ATOM     14  C   UNL A   1      31.143  27.529  25.282  1.00  0.00     0.127 C 
BRANCH  14  15
ATOM     15  C   UNL A   1      30.341  27.903  24.042  1.00  0.00     0.121 C 
BRANCH  15  16
ATOM     16  C   UNL A   1      30.994  28.932  23.156  1.00  0.00     0.221 C 
ATOM     17  O   UNL A   1      32.128  28.787  22.707  1.00  0.00    -0.275 OA
ATOM     18  N   UNL A   1      30.273  30.063  22.867  1.00  0.00    -0.353 N 
ATOM     19  H   UNL A   1      30.655  30.664  22.188  1.00  0.00     0.163 HD
BRANCH  18  20
ATOM     20  C   UNL A   1      29.030  30.465  23.445  1.00  0.00     0.082 C 
ATOM     21  C   UNL A   1      28.321  31.643  22.839  1.00  0.00     0.027 C 
ATOM     22  C   UNL A   1      27.712  30.272  22.767  1.00  0.00     0.027 C 
ENDBRANCH  18  20
ENDBRANCH  15  16
ENDBRANCH  14  15
ENDBRANCH  12  14
ENDBRANCH   6   8
ENDBRANCH   4   6
ENDBRANCH   3   4
ENDBRANCH   2   3
ENDBRANCH   1   2
BRANCH   1  23
ATOM     23  O   UNL A   1      35.613  22.845  22.852  1.00  0.00    -0.374 OA
BRANCH  23  24
ATOM     24  C   UNL A   1      36.593  22.850  23.866  1.00  0.00     0.202 C 
BRANCH  24  25
ATOM     25  C   UNL A   1      37.147  21.570  24.512  1.00  0.00     0.261 C 
BRANCH  25  26
ATOM     26  O   UNL A   1      37.567  21.662  25.873  1.00  0.00    -0.460 OA
BRANCH  26  27
ATOM     27  C   UNL A   1      38.887  21.467  26.065  1.00  0.00     0.338 C 
ATOM     28  O   UNL A   1      39.550  20.513  25.665  1.00  0.00    -0.246 OA
BRANCH  27  29
ATOM     29  C   UNL A   1      39.471  22.658  26.708  1.00  0.00     0.060 A 
ATOM     30  C   UNL A   1      38.850  23.891  26.478  1.00  0.00     0.016 A 
ATOM     31  C   UNL A   1      40.638  22.584  27.476  1.00  0.00     0.016 A 
ATOM     32  C   UNL A   1      39.429  25.062  26.954  1.00  0.00     0.010 A 
ATOM     33  C   UNL A   1      41.230  23.763  27.938  1.00  0.00     0.010 A 
ATOM     34  C   UNL A   1      40.653  25.009  27.633  1.00  0.00    -0.014 A 
BRANCH  34  35
ATOM     35  C   UNL A   1      41.432  26.262  27.788  1.00  0.00     0.031 A 
ATOM     36  C   UNL A   1      40.820  27.379  28.589  1.00  0.00     0.074 A 
ATOM     37  C   UNL A   1      42.675  26.382  27.294  1.00  0.00     0.049 A 
ATOM     38  N   UNL A   1      41.300  28.560  28.880  1.00  0.00    -0.248 NA
ATOM     39  C   UNL A   1      39.480  27.122  29.140  1.00  0.00     0.031 C 
ATOM     40  C   UNL A   1      43.394  25.343  26.557  1.00  0.00     0.029 A 
ATOM     41  N   UNL A   1      43.557  27.431  27.348  1.00  0.00    -0.354 N 
ATOM     42  C   UNL A   1      40.323  29.187  29.648  1.00  0.00     0.074 A 
ATOM     43  C   UNL A   1      39.206  28.270  29.736  1.00  0.00     0.031 C 
ATOM     44  C   UNL A   1      44.611  25.811  26.225  1.00  0.00     0.029 A 
ATOM     45  C   UNL A   1      44.742  27.190  26.695  1.00  0.00     0.049 A 
ATOM     46  H   UNL A   1      43.359  28.277  27.810  1.00  0.00     0.167 HD
ATOM     47  C   UNL A   1      40.357  30.409  30.235  1.00  0.00     0.034 A 
ATOM     48  C   UNL A   1      45.802  27.999  26.487  1.00  0.00     0.034 A 
ATOM     49  C   UNL A   1      41.471  31.318  30.115  1.00  0.00     0.049 A 
ATOM     50  C   UNL A   1      45.778  29.397  27.056  1.00  0.00     0.074 A 
ATOM     51  C   UNL A   1      41.616  32.582  30.661  1.00  0.00     0.029 A 
ATOM     52  N   UNL A   1      42.627  31.068  29.385  1.00  0.00    -0.354 N 
ATOM     53  N   UNL A   1      44.849  29.983  27.778  1.00  0.00    -0.248 NA
ATOM     54  C   UNL A   1      46.950  30.241  26.788  1.00  0.00     0.031 C 
ATOM     55  C   UNL A   1      42.820  33.124  30.196  1.00  0.00     0.029 A 
ATOM     56  C   UNL A   1      43.471  32.167  29.433  1.00  0.00     0.049 A 
ATOM     57  H   UNL A   1      42.818  30.231  28.902  1.00  0.00     0.167 HD
ATOM     58  C   UNL A   1      45.343  31.251  28.078  1.00  0.00     0.074 A 
ATOM     59  C   UNL A   1      46.652  31.340  27.465  1.00  0.00     0.031 C 
ATOM     60  C   UNL A   1      44.770  32.247  28.804  1.00  0.00     0.034 A 
BRANCH  47  61
ATOM     61  C   UNL A   1      39.124  30.842  30.993  1.00  0.00     0.023 A 
ATOM     62  C   UNL A   1      38.023  31.433  30.344  1.00  0.00     0.031 A 
ATOM     63  C   UNL A   1      39.077  30.726  32.393  1.00  0.00     0.131 A 
ATOM     64  C   UNL A   1      36.968  31.966  31.102  1.00  0.00     0.055 A 
ATOM     65  C   UNL A   1      37.982  31.178  33.133  1.00  0.00     0.041 A 
ATOM     66  F   UNL A   1      40.107  30.196  33.071  1.00  0.00    -0.206 F 
ATOM     67  C   UNL A   1      36.929  31.820  32.491  1.00  0.00     0.022 A 
BRANCH  64  68
ATOM     68  S   UNL A   1      35.741  33.008  30.266  1.00  0.00     0.124 S 
ATOM     69  O   UNL A   1      36.247  33.018  28.895  1.00  0.00    -0.237 OA
ATOM     70  O   UNL A   1      34.501  32.272  30.485  1.00  0.00    -0.237 OA
ATOM     71  O   UNL A   1      35.841  34.286  30.967  1.00  0.00    -0.744 OA
ENDBRANCH  64  68
ENDBRANCH  47  61
BRANCH  48  72
ATOM     72  C   UNL A   1      46.959  27.527  25.674  1.00  0.00     0.023 A 
ATOM     73  C   UNL A   1      47.110  27.903  24.330  1.00  0.00     0.031 A 
ATOM     74  C   UNL A   1      47.913  26.652  26.225  1.00  0.00     0.131 A 
ATOM     75  C   UNL A   1      48.170  27.378  23.572  1.00  0.00     0.055 A 
ATOM     76  C   UNL A   1      48.992  26.172  25.481  1.00  0.00     0.041 A 
ATOM     77  F   UNL A   1      47.814  26.258  27.505  1.00  0.00    -0.206 F 
ATOM     78  C   UNL A   1      49.119  26.526  24.142  1.00  0.00     0.022 A 
BRANCH  75  79
ATOM     79  S   UNL A   1      48.255  27.771  21.803  1.00  0.00     0.124 S 
ATOM     80  O   UNL A   1      49.310  28.778  21.773  1.00  0.00    -0.237 OA
ATOM     81  O   UNL A   1      48.586  26.476  21.219  1.00  0.00    -0.237 OA
ATOM     82  O   UNL A   1      46.913  28.264  21.499  1.00  0.00    -0.744 OA
ENDBRANCH  75  79
ENDBRANCH  48  72
BRANCH  60  83
ATOM     83  C   UNL A   1      45.584  33.503  29.014  1.00  0.00     0.023 A 
ATOM     84  C   UNL A   1      46.478  33.641  30.090  1.00  0.00     0.031 A 
ATOM     85  C   UNL A   1      45.454  34.583  28.122  1.00  0.00     0.131 A 
ATOM     86  C   UNL A   1      47.165  34.851  30.277  1.00  0.00     0.055 A 
ATOM     87  C   UNL A   1      46.187  35.761  28.277  1.00  0.00     0.041 A 
ATOM     88  F   UNL A   1      44.613  34.509  27.077  1.00  0.00    -0.206 F 
ATOM     89  C   UNL A   1      47.038  35.904  29.368  1.00  0.00     0.022 A 
BRANCH  86  90
ATOM     90  S   UNL A   1      48.156  35.068  31.781  1.00  0.00     0.124 S 
ATOM     91  O   UNL A   1      47.664  33.985  32.628  1.00  0.00    -0.237 OA
ATOM     92  O   UNL A   1      49.519  34.919  31.283  1.00  0.00    -0.237 OA
ATOM     93  O   UNL A   1      47.805  36.415  32.232  1.00  0.00    -0.744 OA
ENDBRANCH  86  90
ENDBRANCH  60  83
ENDBRANCH  34  35
ENDBRANCH  27  29
ENDBRANCH  26  27
ENDBRANCH  25  26
ENDBRANCH  24  25
ENDBRANCH  23  24
ENDBRANCH   1  23
TORSDOF 22
ENDMDL
