MODEL 1
REMARK VINA RESULT:     -12.1      0.000      0.000
REMARK SMILES Cc1c(CC(=O)OCCOCCOC(=O)c2ccc(-c3c4nc(c(-c5cc(S(=O)(=O)[O-])ccc5F)c5ccc([nH]5)c(-c5cc(S(=O)(=O)[O-])ccc5F)c5nc(c(-c6cc(S(=O)(=O)[O-])ccc6F)c6ccc3[nH]6)C=C5)C=C4)cc2)c2ccccc2n1C(=O)c1ccc(Cl)cc1
REMARK SMILES IDX 10 1 9 2 8 3 7 4 5 5 6 6 4 7 3 8 1 9 2 10 85 11 79 12 84 13
REMARK SMILES IDX 80 14 83 15 81 16 82 17 86 18 87 19 88 20 89 21 94 22 90 23
REMARK SMILES IDX 93 24 91 25 92 26 11 27 12 28 13 29 14 30 15 31 16 32 17 33
REMARK SMILES IDX 78 34 18 35 77 36 19 37 20 38 21 39 71 40 22 41 76 42 70 43
REMARK SMILES IDX 72 44 23 45 75 46 69 47 68 48 24 50 56 51 36 52 55 53 37 54
REMARK SMILES IDX 40 55 54 56 73 57 38 58 39 59 53 61 74 62 41 63 25 64 26 65
REMARK SMILES IDX 34 66 27 67 33 68 35 69 32 70 28 71 29 72 30 73 31 74 57 75
REMARK SMILES IDX 58 76 66 77 59 78 65 79 67 80 64 81 60 82 61 83 62 84 63 85
REMARK SMILES IDX 42 86 43 87 51 88 44 89 50 90 52 91 49 92 45 93 46 94 47 95
REMARK SMILES IDX 48 96
REMARK H PARENT 72 49 40 60
REMARK Flexibility Score: inf
ROOT
ATOM      1  O   UNL A   1      33.925  29.442  27.004  1.00  0.00    -0.374 OA
ENDROOT
BRANCH   1   2
ATOM      2  C   UNL A   1      33.182  28.249  27.218  1.00  0.00     0.202 C 
BRANCH   2   3
ATOM      3  C   UNL A   1      32.059  27.840  26.248  1.00  0.00     0.261 C 
BRANCH   3   4
ATOM      4  O   UNL A   1      32.439  27.769  24.861  1.00  0.00    -0.463 OA
BRANCH   4   5
ATOM      5  C   UNL A   1      33.031  26.600  24.501  1.00  0.00     0.310 C 
ATOM      6  O   UNL A   1      33.583  26.409  23.418  1.00  0.00    -0.252 OA
BRANCH   5   7
ATOM      7  C   UNL A   1      32.968  25.485  25.520  1.00  0.00     0.160 C 
BRANCH   7   8
ATOM      8  C   UNL A   1      33.304  24.069  25.119  1.00  0.00    -0.008 A 
ATOM      9  C   UNL A   1      30.991  23.416  24.229  1.00  0.00     0.065 C 
ATOM     10  C   UNL A   1      32.436  23.154  24.532  1.00  0.00     0.028 A 
ATOM     11  N   UNL A   1      33.139  21.974  24.225  1.00  0.00    -0.280 N 
ATOM     12  C   UNL A   1      34.600  23.480  25.106  1.00  0.00     0.004 A 
ATOM     13  C   UNL A   1      34.478  22.170  24.626  1.00  0.00     0.056 A 
ATOM     14  C   UNL A   1      35.882  23.965  25.461  1.00  0.00     0.010 A 
ATOM     15  C   UNL A   1      35.625  21.342  24.578  1.00  0.00     0.027 A 
ATOM     16  C   UNL A   1      36.996  23.124  25.450  1.00  0.00     0.001 A 
ATOM     17  C   UNL A   1      36.860  21.817  25.026  1.00  0.00     0.002 A 
BRANCH  11  18
ATOM     18  C   UNL A   1      32.620  20.822  23.556  1.00  0.00     0.262 C 
ATOM     19  O   UNL A   1      32.049  20.949  22.475  1.00  0.00    -0.268 OA
BRANCH  18  20
ATOM     20  C   UNL A   1      32.769  19.427  24.002  1.00  0.00     0.040 A 
ATOM     21  C   UNL A   1      33.046  18.406  23.086  1.00  0.00     0.015 A 
ATOM     22  C   UNL A   1      32.630  19.147  25.368  1.00  0.00     0.015 A 
ATOM     23  C   UNL A   1      33.083  17.082  23.532  1.00  0.00     0.021 A 
ATOM     24  C   UNL A   1      32.683  17.824  25.808  1.00  0.00     0.021 A 
ATOM     25  C   UNL A   1      32.887  16.796  24.886  1.00  0.00     0.041 A 
ATOM     26  Cl  UNL A   1      32.874  15.161  25.423  1.00  0.00    -0.084 Cl
ENDBRANCH  18  20
ENDBRANCH  11  18
ENDBRANCH   7   8
ENDBRANCH   5   7
ENDBRANCH   4   5
ENDBRANCH   3   4
ENDBRANCH   2   3
ENDBRANCH   1   2
BRANCH   1  27
ATOM     27  C   UNL A   1      33.214  30.675  27.058  1.00  0.00     0.202 C 
BRANCH  27  28
ATOM     28  C   UNL A   1      33.747  31.837  27.915  1.00  0.00     0.261 C 
BRANCH  28  29
ATOM     29  O   UNL A   1      34.785  31.428  28.806  1.00  0.00    -0.460 OA
BRANCH  29  30
ATOM     30  C   UNL A   1      35.704  32.395  29.072  1.00  0.00     0.338 C 
ATOM     31  O   UNL A   1      35.537  33.428  29.700  1.00  0.00    -0.246 OA
BRANCH  30  32
ATOM     32  C   UNL A   1      36.995  31.742  28.815  1.00  0.00     0.060 A 
ATOM     33  C   UNL A   1      37.020  30.445  28.294  1.00  0.00     0.016 A 
ATOM     34  C   UNL A   1      38.107  32.298  29.468  1.00  0.00     0.016 A 
ATOM     35  C   UNL A   1      38.145  29.665  28.520  1.00  0.00     0.010 A 
ATOM     36  C   UNL A   1      39.216  31.503  29.717  1.00  0.00     0.010 A 
ATOM     37  C   UNL A   1      39.216  30.177  29.276  1.00  0.00    -0.014 A 
BRANCH  37  38
ATOM     38  C   UNL A   1      40.431  29.367  29.344  1.00  0.00     0.031 A 
ATOM     39  C   UNL A   1      40.721  28.960  30.744  1.00  0.00     0.074 A 
ATOM     40  C   UNL A   1      41.145  28.893  28.305  1.00  0.00     0.049 A 
ATOM     41  N   UNL A   1      41.702  29.331  31.500  1.00  0.00    -0.248 NA
ATOM     42  C   UNL A   1      39.658  28.222  31.450  1.00  0.00     0.031 C 
ATOM     43  C   UNL A   1      40.798  28.924  26.883  1.00  0.00     0.029 A 
ATOM     44  N   UNL A   1      42.304  28.169  28.319  1.00  0.00    -0.354 N 
ATOM     45  C   UNL A   1      41.477  28.705  32.725  1.00  0.00     0.074 A 
ATOM     46  C   UNL A   1      40.118  28.238  32.698  1.00  0.00     0.031 C 
ATOM     47  C   UNL A   1      41.592  28.059  26.210  1.00  0.00     0.029 A 
ATOM     48  C   UNL A   1      42.585  27.517  27.124  1.00  0.00     0.049 A 
ATOM     49  H   UNL A   1      42.890  28.114  29.108  1.00  0.00     0.167 HD
ATOM     50  C   UNL A   1      42.496  28.393  33.572  1.00  0.00     0.034 A 
ATOM     51  C   UNL A   1      43.502  26.536  26.927  1.00  0.00     0.034 A 
ATOM     52  C   UNL A   1      43.699  29.089  33.213  1.00  0.00     0.049 A 
ATOM     53  C   UNL A   1      44.462  26.562  28.051  1.00  0.00     0.074 A 
ATOM     54  C   UNL A   1      44.118  30.401  33.217  1.00  0.00     0.029 A 
ATOM     55  N   UNL A   1      44.575  28.395  32.416  1.00  0.00    -0.354 N 
ATOM     56  N   UNL A   1      45.334  27.506  28.253  1.00  0.00    -0.248 NA
ATOM     57  C   UNL A   1      44.203  25.696  29.192  1.00  0.00     0.031 C 
ATOM     58  C   UNL A   1      45.020  30.511  32.122  1.00  0.00     0.029 A 
ATOM     59  C   UNL A   1      45.148  29.257  31.522  1.00  0.00     0.049 A 
ATOM     60  H   UNL A   1      44.760  27.431  32.479  1.00  0.00     0.167 HD
ATOM     61  C   UNL A   1      45.373  27.644  29.630  1.00  0.00     0.074 A 
ATOM     62  C   UNL A   1      44.788  26.414  30.152  1.00  0.00     0.031 C 
ATOM     63  C   UNL A   1      45.604  28.863  30.201  1.00  0.00     0.034 A 
BRANCH  50  64
ATOM     64  C   UNL A   1      42.502  27.159  34.450  1.00  0.00     0.023 A 
ATOM     65  C   UNL A   1      43.231  25.995  34.138  1.00  0.00     0.031 A 
ATOM     66  C   UNL A   1      41.963  27.208  35.751  1.00  0.00     0.131 A 
ATOM     67  C   UNL A   1      43.394  24.952  35.056  1.00  0.00     0.055 A 
ATOM     68  C   UNL A   1      42.185  26.196  36.696  1.00  0.00     0.041 A 
ATOM     69  F   UNL A   1      41.256  28.269  36.167  1.00  0.00    -0.206 F 
ATOM     70  C   UNL A   1      42.905  25.058  36.351  1.00  0.00     0.022 A 
BRANCH  67  71
ATOM     71  S   UNL A   1      44.270  23.440  34.566  1.00  0.00     0.124 S 
ATOM     72  O   UNL A   1      45.357  23.972  33.752  1.00  0.00    -0.237 OA
ATOM     73  O   UNL A   1      44.659  22.893  35.863  1.00  0.00    -0.237 OA
ATOM     74  O   UNL A   1      43.256  22.671  33.852  1.00  0.00    -0.744 OA
ENDBRANCH  67  71
ENDBRANCH  50  64
BRANCH  51  75
ATOM     75  C   UNL A   1      43.336  25.309  26.108  1.00  0.00     0.023 A 
ATOM     76  C   UNL A   1      42.440  24.315  26.537  1.00  0.00     0.031 A 
ATOM     77  C   UNL A   1      44.283  24.949  25.130  1.00  0.00     0.131 A 
ATOM     78  C   UNL A   1      42.545  23.005  26.051  1.00  0.00     0.055 A 
ATOM     79  C   UNL A   1      44.372  23.645  24.630  1.00  0.00     0.041 A 
ATOM     80  F   UNL A   1      45.193  25.839  24.705  1.00  0.00    -0.206 F 
ATOM     81  C   UNL A   1      43.511  22.660  25.104  1.00  0.00     0.022 A 
BRANCH  78  82
ATOM     82  S   UNL A   1      41.494  21.694  26.732  1.00  0.00     0.124 S 
ATOM     83  O   UNL A   1      41.688  20.612  25.769  1.00  0.00    -0.237 OA
ATOM     84  O   UNL A   1      42.095  21.485  28.044  1.00  0.00    -0.237 OA
ATOM     85  O   UNL A   1      40.160  22.289  26.731  1.00  0.00    -0.744 OA
ENDBRANCH  78  82
ENDBRANCH  51  75
BRANCH  63  86
ATOM     86  C   UNL A   1      46.176  29.965  29.338  1.00  0.00     0.023 A 
ATOM     87  C   UNL A   1      45.256  30.717  28.588  1.00  0.00     0.031 A 
ATOM     88  C   UNL A   1      47.545  30.158  29.074  1.00  0.00     0.131 A 
ATOM     89  C   UNL A   1      45.699  31.576  27.580  1.00  0.00     0.055 A 
ATOM     90  C   UNL A   1      47.987  31.082  28.120  1.00  0.00     0.041 A 
ATOM     91  F   UNL A   1      48.488  29.411  29.663  1.00  0.00    -0.206 F 
ATOM     92  C   UNL A   1      47.061  31.781  27.352  1.00  0.00     0.022 A 
BRANCH  89  93
ATOM     93  S   UNL A   1      44.509  32.309  26.428  1.00  0.00     0.124 S 
ATOM     94  O   UNL A   1      43.595  31.197  26.178  1.00  0.00    -0.237 OA
ATOM     95  O   UNL A   1      43.956  33.410  27.214  1.00  0.00    -0.237 OA
ATOM     96  O   UNL A   1      45.324  32.716  25.287  1.00  0.00    -0.744 OA
ENDBRANCH  89  93
ENDBRANCH  63  86
ENDBRANCH  37  38
ENDBRANCH  30  32
ENDBRANCH  29  30
ENDBRANCH  28  29
ENDBRANCH  27  28
ENDBRANCH   1  27
TORSDOF 20
ENDMDL
MODEL 2
REMARK VINA RESULT:     -11.2      1.213      2.004
REMARK SMILES Cc1c(CC(=O)OCCOCCOC(=O)c2ccc(-c3c4nc(c(-c5cc(S(=O)(=O)[O-])ccc5F)c5ccc([nH]5)c(-c5cc(S(=O)(=O)[O-])ccc5F)c5nc(c(-c6cc(S(=O)(=O)[O-])ccc6F)c6ccc3[nH]6)C=C5)C=C4)cc2)c2ccccc2n1C(=O)c1ccc(Cl)cc1
REMARK SMILES IDX 10 1 9 2 8 3 7 4 5 5 6 6 4 7 3 8 1 9 2 10 85 11 79 12 84 13
REMARK SMILES IDX 80 14 83 15 81 16 82 17 86 18 87 19 88 20 89 21 94 22 90 23
REMARK SMILES IDX 93 24 91 25 92 26 11 27 12 28 13 29 14 30 15 31 16 32 17 33
REMARK SMILES IDX 78 34 18 35 77 36 19 37 20 38 21 39 71 40 22 41 76 42 70 43
REMARK SMILES IDX 72 44 23 45 75 46 69 47 68 48 24 50 56 51 36 52 55 53 37 54
REMARK SMILES IDX 40 55 54 56 73 57 38 58 39 59 53 61 74 62 41 63 25 64 26 65
REMARK SMILES IDX 34 66 27 67 33 68 35 69 32 70 28 71 29 72 30 73 31 74 57 75
REMARK SMILES IDX 58 76 66 77 59 78 65 79 67 80 64 81 60 82 61 83 62 84 63 85
REMARK SMILES IDX 42 86 43 87 51 88 44 89 50 90 52 91 49 92 45 93 46 94 47 95
REMARK SMILES IDX 48 96
REMARK H PARENT 72 49 40 60
REMARK Flexibility Score: inf
ROOT
ATOM      1  O   UNL A   1      34.724  30.378  27.482  1.00  0.00    -0.374 OA
ENDROOT
BRANCH   1   2
ATOM      2  C   UNL A   1      34.011  29.217  27.075  1.00  0.00     0.202 C 
BRANCH   2   3
ATOM      3  C   UNL A   1      33.329  29.158  25.697  1.00  0.00     0.261 C 
BRANCH   3   4
ATOM      4  O   UNL A   1      32.979  27.838  25.240  1.00  0.00    -0.463 OA
BRANCH   4   5
ATOM      5  C   UNL A   1      33.370  27.563  23.968  1.00  0.00     0.310 C 
ATOM      6  O   UNL A   1      34.144  28.262  23.315  1.00  0.00    -0.252 OA
BRANCH   5   7
ATOM      7  C   UNL A   1      32.776  26.317  23.349  1.00  0.00     0.160 C 
BRANCH   7   8
ATOM      8  C   UNL A   1      32.667  25.046  24.155  1.00  0.00    -0.008 A 
ATOM      9  C   UNL A   1      34.956  24.066  23.549  1.00  0.00     0.065 C 
ATOM     10  C   UNL A   1      33.636  24.054  24.260  1.00  0.00     0.028 A 
ATOM     11  N   UNL A   1      33.202  23.072  25.171  1.00  0.00    -0.280 N 
ATOM     12  C   UNL A   1      31.637  24.721  25.083  1.00  0.00     0.004 A 
ATOM     13  C   UNL A   1      31.936  23.474  25.646  1.00  0.00     0.056 A 
ATOM     14  C   UNL A   1      30.465  25.400  25.499  1.00  0.00     0.010 A 
ATOM     15  C   UNL A   1      31.025  22.892  26.559  1.00  0.00     0.027 A 
ATOM     16  C   UNL A   1      29.555  24.794  26.366  1.00  0.00     0.001 A 
ATOM     17  C   UNL A   1      29.829  23.541  26.877  1.00  0.00     0.002 A 
BRANCH  11  18
ATOM     18  C   UNL A   1      33.938  21.924  25.601  1.00  0.00     0.262 C 
ATOM     19  O   UNL A   1      34.659  21.998  26.594  1.00  0.00    -0.268 OA
BRANCH  18  20
ATOM     20  C   UNL A   1      33.864  20.580  25.006  1.00  0.00     0.040 A 
ATOM     21  C   UNL A   1      32.670  20.105  24.452  1.00  0.00     0.015 A 
ATOM     22  C   UNL A   1      35.020  19.789  25.004  1.00  0.00     0.015 A 
ATOM     23  C   UNL A   1      32.613  18.789  23.985  1.00  0.00     0.021 A 
ATOM     24  C   UNL A   1      34.959  18.481  24.523  1.00  0.00     0.021 A 
ATOM     25  C   UNL A   1      33.750  17.980  24.036  1.00  0.00     0.041 A 
ATOM     26  Cl  UNL A   1      33.661  16.342  23.516  1.00  0.00    -0.084 Cl
ENDBRANCH  18  20
ENDBRANCH  11  18
ENDBRANCH   7   8
ENDBRANCH   5   7
ENDBRANCH   4   5
ENDBRANCH   3   4
ENDBRANCH   2   3
ENDBRANCH   1   2
BRANCH   1  27
ATOM     27  C   UNL A   1      33.990  31.594  27.585  1.00  0.00     0.202 C 
BRANCH  27  28
ATOM     28  C   UNL A   1      34.357  32.628  28.665  1.00  0.00     0.261 C 
BRANCH  28  29
ATOM     29  O   UNL A   1      34.977  32.033  29.803  1.00  0.00    -0.460 OA
BRANCH  29  30
ATOM     30  C   UNL A   1      36.088  32.687  30.238  1.00  0.00     0.338 C 
ATOM     31  O   UNL A   1      36.153  33.566  31.082  1.00  0.00    -0.246 OA
BRANCH  30  32
ATOM     32  C   UNL A   1      37.201  31.835  29.796  1.00  0.00     0.060 A 
ATOM     33  C   UNL A   1      37.051  30.445  29.803  1.00  0.00     0.016 A 
ATOM     34  C   UNL A   1      38.467  32.442  29.767  1.00  0.00     0.016 A 
ATOM     35  C   UNL A   1      38.190  29.659  29.881  1.00  0.00     0.010 A 
ATOM     36  C   UNL A   1      39.601  31.650  29.878  1.00  0.00     0.010 A 
ATOM     37  C   UNL A   1      39.457  30.263  29.973  1.00  0.00    -0.014 A 
BRANCH  37  38
ATOM     38  C   UNL A   1      40.623  29.385  29.894  1.00  0.00     0.031 A 
ATOM     39  C   UNL A   1      41.041  28.932  31.247  1.00  0.00     0.074 A 
ATOM     40  C   UNL A   1      41.190  28.892  28.775  1.00  0.00     0.049 A 
ATOM     41  N   UNL A   1      42.119  29.231  31.895  1.00  0.00    -0.248 NA
ATOM     42  C   UNL A   1      40.020  28.242  32.056  1.00  0.00     0.031 C 
ATOM     43  C   UNL A   1      40.690  28.972  27.401  1.00  0.00     0.029 A 
ATOM     44  N   UNL A   1      42.298  28.103  28.650  1.00  0.00    -0.354 N 
ATOM     45  C   UNL A   1      41.994  28.593  33.128  1.00  0.00     0.074 A 
ATOM     46  C   UNL A   1      40.614  28.205  33.245  1.00  0.00     0.031 C 
ATOM     47  C   UNL A   1      41.353  28.078  26.632  1.00  0.00     0.029 A 
ATOM     48  C   UNL A   1      42.407  27.461  27.422  1.00  0.00     0.049 A 
ATOM     49  H   UNL A   1      42.963  27.998  29.368  1.00  0.00     0.167 HD
ATOM     50  C   UNL A   1      43.079  28.206  33.852  1.00  0.00     0.034 A 
ATOM     51  C   UNL A   1      43.237  26.433  27.110  1.00  0.00     0.034 A 
ATOM     52  C   UNL A   1      44.275  28.840  33.372  1.00  0.00     0.049 A 
ATOM     53  C   UNL A   1      44.315  26.381  28.121  1.00  0.00     0.074 A 
ATOM     54  C   UNL A   1      44.768  30.125  33.348  1.00  0.00     0.029 A 
ATOM     55  N   UNL A   1      45.015  28.114  32.473  1.00  0.00    -0.354 N 
ATOM     56  N   UNL A   1      45.258  27.269  28.239  1.00  0.00    -0.248 NA
ATOM     57  C   UNL A   1      44.132  25.508  29.271  1.00  0.00     0.031 C 
ATOM     58  C   UNL A   1      45.549  30.207  32.161  1.00  0.00     0.029 A 
ATOM     59  C   UNL A   1      45.536  28.960  31.533  1.00  0.00     0.049 A 
ATOM     60  H   UNL A   1      45.149  27.139  32.500  1.00  0.00     0.167 HD
ATOM     61  C   UNL A   1      45.456  27.377  29.605  1.00  0.00     0.074 A 
ATOM     62  C   UNL A   1      44.860  26.172  30.171  1.00  0.00     0.031 C 
ATOM     63  C   UNL A   1      45.820  28.568  30.164  1.00  0.00     0.034 A 
BRANCH  50  64
ATOM     64  C   UNL A   1      43.109  26.956  34.706  1.00  0.00     0.023 A 
ATOM     65  C   UNL A   1      43.779  25.777  34.324  1.00  0.00     0.031 A 
ATOM     66  C   UNL A   1      42.664  26.995  36.043  1.00  0.00     0.131 A 
ATOM     67  C   UNL A   1      43.973  24.712  35.209  1.00  0.00     0.055 A 
ATOM     68  C   UNL A   1      42.921  25.959  36.952  1.00  0.00     0.041 A 
ATOM     69  F   UNL A   1      42.021  28.069  36.526  1.00  0.00    -0.206 F 
ATOM     70  C   UNL A   1      43.580  24.808  36.537  1.00  0.00     0.022 A 
BRANCH  67  71
ATOM     71  S   UNL A   1      44.766  23.185  34.633  1.00  0.00     0.124 S 
ATOM     72  O   UNL A   1      46.173  23.453  34.909  1.00  0.00    -0.237 OA
ATOM     73  O   UNL A   1      44.132  22.184  35.486  1.00  0.00    -0.237 OA
ATOM     74  O   UNL A   1      44.395  23.116  33.222  1.00  0.00    -0.744 OA
ENDBRANCH  67  71
ENDBRANCH  50  64
BRANCH  51  75
ATOM     75  C   UNL A   1      42.910  25.236  26.297  1.00  0.00     0.023 A 
ATOM     76  C   UNL A   1      41.849  24.406  26.697  1.00  0.00     0.031 A 
ATOM     77  C   UNL A   1      43.826  24.713  25.365  1.00  0.00     0.131 A 
ATOM     78  C   UNL A   1      41.761  23.087  26.229  1.00  0.00     0.055 A 
ATOM     79  C   UNL A   1      43.724  23.402  24.882  1.00  0.00     0.041 A 
ATOM     80  F   UNL A   1      44.884  25.437  24.970  1.00  0.00    -0.206 F 
ATOM     81  C   UNL A   1      42.697  22.576  25.328  1.00  0.00     0.022 A 
BRANCH  78  82
ATOM     82  S   UNL A   1      40.487  21.973  26.876  1.00  0.00     0.124 S 
ATOM     83  O   UNL A   1      39.306  22.834  26.896  1.00  0.00    -0.237 OA
ATOM     84  O   UNL A   1      40.480  20.917  25.871  1.00  0.00    -0.237 OA
ATOM     85  O   UNL A   1      40.997  21.596  28.192  1.00  0.00    -0.744 OA
ENDBRANCH  78  82
ENDBRANCH  51  75
BRANCH  63  86
ATOM     86  C   UNL A   1      46.358  29.653  29.259  1.00  0.00     0.023 A 
ATOM     87  C   UNL A   1      45.406  30.438  28.586  1.00  0.00     0.031 A 
ATOM     88  C   UNL A   1      47.707  29.802  28.886  1.00  0.00     0.131 A 
ATOM     89  C   UNL A   1      45.795  31.286  27.545  1.00  0.00     0.055 A 
ATOM     90  C   UNL A   1      48.101  30.714  27.900  1.00  0.00     0.041 A 
ATOM     91  F   UNL A   1      48.669  29.022  29.397  1.00  0.00    -0.206 F 
ATOM     92  C   UNL A   1      47.141  31.446  27.209  1.00  0.00     0.022 A 
BRANCH  89  93
ATOM     93  S   UNL A   1      44.542  32.062  26.493  1.00  0.00     0.124 S 
ATOM     94  O   UNL A   1      44.059  33.149  27.339  1.00  0.00    -0.237 OA
ATOM     95  O   UNL A   1      45.326  32.473  25.330  1.00  0.00    -0.237 OA
ATOM     96  O   UNL A   1      43.580  30.992  26.240  1.00  0.00    -0.744 OA
ENDBRANCH  89  93
ENDBRANCH  63  86
ENDBRANCH  37  38
ENDBRANCH  30  32
ENDBRANCH  29  30
ENDBRANCH  28  29
ENDBRANCH  27  28
ENDBRANCH   1  27
TORSDOF 20
ENDMDL
MODEL 3
REMARK VINA RESULT:     -11.2      5.210     11.538
REMARK SMILES Cc1c(CC(=O)OCCOCCOC(=O)c2ccc(-c3c4nc(c(-c5cc(S(=O)(=O)[O-])ccc5F)c5ccc([nH]5)c(-c5cc(S(=O)(=O)[O-])ccc5F)c5nc(c(-c6cc(S(=O)(=O)[O-])ccc6F)c6ccc3[nH]6)C=C5)C=C4)cc2)c2ccccc2n1C(=O)c1ccc(Cl)cc1
REMARK SMILES IDX 10 1 9 2 8 3 7 4 5 5 6 6 4 7 3 8 1 9 2 10 85 11 79 12 84 13
REMARK SMILES IDX 80 14 83 15 81 16 82 17 86 18 87 19 88 20 89 21 94 22 90 23
REMARK SMILES IDX 93 24 91 25 92 26 11 27 12 28 13 29 14 30 15 31 16 32 17 33
REMARK SMILES IDX 78 34 18 35 77 36 19 37 20 38 21 39 71 40 22 41 76 42 70 43
REMARK SMILES IDX 72 44 23 45 75 46 69 47 68 48 24 50 56 51 36 52 55 53 37 54
REMARK SMILES IDX 40 55 54 56 73 57 38 58 39 59 53 61 74 62 41 63 25 64 26 65
REMARK SMILES IDX 34 66 27 67 33 68 35 69 32 70 28 71 29 72 30 73 31 74 57 75
REMARK SMILES IDX 58 76 66 77 59 78 65 79 67 80 64 81 60 82 61 83 62 84 63 85
REMARK SMILES IDX 42 86 43 87 51 88 44 89 50 90 52 91 49 92 45 93 46 94 47 95
REMARK SMILES IDX 48 96
REMARK H PARENT 72 49 40 60
REMARK Flexibility Score: inf
ROOT
ATOM      1  O   UNL A   1      41.901  19.225  25.511  1.00  0.00    -0.374 OA
ENDROOT
BRANCH   1   2
ATOM      2  C   UNL A   1      43.075  18.517  25.888  1.00  0.00     0.202 C 
BRANCH   2   3
ATOM      3  C   UNL A   1      44.403  18.748  25.147  1.00  0.00     0.261 C 
BRANCH   3   4
ATOM      4  O   UNL A   1      44.512  20.007  24.456  1.00  0.00    -0.463 OA
BRANCH   4   5
ATOM      5  C   UNL A   1      45.220  20.954  25.124  1.00  0.00     0.310 C 
ATOM      6  O   UNL A   1      46.420  20.866  25.384  1.00  0.00    -0.252 OA
BRANCH   5   7
ATOM      7  C   UNL A   1      44.440  22.169  25.575  1.00  0.00     0.160 C 
BRANCH   7   8
ATOM      8  C   UNL A   1      45.058  23.155  26.536  1.00  0.00    -0.008 A 
ATOM      9  C   UNL A   1      46.545  24.382  24.847  1.00  0.00     0.065 C 
ATOM     10  C   UNL A   1      45.979  24.148  26.216  1.00  0.00     0.028 A 
ATOM     11  N   UNL A   1      46.251  24.920  27.361  1.00  0.00    -0.280 N 
ATOM     12  C   UNL A   1      44.683  23.359  27.894  1.00  0.00     0.004 A 
ATOM     13  C   UNL A   1      45.471  24.394  28.414  1.00  0.00     0.056 A 
ATOM     14  C   UNL A   1      43.718  22.745  28.730  1.00  0.00     0.010 A 
ATOM     15  C   UNL A   1      45.336  24.748  29.777  1.00  0.00     0.027 A 
ATOM     16  C   UNL A   1      43.627  23.074  30.083  1.00  0.00     0.001 A 
ATOM     17  C   UNL A   1      44.444  24.059  30.602  1.00  0.00     0.002 A 
BRANCH  11  18
ATOM     18  C   UNL A   1      47.093  26.072  27.432  1.00  0.00     0.262 C 
ATOM     19  O   UNL A   1      46.627  27.185  27.190  1.00  0.00    -0.268 OA
BRANCH  18  20
ATOM     20  C   UNL A   1      48.502  26.086  27.857  1.00  0.00     0.040 A 
ATOM     21  C   UNL A   1      48.890  26.725  29.039  1.00  0.00     0.015 A 
ATOM     22  C   UNL A   1      49.446  25.438  27.049  1.00  0.00     0.015 A 
ATOM     23  C   UNL A   1      50.248  26.801  29.359  1.00  0.00     0.021 A 
ATOM     24  C   UNL A   1      50.800  25.505  27.383  1.00  0.00     0.021 A 
ATOM     25  C   UNL A   1      51.196  26.205  28.524  1.00  0.00     0.041 A 
ATOM     26  Cl  UNL A   1      52.871  26.350  28.889  1.00  0.00    -0.084 Cl
ENDBRANCH  18  20
ENDBRANCH  11  18
ENDBRANCH   7   8
ENDBRANCH   5   7
ENDBRANCH   4   5
ENDBRANCH   3   4
ENDBRANCH   2   3
ENDBRANCH   1   2
BRANCH   1  27
ATOM     27  C   UNL A   1      41.388  20.181  26.434  1.00  0.00     0.202 C 
BRANCH  27  28
ATOM     28  C   UNL A   1      41.044  21.605  25.959  1.00  0.00     0.261 C 
BRANCH  28  29
ATOM     29  O   UNL A   1      40.679  22.467  27.036  1.00  0.00    -0.460 OA
BRANCH  29  30
ATOM     30  C   UNL A   1      39.605  23.260  26.776  1.00  0.00     0.338 C 
ATOM     31  O   UNL A   1      38.456  22.911  26.557  1.00  0.00    -0.246 OA
BRANCH  30  32
ATOM     32  C   UNL A   1      40.029  24.594  27.225  1.00  0.00     0.060 A 
ATOM     33  C   UNL A   1      41.269  24.750  27.850  1.00  0.00     0.016 A 
ATOM     34  C   UNL A   1      39.010  25.553  27.352  1.00  0.00     0.016 A 
ATOM     35  C   UNL A   1      41.450  25.836  28.694  1.00  0.00     0.010 A 
ATOM     36  C   UNL A   1      39.187  26.619  28.222  1.00  0.00     0.010 A 
ATOM     37  C   UNL A   1      40.393  26.736  28.919  1.00  0.00    -0.014 A 
BRANCH  37  38
ATOM     38  C   UNL A   1      40.695  27.941  29.690  1.00  0.00     0.031 A 
ATOM     39  C   UNL A   1      41.623  28.831  28.943  1.00  0.00     0.074 A 
ATOM     40  C   UNL A   1      40.125  28.323  30.850  1.00  0.00     0.049 A 
ATOM     41  N   UNL A   1      42.850  29.126  29.225  1.00  0.00    -0.248 NA
ATOM     42  C   UNL A   1      41.188  29.261  27.603  1.00  0.00     0.031 C 
ATOM     43  C   UNL A   1      38.969  27.731  31.524  1.00  0.00     0.029 A 
ATOM     44  N   UNL A   1      40.401  29.415  31.623  1.00  0.00    -0.354 N 
ATOM     45  C   UNL A   1      43.276  29.948  28.183  1.00  0.00     0.074 A 
ATOM     46  C   UNL A   1      42.307  29.805  27.131  1.00  0.00     0.031 C 
ATOM     47  C   UNL A   1      38.506  28.593  32.459  1.00  0.00     0.029 A 
ATOM     48  C   UNL A   1      39.406  29.732  32.540  1.00  0.00     0.049 A 
ATOM     49  H   UNL A   1      41.234  29.933  31.538  1.00  0.00     0.167 HD
ATOM     50  C   UNL A   1      44.255  30.878  28.354  1.00  0.00     0.034 A 
ATOM     51  C   UNL A   1      39.282  30.887  33.242  1.00  0.00     0.034 A 
ATOM     52  C   UNL A   1      44.985  30.645  29.568  1.00  0.00     0.049 A 
ATOM     53  C   UNL A   1      40.586  31.584  33.226  1.00  0.00     0.074 A 
ATOM     54  C   UNL A   1      45.847  29.674  30.029  1.00  0.00     0.029 A 
ATOM     55  N   UNL A   1      44.563  31.354  30.664  1.00  0.00    -0.354 N 
ATOM     56  N   UNL A   1      41.649  31.173  33.854  1.00  0.00    -0.248 NA
ATOM     57  C   UNL A   1      40.820  32.576  32.186  1.00  0.00     0.031 C 
ATOM     58  C   UNL A   1      45.622  29.607  31.433  1.00  0.00     0.029 A 
ATOM     59  C   UNL A   1      44.665  30.565  31.777  1.00  0.00     0.049 A 
ATOM     60  H   UNL A   1      44.237  32.282  30.651  1.00  0.00     0.167 HD
ATOM     61  C   UNL A   1      42.692  31.483  32.998  1.00  0.00     0.074 A 
ATOM     62  C   UNL A   1      42.146  32.474  32.078  1.00  0.00     0.031 C 
ATOM     63  C   UNL A   1      43.801  30.690  32.937  1.00  0.00     0.034 A 
BRANCH  50  64
ATOM     64  C   UNL A   1      44.269  32.215  27.643  1.00  0.00     0.023 A 
ATOM     65  C   UNL A   1      43.598  33.354  28.128  1.00  0.00     0.031 A 
ATOM     66  C   UNL A   1      45.161  32.445  26.576  1.00  0.00     0.131 A 
ATOM     67  C   UNL A   1      43.792  34.624  27.575  1.00  0.00     0.055 A 
ATOM     68  C   UNL A   1      45.412  33.728  26.068  1.00  0.00     0.041 A 
ATOM     69  F   UNL A   1      45.866  31.439  26.034  1.00  0.00    -0.206 F 
ATOM     70  C   UNL A   1      44.725  34.828  26.568  1.00  0.00     0.022 A 
BRANCH  67  71
ATOM     71  S   UNL A   1      42.832  36.037  28.186  1.00  0.00     0.124 S 
ATOM     72  O   UNL A   1      41.599  35.396  28.628  1.00  0.00    -0.237 OA
ATOM     73  O   UNL A   1      43.698  36.544  29.248  1.00  0.00    -0.237 OA
ATOM     74  O   UNL A   1      42.717  36.906  27.018  1.00  0.00    -0.744 OA
ENDBRANCH  67  71
ENDBRANCH  50  64
BRANCH  51  75
ATOM     75  C   UNL A   1      38.032  31.638  33.513  1.00  0.00     0.023 A 
ATOM     76  C   UNL A   1      37.211  32.014  32.436  1.00  0.00     0.031 A 
ATOM     77  C   UNL A   1      37.820  32.286  34.744  1.00  0.00     0.131 A 
ATOM     78  C   UNL A   1      36.272  33.044  32.582  1.00  0.00     0.055 A 
ATOM     79  C   UNL A   1      36.866  33.300  34.894  1.00  0.00     0.041 A 
ATOM     80  F   UNL A   1      38.594  32.004  35.804  1.00  0.00    -0.206 F 
ATOM     81  C   UNL A   1      36.099  33.697  33.803  1.00  0.00     0.022 A 
BRANCH  78  82
ATOM     82  S   UNL A   1      35.336  33.634  31.146  1.00  0.00     0.124 S 
ATOM     83  O   UNL A   1      34.751  34.875  31.648  1.00  0.00    -0.237 OA
ATOM     84  O   UNL A   1      36.390  33.792  30.151  1.00  0.00    -0.237 OA
ATOM     85  O   UNL A   1      34.381  32.559  30.894  1.00  0.00    -0.744 OA
ENDBRANCH  78  82
ENDBRANCH  51  75
BRANCH  63  86
ATOM     86  C   UNL A   1      44.042  29.702  34.056  1.00  0.00     0.023 A 
ATOM     87  C   UNL A   1      43.101  28.668  34.193  1.00  0.00     0.031 A 
ATOM     88  C   UNL A   1      45.000  29.851  35.076  1.00  0.00     0.131 A 
ATOM     89  C   UNL A   1      43.093  27.865  35.337  1.00  0.00     0.055 A 
ATOM     90  C   UNL A   1      45.039  28.992  36.180  1.00  0.00     0.041 A 
ATOM     91  F   UNL A   1      45.867  30.872  35.083  1.00  0.00    -0.206 F 
ATOM     92  C   UNL A   1      44.069  28.006  36.325  1.00  0.00     0.022 A 
BRANCH  89  93
ATOM     93  S   UNL A   1      41.706  26.740  35.643  1.00  0.00     0.124 S 
ATOM     94  O   UNL A   1      41.162  27.255  36.897  1.00  0.00    -0.237 OA
ATOM     95  O   UNL A   1      40.871  26.952  34.463  1.00  0.00    -0.237 OA
ATOM     96  O   UNL A   1      42.331  25.423  35.728  1.00  0.00    -0.744 OA
ENDBRANCH  89  93
ENDBRANCH  63  86
ENDBRANCH  37  38
ENDBRANCH  30  32
ENDBRANCH  29  30
ENDBRANCH  28  29
ENDBRANCH  27  28
ENDBRANCH   1  27
TORSDOF 20
ENDMDL
