MODEL 1
REMARK VINA RESULT:     -11.2      0.000      0.000
REMARK SMILES O=C(C[C@@H]1C(=O)NC(=S)N1c1ccccc1)OCCOCCOC(=O)c1ccc(-c2c3nc(c(-c4cc(S(=O)(=O)[O-])ccc4F)c4ccc([nH]4)c(-c4cc(S(=O)(=O)[O-])ccc4F)c4nc(c(-c5cc(S(=O)(=O)[O-])ccc5F)c5ccc2[nH]5)C=C4)C=C3)cc1
REMARK SMILES IDX 21 1 20 2 19 3 18 4 17 5 2 6 1 7 3 8 4 9 5 10 10 11 6 12
REMARK SMILES IDX 7 13 8 14 9 16 11 17 12 18 16 19 13 20 15 21 14 22 22 23
REMARK SMILES IDX 23 24 24 25 25 26 26 27 27 28 88 29 28 30 87 31 29 32 30 33
REMARK SMILES IDX 31 34 81 35 32 36 86 37 80 38 82 39 33 40 85 41 79 42 78 43
REMARK SMILES IDX 34 45 66 46 46 47 65 48 47 49 50 50 64 51 83 52 48 53 49 54
REMARK SMILES IDX 63 56 84 57 51 58 35 59 36 60 44 61 37 62 43 63 45 64 42 65
REMARK SMILES IDX 38 66 39 67 40 68 41 69 67 70 68 71 76 72 69 73 75 74 77 75
REMARK SMILES IDX 74 76 70 77 71 78 72 79 73 80 52 81 53 82 61 83 54 84 60 85
REMARK SMILES IDX 62 86 59 87 55 88 56 89 57 90 58 91
REMARK H PARENT 7 15 82 44 50 55
REMARK Flexibility Score: inf
ROOT
ATOM      1  C   UNL A   1      35.453  20.798  25.200  1.00  0.00     0.202 C 
ENDROOT
BRANCH   1   2
ATOM      2  O   UNL A   1      34.365  20.026  24.674  1.00  0.00    -0.374 OA
BRANCH   2   3
ATOM      3  C   UNL A   1      33.055  20.557  24.815  1.00  0.00     0.202 C 
BRANCH   3   4
ATOM      4  C   UNL A   1      32.843  21.644  25.865  1.00  0.00     0.261 C 
BRANCH   4   5
ATOM      5  O   UNL A   1      31.666  22.443  25.694  1.00  0.00    -0.463 OA
BRANCH   5   6
ATOM      6  C   UNL A   1      31.177  23.347  26.567  1.00  0.00     0.308 C 
ATOM      7  O   UNL A   1      30.713  22.961  27.641  1.00  0.00    -0.252 OA
BRANCH   6   8
ATOM      8  C   UNL A   1      30.979  24.791  26.166  1.00  0.00     0.158 C 
BRANCH   8   9
ATOM      9  C   UNL A   1      32.124  25.769  26.305  1.00  0.00     0.190 C 
ATOM     10  C   UNL A   1      31.665  27.181  26.669  1.00  0.00     0.249 C 
ATOM     11  N   UNL A   1      32.925  26.059  25.108  1.00  0.00    -0.306 N 
ATOM     12  O   UNL A   1      30.910  27.492  27.576  1.00  0.00    -0.272 OA
ATOM     13  N   UNL A   1      32.277  28.071  25.853  1.00  0.00    -0.301 N 
ATOM     14  C   UNL A   1      33.035  27.448  24.913  1.00  0.00     0.180 C 
ATOM     15  H   UNL A   1      32.184  29.048  25.932  1.00  0.00     0.172 HD
ATOM     16  S   UNL A   1      33.828  28.321  23.743  1.00  0.00    -0.040 S 
BRANCH  11  17
ATOM     17  C   UNL A   1      33.679  25.065  24.430  1.00  0.00     0.044 A 
ATOM     18  C   UNL A   1      34.965  24.722  24.868  1.00  0.00     0.026 A 
ATOM     19  C   UNL A   1      33.191  24.460  23.267  1.00  0.00     0.026 A 
ATOM     20  C   UNL A   1      35.761  23.836  24.137  1.00  0.00     0.002 A 
ATOM     21  C   UNL A   1      33.989  23.580  22.530  1.00  0.00     0.002 A 
ATOM     22  C   UNL A   1      35.277  23.276  22.959  1.00  0.00     0.000 A 
ENDBRANCH  11  17
ENDBRANCH   8   9
ENDBRANCH   6   8
ENDBRANCH   5   6
ENDBRANCH   4   5
ENDBRANCH   3   4
ENDBRANCH   2   3
ENDBRANCH   1   2
BRANCH   1  23
ATOM     23  C   UNL A   1      36.880  20.255  25.046  1.00  0.00     0.261 C 
BRANCH  23  24
ATOM     24  O   UNL A   1      37.865  21.297  25.162  1.00  0.00    -0.460 OA
BRANCH  24  25
ATOM     25  C   UNL A   1      38.976  20.971  25.867  1.00  0.00     0.338 C 
ATOM     26  O   UNL A   1      39.597  19.918  25.815  1.00  0.00    -0.246 OA
BRANCH  25  27
ATOM     27  C   UNL A   1      39.485  22.179  26.534  1.00  0.00     0.060 A 
ATOM     28  C   UNL A   1      38.954  23.423  26.159  1.00  0.00     0.016 A 
ATOM     29  C   UNL A   1      40.507  22.095  27.479  1.00  0.00     0.016 A 
ATOM     30  C   UNL A   1      39.473  24.594  26.701  1.00  0.00     0.010 A 
ATOM     31  C   UNL A   1      41.037  23.270  28.010  1.00  0.00     0.010 A 
ATOM     32  C   UNL A   1      40.548  24.523  27.596  1.00  0.00    -0.014 A 
BRANCH  32  33
ATOM     33  C   UNL A   1      41.302  25.747  27.951  1.00  0.00     0.031 A 
ATOM     34  C   UNL A   1      40.571  26.840  28.675  1.00  0.00     0.074 A 
ATOM     35  C   UNL A   1      42.595  25.886  27.614  1.00  0.00     0.049 A 
ATOM     36  N   UNL A   1      40.959  28.054  28.961  1.00  0.00    -0.248 NA
ATOM     37  C   UNL A   1      39.205  26.520  29.120  1.00  0.00     0.031 C 
ATOM     38  C   UNL A   1      43.409  24.866  26.956  1.00  0.00     0.029 A 
ATOM     39  N   UNL A   1      43.441  26.956  27.757  1.00  0.00    -0.354 N 
ATOM     40  C   UNL A   1      39.877  28.654  29.598  1.00  0.00     0.074 A 
ATOM     41  C   UNL A   1      38.809  27.677  29.626  1.00  0.00     0.031 C 
ATOM     42  C   UNL A   1      44.632  25.372  26.722  1.00  0.00     0.029 A 
ATOM     43  C   UNL A   1      44.668  26.764  27.166  1.00  0.00     0.049 A 
ATOM     44  H   UNL A   1      43.194  27.781  28.235  1.00  0.00     0.167 HD
ATOM     45  C   UNL A   1      39.789  29.905  30.110  1.00  0.00     0.034 A 
ATOM     46  C   UNL A   1      45.681  27.633  26.964  1.00  0.00     0.034 A 
ATOM     47  C   UNL A   1      40.868  30.861  30.053  1.00  0.00     0.049 A 
ATOM     48  C   UNL A   1      45.534  29.050  27.465  1.00  0.00     0.074 A 
ATOM     49  C   UNL A   1      40.910  32.146  30.561  1.00  0.00     0.029 A 
ATOM     50  N   UNL A   1      42.091  30.640  29.430  1.00  0.00    -0.354 N 
ATOM     51  N   UNL A   1      44.516  29.608  28.080  1.00  0.00    -0.248 NA
ATOM     52  C   UNL A   1      46.673  29.952  27.251  1.00  0.00     0.031 C 
ATOM     53  C   UNL A   1      42.118  32.731  30.170  1.00  0.00     0.029 A 
ATOM     54  C   UNL A   1      42.876  31.780  29.503  1.00  0.00     0.049 A 
ATOM     55  H   UNL A   1      42.361  29.796  29.000  1.00  0.00     0.167 HD
ATOM     56  C   UNL A   1      44.906  30.917  28.354  1.00  0.00     0.074 A 
ATOM     57  C   UNL A   1      46.254  31.061  27.843  1.00  0.00     0.031 C 
ATOM     58  C   UNL A   1      44.217  31.907  28.980  1.00  0.00     0.034 A 
BRANCH  45  59
ATOM     59  C   UNL A   1      38.464  30.322  30.706  1.00  0.00     0.023 A 
ATOM     60  C   UNL A   1      37.455  30.923  29.932  1.00  0.00     0.031 A 
ATOM     61  C   UNL A   1      38.227  30.162  32.084  1.00  0.00     0.131 A 
ATOM     62  C   UNL A   1      36.298  31.418  30.553  1.00  0.00     0.055 A 
ATOM     63  C   UNL A   1      37.034  30.574  32.679  1.00  0.00     0.041 A 
ATOM     64  F   UNL A   1      39.162  29.622  32.881  1.00  0.00    -0.206 F 
ATOM     65  C   UNL A   1      36.067  31.223  31.916  1.00  0.00     0.022 A 
BRANCH  62  66
ATOM     66  S   UNL A   1      35.180  32.469  29.586  1.00  0.00     0.124 S 
ATOM     67  O   UNL A   1      34.309  33.010  30.627  1.00  0.00    -0.237 OA
ATOM     68  O   UNL A   1      36.097  33.418  28.965  1.00  0.00    -0.237 OA
ATOM     69  O   UNL A   1      34.534  31.532  28.670  1.00  0.00    -0.744 OA
ENDBRANCH  62  66
ENDBRANCH  45  59
BRANCH  46  70
ATOM     70  C   UNL A   1      46.891  27.206  26.206  1.00  0.00     0.023 A 
ATOM     71  C   UNL A   1      47.111  27.623  24.885  1.00  0.00     0.031 A 
ATOM     72  C   UNL A   1      47.839  26.343  26.789  1.00  0.00     0.131 A 
ATOM     73  C   UNL A   1      48.228  27.150  24.178  1.00  0.00     0.055 A 
ATOM     74  C   UNL A   1      48.977  25.921  26.102  1.00  0.00     0.041 A 
ATOM     75  F   UNL A   1      47.677  25.909  28.050  1.00  0.00    -0.206 F 
ATOM     76  C   UNL A   1      49.172  26.316  24.782  1.00  0.00     0.022 A 
BRANCH  73  77
ATOM     77  S   UNL A   1      48.390  27.577  22.422  1.00  0.00     0.124 S 
ATOM     78  O   UNL A   1      48.471  26.259  21.803  1.00  0.00    -0.237 OA
ATOM     79  O   UNL A   1      47.162  28.327  22.179  1.00  0.00    -0.237 OA
ATOM     80  O   UNL A   1      49.619  28.366  22.375  1.00  0.00    -0.744 OA
ENDBRANCH  73  77
ENDBRANCH  46  70
BRANCH  58  81
ATOM     81  C   UNL A   1      44.933  33.219  29.200  1.00  0.00     0.023 A 
ATOM     82  C   UNL A   1      44.855  34.276  28.277  1.00  0.00     0.031 A 
ATOM     83  C   UNL A   1      45.686  33.418  30.372  1.00  0.00     0.131 A 
ATOM     84  C   UNL A   1      45.555  35.469  28.522  1.00  0.00     0.055 A 
ATOM     85  C   UNL A   1      46.326  34.628  30.640  1.00  0.00     0.041 A 
ATOM     86  F   UNL A   1      45.799  32.440  31.286  1.00  0.00    -0.206 F 
ATOM     87  C   UNL A   1      46.270  35.659  29.708  1.00  0.00     0.022 A 
BRANCH  84  88
ATOM     88  S   UNL A   1      45.584  36.745  27.234  1.00  0.00     0.124 S 
ATOM     89  O   UNL A   1      46.370  37.798  27.869  1.00  0.00    -0.237 OA
ATOM     90  O   UNL A   1      46.225  36.053  26.121  1.00  0.00    -0.237 OA
ATOM     91  O   UNL A   1      44.171  37.062  27.033  1.00  0.00    -0.744 OA
ENDBRANCH  84  88
ENDBRANCH  58  81
ENDBRANCH  32  33
ENDBRANCH  25  27
ENDBRANCH  24  25
ENDBRANCH  23  24
ENDBRANCH   1  23
TORSDOF 19
ENDMDL
MODEL 2
REMARK VINA RESULT:     -11.1      1.485      7.864
REMARK SMILES O=C(C[C@@H]1C(=O)NC(=S)N1c1ccccc1)OCCOCCOC(=O)c1ccc(-c2c3nc(c(-c4cc(S(=O)(=O)[O-])ccc4F)c4ccc([nH]4)c(-c4cc(S(=O)(=O)[O-])ccc4F)c4nc(c(-c5cc(S(=O)(=O)[O-])ccc5F)c5ccc2[nH]5)C=C4)C=C3)cc1
REMARK SMILES IDX 21 1 20 2 19 3 18 4 17 5 2 6 1 7 3 8 4 9 5 10 10 11 6 12
REMARK SMILES IDX 7 13 8 14 9 16 11 17 12 18 16 19 13 20 15 21 14 22 22 23
REMARK SMILES IDX 23 24 24 25 25 26 26 27 27 28 88 29 28 30 87 31 29 32 30 33
REMARK SMILES IDX 31 34 81 35 32 36 86 37 80 38 82 39 33 40 85 41 79 42 78 43
REMARK SMILES IDX 34 45 66 46 46 47 65 48 47 49 50 50 64 51 83 52 48 53 49 54
REMARK SMILES IDX 63 56 84 57 51 58 35 59 36 60 44 61 37 62 43 63 45 64 42 65
REMARK SMILES IDX 38 66 39 67 40 68 41 69 67 70 68 71 76 72 69 73 75 74 77 75
REMARK SMILES IDX 74 76 70 77 71 78 72 79 73 80 52 81 53 82 61 83 54 84 60 85
REMARK SMILES IDX 62 86 59 87 55 88 56 89 57 90 58 91
REMARK H PARENT 7 15 82 44 50 55
REMARK Flexibility Score: inf
ROOT
ATOM      1  C   UNL A   1      37.620  19.751  24.731  1.00  0.00     0.202 C 
ENDROOT
BRANCH   1   2
ATOM      2  O   UNL A   1      36.866  20.923  25.068  1.00  0.00    -0.374 OA
BRANCH   2   3
ATOM      3  C   UNL A   1      35.503  20.747  25.424  1.00  0.00     0.202 C 
BRANCH   3   4
ATOM      4  C   UNL A   1      34.446  21.276  24.457  1.00  0.00     0.261 C 
BRANCH   4   5
ATOM      5  O   UNL A   1      34.427  22.698  24.285  1.00  0.00    -0.463 OA
BRANCH   5   6
ATOM      6  C   UNL A   1      34.934  23.387  23.242  1.00  0.00     0.308 C 
ATOM      7  O   UNL A   1      36.025  23.056  22.773  1.00  0.00    -0.252 OA
BRANCH   6   8
ATOM      8  C   UNL A   1      34.307  24.683  22.783  1.00  0.00     0.158 C 
BRANCH   8   9
ATOM      9  C   UNL A   1      32.848  24.708  22.386  1.00  0.00     0.190 C 
ATOM     10  C   UNL A   1      32.556  25.676  21.239  1.00  0.00     0.249 C 
ATOM     11  N   UNL A   1      31.877  25.186  23.380  1.00  0.00    -0.306 N 
ATOM     12  O   UNL A   1      33.144  25.743  20.172  1.00  0.00    -0.272 OA
ATOM     13  N   UNL A   1      31.482  26.435  21.561  1.00  0.00    -0.301 N 
ATOM     14  C   UNL A   1      31.047  26.175  22.823  1.00  0.00     0.180 C 
ATOM     15  H   UNL A   1      31.069  27.092  20.957  1.00  0.00     0.172 HD
ATOM     16  S   UNL A   1      29.787  27.033  23.482  1.00  0.00    -0.040 S 
BRANCH  11  17
ATOM     17  C   UNL A   1      31.667  24.531  24.623  1.00  0.00     0.044 A 
ATOM     18  C   UNL A   1      32.275  25.007  25.791  1.00  0.00     0.026 A 
ATOM     19  C   UNL A   1      30.914  23.355  24.698  1.00  0.00     0.026 A 
ATOM     20  C   UNL A   1      32.174  24.300  26.993  1.00  0.00     0.002 A 
ATOM     21  C   UNL A   1      30.818  22.642  25.897  1.00  0.00     0.002 A 
ATOM     22  C   UNL A   1      31.458  23.108  27.041  1.00  0.00     0.000 A 
ENDBRANCH  11  17
ENDBRANCH   8   9
ENDBRANCH   6   8
ENDBRANCH   5   6
ENDBRANCH   4   5
ENDBRANCH   3   4
ENDBRANCH   2   3
ENDBRANCH   1   2
BRANCH   1  23
ATOM     23  C   UNL A   1      38.904  19.453  25.517  1.00  0.00     0.261 C 
BRANCH  23  24
ATOM     24  O   UNL A   1      39.684  20.641  25.738  1.00  0.00    -0.460 OA
BRANCH  24  25
ATOM     25  C   UNL A   1      40.391  20.666  26.894  1.00  0.00     0.338 C 
ATOM     26  O   UNL A   1      40.970  19.727  27.422  1.00  0.00    -0.246 OA
BRANCH  25  27
ATOM     27  C   UNL A   1      40.577  22.067  27.306  1.00  0.00     0.060 A 
ATOM     28  C   UNL A   1      39.798  23.054  26.682  1.00  0.00     0.016 A 
ATOM     29  C   UNL A   1      41.539  22.409  28.255  1.00  0.00     0.016 A 
ATOM     30  C   UNL A   1      40.009  24.397  26.979  1.00  0.00     0.010 A 
ATOM     31  C   UNL A   1      41.759  23.756  28.540  1.00  0.00     0.010 A 
ATOM     32  C   UNL A   1      41.022  24.755  27.877  1.00  0.00    -0.014 A 
BRANCH  32  33
ATOM     33  C   UNL A   1      41.459  26.165  27.981  1.00  0.00     0.031 A 
ATOM     34  C   UNL A   1      42.799  26.532  27.410  1.00  0.00     0.074 A 
ATOM     35  C   UNL A   1      40.692  27.085  28.589  1.00  0.00     0.049 A 
ATOM     36  N   UNL A   1      43.467  27.650  27.505  1.00  0.00    -0.248 NA
ATOM     37  C   UNL A   1      43.483  25.481  26.640  1.00  0.00     0.031 C 
ATOM     38  C   UNL A   1      39.356  26.844  29.132  1.00  0.00     0.029 A 
ATOM     39  N   UNL A   1      40.943  28.403  28.877  1.00  0.00    -0.354 N 
ATOM     40  C   UNL A   1      44.663  27.431  26.830  1.00  0.00     0.074 A 
ATOM     41  C   UNL A   1      44.638  26.063  26.359  1.00  0.00     0.031 C 
ATOM     42  C   UNL A   1      38.916  27.971  29.717  1.00  0.00     0.029 A 
ATOM     43  C   UNL A   1      39.959  28.993  29.635  1.00  0.00     0.049 A 
ATOM     44  H   UNL A   1      41.748  28.880  28.571  1.00  0.00     0.167 HD
ATOM     45  C   UNL A   1      45.685  28.297  26.625  1.00  0.00     0.034 A 
ATOM     46  C   UNL A   1      39.930  30.201  30.234  1.00  0.00     0.034 A 
ATOM     47  C   UNL A   1      45.685  29.652  27.121  1.00  0.00     0.049 A 
ATOM     48  C   UNL A   1      41.114  31.123  30.069  1.00  0.00     0.074 A 
ATOM     49  C   UNL A   1      46.647  30.631  26.954  1.00  0.00     0.029 A 
ATOM     50  N   UNL A   1      44.681  30.212  27.902  1.00  0.00    -0.354 N 
ATOM     51  N   UNL A   1      42.236  30.918  29.416  1.00  0.00    -0.248 NA
ATOM     52  C   UNL A   1      41.027  32.440  30.713  1.00  0.00     0.031 C 
ATOM     53  C   UNL A   1      46.268  31.748  27.704  1.00  0.00     0.029 A 
ATOM     54  C   UNL A   1      45.020  31.506  28.259  1.00  0.00     0.049 A 
ATOM     55  H   UNL A   1      43.848  29.754  28.162  1.00  0.00     0.167 HD
ATOM     56  C   UNL A   1      42.974  32.093  29.546  1.00  0.00     0.074 A 
ATOM     57  C   UNL A   1      42.165  33.002  30.332  1.00  0.00     0.031 C 
ATOM     58  C   UNL A   1      44.203  32.397  29.052  1.00  0.00     0.034 A 
BRANCH  45  59
ATOM     59  C   UNL A   1      46.903  27.777  25.897  1.00  0.00     0.023 A 
ATOM     60  C   UNL A   1      47.145  28.073  24.544  1.00  0.00     0.031 A 
ATOM     61  C   UNL A   1      47.811  26.928  26.555  1.00  0.00     0.131 A 
ATOM     62  C   UNL A   1      48.214  27.458  23.872  1.00  0.00     0.055 A 
ATOM     63  C   UNL A   1      48.924  26.392  25.905  1.00  0.00     0.041 A 
ATOM     64  F   UNL A   1      47.620  26.584  27.839  1.00  0.00    -0.206 F 
ATOM     65  C   UNL A   1      49.121  26.642  24.550  1.00  0.00     0.022 A 
BRANCH  62  66
ATOM     66  S   UNL A   1      48.298  27.604  22.066  1.00  0.00     0.124 S 
ATOM     67  O   UNL A   1      49.479  28.448  21.893  1.00  0.00    -0.237 OA
ATOM     68  O   UNL A   1      48.438  26.216  21.643  1.00  0.00    -0.237 OA
ATOM     69  O   UNL A   1      47.032  28.241  21.714  1.00  0.00    -0.744 OA
ENDBRANCH  62  66
ENDBRANCH  45  59
BRANCH  46  70
ATOM     70  C   UNL A   1      38.772  30.583  31.092  1.00  0.00     0.023 A 
ATOM     71  C   UNL A   1      37.656  31.247  30.560  1.00  0.00     0.031 A 
ATOM     72  C   UNL A   1      38.779  30.311  32.474  1.00  0.00     0.131 A 
ATOM     73  C   UNL A   1      36.612  31.650  31.407  1.00  0.00     0.055 A 
ATOM     74  C   UNL A   1      37.713  30.663  33.302  1.00  0.00     0.041 A 
ATOM     75  F   UNL A   1      39.823  29.682  33.036  1.00  0.00    -0.206 F 
ATOM     76  C   UNL A   1      36.624  31.348  32.772  1.00  0.00     0.022 A 
BRANCH  73  77
ATOM     77  S   UNL A   1      35.267  32.651  30.714  1.00  0.00     0.124 S 
ATOM     78  O   UNL A   1      34.894  31.874  29.538  1.00  0.00    -0.237 OA
ATOM     79  O   UNL A   1      34.303  32.662  31.810  1.00  0.00    -0.237 OA
ATOM     80  O   UNL A   1      35.907  33.935  30.437  1.00  0.00    -0.744 OA
ENDBRANCH  73  77
ENDBRANCH  46  70
BRANCH  58  81
ATOM     81  C   UNL A   1      44.725  33.793  29.299  1.00  0.00     0.023 A 
ATOM     82  C   UNL A   1      44.402  34.870  28.458  1.00  0.00     0.031 A 
ATOM     83  C   UNL A   1      45.543  34.047  30.416  1.00  0.00     0.131 A 
ATOM     84  C   UNL A   1      44.929  36.145  28.723  1.00  0.00     0.055 A 
ATOM     85  C   UNL A   1      46.009  35.327  30.710  1.00  0.00     0.041 A 
ATOM     86  F   UNL A   1      45.887  33.053  31.251  1.00  0.00    -0.206 F 
ATOM     87  C   UNL A   1      45.711  36.384  29.856  1.00  0.00     0.022 A 
BRANCH  84  88
ATOM     88  S   UNL A   1      44.644  37.475  27.524  1.00  0.00     0.124 S 
ATOM     89  O   UNL A   1      43.424  37.027  26.859  1.00  0.00    -0.237 OA
ATOM     90  O   UNL A   1      44.509  38.648  28.382  1.00  0.00    -0.237 OA
ATOM     91  O   UNL A   1      45.846  37.452  26.693  1.00  0.00    -0.744 OA
ENDBRANCH  84  88
ENDBRANCH  58  81
ENDBRANCH  32  33
ENDBRANCH  25  27
ENDBRANCH  24  25
ENDBRANCH  23  24
ENDBRANCH   1  23
TORSDOF 19
ENDMDL
MODEL 3
REMARK VINA RESULT:     -11.1      1.272      2.212
REMARK SMILES O=C(C[C@@H]1C(=O)NC(=S)N1c1ccccc1)OCCOCCOC(=O)c1ccc(-c2c3nc(c(-c4cc(S(=O)(=O)[O-])ccc4F)c4ccc([nH]4)c(-c4cc(S(=O)(=O)[O-])ccc4F)c4nc(c(-c5cc(S(=O)(=O)[O-])ccc5F)c5ccc2[nH]5)C=C4)C=C3)cc1
REMARK SMILES IDX 21 1 20 2 19 3 18 4 17 5 2 6 1 7 3 8 4 9 5 10 10 11 6 12
REMARK SMILES IDX 7 13 8 14 9 16 11 17 12 18 16 19 13 20 15 21 14 22 22 23
REMARK SMILES IDX 23 24 24 25 25 26 26 27 27 28 88 29 28 30 87 31 29 32 30 33
REMARK SMILES IDX 31 34 81 35 32 36 86 37 80 38 82 39 33 40 85 41 79 42 78 43
REMARK SMILES IDX 34 45 66 46 46 47 65 48 47 49 50 50 64 51 83 52 48 53 49 54
REMARK SMILES IDX 63 56 84 57 51 58 35 59 36 60 44 61 37 62 43 63 45 64 42 65
REMARK SMILES IDX 38 66 39 67 40 68 41 69 67 70 68 71 76 72 69 73 75 74 77 75
REMARK SMILES IDX 74 76 70 77 71 78 72 79 73 80 52 81 53 82 61 83 54 84 60 85
REMARK SMILES IDX 62 86 59 87 55 88 56 89 57 90 58 91
REMARK H PARENT 7 15 82 44 50 55
REMARK Flexibility Score: inf
ROOT
ATOM      1  C   UNL A   1      35.656  20.730  24.981  1.00  0.00     0.202 C 
ENDROOT
BRANCH   1   2
ATOM      2  O   UNL A   1      34.686  19.698  24.757  1.00  0.00    -0.374 OA
BRANCH   2   3
ATOM      3  C   UNL A   1      33.335  20.094  24.573  1.00  0.00     0.202 C 
BRANCH   3   4
ATOM      4  C   UNL A   1      33.011  21.581  24.704  1.00  0.00     0.261 C 
BRANCH   4   5
ATOM      5  O   UNL A   1      32.811  22.278  23.469  1.00  0.00    -0.463 OA
BRANCH   5   6
ATOM      6  C   UNL A   1      32.099  23.410  23.294  1.00  0.00     0.308 C 
ATOM      7  O   UNL A   1      30.885  23.401  23.509  1.00  0.00    -0.252 OA
BRANCH   6   8
ATOM      8  C   UNL A   1      32.711  24.622  22.629  1.00  0.00     0.158 C 
BRANCH   8   9
ATOM      9  C   UNL A   1      33.223  25.762  23.480  1.00  0.00     0.190 C 
ATOM     10  C   UNL A   1      34.134  25.299  24.617  1.00  0.00     0.249 C 
ATOM     11  N   UNL A   1      32.239  26.545  24.240  1.00  0.00    -0.306 N 
ATOM     12  O   UNL A   1      35.096  24.555  24.525  1.00  0.00    -0.272 OA
ATOM     13  N   UNL A   1      33.743  25.893  25.769  1.00  0.00    -0.301 N 
ATOM     14  C   UNL A   1      32.623  26.642  25.589  1.00  0.00     0.180 C 
ATOM     15  H   UNL A   1      34.213  25.795  26.629  1.00  0.00     0.172 HD
ATOM     16  S   UNL A   1      31.901  27.414  26.871  1.00  0.00    -0.040 S 
BRANCH  11  17
ATOM     17  C   UNL A   1      31.209  27.296  23.615  1.00  0.00     0.044 A 
ATOM     18  C   UNL A   1      31.514  28.439  22.866  1.00  0.00     0.026 A 
ATOM     19  C   UNL A   1      29.864  26.960  23.795  1.00  0.00     0.026 A 
ATOM     20  C   UNL A   1      30.500  29.253  22.351  1.00  0.00     0.002 A 
ATOM     21  C   UNL A   1      28.848  27.777  23.288  1.00  0.00     0.002 A 
ATOM     22  C   UNL A   1      29.166  28.929  22.576  1.00  0.00     0.000 A 
ENDBRANCH  11  17
ENDBRANCH   8   9
ENDBRANCH   6   8
ENDBRANCH   5   6
ENDBRANCH   4   5
ENDBRANCH   3   4
ENDBRANCH   2   3
ENDBRANCH   1   2
BRANCH   1  23
ATOM     23  C   UNL A   1      37.143  20.352  24.987  1.00  0.00     0.261 C 
BRANCH  23  24
ATOM     24  O   UNL A   1      37.979  21.472  25.326  1.00  0.00    -0.460 OA
BRANCH  24  25
ATOM     25  C   UNL A   1      39.128  21.165  25.975  1.00  0.00     0.338 C 
ATOM     26  O   UNL A   1      39.775  20.131  25.876  1.00  0.00    -0.246 OA
BRANCH  25  27
ATOM     27  C   UNL A   1      39.634  22.374  26.642  1.00  0.00     0.060 A 
ATOM     28  C   UNL A   1      39.081  23.614  26.286  1.00  0.00     0.016 A 
ATOM     29  C   UNL A   1      40.672  22.296  27.569  1.00  0.00     0.016 A 
ATOM     30  C   UNL A   1      39.594  24.788  26.828  1.00  0.00     0.010 A 
ATOM     31  C   UNL A   1      41.197  23.474  28.100  1.00  0.00     0.010 A 
ATOM     32  C   UNL A   1      40.685  24.724  27.703  1.00  0.00    -0.014 A 
BRANCH  32  33
ATOM     33  C   UNL A   1      41.430  25.954  28.055  1.00  0.00     0.031 A 
ATOM     34  C   UNL A   1      40.688  27.046  28.771  1.00  0.00     0.074 A 
ATOM     35  C   UNL A   1      42.723  26.100  27.722  1.00  0.00     0.049 A 
ATOM     36  N   UNL A   1      41.067  28.264  29.053  1.00  0.00    -0.248 NA
ATOM     37  C   UNL A   1      39.323  26.719  29.213  1.00  0.00     0.031 C 
ATOM     38  C   UNL A   1      43.546  25.083  27.071  1.00  0.00     0.029 A 
ATOM     39  N   UNL A   1      43.561  27.177  27.862  1.00  0.00    -0.354 N 
ATOM     40  C   UNL A   1      39.979  28.859  29.682  1.00  0.00     0.074 A 
ATOM     41  C   UNL A   1      38.917  27.876  29.712  1.00  0.00     0.031 C 
ATOM     42  C   UNL A   1      44.766  25.596  26.839  1.00  0.00     0.029 A 
ATOM     43  C   UNL A   1      44.791  26.991  27.276  1.00  0.00     0.049 A 
ATOM     44  H   UNL A   1      43.307  28.002  28.336  1.00  0.00     0.167 HD
ATOM     45  C   UNL A   1      39.881  30.113  30.188  1.00  0.00     0.034 A 
ATOM     46  C   UNL A   1      45.799  27.865  27.074  1.00  0.00     0.034 A 
ATOM     47  C   UNL A   1      40.954  31.075  30.130  1.00  0.00     0.049 A 
ATOM     48  C   UNL A   1      45.641  29.283  27.567  1.00  0.00     0.074 A 
ATOM     49  C   UNL A   1      40.985  32.363  30.632  1.00  0.00     0.029 A 
ATOM     50  N   UNL A   1      42.181  30.860  29.512  1.00  0.00    -0.354 N 
ATOM     51  N   UNL A   1      44.617  29.838  28.176  1.00  0.00    -0.248 NA
ATOM     52  C   UNL A   1      46.774  30.192  27.352  1.00  0.00     0.031 C 
ATOM     53  C   UNL A   1      42.190  32.955  30.241  1.00  0.00     0.029 A 
ATOM     54  C   UNL A   1      42.957  32.005  29.583  1.00  0.00     0.049 A 
ATOM     55  H   UNL A   1      42.458  30.016  29.087  1.00  0.00     0.167 HD
ATOM     56  C   UNL A   1      44.997  31.151  28.445  1.00  0.00     0.074 A 
ATOM     57  C   UNL A   1      46.346  31.301  27.938  1.00  0.00     0.031 C 
ATOM     58  C   UNL A   1      44.299  32.139  29.063  1.00  0.00     0.034 A 
BRANCH  45  59
ATOM     59  C   UNL A   1      38.551  30.524  30.777  1.00  0.00     0.023 A 
ATOM     60  C   UNL A   1      37.546  31.127  30.000  1.00  0.00     0.031 A 
ATOM     61  C   UNL A   1      38.305  30.356  32.152  1.00  0.00     0.131 A 
ATOM     62  C   UNL A   1      36.383  31.616  30.616  1.00  0.00     0.055 A 
ATOM     63  C   UNL A   1      37.107  30.762  32.742  1.00  0.00     0.041 A 
ATOM     64  F   UNL A   1      39.236  29.814  32.953  1.00  0.00    -0.206 F 
ATOM     65  C   UNL A   1      36.144  31.413  31.976  1.00  0.00     0.022 A 
BRANCH  62  66
ATOM     66  S   UNL A   1      35.270  32.670  29.646  1.00  0.00     0.124 S 
ATOM     67  O   UNL A   1      34.844  31.756  28.589  1.00  0.00    -0.237 OA
ATOM     68  O   UNL A   1      34.251  33.036  30.623  1.00  0.00    -0.237 OA
ATOM     69  O   UNL A   1      36.133  33.763  29.203  1.00  0.00    -0.744 OA
ENDBRANCH  62  66
ENDBRANCH  45  59
BRANCH  46  70
ATOM     70  C   UNL A   1      47.015  27.442  26.322  1.00  0.00     0.023 A 
ATOM     71  C   UNL A   1      47.186  27.767  24.968  1.00  0.00     0.031 A 
ATOM     72  C   UNL A   1      48.017  26.676  26.947  1.00  0.00     0.131 A 
ATOM     73  C   UNL A   1      48.312  27.298  24.273  1.00  0.00     0.055 A 
ATOM     74  C   UNL A   1      49.163  26.261  26.267  1.00  0.00     0.041 A 
ATOM     75  F   UNL A   1      47.903  26.333  28.240  1.00  0.00    -0.206 F 
ATOM     76  C   UNL A   1      49.310  26.561  24.917  1.00  0.00     0.022 A 
BRANCH  73  77
ATOM     77  S   UNL A   1      48.417  27.595  22.486  1.00  0.00     0.124 S 
ATOM     78  O   UNL A   1      49.645  28.374  22.387  1.00  0.00    -0.237 OA
ATOM     79  O   UNL A   1      48.473  26.237  21.957  1.00  0.00    -0.237 OA
ATOM     80  O   UNL A   1      47.187  28.327  22.191  1.00  0.00    -0.744 OA
ENDBRANCH  73  77
ENDBRANCH  46  70
BRANCH  58  81
ATOM     81  C   UNL A   1      45.005  33.457  29.279  1.00  0.00     0.023 A 
ATOM     82  C   UNL A   1      44.936  34.503  28.344  1.00  0.00     0.031 A 
ATOM     83  C   UNL A   1      45.741  33.673  30.459  1.00  0.00     0.131 A 
ATOM     84  C   UNL A   1      45.626  35.702  28.586  1.00  0.00     0.055 A 
ATOM     85  C   UNL A   1      46.370  34.888  30.723  1.00  0.00     0.041 A 
ATOM     86  F   UNL A   1      45.844  32.705  31.386  1.00  0.00    -0.206 F 
ATOM     87  C   UNL A   1      46.323  35.909  29.779  1.00  0.00     0.022 A 
BRANCH  84  88
ATOM     88  S   UNL A   1      45.668  36.964  27.283  1.00  0.00     0.124 S 
ATOM     89  O   UNL A   1      46.214  36.217  26.155  1.00  0.00    -0.237 OA
ATOM     90  O   UNL A   1      44.265  37.350  27.175  1.00  0.00    -0.237 OA
ATOM     91  O   UNL A   1      46.550  37.993  27.831  1.00  0.00    -0.744 OA
ENDBRANCH  84  88
ENDBRANCH  58  81
ENDBRANCH  32  33
ENDBRANCH  25  27
ENDBRANCH  24  25
ENDBRANCH  23  24
ENDBRANCH   1  23
TORSDOF 19
ENDMDL
