MODEL 1
REMARK VINA RESULT:     -10.4      0.000      0.000
REMARK SMILES CC[C@@](CC(F)(F)F)(C(=O)OCCOCCOC(=O)c1ccc(-c2c3nc(c(-c4cc(S(=O)(=O)[O-])ccc4F)c4ccc([nH]4)c(-c4cc(S(=O)(=O)[O-])ccc4F)c4nc(c(-c5cc(S(=O)(=O)[O-])ccc5F)c5ccc2[nH]5)C=C4)C=C3)cc1)c1ccccc1
REMARK SMILES IDX 15 1 14 2 13 3 12 4 11 5 9 6 10 7 3 8 2 9 1 10 4 11 5 12
REMARK SMILES IDX 6 13 7 14 8 15 83 16 84 17 88 18 85 19 87 20 86 21 16 22
REMARK SMILES IDX 17 23 18 24 19 25 20 26 21 27 82 28 22 29 81 30 23 31 24 32
REMARK SMILES IDX 25 33 75 34 26 35 80 36 74 37 76 38 27 39 79 40 73 41 72 42
REMARK SMILES IDX 28 44 60 45 40 46 59 47 41 48 44 49 58 50 77 51 42 52 43 53
REMARK SMILES IDX 57 55 78 56 45 57 29 58 30 59 38 60 31 61 37 62 39 63 36 64
REMARK SMILES IDX 32 65 33 66 34 67 35 68 61 69 62 70 70 71 63 72 69 73 71 74
REMARK SMILES IDX 68 75 64 76 65 77 66 78 67 79 46 80 47 81 55 82 48 83 54 84
REMARK SMILES IDX 56 85 53 86 49 87 50 88 51 89 52 90
REMARK H PARENT 76 43 44 54
REMARK Flexibility Score: inf
ROOT
ATOM      1  C   UNL A   1      35.745  20.517  25.036  1.00  0.00     0.202 C 
ENDROOT
BRANCH   1   2
ATOM      2  O   UNL A   1      34.929  21.561  25.566  1.00  0.00    -0.374 OA
BRANCH   2   3
ATOM      3  C   UNL A   1      33.833  21.180  26.399  1.00  0.00     0.202 C 
BRANCH   3   4
ATOM      4  C   UNL A   1      32.915  22.305  26.888  1.00  0.00     0.261 C 
BRANCH   4   5
ATOM      5  O   UNL A   1      33.332  23.589  26.392  1.00  0.00    -0.463 OA
BRANCH   5   6
ATOM      6  C   UNL A   1      32.382  24.560  26.383  1.00  0.00     0.316 C 
ATOM      7  O   UNL A   1      31.551  24.722  27.272  1.00  0.00    -0.251 OA
BRANCH   6   8
ATOM      8  C   UNL A   1      32.442  25.468  25.119  1.00  0.00     0.101 C 
BRANCH   8   9
ATOM      9  C   UNL A   1      33.683  25.172  24.214  1.00  0.00     0.020 C 
ATOM     10  C   UNL A   1      33.730  25.872  22.855  1.00  0.00     0.005 C 
ENDBRANCH   8   9
BRANCH   8  11
ATOM     11  C   UNL A   1      31.094  25.166  24.397  1.00  0.00     0.139 C 
BRANCH  11  12
ATOM     12  C   UNL A   1      30.910  23.722  23.960  1.00  0.00     0.390 C 
ATOM     13  F   UNL A   1      32.062  23.141  23.584  1.00  0.00    -0.171 F 
ATOM     14  F   UNL A   1      30.404  22.998  24.985  1.00  0.00    -0.171 F 
ATOM     15  F   UNL A   1      30.038  23.621  22.937  1.00  0.00    -0.171 F 
ENDBRANCH  11  12
ENDBRANCH   8  11
BRANCH   8  16
ATOM     16  C   UNL A   1      32.537  26.960  25.569  1.00  0.00    -0.030 A 
ATOM     17  C   UNL A   1      31.564  27.910  25.209  1.00  0.00     0.005 A 
ATOM     18  C   UNL A   1      33.649  27.431  26.298  1.00  0.00     0.005 A 
ATOM     19  C   UNL A   1      31.704  29.261  25.547  1.00  0.00     0.000 A 
ATOM     20  C   UNL A   1      33.786  28.780  26.640  1.00  0.00     0.000 A 
ATOM     21  C   UNL A   1      32.816  29.697  26.260  1.00  0.00     0.000 A 
ENDBRANCH   8  16
ENDBRANCH   6   8
ENDBRANCH   5   6
ENDBRANCH   4   5
ENDBRANCH   3   4
ENDBRANCH   2   3
ENDBRANCH   1   2
BRANCH   1  22
ATOM     22  C   UNL A   1      37.230  20.812  24.796  1.00  0.00     0.261 C 
BRANCH  22  23
ATOM     23  O   UNL A   1      37.742  21.840  25.662  1.00  0.00    -0.460 OA
BRANCH  23  24
ATOM     24  C   UNL A   1      38.988  21.596  26.140  1.00  0.00     0.338 C 
ATOM     25  O   UNL A   1      39.647  20.578  25.978  1.00  0.00    -0.246 OA
BRANCH  24  26
ATOM     26  C   UNL A   1      39.560  22.812  26.746  1.00  0.00     0.060 A 
ATOM     27  C   UNL A   1      39.026  24.042  26.341  1.00  0.00     0.016 A 
ATOM     28  C   UNL A   1      40.657  22.763  27.609  1.00  0.00     0.016 A 
ATOM     29  C   UNL A   1      39.625  25.231  26.748  1.00  0.00     0.010 A 
ATOM     30  C   UNL A   1      41.264  23.960  28.008  1.00  0.00     0.010 A 
ATOM     31  C   UNL A   1      40.775  25.196  27.547  1.00  0.00    -0.014 A 
BRANCH  31  32
ATOM     32  C   UNL A   1      41.553  26.444  27.746  1.00  0.00     0.031 A 
ATOM     33  C   UNL A   1      40.935  27.565  28.539  1.00  0.00     0.074 A 
ATOM     34  C   UNL A   1      42.808  26.556  27.274  1.00  0.00     0.049 A 
ATOM     35  N   UNL A   1      41.422  28.742  28.834  1.00  0.00    -0.248 NA
ATOM     36  C   UNL A   1      39.585  27.321  29.068  1.00  0.00     0.031 C 
ATOM     37  C   UNL A   1      43.527  25.517  26.538  1.00  0.00     0.029 A 
ATOM     38  N   UNL A   1      43.700  27.597  27.346  1.00  0.00    -0.354 N 
ATOM     39  C   UNL A   1      40.438  29.382  29.581  1.00  0.00     0.074 A 
ATOM     40  C   UNL A   1      39.314  28.473  29.661  1.00  0.00     0.031 C 
ATOM     41  C   UNL A   1      44.751  25.976  26.222  1.00  0.00     0.029 A 
ATOM     42  C   UNL A   1      44.888  27.349  26.700  1.00  0.00     0.049 A 
ATOM     43  H   UNL A   1      43.507  28.440  27.816  1.00  0.00     0.167 HD
ATOM     44  C   UNL A   1      40.472  30.611  30.153  1.00  0.00     0.034 A 
ATOM     45  C   UNL A   1      45.954  28.152  26.500  1.00  0.00     0.034 A 
ATOM     46  C   UNL A   1      41.598  31.509  30.054  1.00  0.00     0.049 A 
ATOM     47  C   UNL A   1      45.934  29.549  27.069  1.00  0.00     0.074 A 
ATOM     48  C   UNL A   1      41.748  32.770  30.607  1.00  0.00     0.029 A 
ATOM     49  N   UNL A   1      42.762  31.249  29.342  1.00  0.00    -0.354 N 
ATOM     50  N   UNL A   1      45.001  30.140  27.781  1.00  0.00    -0.248 NA
ATOM     51  C   UNL A   1      47.115  30.385  26.814  1.00  0.00     0.031 C 
ATOM     52  C   UNL A   1      42.968  33.298  30.172  1.00  0.00     0.029 A 
ATOM     53  C   UNL A   1      43.617  32.338  29.410  1.00  0.00     0.049 A 
ATOM     54  H   UNL A   1      42.951  30.413  28.860  1.00  0.00     0.167 HD
ATOM     55  C   UNL A   1      45.498  31.407  28.082  1.00  0.00     0.074 A 
ATOM     56  C   UNL A   1      46.816  31.487  27.485  1.00  0.00     0.031 C 
ATOM     57  C   UNL A   1      44.923  32.409  28.795  1.00  0.00     0.034 A 
BRANCH  44  58
ATOM     58  C   UNL A   1      39.232  31.070  30.883  1.00  0.00     0.023 A 
ATOM     59  C   UNL A   1      38.182  31.731  30.223  1.00  0.00     0.031 A 
ATOM     60  C   UNL A   1      39.118  30.876  32.271  1.00  0.00     0.131 A 
ATOM     61  C   UNL A   1      37.097  32.233  30.959  1.00  0.00     0.055 A 
ATOM     62  C   UNL A   1      38.001  31.312  32.987  1.00  0.00     0.041 A 
ATOM     63  F   UNL A   1      40.101  30.273  32.961  1.00  0.00    -0.206 F 
ATOM     64  C   UNL A   1      36.989  32.008  32.333  1.00  0.00     0.022 A 
BRANCH  61  65
ATOM     65  S   UNL A   1      35.901  33.309  30.121  1.00  0.00     0.124 S 
ATOM     66  O   UNL A   1      36.733  33.930  29.092  1.00  0.00    -0.237 OA
ATOM     67  O   UNL A   1      34.900  32.360  29.647  1.00  0.00    -0.237 OA
ATOM     68  O   UNL A   1      35.453  34.213  31.178  1.00  0.00    -0.744 OA
ENDBRANCH  61  65
ENDBRANCH  44  58
BRANCH  45  69
ATOM     69  C   UNL A   1      47.114  27.677  25.692  1.00  0.00     0.023 A 
ATOM     70  C   UNL A   1      47.219  27.972  24.324  1.00  0.00     0.031 A 
ATOM     71  C   UNL A   1      48.111  26.871  26.272  1.00  0.00     0.131 A 
ATOM     72  C   UNL A   1      48.274  27.432  23.571  1.00  0.00     0.055 A 
ATOM     73  C   UNL A   1      49.185  26.377  25.530  1.00  0.00     0.041 A 
ATOM     74  F   UNL A   1      48.056  26.556  27.576  1.00  0.00    -0.206 F 
ATOM     75  C   UNL A   1      49.265  26.648  24.167  1.00  0.00     0.022 A 
BRANCH  72  76
ATOM     76  S   UNL A   1      48.290  27.705  21.778  1.00  0.00     0.124 S 
ATOM     77  O   UNL A   1      46.959  28.254  21.548  1.00  0.00    -0.237 OA
ATOM     78  O   UNL A   1      49.404  28.634  21.624  1.00  0.00    -0.237 OA
ATOM     79  O   UNL A   1      48.517  26.367  21.233  1.00  0.00    -0.744 OA
ENDBRANCH  72  76
ENDBRANCH  45  69
BRANCH  57  80
ATOM     80  C   UNL A   1      45.741  33.661  29.002  1.00  0.00     0.023 A 
ATOM     81  C   UNL A   1      45.644  34.761  28.131  1.00  0.00     0.031 A 
ATOM     82  C   UNL A   1      46.638  33.748  30.081  1.00  0.00     0.131 A 
ATOM     83  C   UNL A   1      46.470  35.878  28.324  1.00  0.00     0.055 A 
ATOM     84  C   UNL A   1      47.416  34.884  30.301  1.00  0.00     0.041 A 
ATOM     85  F   UNL A   1      46.772  32.726  30.942  1.00  0.00    -0.206 F 
ATOM     86  C   UNL A   1      47.344  35.953  29.412  1.00  0.00     0.022 A 
BRANCH  83  87
ATOM     87  S   UNL A   1      46.454  37.200  27.081  1.00  0.00     0.124 S 
ATOM     88  O   UNL A   1      47.311  38.207  27.698  1.00  0.00    -0.237 OA
ATOM     89  O   UNL A   1      47.002  36.530  25.906  1.00  0.00    -0.237 OA
ATOM     90  O   UNL A   1      45.042  37.562  26.984  1.00  0.00    -0.744 OA
ENDBRANCH  83  87
ENDBRANCH  57  80
ENDBRANCH  31  32
ENDBRANCH  24  26
ENDBRANCH  23  24
ENDBRANCH  22  23
ENDBRANCH   1  22
TORSDOF 21
ENDMDL
MODEL 2
REMARK VINA RESULT:     -10.3      1.403      7.700
REMARK SMILES CC[C@@](CC(F)(F)F)(C(=O)OCCOCCOC(=O)c1ccc(-c2c3nc(c(-c4cc(S(=O)(=O)[O-])ccc4F)c4ccc([nH]4)c(-c4cc(S(=O)(=O)[O-])ccc4F)c4nc(c(-c5cc(S(=O)(=O)[O-])ccc5F)c5ccc2[nH]5)C=C4)C=C3)cc1)c1ccccc1
REMARK SMILES IDX 15 1 14 2 13 3 12 4 11 5 9 6 10 7 3 8 2 9 1 10 4 11 5 12
REMARK SMILES IDX 6 13 7 14 8 15 83 16 84 17 88 18 85 19 87 20 86 21 16 22
REMARK SMILES IDX 17 23 18 24 19 25 20 26 21 27 82 28 22 29 81 30 23 31 24 32
REMARK SMILES IDX 25 33 75 34 26 35 80 36 74 37 76 38 27 39 79 40 73 41 72 42
REMARK SMILES IDX 28 44 60 45 40 46 59 47 41 48 44 49 58 50 77 51 42 52 43 53
REMARK SMILES IDX 57 55 78 56 45 57 29 58 30 59 38 60 31 61 37 62 39 63 36 64
REMARK SMILES IDX 32 65 33 66 34 67 35 68 61 69 62 70 70 71 63 72 69 73 71 74
REMARK SMILES IDX 68 75 64 76 65 77 66 78 67 79 46 80 47 81 55 82 48 83 54 84
REMARK SMILES IDX 56 85 53 86 49 87 50 88 51 89 52 90
REMARK H PARENT 76 43 44 54
REMARK Flexibility Score: inf
ROOT
ATOM      1  C   UNL A   1      36.066  20.331  25.001  1.00  0.00     0.202 C 
ENDROOT
BRANCH   1   2
ATOM      2  O   UNL A   1      35.374  21.407  25.632  1.00  0.00    -0.374 OA
BRANCH   2   3
ATOM      3  C   UNL A   1      34.447  21.076  26.667  1.00  0.00     0.202 C 
BRANCH   3   4
ATOM      4  C   UNL A   1      33.585  22.219  27.214  1.00  0.00     0.261 C 
BRANCH   4   5
ATOM      5  O   UNL A   1      32.581  22.630  26.269  1.00  0.00    -0.463 OA
BRANCH   5   6
ATOM      6  C   UNL A   1      32.272  23.953  26.269  1.00  0.00     0.316 C 
ATOM      7  O   UNL A   1      31.710  24.531  27.194  1.00  0.00    -0.251 OA
BRANCH   6   8
ATOM      8  C   UNL A   1      32.706  24.685  24.964  1.00  0.00     0.101 C 
BRANCH   8   9
ATOM      9  C   UNL A   1      34.026  25.507  25.136  1.00  0.00     0.020 C 
ATOM     10  C   UNL A   1      35.244  24.754  25.674  1.00  0.00     0.005 C 
ENDBRANCH   8   9
BRANCH   8  11
ATOM     11  C   UNL A   1      32.859  23.524  23.936  1.00  0.00     0.139 C 
BRANCH  11  12
ATOM     12  C   UNL A   1      33.617  23.885  22.670  1.00  0.00     0.390 C 
ATOM     13  F   UNL A   1      33.649  25.209  22.441  1.00  0.00    -0.171 F 
ATOM     14  F   UNL A   1      34.897  23.456  22.768  1.00  0.00    -0.171 F 
ATOM     15  F   UNL A   1      33.083  23.286  21.585  1.00  0.00    -0.171 F 
ENDBRANCH  11  12
ENDBRANCH   8  11
BRANCH   8  16
ATOM     16  C   UNL A   1      31.584  25.687  24.546  1.00  0.00    -0.030 A 
ATOM     17  C   UNL A   1      30.263  25.267  24.304  1.00  0.00     0.005 A 
ATOM     18  C   UNL A   1      31.870  27.050  24.323  1.00  0.00     0.005 A 
ATOM     19  C   UNL A   1      29.286  26.160  23.849  1.00  0.00     0.000 A 
ATOM     20  C   UNL A   1      30.893  27.943  23.874  1.00  0.00     0.000 A 
ATOM     21  C   UNL A   1      29.601  27.497  23.631  1.00  0.00     0.000 A 
ENDBRANCH   8  16
ENDBRANCH   6   8
ENDBRANCH   5   6
ENDBRANCH   4   5
ENDBRANCH   3   4
ENDBRANCH   2   3
ENDBRANCH   1   2
BRANCH   1  22
ATOM     22  C   UNL A   1      37.594  20.414  24.902  1.00  0.00     0.261 C 
BRANCH  22  23
ATOM     23  O   UNL A   1      38.121  21.644  25.430  1.00  0.00    -0.460 OA
BRANCH  23  24
ATOM     24  C   UNL A   1      39.277  21.501  26.126  1.00  0.00     0.338 C 
ATOM     25  O   UNL A   1      40.041  20.546  26.086  1.00  0.00    -0.246 OA
BRANCH  24  26
ATOM     26  C   UNL A   1      39.619  22.751  26.828  1.00  0.00     0.060 A 
ATOM     27  C   UNL A   1      38.895  23.899  26.483  1.00  0.00     0.016 A 
ATOM     28  C   UNL A   1      40.687  22.827  27.724  1.00  0.00     0.016 A 
ATOM     29  C   UNL A   1      39.274  25.141  26.984  1.00  0.00     0.010 A 
ATOM     30  C   UNL A   1      41.074  24.079  28.220  1.00  0.00     0.010 A 
ATOM     31  C   UNL A   1      40.393  25.244  27.820  1.00  0.00    -0.014 A 
BRANCH  31  32
ATOM     32  C   UNL A   1      40.944  26.589  28.125  1.00  0.00     0.031 A 
ATOM     33  C   UNL A   1      42.369  26.892  27.743  1.00  0.00     0.074 A 
ATOM     34  C   UNL A   1      40.172  27.538  28.685  1.00  0.00     0.049 A 
ATOM     35  N   UNL A   1      43.060  27.988  27.916  1.00  0.00    -0.248 NA
ATOM     36  C   UNL A   1      43.109  25.810  27.078  1.00  0.00     0.031 C 
ATOM     37  C   UNL A   1      38.766  27.374  29.048  1.00  0.00     0.029 A 
ATOM     38  N   UNL A   1      40.465  28.830  29.043  1.00  0.00    -0.354 N 
ATOM     39  C   UNL A   1      44.320  27.729  27.383  1.00  0.00     0.074 A 
ATOM     40  C   UNL A   1      44.303  26.359  26.915  1.00  0.00     0.031 C 
ATOM     41  C   UNL A   1      38.318  28.524  29.583  1.00  0.00     0.029 A 
ATOM     42  C   UNL A   1      39.413  29.490  29.633  1.00  0.00     0.049 A 
ATOM     43  H   UNL A   1      41.345  29.245  28.890  1.00  0.00     0.167 HD
ATOM     44  C   UNL A   1      45.387  28.559  27.287  1.00  0.00     0.034 A 
ATOM     45  C   UNL A   1      39.351  30.726  30.171  1.00  0.00     0.034 A 
ATOM     46  C   UNL A   1      45.390  29.920  27.768  1.00  0.00     0.049 A 
ATOM     47  C   UNL A   1      40.579  31.601  30.133  1.00  0.00     0.074 A 
ATOM     48  C   UNL A   1      46.408  30.856  27.708  1.00  0.00     0.029 A 
ATOM     49  N   UNL A   1      44.325  30.535  28.414  1.00  0.00    -0.354 N 
ATOM     50  N   UNL A   1      41.762  31.348  29.619  1.00  0.00    -0.248 NA
ATOM     51  C   UNL A   1      40.462  32.933  30.742  1.00  0.00     0.031 C 
ATOM     52  C   UNL A   1      45.986  32.009  28.379  1.00  0.00     0.029 A 
ATOM     53  C   UNL A   1      44.675  31.824  28.791  1.00  0.00     0.049 A 
ATOM     54  H   UNL A   1      43.449  30.119  28.580  1.00  0.00     0.167 HD
ATOM     55  C   UNL A   1      42.518  32.501  29.818  1.00  0.00     0.074 A 
ATOM     56  C   UNL A   1      41.654  33.453  30.487  1.00  0.00     0.031 C 
ATOM     57  C   UNL A   1      43.806  32.755  29.471  1.00  0.00     0.034 A 
BRANCH  44  58
ATOM     58  C   UNL A   1      46.654  27.993  26.690  1.00  0.00     0.023 A 
ATOM     59  C   UNL A   1      46.957  28.125  25.324  1.00  0.00     0.031 A 
ATOM     60  C   UNL A   1      47.555  27.275  27.498  1.00  0.00     0.131 A 
ATOM     61  C   UNL A   1      48.092  27.491  24.793  1.00  0.00     0.055 A 
ATOM     62  C   UNL A   1      48.721  26.711  26.978  1.00  0.00     0.041 A 
ATOM     63  F   UNL A   1      47.307  27.095  28.805  1.00  0.00    -0.206 F 
ATOM     64  C   UNL A   1      48.988  26.805  25.616  1.00  0.00     0.022 A 
BRANCH  61  65
ATOM     65  S   UNL A   1      48.305  27.455  22.992  1.00  0.00     0.124 S 
ATOM     66  O   UNL A   1      48.278  26.020  22.720  1.00  0.00    -0.237 OA
ATOM     67  O   UNL A   1      47.153  28.217  22.522  1.00  0.00    -0.237 OA
ATOM     68  O   UNL A   1      49.602  28.097  22.787  1.00  0.00    -0.744 OA
ENDBRANCH  61  65
ENDBRANCH  44  58
BRANCH  45  69
ATOM     69  C   UNL A   1      38.100  31.199  30.829  1.00  0.00     0.023 A 
ATOM     70  C   UNL A   1      37.109  31.880  30.104  1.00  0.00     0.031 A 
ATOM     71  C   UNL A   1      37.904  31.023  32.211  1.00  0.00     0.131 A 
ATOM     72  C   UNL A   1      35.985  32.396  30.771  1.00  0.00     0.055 A 
ATOM     73  C   UNL A   1      36.762  31.495  32.861  1.00  0.00     0.041 A 
ATOM     74  F   UNL A   1      38.823  30.383  32.951  1.00  0.00    -0.206 F 
ATOM     75  C   UNL A   1      35.800  32.196  32.142  1.00  0.00     0.022 A 
BRANCH  72  76
ATOM     76  S   UNL A   1      34.805  33.404  29.833  1.00  0.00     0.124 S 
ATOM     77  O   UNL A   1      35.694  34.277  29.076  1.00  0.00    -0.237 OA
ATOM     78  O   UNL A   1      34.089  32.393  29.063  1.00  0.00    -0.237 OA
ATOM     79  O   UNL A   1      34.019  34.063  30.874  1.00  0.00    -0.744 OA
ENDBRANCH  72  76
ENDBRANCH  45  69
BRANCH  57  80
ATOM     80  C   UNL A   1      44.338  34.136  29.774  1.00  0.00     0.023 A 
ATOM     81  C   UNL A   1      44.149  35.212  28.890  1.00  0.00     0.031 A 
ATOM     82  C   UNL A   1      45.054  34.372  30.961  1.00  0.00     0.131 A 
ATOM     83  C   UNL A   1      44.716  36.462  29.181  1.00  0.00     0.055 A 
ATOM     84  C   UNL A   1      45.567  35.631  31.272  1.00  0.00     0.041 A 
ATOM     85  F   UNL A   1      45.265  33.378  31.839  1.00  0.00    -0.206 F 
ATOM     86  C   UNL A   1      45.410  36.682  30.374  1.00  0.00     0.022 A 
BRANCH  83  87
ATOM     87  S   UNL A   1      44.612  37.779  27.937  1.00  0.00     0.124 S 
ATOM     88  O   UNL A   1      44.144  38.910  28.729  1.00  0.00    -0.237 OA
ATOM     89  O   UNL A   1      45.988  37.864  27.456  1.00  0.00    -0.237 OA
ATOM     90  O   UNL A   1      43.649  37.259  26.967  1.00  0.00    -0.744 OA
ENDBRANCH  83  87
ENDBRANCH  57  80
ENDBRANCH  31  32
ENDBRANCH  24  26
ENDBRANCH  23  24
ENDBRANCH  22  23
ENDBRANCH   1  22
TORSDOF 21
ENDMDL
MODEL 3
REMARK VINA RESULT:     -10.2      1.963      7.813
REMARK SMILES CC[C@@](CC(F)(F)F)(C(=O)OCCOCCOC(=O)c1ccc(-c2c3nc(c(-c4cc(S(=O)(=O)[O-])ccc4F)c4ccc([nH]4)c(-c4cc(S(=O)(=O)[O-])ccc4F)c4nc(c(-c5cc(S(=O)(=O)[O-])ccc5F)c5ccc2[nH]5)C=C4)C=C3)cc1)c1ccccc1
REMARK SMILES IDX 15 1 14 2 13 3 12 4 11 5 9 6 10 7 3 8 2 9 1 10 4 11 5 12
REMARK SMILES IDX 6 13 7 14 8 15 83 16 84 17 88 18 85 19 87 20 86 21 16 22
REMARK SMILES IDX 17 23 18 24 19 25 20 26 21 27 82 28 22 29 81 30 23 31 24 32
REMARK SMILES IDX 25 33 75 34 26 35 80 36 74 37 76 38 27 39 79 40 73 41 72 42
REMARK SMILES IDX 28 44 60 45 40 46 59 47 41 48 44 49 58 50 77 51 42 52 43 53
REMARK SMILES IDX 57 55 78 56 45 57 29 58 30 59 38 60 31 61 37 62 39 63 36 64
REMARK SMILES IDX 32 65 33 66 34 67 35 68 61 69 62 70 70 71 63 72 69 73 71 74
REMARK SMILES IDX 68 75 64 76 65 77 66 78 67 79 46 80 47 81 55 82 48 83 54 84
REMARK SMILES IDX 56 85 53 86 49 87 50 88 51 89 52 90
REMARK H PARENT 76 43 44 54
REMARK Flexibility Score: inf
ROOT
ATOM      1  C   UNL A   1      37.439  19.672  24.800  1.00  0.00     0.202 C 
ENDROOT
BRANCH   1   2
ATOM      2  O   UNL A   1      37.350  21.094  24.726  1.00  0.00    -0.374 OA
BRANCH   2   3
ATOM      3  C   UNL A   1      36.663  21.766  25.782  1.00  0.00     0.202 C 
BRANCH   3   4
ATOM      4  C   UNL A   1      35.132  21.775  25.713  1.00  0.00     0.261 C 
BRANCH   4   5
ATOM      5  O   UNL A   1      34.591  23.077  25.998  1.00  0.00    -0.463 OA
BRANCH   5   6
ATOM      6  C   UNL A   1      34.615  23.967  24.973  1.00  0.00     0.316 C 
ATOM      7  O   UNL A   1      35.620  24.257  24.332  1.00  0.00    -0.251 OA
BRANCH   6   8
ATOM      8  C   UNL A   1      33.222  24.600  24.676  1.00  0.00     0.101 C 
BRANCH   8   9
ATOM      9  C   UNL A   1      32.639  24.167  23.290  1.00  0.00     0.020 C 
ATOM     10  C   UNL A   1      32.931  22.737  22.834  1.00  0.00     0.005 C 
ENDBRANCH   8   9
BRANCH   8  11
ATOM     11  C   UNL A   1      32.346  24.112  25.868  1.00  0.00     0.139 C 
BRANCH  11  12
ATOM     12  C   UNL A   1      30.846  24.191  25.637  1.00  0.00     0.390 C 
ATOM     13  F   UNL A   1      30.379  23.176  24.890  1.00  0.00    -0.171 F 
ATOM     14  F   UNL A   1      30.200  24.155  26.825  1.00  0.00    -0.171 F 
ATOM     15  F   UNL A   1      30.498  25.347  25.034  1.00  0.00    -0.171 F 
ENDBRANCH  11  12
ENDBRANCH   8  11
BRANCH   8  16
ATOM     16  C   UNL A   1      33.363  26.154  24.658  1.00  0.00    -0.030 A 
ATOM     17  C   UNL A   1      33.373  26.888  23.457  1.00  0.00     0.005 A 
ATOM     18  C   UNL A   1      33.561  26.882  25.850  1.00  0.00     0.005 A 
ATOM     19  C   UNL A   1      33.584  28.272  23.449  1.00  0.00     0.000 A 
ATOM     20  C   UNL A   1      33.766  28.265  25.843  1.00  0.00     0.000 A 
ATOM     21  C   UNL A   1      33.783  28.960  24.641  1.00  0.00     0.000 A 
ENDBRANCH   8  16
ENDBRANCH   6   8
ENDBRANCH   5   6
ENDBRANCH   4   5
ENDBRANCH   3   4
ENDBRANCH   2   3
ENDBRANCH   1   2
BRANCH   1  22
ATOM     22  C   UNL A   1      38.778  19.053  25.218  1.00  0.00     0.261 C 
BRANCH  22  23
ATOM     23  O   UNL A   1      39.287  19.600  26.447  1.00  0.00    -0.460 OA
BRANCH  23  24
ATOM     24  C   UNL A   1      40.584  19.994  26.388  1.00  0.00     0.338 C 
ATOM     25  O   UNL A   1      41.498  19.412  25.820  1.00  0.00    -0.246 OA
BRANCH  24  26
ATOM     26  C   UNL A   1      40.743  21.347  26.948  1.00  0.00     0.060 A 
ATOM     27  C   UNL A   1      40.179  22.409  26.229  1.00  0.00     0.016 A 
ATOM     28  C   UNL A   1      41.511  21.590  28.089  1.00  0.00     0.016 A 
ATOM     29  C   UNL A   1      40.431  23.723  26.612  1.00  0.00     0.010 A 
ATOM     30  C   UNL A   1      41.771  22.914  28.467  1.00  0.00     0.010 A 
ATOM     31  C   UNL A   1      41.265  23.984  27.706  1.00  0.00    -0.014 A 
BRANCH  31  32
ATOM     32  C   UNL A   1      41.741  25.372  27.937  1.00  0.00     0.031 A 
ATOM     33  C   UNL A   1      43.109  25.761  27.442  1.00  0.00     0.074 A 
ATOM     34  C   UNL A   1      40.946  26.282  28.528  1.00  0.00     0.049 A 
ATOM     35  N   UNL A   1      43.732  26.906  27.536  1.00  0.00    -0.248 NA
ATOM     36  C   UNL A   1      43.873  24.712  26.750  1.00  0.00     0.031 C 
ATOM     37  C   UNL A   1      39.585  26.033  28.999  1.00  0.00     0.029 A 
ATOM     38  N   UNL A   1      41.172  27.601  28.832  1.00  0.00    -0.354 N 
ATOM     39  C   UNL A   1      44.965  26.718  26.918  1.00  0.00     0.074 A 
ATOM     40  C   UNL A   1      45.011  25.337  26.486  1.00  0.00     0.031 C 
ATOM     41  C   UNL A   1      39.097  27.165  29.537  1.00  0.00     0.029 A 
ATOM     42  C   UNL A   1      40.122  28.204  29.482  1.00  0.00     0.049 A 
ATOM     43  H   UNL A   1      42.007  28.071  28.604  1.00  0.00     0.167 HD
ATOM     44  C   UNL A   1      45.961  27.617  26.722  1.00  0.00     0.034 A 
ATOM     45  C   UNL A   1      40.012  29.448  29.993  1.00  0.00     0.034 A 
ATOM     46  C   UNL A   1      45.902  28.987  27.169  1.00  0.00     0.049 A 
ATOM     47  C   UNL A   1      41.169  30.405  29.842  1.00  0.00     0.074 A 
ATOM     48  C   UNL A   1      46.845  29.989  27.010  1.00  0.00     0.029 A 
ATOM     49  N   UNL A   1      44.846  29.548  27.877  1.00  0.00    -0.354 N 
ATOM     50  N   UNL A   1      42.326  30.218  29.249  1.00  0.00    -0.248 NA
ATOM     51  C   UNL A   1      41.003  31.742  30.425  1.00  0.00     0.031 C 
ATOM     52  C   UNL A   1      46.393  31.129  27.682  1.00  0.00     0.029 A 
ATOM     53  C   UNL A   1      45.131  30.867  28.194  1.00  0.00     0.049 A 
ATOM     54  H   UNL A   1      44.017  29.077  28.117  1.00  0.00     0.167 HD
ATOM     55  C   UNL A   1      43.012  31.426  29.362  1.00  0.00     0.074 A 
ATOM     56  C   UNL A   1      42.133  32.335  30.070  1.00  0.00     0.031 C 
ATOM     57  C   UNL A   1      44.250  31.757  28.915  1.00  0.00     0.034 A 
BRANCH  44  58
ATOM     58  C   UNL A   1      47.218  27.121  26.047  1.00  0.00     0.023 A 
ATOM     59  C   UNL A   1      48.201  26.396  26.744  1.00  0.00     0.031 A 
ATOM     60  C   UNL A   1      47.452  27.411  24.691  1.00  0.00     0.131 A 
ATOM     61  C   UNL A   1      49.401  26.047  26.103  1.00  0.00     0.055 A 
ATOM     62  C   UNL A   1      48.615  26.995  24.039  1.00  0.00     0.041 A 
ATOM     63  F   UNL A   1      46.561  28.120  23.980  1.00  0.00    -0.206 F 
ATOM     64  C   UNL A   1      49.603  26.322  24.749  1.00  0.00     0.022 A 
BRANCH  61  65
ATOM     65  S   UNL A   1      50.749  25.357  27.100  1.00  0.00     0.124 S 
ATOM     66  O   UNL A   1      51.153  26.515  27.894  1.00  0.00    -0.237 OA
ATOM     67  O   UNL A   1      50.086  24.282  27.829  1.00  0.00    -0.237 OA
ATOM     68  O   UNL A   1      51.726  24.924  26.102  1.00  0.00    -0.744 OA
ENDBRANCH  61  65
ENDBRANCH  44  58
BRANCH  45  69
ATOM     69  C   UNL A   1      38.782  29.855  30.730  1.00  0.00     0.023 A 
ATOM     70  C   UNL A   1      37.788  30.633  30.116  1.00  0.00     0.031 A 
ATOM     71  C   UNL A   1      38.609  29.512  32.084  1.00  0.00     0.131 A 
ATOM     72  C   UNL A   1      36.686  31.079  30.865  1.00  0.00     0.055 A 
ATOM     73  C   UNL A   1      37.488  29.915  32.810  1.00  0.00     0.041 A 
ATOM     74  F   UNL A   1      39.531  28.772  32.719  1.00  0.00    -0.206 F 
ATOM     75  C   UNL A   1      36.523  30.713  32.204  1.00  0.00     0.022 A 
BRANCH  72  76
ATOM     76  S   UNL A   1      35.505  32.211  30.083  1.00  0.00     0.124 S 
ATOM     77  O   UNL A   1      34.474  32.319  31.108  1.00  0.00    -0.237 OA
ATOM     78  O   UNL A   1      36.323  33.399  29.866  1.00  0.00    -0.237 OA
ATOM     79  O   UNL A   1      35.107  31.501  28.868  1.00  0.00    -0.744 OA
ENDBRANCH  72  76
ENDBRANCH  45  69
BRANCH  57  80
ATOM     80  C   UNL A   1      44.704  33.179  29.143  1.00  0.00     0.023 A 
ATOM     81  C   UNL A   1      44.285  34.233  28.311  1.00  0.00     0.031 A 
ATOM     82  C   UNL A   1      45.578  33.480  30.203  1.00  0.00     0.131 A 
ATOM     83  C   UNL A   1      44.783  35.528  28.521  1.00  0.00     0.055 A 
ATOM     84  C   UNL A   1      46.024  34.779  30.442  1.00  0.00     0.041 A 
ATOM     85  F   UNL A   1      46.010  32.511  31.026  1.00  0.00    -0.206 F 
ATOM     86  C   UNL A   1      45.637  35.810  29.591  1.00  0.00     0.022 A 
BRANCH  83  87
ATOM     87  S   UNL A   1      44.370  36.826  27.323  1.00  0.00     0.124 S 
ATOM     88  O   UNL A   1      45.646  37.034  26.649  1.00  0.00    -0.237 OA
ATOM     89  O   UNL A   1      43.324  36.194  26.526  1.00  0.00    -0.237 OA
ATOM     90  O   UNL A   1      43.923  37.937  28.162  1.00  0.00    -0.744 OA
ENDBRANCH  83  87
ENDBRANCH  57  80
ENDBRANCH  31  32
ENDBRANCH  24  26
ENDBRANCH  23  24
ENDBRANCH  22  23
ENDBRANCH   1  22
TORSDOF 21
ENDMDL
