MODEL 1
REMARK VINA RESULT:     -11.8      0.000      0.000
REMARK SMILES O=C(OCCOCCOC(=O)[C@H]1CC=CC[C@@H]1C(=O)Nc1ccccc1C(=O)NCc1ccco1)c1ccc(-c2c3nc(c(-c4cc(S(=O)(=O)[O-])ccc4F)c4ccc([nH]4)c(-c4cc(S(=O)(=O)[O-])ccc4F)c4nc(c(-c5cc(S(=O)(=O)[O-])ccc5F)c5ccc2[nH]5)C=C4)C=C3)cc1
REMARK SMILES IDX 7 1 6 2 5 3 4 4 3 5 2 6 1 7 36 8 37 9 98 10 38 11 97 12
REMARK SMILES IDX 39 13 40 14 41 15 91 16 42 17 96 18 90 19 92 20 43 21 95 22
REMARK SMILES IDX 89 23 88 24 44 26 76 27 56 28 75 29 57 30 60 31 74 32 93 33
REMARK SMILES IDX 58 34 59 35 73 37 94 38 61 39 45 40 46 41 54 42 47 43 53 44
REMARK SMILES IDX 55 45 52 46 48 47 49 48 50 49 51 50 77 51 78 52 86 53 79 54
REMARK SMILES IDX 85 55 87 56 84 57 80 58 81 59 82 60 83 61 62 62 63 63 71 64
REMARK SMILES IDX 64 65 70 66 72 67 69 68 65 69 66 70 67 71 68 72 8 73 9 74
REMARK SMILES IDX 10 75 11 76 12 77 13 78 17 79 14 80 16 81 15 82 18 83 19 84
REMARK SMILES IDX 20 85 21 87 22 88 26 89 23 90 25 91 24 92 27 93 28 94 29 95
REMARK SMILES IDX 30 97 31 98 32 99 35 100 33 101 34 102
REMARK H PARENT 92 25 60 36 20 86 29 96
REMARK Flexibility Score: inf
ROOT
ATOM      1  C   UNL A   1      32.934  29.869  26.357  1.00  0.00     0.202 C 
ENDROOT
BRANCH   1   2
ATOM      2  O   UNL A   1      31.779  30.524  26.888  1.00  0.00    -0.374 OA
BRANCH   2   3
ATOM      3  C   UNL A   1      31.192  31.590  26.131  1.00  0.00     0.202 C 
BRANCH   3   4
ATOM      4  C   UNL A   1      31.606  33.046  26.434  1.00  0.00     0.261 C 
BRANCH   4   5
ATOM      5  O   UNL A   1      32.139  33.246  27.753  1.00  0.00    -0.460 OA
BRANCH   5   6
ATOM      6  C   UNL A   1      33.266  33.915  28.106  1.00  0.00     0.338 C 
ATOM      7  O   UNL A   1      33.280  35.138  27.971  1.00  0.00    -0.246 OA
BRANCH   6   8
ATOM      8  C   UNL A   1      34.531  33.242  28.555  1.00  0.00     0.060 A 
ATOM      9  C   UNL A   1      34.598  31.992  29.167  1.00  0.00     0.016 A 
ATOM     10  C   UNL A   1      35.752  33.886  28.271  1.00  0.00     0.016 A 
ATOM     11  C   UNL A   1      35.794  31.403  29.513  1.00  0.00     0.010 A 
ATOM     12  C   UNL A   1      36.978  33.302  28.618  1.00  0.00     0.010 A 
ATOM     13  C   UNL A   1      36.987  32.062  29.261  1.00  0.00    -0.014 A 
BRANCH  13  14
ATOM     14  C   UNL A   1      38.164  31.469  29.911  1.00  0.00     0.031 A 
ATOM     15  C   UNL A   1      38.345  31.748  31.371  1.00  0.00     0.074 A 
ATOM     16  C   UNL A   1      38.831  30.489  29.275  1.00  0.00     0.049 A 
ATOM     17  N   UNL A   1      39.205  31.246  32.213  1.00  0.00    -0.248 NA
ATOM     18  C   UNL A   1      37.391  32.696  31.974  1.00  0.00     0.031 C 
ATOM     19  C   UNL A   1      38.546  30.033  27.909  1.00  0.00     0.029 A 
ATOM     20  N   UNL A   1      39.816  29.648  29.708  1.00  0.00    -0.354 N 
ATOM     21  C   UNL A   1      38.908  31.829  33.439  1.00  0.00     0.074 A 
ATOM     22  C   UNL A   1      37.791  32.722  33.233  1.00  0.00     0.031 C 
ATOM     23  C   UNL A   1      39.314  28.966  27.636  1.00  0.00     0.029 A 
ATOM     24  C   UNL A   1      40.188  28.708  28.775  1.00  0.00     0.049 A 
ATOM     25  H   UNL A   1      40.221  29.709  30.604  1.00  0.00     0.167 HD
ATOM     26  C   UNL A   1      39.533  31.637  34.625  1.00  0.00     0.034 A 
ATOM     27  C   UNL A   1      41.149  27.767  28.841  1.00  0.00     0.034 A 
ATOM     28  C   UNL A   1      40.664  30.756  34.764  1.00  0.00     0.049 A 
ATOM     29  C   UNL A   1      41.932  27.680  30.128  1.00  0.00     0.074 A 
ATOM     30  C   UNL A   1      41.488  30.560  35.855  1.00  0.00     0.029 A 
ATOM     31  N   UNL A   1      41.133  29.920  33.753  1.00  0.00    -0.354 N 
ATOM     32  N   UNL A   1      41.738  28.329  31.257  1.00  0.00    -0.248 NA
ATOM     33  C   UNL A   1      43.067  26.754  30.150  1.00  0.00     0.031 C 
ATOM     34  C   UNL A   1      42.490  29.655  35.482  1.00  0.00     0.029 A 
ATOM     35  C   UNL A   1      42.252  29.230  34.183  1.00  0.00     0.049 A 
ATOM     36  H   UNL A   1      40.726  29.835  32.859  1.00  0.00     0.167 HD
ATOM     37  C   UNL A   1      42.724  27.881  32.128  1.00  0.00     0.074 A 
ATOM     38  C   UNL A   1      43.489  26.886  31.398  1.00  0.00     0.031 C 
ATOM     39  C   UNL A   1      42.987  28.256  33.407  1.00  0.00     0.034 A 
BRANCH  26  40
ATOM     40  C   UNL A   1      39.081  32.510  35.770  1.00  0.00     0.023 A 
ATOM     41  C   UNL A   1      39.474  33.857  35.887  1.00  0.00     0.031 A 
ATOM     42  C   UNL A   1      38.369  31.937  36.838  1.00  0.00     0.131 A 
ATOM     43  C   UNL A   1      39.233  34.553  37.084  1.00  0.00     0.055 A 
ATOM     44  C   UNL A   1      38.061  32.661  37.992  1.00  0.00     0.041 A 
ATOM     45  F   UNL A   1      38.004  30.646  36.800  1.00  0.00    -0.206 F 
ATOM     46  C   UNL A   1      38.511  33.970  38.129  1.00  0.00     0.022 A 
BRANCH  43  47
ATOM     47  S   UNL A   1      40.036  36.162  37.335  1.00  0.00     0.124 S 
ATOM     48  O   UNL A   1      39.190  36.757  38.368  1.00  0.00    -0.237 OA
ATOM     49  O   UNL A   1      41.381  35.784  37.751  1.00  0.00    -0.237 OA
ATOM     50  O   UNL A   1      39.945  36.802  36.023  1.00  0.00    -0.744 OA
ENDBRANCH  43  47
ENDBRANCH  26  40
BRANCH  27  51
ATOM     51  C   UNL A   1      41.476  26.913  27.659  1.00  0.00     0.023 A 
ATOM     52  C   UNL A   1      41.173  25.542  27.629  1.00  0.00     0.031 A 
ATOM     53  C   UNL A   1      42.155  27.456  26.551  1.00  0.00     0.131 A 
ATOM     54  C   UNL A   1      41.576  24.759  26.532  1.00  0.00     0.055 A 
ATOM     55  C   UNL A   1      42.503  26.686  25.440  1.00  0.00     0.041 A 
ATOM     56  F   UNL A   1      42.488  28.757  26.526  1.00  0.00    -0.206 F 
ATOM     57  C   UNL A   1      42.224  25.324  25.432  1.00  0.00     0.022 A 
BRANCH  54  58
ATOM     58  S   UNL A   1      41.322  22.961  26.598  1.00  0.00     0.124 S 
ATOM     59  O   UNL A   1      41.945  22.619  27.872  1.00  0.00    -0.237 OA
ATOM     60  O   UNL A   1      39.868  22.858  26.545  1.00  0.00    -0.237 OA
ATOM     61  O   UNL A   1      42.023  22.476  25.411  1.00  0.00    -0.744 OA
ENDBRANCH  54  58
ENDBRANCH  27  51
BRANCH  39  62
ATOM     62  C   UNL A   1      44.135  27.553  34.081  1.00  0.00     0.023 A 
ATOM     63  C   UNL A   1      43.965  26.302  34.699  1.00  0.00     0.031 A 
ATOM     64  C   UNL A   1      45.405  28.152  34.119  1.00  0.00     0.131 A 
ATOM     65  C   UNL A   1      45.037  25.718  35.385  1.00  0.00     0.055 A 
ATOM     66  C   UNL A   1      46.484  27.536  34.750  1.00  0.00     0.041 A 
ATOM     67  F   UNL A   1      45.615  29.347  33.541  1.00  0.00    -0.206 F 
ATOM     68  C   UNL A   1      46.300  26.319  35.400  1.00  0.00     0.022 A 
BRANCH  65  69
ATOM     69  S   UNL A   1      44.734  24.207  36.340  1.00  0.00     0.124 S 
ATOM     70  O   UNL A   1      43.552  23.664  35.681  1.00  0.00    -0.237 OA
ATOM     71  O   UNL A   1      45.973  23.461  36.144  1.00  0.00    -0.237 OA
ATOM     72  O   UNL A   1      44.516  24.700  37.699  1.00  0.00    -0.744 OA
ENDBRANCH  65  69
ENDBRANCH  39  62
ENDBRANCH  13  14
ENDBRANCH   6   8
ENDBRANCH   5   6
ENDBRANCH   4   5
ENDBRANCH   3   4
ENDBRANCH   2   3
ENDBRANCH   1   2
BRANCH   1  73
ATOM     73  C   UNL A   1      32.815  29.661  24.849  1.00  0.00     0.261 C 
BRANCH  73  74
ATOM     74  O   UNL A   1      31.982  28.514  24.653  1.00  0.00    -0.463 OA
BRANCH  74  75
ATOM     75  C   UNL A   1      32.622  27.340  24.851  1.00  0.00     0.310 C 
ATOM     76  O   UNL A   1      33.777  27.100  24.529  1.00  0.00    -0.252 OA
BRANCH  75  77
ATOM     77  C   UNL A   1      31.714  26.309  25.477  1.00  0.00     0.116 C 
ATOM     78  C   UNL A   1      30.234  26.390  25.055  1.00  0.00     0.043 C 
ATOM     79  C   UNL A   1      32.378  24.952  25.317  1.00  0.00     0.097 C 
ATOM     80  C   UNL A   1      29.791  25.421  24.016  1.00  0.00    -0.030 C 
ATOM     81  C   UNL A   1      32.033  24.336  23.934  1.00  0.00     0.041 C 
ATOM     82  C   UNL A   1      30.608  24.505  23.491  1.00  0.00    -0.030 C 
BRANCH  79  83
ATOM     83  C   UNL A   1      32.101  23.969  26.446  1.00  0.00     0.228 C 
ATOM     84  O   UNL A   1      31.137  24.126  27.208  1.00  0.00    -0.274 OA
ATOM     85  N   UNL A   1      32.771  22.793  26.627  1.00  0.00    -0.325 N 
ATOM     86  H   UNL A   1      32.312  22.212  27.276  1.00  0.00     0.169 HD
BRANCH  85  87
ATOM     87  C   UNL A   1      33.943  22.188  26.133  1.00  0.00     0.054 A 
ATOM     88  C   UNL A   1      35.111  22.847  26.580  1.00  0.00     0.027 A 
ATOM     89  C   UNL A   1      34.078  21.189  25.139  1.00  0.00     0.063 A 
ATOM     90  C   UNL A   1      36.387  22.461  26.173  1.00  0.00     0.002 A 
ATOM     91  C   UNL A   1      35.389  20.775  24.792  1.00  0.00     0.016 A 
ATOM     92  C   UNL A   1      36.529  21.398  25.300  1.00  0.00     0.001 A 
BRANCH  89  93
ATOM     93  C   UNL A   1      33.050  20.542  24.246  1.00  0.00     0.253 C 
ATOM     94  O   UNL A   1      32.810  21.046  23.146  1.00  0.00    -0.269 OA
ATOM     95  N   UNL A   1      32.294  19.454  24.598  1.00  0.00    -0.345 N 
ATOM     96  H   UNL A   1      31.525  19.261  24.015  1.00  0.00     0.164 HD
BRANCH  95  97
ATOM     97  C   UNL A   1      32.476  18.563  25.701  1.00  0.00     0.191 C 
BRANCH  97  98
ATOM     98  C   UNL A   1      33.082  17.262  25.362  1.00  0.00     0.122 A 
ATOM     99  C   UNL A   1      32.671  15.986  25.690  1.00  0.00     0.047 A 
ATOM    100  O   UNL A   1      34.306  17.228  24.766  1.00  0.00    -0.467 OA
ATOM    101  C   UNL A   1      33.705  15.120  25.280  1.00  0.00     0.042 A 
ATOM    102  C   UNL A   1      34.675  15.920  24.720  1.00  0.00     0.195 A 
ENDBRANCH  97  98
ENDBRANCH  95  97
ENDBRANCH  89  93
ENDBRANCH  85  87
ENDBRANCH  79  83
ENDBRANCH  75  77
ENDBRANCH  74  75
ENDBRANCH  73  74
ENDBRANCH   1  73
TORSDOF 22
ENDMDL
MODEL 2
REMARK VINA RESULT:     -11.5      5.605     11.189
REMARK SMILES O=C(OCCOCCOC(=O)[C@H]1CC=CC[C@@H]1C(=O)Nc1ccccc1C(=O)NCc1ccco1)c1ccc(-c2c3nc(c(-c4cc(S(=O)(=O)[O-])ccc4F)c4ccc([nH]4)c(-c4cc(S(=O)(=O)[O-])ccc4F)c4nc(c(-c5cc(S(=O)(=O)[O-])ccc5F)c5ccc2[nH]5)C=C4)C=C3)cc1
REMARK SMILES IDX 7 1 6 2 5 3 4 4 3 5 2 6 1 7 36 8 37 9 98 10 38 11 97 12
REMARK SMILES IDX 39 13 40 14 41 15 91 16 42 17 96 18 90 19 92 20 43 21 95 22
REMARK SMILES IDX 89 23 88 24 44 26 76 27 56 28 75 29 57 30 60 31 74 32 93 33
REMARK SMILES IDX 58 34 59 35 73 37 94 38 61 39 45 40 46 41 54 42 47 43 53 44
REMARK SMILES IDX 55 45 52 46 48 47 49 48 50 49 51 50 77 51 78 52 86 53 79 54
REMARK SMILES IDX 85 55 87 56 84 57 80 58 81 59 82 60 83 61 62 62 63 63 71 64
REMARK SMILES IDX 64 65 70 66 72 67 69 68 65 69 66 70 67 71 68 72 8 73 9 74
REMARK SMILES IDX 10 75 11 76 12 77 13 78 17 79 14 80 16 81 15 82 18 83 19 84
REMARK SMILES IDX 20 85 21 87 22 88 26 89 23 90 25 91 24 92 27 93 28 94 29 95
REMARK SMILES IDX 30 97 31 98 32 99 35 100 33 101 34 102
REMARK H PARENT 92 25 60 36 20 86 29 96
REMARK Flexibility Score: inf
ROOT
ATOM      1  C   UNL A   1      38.282  22.339  25.851  1.00  0.00     0.202 C 
ENDROOT
BRANCH   1   2
ATOM      2  O   UNL A   1      38.115  21.282  24.903  1.00  0.00    -0.374 OA
BRANCH   2   3
ATOM      3  C   UNL A   1      38.478  19.952  25.292  1.00  0.00     0.202 C 
BRANCH   3   4
ATOM      4  C   UNL A   1      39.722  19.741  26.182  1.00  0.00     0.261 C 
BRANCH   4   5
ATOM      5  O   UNL A   1      40.874  19.248  25.479  1.00  0.00    -0.460 OA
BRANCH   5   6
ATOM      6  C   UNL A   1      42.183  19.470  25.763  1.00  0.00     0.338 C 
ATOM      7  O   UNL A   1      42.946  18.505  25.770  1.00  0.00    -0.246 OA
BRANCH   6   8
ATOM      8  C   UNL A   1      42.735  20.808  26.165  1.00  0.00     0.060 A 
ATOM      9  C   UNL A   1      42.905  21.240  27.478  1.00  0.00     0.016 A 
ATOM     10  C   UNL A   1      43.187  21.663  25.141  1.00  0.00     0.016 A 
ATOM     11  C   UNL A   1      43.465  22.461  27.786  1.00  0.00     0.010 A 
ATOM     12  C   UNL A   1      43.757  22.910  25.436  1.00  0.00     0.010 A 
ATOM     13  C   UNL A   1      43.873  23.310  26.769  1.00  0.00    -0.014 A 
BRANCH  13  14
ATOM     14  C   UNL A   1      44.197  24.676  27.205  1.00  0.00     0.031 A 
ATOM     15  C   UNL A   1      45.542  25.208  26.819  1.00  0.00     0.074 A 
ATOM     16  C   UNL A   1      43.203  25.471  27.639  1.00  0.00     0.049 A 
ATOM     17  N   UNL A   1      46.028  26.411  26.950  1.00  0.00    -0.248 NA
ATOM     18  C   UNL A   1      46.451  24.257  26.155  1.00  0.00     0.031 C 
ATOM     19  C   UNL A   1      41.812  25.043  27.829  1.00  0.00     0.029 A 
ATOM     20  N   UNL A   1      43.181  26.808  27.917  1.00  0.00    -0.354 N 
ATOM     21  C   UNL A   1      47.304  26.358  26.400  1.00  0.00     0.074 A 
ATOM     22  C   UNL A   1      47.518  25.006  25.936  1.00  0.00     0.031 C 
ATOM     23  C   UNL A   1      41.067  26.112  28.152  1.00  0.00     0.029 A 
ATOM     24  C   UNL A   1      41.935  27.279  28.259  1.00  0.00     0.049 A 
ATOM     25  H   UNL A   1      43.982  27.380  27.875  1.00  0.00     0.167 HD
ATOM     26  C   UNL A   1      48.214  27.357  26.311  1.00  0.00     0.034 A 
ATOM     27  C   UNL A   1      41.560  28.516  28.639  1.00  0.00     0.034 A 
ATOM     28  C   UNL A   1      47.957  28.679  26.820  1.00  0.00     0.049 A 
ATOM     29  C   UNL A   1      42.634  29.574  28.674  1.00  0.00     0.074 A 
ATOM     30  C   UNL A   1      48.816  29.754  26.932  1.00  0.00     0.029 A 
ATOM     31  N   UNL A   1      46.724  29.100  27.316  1.00  0.00    -0.354 N 
ATOM     32  N   UNL A   1      43.886  29.492  28.277  1.00  0.00    -0.248 NA
ATOM     33  C   UNL A   1      42.257  30.880  29.220  1.00  0.00     0.031 C 
ATOM     34  C   UNL A   1      48.122  30.800  27.552  1.00  0.00     0.029 A 
ATOM     35  C   UNL A   1      46.808  30.406  27.762  1.00  0.00     0.049 A 
ATOM     36  H   UNL A   1      45.910  28.545  27.345  1.00  0.00     0.167 HD
ATOM     37  C   UNL A   1      44.446  30.741  28.517  1.00  0.00     0.074 A 
ATOM     38  C   UNL A   1      43.382  31.563  29.067  1.00  0.00     0.031 C 
ATOM     39  C   UNL A   1      45.717  31.176  28.316  1.00  0.00     0.034 A 
BRANCH  26  40
ATOM     40  C   UNL A   1      49.577  26.977  25.785  1.00  0.00     0.023 A 
ATOM     41  C   UNL A   1      50.638  26.620  26.638  1.00  0.00     0.031 A 
ATOM     42  C   UNL A   1      49.855  27.123  24.415  1.00  0.00     0.131 A 
ATOM     43  C   UNL A   1      51.941  26.515  26.125  1.00  0.00     0.055 A 
ATOM     44  C   UNL A   1      51.138  26.935  23.898  1.00  0.00     0.041 A 
ATOM     45  F   UNL A   1      48.892  27.501  23.559  1.00  0.00    -0.206 F 
ATOM     46  C   UNL A   1      52.195  26.650  24.757  1.00  0.00     0.022 A 
BRANCH  43  47
ATOM     47  S   UNL A   1      53.330  26.387  27.288  1.00  0.00     0.124 S 
ATOM     48  O   UNL A   1      52.649  26.503  28.576  1.00  0.00    -0.237 OA
ATOM     49  O   UNL A   1      53.886  25.076  26.975  1.00  0.00    -0.237 OA
ATOM     50  O   UNL A   1      54.179  27.525  26.938  1.00  0.00    -0.744 OA
ENDBRANCH  43  47
ENDBRANCH  26  40
BRANCH  27  51
ATOM     51  C   UNL A   1      40.162  28.794  29.088  1.00  0.00     0.023 A 
ATOM     52  C   UNL A   1      39.808  28.806  30.447  1.00  0.00     0.031 A 
ATOM     53  C   UNL A   1      39.136  29.003  28.145  1.00  0.00     0.131 A 
ATOM     54  C   UNL A   1      38.465  28.988  30.821  1.00  0.00     0.055 A 
ATOM     55  C   UNL A   1      37.813  29.238  28.524  1.00  0.00     0.041 A 
ATOM     56  F   UNL A   1      39.405  28.987  26.830  1.00  0.00    -0.206 F 
ATOM     57  C   UNL A   1      37.469  29.219  29.870  1.00  0.00     0.022 A 
BRANCH  54  58
ATOM     58  S   UNL A   1      38.013  28.828  32.573  1.00  0.00     0.124 S 
ATOM     59  O   UNL A   1      38.095  27.385  32.771  1.00  0.00    -0.237 OA
ATOM     60  O   UNL A   1      39.044  29.626  33.227  1.00  0.00    -0.237 OA
ATOM     61  O   UNL A   1      36.665  29.389  32.629  1.00  0.00    -0.744 OA
ENDBRANCH  54  58
ENDBRANCH  27  51
BRANCH  39  62
ATOM     62  C   UNL A   1      45.991  32.613  28.673  1.00  0.00     0.023 A 
ATOM     63  C   UNL A   1      45.727  33.656  27.769  1.00  0.00     0.031 A 
ATOM     64  C   UNL A   1      46.537  32.936  29.927  1.00  0.00     0.131 A 
ATOM     65  C   UNL A   1      46.070  34.970  28.108  1.00  0.00     0.055 A 
ATOM     66  C   UNL A   1      46.819  34.254  30.282  1.00  0.00     0.041 A 
ATOM     67  F   UNL A   1      46.806  31.973  30.824  1.00  0.00    -0.206 F 
ATOM     68  C   UNL A   1      46.599  35.278  29.365  1.00  0.00     0.022 A 
BRANCH  65  69
ATOM     69  S   UNL A   1      45.905  36.261  26.846  1.00  0.00     0.124 S 
ATOM     70  O   UNL A   1      46.307  35.555  25.635  1.00  0.00    -0.237 OA
ATOM     71  O   UNL A   1      44.491  36.611  26.941  1.00  0.00    -0.237 OA
ATOM     72  O   UNL A   1      46.831  37.299  27.296  1.00  0.00    -0.744 OA
ENDBRANCH  65  69
ENDBRANCH  39  62
ENDBRANCH  13  14
ENDBRANCH   6   8
ENDBRANCH   5   6
ENDBRANCH   4   5
ENDBRANCH   3   4
ENDBRANCH   2   3
ENDBRANCH   1   2
BRANCH   1  73
ATOM     73  C   UNL A   1      37.331  23.500  25.568  1.00  0.00     0.261 C 
BRANCH  73  74
ATOM     74  O   UNL A   1      36.199  23.328  26.427  1.00  0.00    -0.463 OA
BRANCH  74  75
ATOM     75  C   UNL A   1      35.265  22.487  25.929  1.00  0.00     0.310 C 
ATOM     76  O   UNL A   1      34.911  21.436  26.445  1.00  0.00    -0.252 OA
BRANCH  75  77
ATOM     77  C   UNL A   1      34.734  22.968  24.601  1.00  0.00     0.116 C 
ATOM     78  C   UNL A   1      34.187  21.867  23.671  1.00  0.00     0.043 C 
ATOM     79  C   UNL A   1      33.799  24.132  24.872  1.00  0.00     0.097 C 
ATOM     80  C   UNL A   1      32.708  21.706  23.638  1.00  0.00    -0.030 C 
ATOM     81  C   UNL A   1      32.369  23.620  25.197  1.00  0.00     0.041 C 
ATOM     82  C   UNL A   1      31.884  22.483  24.344  1.00  0.00    -0.030 C 
BRANCH  79  83
ATOM     83  C   UNL A   1      33.772  25.198  23.785  1.00  0.00     0.228 C 
ATOM     84  O   UNL A   1      34.090  24.927  22.618  1.00  0.00    -0.274 OA
ATOM     85  N   UNL A   1      33.276  26.459  23.951  1.00  0.00    -0.325 N 
ATOM     86  H   UNL A   1      33.160  26.918  23.087  1.00  0.00     0.169 HD
BRANCH  85  87
ATOM     87  C   UNL A   1      32.884  27.279  25.027  1.00  0.00     0.054 A 
ATOM     88  C   UNL A   1      33.989  27.905  25.648  1.00  0.00     0.027 A 
ATOM     89  C   UNL A   1      31.619  27.383  25.653  1.00  0.00     0.063 A 
ATOM     90  C   UNL A   1      33.852  28.718  26.772  1.00  0.00     0.002 A 
ATOM     91  C   UNL A   1      31.497  28.266  26.756  1.00  0.00     0.016 A 
ATOM     92  C   UNL A   1      32.595  28.926  27.309  1.00  0.00     0.001 A 
BRANCH  89  93
ATOM     93  C   UNL A   1      30.348  26.601  25.440  1.00  0.00     0.253 C 
ATOM     94  O   UNL A   1      29.938  25.867  26.342  1.00  0.00    -0.269 OA
ATOM     95  N   UNL A   1      29.634  26.589  24.269  1.00  0.00    -0.345 N 
ATOM     96  H   UNL A   1      28.949  25.886  24.195  1.00  0.00     0.164 HD
BRANCH  95  97
ATOM     97  C   UNL A   1      29.753  27.463  23.145  1.00  0.00     0.191 C 
BRANCH  97  98
ATOM     98  C   UNL A   1      29.067  28.761  23.284  1.00  0.00     0.122 A 
ATOM     99  C   UNL A   1      27.767  29.109  22.977  1.00  0.00     0.047 A 
ATOM    100  O   UNL A   1      29.788  29.867  23.617  1.00  0.00    -0.467 OA
ATOM    101  C   UNL A   1      27.687  30.508  23.122  1.00  0.00     0.042 A 
ATOM    102  C   UNL A   1      28.938  30.925  23.516  1.00  0.00     0.195 A 
ENDBRANCH  97  98
ENDBRANCH  95  97
ENDBRANCH  89  93
ENDBRANCH  85  87
ENDBRANCH  79  83
ENDBRANCH  75  77
ENDBRANCH  74  75
ENDBRANCH  73  74
ENDBRANCH   1  73
TORSDOF 22
ENDMDL
MODEL 3
REMARK VINA RESULT:     -11.2      4.497     10.464
REMARK SMILES O=C(OCCOCCOC(=O)[C@H]1CC=CC[C@@H]1C(=O)Nc1ccccc1C(=O)NCc1ccco1)c1ccc(-c2c3nc(c(-c4cc(S(=O)(=O)[O-])ccc4F)c4ccc([nH]4)c(-c4cc(S(=O)(=O)[O-])ccc4F)c4nc(c(-c5cc(S(=O)(=O)[O-])ccc5F)c5ccc2[nH]5)C=C4)C=C3)cc1
REMARK SMILES IDX 7 1 6 2 5 3 4 4 3 5 2 6 1 7 36 8 37 9 98 10 38 11 97 12
REMARK SMILES IDX 39 13 40 14 41 15 91 16 42 17 96 18 90 19 92 20 43 21 95 22
REMARK SMILES IDX 89 23 88 24 44 26 76 27 56 28 75 29 57 30 60 31 74 32 93 33
REMARK SMILES IDX 58 34 59 35 73 37 94 38 61 39 45 40 46 41 54 42 47 43 53 44
REMARK SMILES IDX 55 45 52 46 48 47 49 48 50 49 51 50 77 51 78 52 86 53 79 54
REMARK SMILES IDX 85 55 87 56 84 57 80 58 81 59 82 60 83 61 62 62 63 63 71 64
REMARK SMILES IDX 64 65 70 66 72 67 69 68 65 69 66 70 67 71 68 72 8 73 9 74
REMARK SMILES IDX 10 75 11 76 12 77 13 78 17 79 14 80 16 81 15 82 18 83 19 84
REMARK SMILES IDX 20 85 21 87 22 88 26 89 23 90 25 91 24 92 27 93 28 94 29 95
REMARK SMILES IDX 30 97 31 98 32 99 35 100 33 101 34 102
REMARK H PARENT 92 25 60 36 20 86 29 96
REMARK Flexibility Score: inf
ROOT
ATOM      1  C   UNL A   1      36.454  22.576  23.572  1.00  0.00     0.202 C 
ENDROOT
BRANCH   1   2
ATOM      2  O   UNL A   1      36.549  21.320  24.249  1.00  0.00    -0.374 OA
BRANCH   2   3
ATOM      3  C   UNL A   1      37.437  21.214  25.368  1.00  0.00     0.202 C 
BRANCH   3   4
ATOM      4  C   UNL A   1      38.551  20.145  25.348  1.00  0.00     0.261 C 
BRANCH   4   5
ATOM      5  O   UNL A   1      39.873  20.667  25.561  1.00  0.00    -0.460 OA
BRANCH   5   6
ATOM      6  C   UNL A   1      40.495  20.906  26.744  1.00  0.00     0.338 C 
ATOM      7  O   UNL A   1      40.728  19.948  27.480  1.00  0.00    -0.246 OA
BRANCH   6   8
ATOM      8  C   UNL A   1      40.824  22.281  27.252  1.00  0.00     0.060 A 
ATOM      9  C   UNL A   1      40.277  23.466  26.764  1.00  0.00     0.016 A 
ATOM     10  C   UNL A   1      41.696  22.379  28.354  1.00  0.00     0.016 A 
ATOM     11  C   UNL A   1      40.581  24.696  27.305  1.00  0.00     0.010 A 
ATOM     12  C   UNL A   1      42.018  23.623  28.915  1.00  0.00     0.010 A 
ATOM     13  C   UNL A   1      41.467  24.783  28.367  1.00  0.00    -0.014 A 
BRANCH  13  14
ATOM     14  C   UNL A   1      41.919  26.147  28.677  1.00  0.00     0.031 A 
ATOM     15  C   UNL A   1      43.234  26.573  28.101  1.00  0.00     0.074 A 
ATOM     16  C   UNL A   1      41.033  27.025  29.179  1.00  0.00     0.049 A 
ATOM     17  N   UNL A   1      43.800  27.748  28.099  1.00  0.00    -0.248 NA
ATOM     18  C   UNL A   1      43.999  25.533  27.389  1.00  0.00     0.031 C 
ATOM     19  C   UNL A   1      39.654  26.697  29.561  1.00  0.00     0.029 A 
ATOM     20  N   UNL A   1      41.121  28.374  29.377  1.00  0.00    -0.354 N 
ATOM     21  C   UNL A   1      44.992  27.585  27.404  1.00  0.00     0.074 A 
ATOM     22  C   UNL A   1      45.070  26.200  26.999  1.00  0.00     0.031 C 
ATOM     23  C   UNL A   1      39.017  27.826  29.907  1.00  0.00     0.029 A 
ATOM     24  C   UNL A   1      39.955  28.940  29.838  1.00  0.00     0.049 A 
ATOM     25  H   UNL A   1      41.941  28.891  29.205  1.00  0.00     0.167 HD
ATOM     26  C   UNL A   1      45.939  28.519  27.145  1.00  0.00     0.034 A 
ATOM     27  C   UNL A   1      39.700  30.216  30.186  1.00  0.00     0.034 A 
ATOM     28  C   UNL A   1      45.821  29.880  27.601  1.00  0.00     0.049 A 
ATOM     29  C   UNL A   1      40.829  31.205  30.027  1.00  0.00     0.074 A 
ATOM     30  C   UNL A   1      46.747  30.903  27.544  1.00  0.00     0.029 A 
ATOM     31  N   UNL A   1      44.685  30.403  28.216  1.00  0.00    -0.354 N 
ATOM     32  N   UNL A   1      42.015  31.024  29.487  1.00  0.00    -0.248 NA
ATOM     33  C   UNL A   1      40.596  32.560  30.535  1.00  0.00     0.031 C 
ATOM     34  C   UNL A   1      46.195  32.022  28.179  1.00  0.00     0.029 A 
ATOM     35  C   UNL A   1      44.897  31.723  28.570  1.00  0.00     0.049 A 
ATOM     36  H   UNL A   1      43.851  29.903  28.376  1.00  0.00     0.167 HD
ATOM     37  C   UNL A   1      42.669  32.246  29.583  1.00  0.00     0.074 A 
ATOM     38  C   UNL A   1      41.730  33.161  30.206  1.00  0.00     0.031 C 
ATOM     39  C   UNL A   1      43.928  32.589  29.204  1.00  0.00     0.034 A 
BRANCH  26  40
ATOM     40  C   UNL A   1      47.202  28.027  26.482  1.00  0.00     0.023 A 
ATOM     41  C   UNL A   1      47.430  28.173  25.100  1.00  0.00     0.031 A 
ATOM     42  C   UNL A   1      48.122  27.265  27.224  1.00  0.00     0.131 A 
ATOM     43  C   UNL A   1      48.496  27.489  24.493  1.00  0.00     0.055 A 
ATOM     44  C   UNL A   1      49.227  26.656  26.626  1.00  0.00     0.041 A 
ATOM     45  F   UNL A   1      47.935  27.058  28.537  1.00  0.00    -0.206 F 
ATOM     46  C   UNL A   1      49.407  26.748  25.250  1.00  0.00     0.022 A 
BRANCH  43  47
ATOM     47  S   UNL A   1      48.570  27.422  22.679  1.00  0.00     0.124 S 
ATOM     48  O   UNL A   1      49.786  28.186  22.405  1.00  0.00    -0.237 OA
ATOM     49  O   UNL A   1      48.643  25.990  22.418  1.00  0.00    -0.237 OA
ATOM     50  O   UNL A   1      47.329  28.071  22.259  1.00  0.00    -0.744 OA
ENDBRANCH  43  47
ENDBRANCH  26  40
BRANCH  27  51
ATOM     51  C   UNL A   1      38.387  30.606  30.782  1.00  0.00     0.023 A 
ATOM     52  C   UNL A   1      37.389  31.242  30.026  1.00  0.00     0.031 A 
ATOM     53  C   UNL A   1      38.131  30.393  32.151  1.00  0.00     0.131 A 
ATOM     54  C   UNL A   1      36.202  31.669  30.648  1.00  0.00     0.055 A 
ATOM     55  C   UNL A   1      36.929  30.768  32.752  1.00  0.00     0.041 A 
ATOM     56  F   UNL A   1      39.052  29.805  32.933  1.00  0.00    -0.206 F 
ATOM     57  C   UNL A   1      35.959  31.422  32.001  1.00  0.00     0.022 A 
BRANCH  54  58
ATOM     58  S   UNL A   1      35.006  32.638  29.684  1.00  0.00     0.124 S 
ATOM     59  O   UNL A   1      34.096  33.107  30.723  1.00  0.00    -0.237 OA
ATOM     60  O   UNL A   1      35.859  33.650  29.072  1.00  0.00    -0.237 OA
ATOM     61  O   UNL A   1      34.442  31.658  28.757  1.00  0.00    -0.744 OA
ENDBRANCH  54  58
ENDBRANCH  27  51
BRANCH  39  62
ATOM     62  C   UNL A   1      44.324  34.022  29.439  1.00  0.00     0.023 A 
ATOM     63  C   UNL A   1      44.801  34.455  30.687  1.00  0.00     0.031 A 
ATOM     64  C   UNL A   1      44.204  34.965  28.404  1.00  0.00     0.131 A 
ATOM     65  C   UNL A   1      45.083  35.811  30.889  1.00  0.00     0.055 A 
ATOM     66  C   UNL A   1      44.546  36.303  28.593  1.00  0.00     0.041 A 
ATOM     67  F   UNL A   1      43.753  34.598  27.193  1.00  0.00    -0.206 F 
ATOM     68  C   UNL A   1      44.974  36.735  29.846  1.00  0.00     0.022 A 
BRANCH  65  69
ATOM     69  S   UNL A   1      45.502  36.370  32.562  1.00  0.00     0.124 S 
ATOM     70  O   UNL A   1      46.010  37.715  32.315  1.00  0.00    -0.237 OA
ATOM     71  O   UNL A   1      44.216  36.290  33.248  1.00  0.00    -0.237 OA
ATOM     72  O   UNL A   1      46.502  35.400  33.006  1.00  0.00    -0.744 OA
ENDBRANCH  65  69
ENDBRANCH  39  62
ENDBRANCH  13  14
ENDBRANCH   6   8
ENDBRANCH   5   6
ENDBRANCH   4   5
ENDBRANCH   3   4
ENDBRANCH   2   3
ENDBRANCH   1   2
BRANCH   1  73
ATOM     73  C   UNL A   1      36.624  23.746  24.539  1.00  0.00     0.261 C 
BRANCH  73  74
ATOM     74  O   UNL A   1      35.383  24.459  24.549  1.00  0.00    -0.463 OA
BRANCH  74  75
ATOM     75  C   UNL A   1      34.571  24.115  25.574  1.00  0.00     0.310 C 
ATOM     76  O   UNL A   1      34.942  23.772  26.688  1.00  0.00    -0.252 OA
BRANCH  75  77
ATOM     77  C   UNL A   1      33.117  24.144  25.167  1.00  0.00     0.116 C 
ATOM     78  C   UNL A   1      32.764  23.308  23.921  1.00  0.00     0.043 C 
ATOM     79  C   UNL A   1      32.285  23.872  26.407  1.00  0.00     0.097 C 
ATOM     80  C   UNL A   1      32.150  21.977  24.173  1.00  0.00    -0.030 C 
ATOM     81  C   UNL A   1      32.134  22.344  26.638  1.00  0.00     0.041 C 
ATOM     82  C   UNL A   1      31.884  21.528  25.402  1.00  0.00    -0.030 C 
BRANCH  79  83
ATOM     83  C   UNL A   1      30.934  24.573  26.437  1.00  0.00     0.228 C 
ATOM     84  O   UNL A   1      29.890  23.939  26.644  1.00  0.00    -0.274 OA
ATOM     85  N   UNL A   1      30.766  25.927  26.391  1.00  0.00    -0.325 N 
ATOM     86  H   UNL A   1      29.845  26.185  26.629  1.00  0.00     0.169 HD
BRANCH  85  87
ATOM     87  C   UNL A   1      31.556  27.055  26.094  1.00  0.00     0.054 A 
ATOM     88  C   UNL A   1      31.759  27.875  27.226  1.00  0.00     0.027 A 
ATOM     89  C   UNL A   1      31.972  27.543  24.832  1.00  0.00     0.063 A 
ATOM     90  C   UNL A   1      32.462  29.077  27.161  1.00  0.00     0.002 A 
ATOM     91  C   UNL A   1      32.739  28.735  24.804  1.00  0.00     0.016 A 
ATOM     92  C   UNL A   1      32.983  29.493  25.949  1.00  0.00     0.001 A 
BRANCH  89  93
ATOM     93  C   UNL A   1      31.631  27.084  23.437  1.00  0.00     0.253 C 
ATOM     94  O   UNL A   1      32.521  26.607  22.729  1.00  0.00    -0.269 OA
ATOM     95  N   UNL A   1      30.397  27.223  22.857  1.00  0.00    -0.345 N 
ATOM     96  H   UNL A   1      30.363  27.074  21.884  1.00  0.00     0.164 HD
BRANCH  95  97
ATOM     97  C   UNL A   1      29.154  27.554  23.479  1.00  0.00     0.191 C 
BRANCH  97  98
ATOM     98  C   UNL A   1      28.729  28.958  23.321  1.00  0.00     0.122 A 
ATOM     99  C   UNL A   1      27.593  29.476  22.736  1.00  0.00     0.047 A 
ATOM    100  O   UNL A   1      29.597  29.959  23.642  1.00  0.00    -0.467 OA
ATOM    101  C   UNL A   1      27.774  30.873  22.685  1.00  0.00     0.042 A 
ATOM    102  C   UNL A   1      29.005  31.120  23.251  1.00  0.00     0.195 A 
ENDBRANCH  97  98
ENDBRANCH  95  97
ENDBRANCH  89  93
ENDBRANCH  85  87
ENDBRANCH  79  83
ENDBRANCH  75  77
ENDBRANCH  74  75
ENDBRANCH  73  74
ENDBRANCH   1  73
TORSDOF 22
ENDMDL
