MODEL 1
REMARK VINA RESULT:     -11.5      0.000      0.000
REMARK SMILES CC(C)(C)OC(=O)N[C@@H](Cc1c[nH]c2cccc(Cl)c12)C(=O)OCCOCCOC(=O)c1ccc(-c2c3nc(c(-c4cc(S(=O)(=O)[O-])ccc4F)c4ccc([nH]4)c(-c4cc(S(=O)(=O)[O-])ccc4F)c4nc(c(-c5cc(S(=O)(=O)[O-])ccc5F)c5ccc2[nH]5)C=C4)C=C3)cc1
REMARK SMILES IDX 26 1 25 2 24 3 23 4 21 5 22 6 9 7 8 8 6 9 7 10 5 12 2 13
REMARK SMILES IDX 1 14 3 15 4 16 10 17 11 18 12 19 20 20 13 21 14 22 18 23
REMARK SMILES IDX 15 25 17 26 19 27 16 28 27 29 28 30 29 31 30 32 31 33 32 34
REMARK SMILES IDX 33 35 94 36 34 37 93 38 35 39 36 40 37 41 87 42 38 43 92 44
REMARK SMILES IDX 86 45 88 46 39 47 91 48 85 49 84 50 40 52 72 53 52 54 71 55
REMARK SMILES IDX 53 56 56 57 70 58 89 59 54 60 55 61 69 63 90 64 57 65 41 66
REMARK SMILES IDX 42 67 50 68 43 69 49 70 51 71 48 72 44 73 45 74 46 75 47 76
REMARK SMILES IDX 73 77 74 78 82 79 75 80 81 81 83 82 80 83 76 84 77 85 78 86
REMARK SMILES IDX 79 87 58 88 59 89 67 90 60 91 66 92 68 93 65 94 61 95 62 96
REMARK SMILES IDX 63 97 64 98
REMARK H PARENT 8 11 13 24 88 51 56 62
REMARK Flexibility Score: inf
ROOT
ATOM      1  O   UNL A   1      35.737  20.963  24.624  1.00  0.00    -0.374 OA
ENDROOT
BRANCH   1   2
ATOM      2  C   UNL A   1      34.880  22.072  24.869  1.00  0.00     0.202 C 
BRANCH   2   3
ATOM      3  C   UNL A   1      34.632  23.095  23.765  1.00  0.00     0.261 C 
BRANCH   3   4
ATOM      4  O   UNL A   1      33.779  24.185  24.138  1.00  0.00    -0.462 OA
BRANCH   4   5
ATOM      5  C   UNL A   1      33.169  24.821  23.095  1.00  0.00     0.329 C 
ATOM      6  O   UNL A   1      33.712  25.108  22.033  1.00  0.00    -0.250 OA
BRANCH   5   7
ATOM      7  C   UNL A   1      31.739  25.248  23.420  1.00  0.00     0.200 C 
BRANCH   7   8
ATOM      8  N   UNL A   1      31.603  26.016  24.663  1.00  0.00    -0.308 N 
ATOM      9  C   UNL A   1      30.874  25.702  25.768  1.00  0.00     0.408 C 
ATOM     10  O   UNL A   1      30.837  26.467  26.728  1.00  0.00    -0.225 OA
ATOM     11  H   UNL A   1      32.103  26.863  24.703  1.00  0.00     0.168 HD
BRANCH   9  12
ATOM     12  O   UNL A   1      30.229  24.513  25.690  1.00  0.00    -0.444 OA
BRANCH  12  13
ATOM     13  C   UNL A   1      30.790  23.320  26.318  1.00  0.00     0.106 C 
ATOM     14  C   UNL A   1      29.688  22.801  27.258  1.00  0.00     0.056 C 
ATOM     15  C   UNL A   1      32.019  23.670  27.167  1.00  0.00     0.056 C 
ATOM     16  C   UNL A   1      31.104  22.209  25.306  1.00  0.00     0.056 C 
ENDBRANCH  12  13
ENDBRANCH   9  12
ENDBRANCH   7   8
BRANCH   7  17
ATOM     17  C   UNL A   1      31.174  26.008  22.194  1.00  0.00     0.075 C 
BRANCH  17  18
ATOM     18  C   UNL A   1      30.986  27.491  22.414  1.00  0.00    -0.018 A 
ATOM     19  C   UNL A   1      31.993  28.424  22.234  1.00  0.00     0.087 A 
ATOM     20  C   UNL A   1      29.791  28.233  22.756  1.00  0.00     0.021 A 
ATOM     21  N   UNL A   1      31.456  29.674  22.341  1.00  0.00    -0.361 N 
ATOM     22  C   UNL A   1      30.104  29.588  22.573  1.00  0.00     0.047 A 
ATOM     23  C   UNL A   1      28.456  27.957  23.138  1.00  0.00     0.050 A 
ATOM     24  H   UNL A   1      31.962  30.514  22.262  1.00  0.00     0.166 HD
ATOM     25  C   UNL A   1      29.151  30.616  22.639  1.00  0.00     0.027 A 
ATOM     26  C   UNL A   1      27.478  28.955  23.175  1.00  0.00     0.021 A 
ATOM     27  Cl  UNL A   1      28.067  26.373  23.644  1.00  0.00    -0.084 Cl
ATOM     28  C   UNL A   1      27.824  30.272  22.902  1.00  0.00     0.004 A 
ENDBRANCH  17  18
ENDBRANCH   7  17
ENDBRANCH   5   7
ENDBRANCH   4   5
ENDBRANCH   3   4
ENDBRANCH   2   3
ENDBRANCH   1   2
BRANCH   1  29
ATOM     29  C   UNL A   1      36.917  20.767  25.393  1.00  0.00     0.202 C 
BRANCH  29  30
ATOM     30  C   UNL A   1      38.142  21.646  25.168  1.00  0.00     0.261 C 
BRANCH  30  31
ATOM     31  O   UNL A   1      38.593  22.315  26.334  1.00  0.00    -0.460 OA
BRANCH  31  32
ATOM     32  C   UNL A   1      38.293  23.632  26.297  1.00  0.00     0.338 C 
ATOM     33  O   UNL A   1      37.352  24.149  25.713  1.00  0.00    -0.246 OA
BRANCH  32  34
ATOM     34  C   UNL A   1      39.361  24.415  26.917  1.00  0.00     0.060 A 
ATOM     35  C   UNL A   1      39.158  24.670  28.272  1.00  0.00     0.016 A 
ATOM     36  C   UNL A   1      40.153  25.236  26.100  1.00  0.00     0.016 A 
ATOM     37  C   UNL A   1      39.466  25.925  28.725  1.00  0.00     0.010 A 
ATOM     38  C   UNL A   1      40.471  26.490  26.565  1.00  0.00     0.010 A 
ATOM     39  C   UNL A   1      40.024  26.851  27.832  1.00  0.00    -0.014 A 
BRANCH  39  40
ATOM     40  C   UNL A   1      40.279  28.173  28.354  1.00  0.00     0.031 A 
ATOM     41  C   UNL A   1      41.565  28.674  27.840  1.00  0.00     0.074 A 
ATOM     42  C   UNL A   1      39.461  28.843  29.187  1.00  0.00     0.049 A 
ATOM     43  N   UNL A   1      42.710  28.578  28.429  1.00  0.00    -0.248 NA
ATOM     44  C   UNL A   1      41.642  29.031  26.415  1.00  0.00     0.031 C 
ATOM     45  C   UNL A   1      38.066  28.546  29.520  1.00  0.00     0.029 A 
ATOM     46  N   UNL A   1      39.698  29.999  29.864  1.00  0.00    -0.354 N 
ATOM     47  C   UNL A   1      43.606  29.155  27.543  1.00  0.00     0.074 A 
ATOM     48  C   UNL A   1      42.963  29.141  26.255  1.00  0.00     0.031 C 
ATOM     49  C   UNL A   1      37.516  29.627  30.128  1.00  0.00     0.029 A 
ATOM     50  C   UNL A   1      38.559  30.607  30.376  1.00  0.00     0.049 A 
ATOM     51  H   UNL A   1      40.602  30.373  29.981  1.00  0.00     0.167 HD
ATOM     52  C   UNL A   1      44.612  29.943  28.012  1.00  0.00     0.034 A 
ATOM     53  C   UNL A   1      38.497  31.848  30.922  1.00  0.00     0.034 A 
ATOM     54  C   UNL A   1      44.753  29.803  29.437  1.00  0.00     0.049 A 
ATOM     55  C   UNL A   1      39.862  32.220  31.351  1.00  0.00     0.074 A 
ATOM     56  C   UNL A   1      45.290  28.882  30.306  1.00  0.00     0.029 A 
ATOM     57  N   UNL A   1      43.871  30.578  30.146  1.00  0.00    -0.354 N 
ATOM     58  N   UNL A   1      40.483  31.643  32.342  1.00  0.00    -0.248 NA
ATOM     59  C   UNL A   1      40.705  33.001  30.450  1.00  0.00     0.031 C 
ATOM     60  C   UNL A   1      44.609  29.058  31.545  1.00  0.00     0.029 A 
ATOM     61  C   UNL A   1      43.705  30.111  31.420  1.00  0.00     0.049 A 
ATOM     62  H   UNL A   1      43.416  31.372  29.784  1.00  0.00     0.167 HD
ATOM     63  C   UNL A   1      41.800  31.614  31.934  1.00  0.00     0.074 A 
ATOM     64  C   UNL A   1      41.909  32.610  30.877  1.00  0.00     0.031 C 
ATOM     65  C   UNL A   1      42.598  30.556  32.239  1.00  0.00     0.034 A 
BRANCH  52  66
ATOM     66  C   UNL A   1      45.070  31.194  27.302  1.00  0.00     0.023 A 
ATOM     67  C   UNL A   1      44.276  32.352  27.224  1.00  0.00     0.031 A 
ATOM     68  C   UNL A   1      46.412  31.341  26.909  1.00  0.00     0.131 A 
ATOM     69  C   UNL A   1      44.771  33.560  26.728  1.00  0.00     0.055 A 
ATOM     70  C   UNL A   1      46.933  32.571  26.483  1.00  0.00     0.041 A 
ATOM     71  F   UNL A   1      47.266  30.308  26.978  1.00  0.00    -0.206 F 
ATOM     72  C   UNL A   1      46.109  33.688  26.384  1.00  0.00     0.022 A 
BRANCH  69  73
ATOM     73  S   UNL A   1      43.664  34.987  26.560  1.00  0.00     0.124 S 
ATOM     74  O   UNL A   1      44.599  36.104  26.594  1.00  0.00    -0.237 OA
ATOM     75  O   UNL A   1      43.039  34.718  25.268  1.00  0.00    -0.237 OA
ATOM     76  O   UNL A   1      42.772  34.865  27.711  1.00  0.00    -0.744 OA
ENDBRANCH  69  73
ENDBRANCH  52  66
BRANCH  53  77
ATOM     77  C   UNL A   1      37.454  32.887  30.756  1.00  0.00     0.023 A 
ATOM     78  C   UNL A   1      36.714  33.313  31.873  1.00  0.00     0.031 A 
ATOM     79  C   UNL A   1      36.933  33.180  29.481  1.00  0.00     0.131 A 
ATOM     80  C   UNL A   1      35.464  33.925  31.697  1.00  0.00     0.055 A 
ATOM     81  C   UNL A   1      35.693  33.804  29.309  1.00  0.00     0.041 A 
ATOM     82  F   UNL A   1      37.581  32.784  28.373  1.00  0.00    -0.206 F 
ATOM     83  C   UNL A   1      34.942  34.161  30.424  1.00  0.00     0.022 A 
BRANCH  80  84
ATOM     84  S   UNL A   1      34.445  34.352  33.136  1.00  0.00     0.124 S 
ATOM     85  O   UNL A   1      35.116  35.542  33.651  1.00  0.00    -0.237 OA
ATOM     86  O   UNL A   1      33.143  34.583  32.519  1.00  0.00    -0.237 OA
ATOM     87  O   UNL A   1      34.548  33.170  33.986  1.00  0.00    -0.744 OA
ENDBRANCH  80  84
ENDBRANCH  53  77
BRANCH  65  88
ATOM     88  C   UNL A   1      42.242  29.716  33.428  1.00  0.00     0.023 A 
ATOM     89  C   UNL A   1      42.989  29.964  34.588  1.00  0.00     0.031 A 
ATOM     90  C   UNL A   1      41.366  28.619  33.422  1.00  0.00     0.131 A 
ATOM     91  C   UNL A   1      42.909  29.097  35.677  1.00  0.00     0.055 A 
ATOM     92  C   UNL A   1      41.237  27.788  34.540  1.00  0.00     0.041 A 
ATOM     93  F   UNL A   1      40.673  28.284  32.323  1.00  0.00    -0.206 F 
ATOM     94  C   UNL A   1      42.026  28.014  35.669  1.00  0.00     0.022 A 
BRANCH  91  95
ATOM     95  S   UNL A   1      44.053  29.293  37.063  1.00  0.00     0.124 S 
ATOM     96  O   UNL A   1      45.289  29.687  36.393  1.00  0.00    -0.237 OA
ATOM     97  O   UNL A   1      43.404  30.339  37.850  1.00  0.00    -0.237 OA
ATOM     98  O   UNL A   1      44.081  27.975  37.691  1.00  0.00    -0.744 OA
ENDBRANCH  91  95
ENDBRANCH  65  88
ENDBRANCH  39  40
ENDBRANCH  32  34
ENDBRANCH  31  32
ENDBRANCH  30  31
ENDBRANCH  29  30
ENDBRANCH   1  29
TORSDOF 22
ENDMDL
MODEL 2
REMARK VINA RESULT:     -11.2      3.132      9.098
REMARK SMILES CC(C)(C)OC(=O)N[C@@H](Cc1c[nH]c2cccc(Cl)c12)C(=O)OCCOCCOC(=O)c1ccc(-c2c3nc(c(-c4cc(S(=O)(=O)[O-])ccc4F)c4ccc([nH]4)c(-c4cc(S(=O)(=O)[O-])ccc4F)c4nc(c(-c5cc(S(=O)(=O)[O-])ccc5F)c5ccc2[nH]5)C=C4)C=C3)cc1
REMARK SMILES IDX 26 1 25 2 24 3 23 4 21 5 22 6 9 7 8 8 6 9 7 10 5 12 2 13
REMARK SMILES IDX 1 14 3 15 4 16 10 17 11 18 12 19 20 20 13 21 14 22 18 23
REMARK SMILES IDX 15 25 17 26 19 27 16 28 27 29 28 30 29 31 30 32 31 33 32 34
REMARK SMILES IDX 33 35 94 36 34 37 93 38 35 39 36 40 37 41 87 42 38 43 92 44
REMARK SMILES IDX 86 45 88 46 39 47 91 48 85 49 84 50 40 52 72 53 52 54 71 55
REMARK SMILES IDX 53 56 56 57 70 58 89 59 54 60 55 61 69 63 90 64 57 65 41 66
REMARK SMILES IDX 42 67 50 68 43 69 49 70 51 71 48 72 44 73 45 74 46 75 47 76
REMARK SMILES IDX 73 77 74 78 82 79 75 80 81 81 83 82 80 83 76 84 77 85 78 86
REMARK SMILES IDX 79 87 58 88 59 89 67 90 60 91 66 92 68 93 65 94 61 95 62 96
REMARK SMILES IDX 63 97 64 98
REMARK H PARENT 8 11 13 24 88 51 56 62
REMARK Flexibility Score: inf
ROOT
ATOM      1  O   UNL A   1      34.511  32.946  27.830  1.00  0.00    -0.374 OA
ENDROOT
BRANCH   1   2
ATOM      2  C   UNL A   1      34.334  31.568  28.136  1.00  0.00     0.202 C 
BRANCH   2   3
ATOM      3  C   UNL A   1      33.475  30.695  27.226  1.00  0.00     0.261 C 
BRANCH   3   4
ATOM      4  O   UNL A   1      33.926  29.340  27.095  1.00  0.00    -0.462 OA
BRANCH   4   5
ATOM      5  C   UNL A   1      32.932  28.407  27.035  1.00  0.00     0.329 C 
ATOM      6  O   UNL A   1      32.103  28.206  27.917  1.00  0.00    -0.250 OA
BRANCH   5   7
ATOM      7  C   UNL A   1      33.013  27.540  25.780  1.00  0.00     0.200 C 
BRANCH   7   8
ATOM      8  N   UNL A   1      33.515  28.240  24.592  1.00  0.00    -0.308 N 
ATOM      9  C   UNL A   1      32.797  28.878  23.628  1.00  0.00     0.408 C 
ATOM     10  O   UNL A   1      33.364  29.397  22.670  1.00  0.00    -0.225 OA
ATOM     11  H   UNL A   1      34.492  28.250  24.479  1.00  0.00     0.168 HD
BRANCH   9  12
ATOM     12  O   UNL A   1      31.458  28.874  23.837  1.00  0.00    -0.444 OA
BRANCH  12  13
ATOM     13  C   UNL A   1      30.560  28.217  22.890  1.00  0.00     0.106 C 
ATOM     14  C   UNL A   1      29.484  27.540  23.757  1.00  0.00     0.056 C 
ATOM     15  C   UNL A   1      31.294  27.127  22.099  1.00  0.00     0.056 C 
ATOM     16  C   UNL A   1      29.855  29.210  21.956  1.00  0.00     0.056 C 
ENDBRANCH  12  13
ENDBRANCH   9  12
ENDBRANCH   7   8
BRANCH   7  17
ATOM     17  C   UNL A   1      33.848  26.280  26.118  1.00  0.00     0.075 C 
BRANCH  17  18
ATOM     18  C   UNL A   1      33.070  24.986  26.071  1.00  0.00    -0.018 A 
ATOM     19  C   UNL A   1      31.723  24.891  26.378  1.00  0.00     0.087 A 
ATOM     20  C   UNL A   1      33.492  23.666  25.651  1.00  0.00     0.021 A 
ATOM     21  N   UNL A   1      31.291  23.635  26.069  1.00  0.00    -0.361 N 
ATOM     22  C   UNL A   1      32.325  22.895  25.546  1.00  0.00     0.047 A 
ATOM     23  C   UNL A   1      34.693  23.015  25.280  1.00  0.00     0.050 A 
ATOM     24  H   UNL A   1      30.372  23.305  26.201  1.00  0.00     0.166 HD
ATOM     25  C   UNL A   1      32.300  21.603  24.999  1.00  0.00     0.027 A 
ATOM     26  C   UNL A   1      34.695  21.744  24.698  1.00  0.00     0.021 A 
ATOM     27  Cl  UNL A   1      36.176  23.784  25.636  1.00  0.00    -0.084 Cl
ATOM     28  C   UNL A   1      33.499  21.057  24.538  1.00  0.00     0.004 A 
ENDBRANCH  17  18
ENDBRANCH   7  17
ENDBRANCH   5   7
ENDBRANCH   4   5
ENDBRANCH   3   4
ENDBRANCH   2   3
ENDBRANCH   1   2
BRANCH   1  29
ATOM     29  C   UNL A   1      34.923  33.870  28.830  1.00  0.00     0.202 C 
BRANCH  29  30
ATOM     30  C   UNL A   1      33.957  34.931  29.346  1.00  0.00     0.261 C 
BRANCH  30  31
ATOM     31  O   UNL A   1      33.142  34.494  30.421  1.00  0.00    -0.460 OA
BRANCH  31  32
ATOM     32  C   UNL A   1      33.378  35.209  31.543  1.00  0.00     0.338 C 
ATOM     33  O   UNL A   1      32.946  36.323  31.803  1.00  0.00    -0.246 OA
BRANCH  32  34
ATOM     34  C   UNL A   1      34.386  34.544  32.367  1.00  0.00     0.060 A 
ATOM     35  C   UNL A   1      35.525  35.314  32.593  1.00  0.00     0.016 A 
ATOM     36  C   UNL A   1      34.396  33.142  32.417  1.00  0.00     0.016 A 
ATOM     37  C   UNL A   1      36.735  34.675  32.531  1.00  0.00     0.010 A 
ATOM     38  C   UNL A   1      35.613  32.505  32.368  1.00  0.00     0.010 A 
ATOM     39  C   UNL A   1      36.760  33.289  32.313  1.00  0.00    -0.014 A 
BRANCH  39  40
ATOM     40  C   UNL A   1      38.065  32.680  32.205  1.00  0.00     0.031 A 
ATOM     41  C   UNL A   1      38.792  32.827  33.476  1.00  0.00     0.074 A 
ATOM     42  C   UNL A   1      38.541  32.071  31.103  1.00  0.00     0.049 A 
ATOM     43  N   UNL A   1      39.621  33.771  33.776  1.00  0.00    -0.248 NA
ATOM     44  C   UNL A   1      38.326  32.039  34.628  1.00  0.00     0.031 C 
ATOM     45  C   UNL A   1      37.801  31.643  29.913  1.00  0.00     0.029 A 
ATOM     46  N   UNL A   1      39.805  31.634  30.851  1.00  0.00    -0.354 N 
ATOM     47  C   UNL A   1      40.005  33.496  35.079  1.00  0.00     0.074 A 
ATOM     48  C   UNL A   1      38.990  32.631  35.623  1.00  0.00     0.031 C 
ATOM     49  C   UNL A   1      38.576  30.794  29.191  1.00  0.00     0.029 A 
ATOM     50  C   UNL A   1      39.906  30.762  29.775  1.00  0.00     0.049 A 
ATOM     51  H   UNL A   1      40.582  31.913  31.388  1.00  0.00     0.167 HD
ATOM     52  C   UNL A   1      41.301  33.671  35.455  1.00  0.00     0.034 A 
ATOM     53  C   UNL A   1      41.006  30.044  29.434  1.00  0.00     0.034 A 
ATOM     54  C   UNL A   1      42.026  34.423  34.465  1.00  0.00     0.049 A 
ATOM     55  C   UNL A   1      42.182  30.707  30.039  1.00  0.00     0.074 A 
ATOM     56  C   UNL A   1      42.129  35.741  34.083  1.00  0.00     0.029 A 
ATOM     57  N   UNL A   1      42.477  33.653  33.424  1.00  0.00    -0.354 N 
ATOM     58  N   UNL A   1      42.627  31.870  29.651  1.00  0.00    -0.248 NA
ATOM     59  C   UNL A   1      42.670  30.248  31.336  1.00  0.00     0.031 C 
ATOM     60  C   UNL A   1      42.553  35.730  32.723  1.00  0.00     0.029 A 
ATOM     61  C   UNL A   1      42.743  34.411  32.318  1.00  0.00     0.049 A 
ATOM     62  H   UNL A   1      42.595  32.677  33.468  1.00  0.00     0.167 HD
ATOM     63  C   UNL A   1      43.064  32.462  30.817  1.00  0.00     0.074 A 
ATOM     64  C   UNL A   1      43.243  31.374  31.770  1.00  0.00     0.031 C 
ATOM     65  C   UNL A   1      42.911  33.798  31.017  1.00  0.00     0.034 A 
BRANCH  52  66
ATOM     66  C   UNL A   1      42.014  32.733  36.398  1.00  0.00     0.023 A 
ATOM     67  C   UNL A   1      42.211  31.372  36.103  1.00  0.00     0.031 A 
ATOM     68  C   UNL A   1      42.735  33.235  37.496  1.00  0.00     0.131 A 
ATOM     69  C   UNL A   1      43.024  30.552  36.889  1.00  0.00     0.055 A 
ATOM     70  C   UNL A   1      43.611  32.434  38.241  1.00  0.00     0.041 A 
ATOM     71  F   UNL A   1      42.648  34.529  37.842  1.00  0.00    -0.206 F 
ATOM     72  C   UNL A   1      43.755  31.082  37.944  1.00  0.00     0.022 A 
BRANCH  69  73
ATOM     73  S   UNL A   1      43.153  28.783  36.512  1.00  0.00     0.124 S 
ATOM     74  O   UNL A   1      43.685  28.799  35.155  1.00  0.00    -0.237 OA
ATOM     75  O   UNL A   1      44.073  28.331  37.552  1.00  0.00    -0.237 OA
ATOM     76  O   UNL A   1      41.780  28.303  36.654  1.00  0.00    -0.744 OA
ENDBRANCH  69  73
ENDBRANCH  52  66
BRANCH  53  77
ATOM     77  C   UNL A   1      41.095  28.642  28.968  1.00  0.00     0.023 A 
ATOM     78  C   UNL A   1      41.770  28.349  27.770  1.00  0.00     0.031 A 
ATOM     79  C   UNL A   1      40.219  27.663  29.476  1.00  0.00     0.131 A 
ATOM     80  C   UNL A   1      41.496  27.158  27.080  1.00  0.00     0.055 A 
ATOM     81  C   UNL A   1      39.960  26.469  28.793  1.00  0.00     0.041 A 
ATOM     82  F   UNL A   1      39.529  27.887  30.605  1.00  0.00    -0.206 F 
ATOM     83  C   UNL A   1      40.586  26.222  27.576  1.00  0.00     0.022 A 
BRANCH  80  84
ATOM     84  S   UNL A   1      42.262  26.839  25.467  1.00  0.00     0.124 S 
ATOM     85  O   UNL A   1      43.590  26.359  25.841  1.00  0.00    -0.237 OA
ATOM     86  O   UNL A   1      41.366  25.834  24.906  1.00  0.00    -0.237 OA
ATOM     87  O   UNL A   1      42.241  28.147  24.818  1.00  0.00    -0.744 OA
ENDBRANCH  80  84
ENDBRANCH  53  77
BRANCH  65  88
ATOM     88  C   UNL A   1      42.783  34.687  29.818  1.00  0.00     0.023 A 
ATOM     89  C   UNL A   1      43.979  35.245  29.348  1.00  0.00     0.031 A 
ATOM     90  C   UNL A   1      41.576  35.127  29.252  1.00  0.00     0.131 A 
ATOM     91  C   UNL A   1      43.957  36.260  28.392  1.00  0.00     0.055 A 
ATOM     92  C   UNL A   1      41.558  36.099  28.244  1.00  0.00     0.041 A 
ATOM     93  F   UNL A   1      40.391  34.686  29.701  1.00  0.00    -0.206 F 
ATOM     94  C   UNL A   1      42.753  36.684  27.824  1.00  0.00     0.022 A 
BRANCH  91  95
ATOM     95  S   UNL A   1      45.485  37.132  27.978  1.00  0.00     0.124 S 
ATOM     96  O   UNL A   1      45.013  38.173  27.069  1.00  0.00    -0.237 OA
ATOM     97  O   UNL A   1      45.936  37.598  29.287  1.00  0.00    -0.237 OA
ATOM     98  O   UNL A   1      46.325  36.107  27.364  1.00  0.00    -0.744 OA
ENDBRANCH  91  95
ENDBRANCH  65  88
ENDBRANCH  39  40
ENDBRANCH  32  34
ENDBRANCH  31  32
ENDBRANCH  30  31
ENDBRANCH  29  30
ENDBRANCH   1  29
TORSDOF 22
ENDMDL
MODEL 3
REMARK VINA RESULT:     -11.2      3.626      7.903
REMARK SMILES CC(C)(C)OC(=O)N[C@@H](Cc1c[nH]c2cccc(Cl)c12)C(=O)OCCOCCOC(=O)c1ccc(-c2c3nc(c(-c4cc(S(=O)(=O)[O-])ccc4F)c4ccc([nH]4)c(-c4cc(S(=O)(=O)[O-])ccc4F)c4nc(c(-c5cc(S(=O)(=O)[O-])ccc5F)c5ccc2[nH]5)C=C4)C=C3)cc1
REMARK SMILES IDX 26 1 25 2 24 3 23 4 21 5 22 6 9 7 8 8 6 9 7 10 5 12 2 13
REMARK SMILES IDX 1 14 3 15 4 16 10 17 11 18 12 19 20 20 13 21 14 22 18 23
REMARK SMILES IDX 15 25 17 26 19 27 16 28 27 29 28 30 29 31 30 32 31 33 32 34
REMARK SMILES IDX 33 35 94 36 34 37 93 38 35 39 36 40 37 41 87 42 38 43 92 44
REMARK SMILES IDX 86 45 88 46 39 47 91 48 85 49 84 50 40 52 72 53 52 54 71 55
REMARK SMILES IDX 53 56 56 57 70 58 89 59 54 60 55 61 69 63 90 64 57 65 41 66
REMARK SMILES IDX 42 67 50 68 43 69 49 70 51 71 48 72 44 73 45 74 46 75 47 76
REMARK SMILES IDX 73 77 74 78 82 79 75 80 81 81 83 82 80 83 76 84 77 85 78 86
REMARK SMILES IDX 79 87 58 88 59 89 67 90 60 91 66 92 68 93 65 94 61 95 62 96
REMARK SMILES IDX 63 97 64 98
REMARK H PARENT 8 11 13 24 88 51 56 62
REMARK Flexibility Score: inf
ROOT
ATOM      1  O   UNL A   1      35.815  22.254  25.387  1.00  0.00    -0.374 OA
ENDROOT
BRANCH   1   2
ATOM      2  C   UNL A   1      35.819  23.672  25.281  1.00  0.00     0.202 C 
BRANCH   2   3
ATOM      3  C   UNL A   1      34.827  24.365  24.352  1.00  0.00     0.261 C 
BRANCH   3   4
ATOM      4  O   UNL A   1      34.826  23.876  23.005  1.00  0.00    -0.462 OA
BRANCH   4   5
ATOM      5  C   UNL A   1      33.590  23.745  22.441  1.00  0.00     0.329 C 
ATOM      6  O   UNL A   1      33.374  23.297  21.319  1.00  0.00    -0.250 OA
BRANCH   5   7
ATOM      7  C   UNL A   1      32.479  24.320  23.316  1.00  0.00     0.200 C 
BRANCH   7   8
ATOM      8  N   UNL A   1      31.786  25.475  22.734  1.00  0.00    -0.308 N 
ATOM      9  C   UNL A   1      31.309  26.578  23.373  1.00  0.00     0.408 C 
ATOM     10  O   UNL A   1      30.720  27.455  22.747  1.00  0.00    -0.225 OA
ATOM     11  H   UNL A   1      31.650  25.450  21.759  1.00  0.00     0.168 HD
BRANCH   9  12
ATOM     12  O   UNL A   1      31.546  26.593  24.707  1.00  0.00    -0.444 OA
BRANCH  12  13
ATOM     13  C   UNL A   1      32.319  27.673  25.313  1.00  0.00     0.106 C 
ATOM     14  C   UNL A   1      31.497  28.950  25.063  1.00  0.00     0.056 C 
ATOM     15  C   UNL A   1      33.678  27.835  24.619  1.00  0.00     0.056 C 
ATOM     16  C   UNL A   1      32.480  27.509  26.831  1.00  0.00     0.056 C 
ENDBRANCH  12  13
ENDBRANCH   9  12
ENDBRANCH   7   8
BRANCH   7  17
ATOM     17  C   UNL A   1      31.506  23.170  23.675  1.00  0.00     0.075 C 
BRANCH  17  18
ATOM     18  C   UNL A   1      32.130  22.055  24.482  1.00  0.00    -0.018 A 
ATOM     19  C   UNL A   1      32.565  22.207  25.787  1.00  0.00     0.087 A 
ATOM     20  C   UNL A   1      32.331  20.663  24.139  1.00  0.00     0.021 A 
ATOM     21  N   UNL A   1      32.909  20.982  26.280  1.00  0.00    -0.361 N 
ATOM     22  C   UNL A   1      32.697  20.014  25.327  1.00  0.00     0.047 A 
ATOM     23  C   UNL A   1      32.197  19.831  23.001  1.00  0.00     0.050 A 
ATOM     24  H   UNL A   1      33.259  20.815  27.185  1.00  0.00     0.166 HD
ATOM     25  C   UNL A   1      32.813  18.620  25.441  1.00  0.00     0.027 A 
ATOM     26  C   UNL A   1      32.269  18.438  23.092  1.00  0.00     0.021 A 
ATOM     27  Cl  UNL A   1      32.025  20.570  21.470  1.00  0.00    -0.084 Cl
ATOM     28  C   UNL A   1      32.551  17.840  24.313  1.00  0.00     0.004 A 
ENDBRANCH  17  18
ENDBRANCH   7  17
ENDBRANCH   5   7
ENDBRANCH   4   5
ENDBRANCH   3   4
ENDBRANCH   2   3
ENDBRANCH   1   2
BRANCH   1  29
ATOM     29  C   UNL A   1      36.579  21.451  24.495  1.00  0.00     0.202 C 
BRANCH  29  30
ATOM     30  C   UNL A   1      37.651  20.508  25.030  1.00  0.00     0.261 C 
BRANCH  30  31
ATOM     31  O   UNL A   1      38.853  21.157  25.409  1.00  0.00    -0.460 OA
BRANCH  31  32
ATOM     32  C   UNL A   1      39.848  20.270  25.625  1.00  0.00     0.338 C 
ATOM     33  O   UNL A   1      39.809  19.065  25.419  1.00  0.00    -0.246 OA
BRANCH  32  34
ATOM     34  C   UNL A   1      40.962  20.913  26.321  1.00  0.00     0.060 A 
ATOM     35  C   UNL A   1      40.907  20.786  27.708  1.00  0.00     0.016 A 
ATOM     36  C   UNL A   1      41.639  21.962  25.681  1.00  0.00     0.016 A 
ATOM     37  C   UNL A   1      41.236  21.889  28.450  1.00  0.00     0.010 A 
ATOM     38  C   UNL A   1      41.980  23.061  26.433  1.00  0.00     0.010 A 
ATOM     39  C   UNL A   1      41.669  23.048  27.789  1.00  0.00    -0.014 A 
BRANCH  39  40
ATOM     40  C   UNL A   1      41.953  24.194  28.621  1.00  0.00     0.031 A 
ATOM     41  C   UNL A   1      40.930  25.231  28.409  1.00  0.00     0.074 A 
ATOM     42  C   UNL A   1      42.999  24.294  29.462  1.00  0.00     0.049 A 
ATOM     43  N   UNL A   1      41.010  26.222  27.585  1.00  0.00    -0.248 NA
ATOM     44  C   UNL A   1      39.575  24.974  28.921  1.00  0.00     0.031 C 
ATOM     45  C   UNL A   1      43.888  23.229  29.934  1.00  0.00     0.029 A 
ATOM     46  N   UNL A   1      43.443  25.387  30.141  1.00  0.00    -0.354 N 
ATOM     47  C   UNL A   1      39.799  26.884  27.720  1.00  0.00     0.074 A 
ATOM     48  C   UNL A   1      38.887  25.938  28.306  1.00  0.00     0.031 C 
ATOM     49  C   UNL A   1      44.592  23.682  31.002  1.00  0.00     0.029 A 
ATOM     50  C   UNL A   1      44.329  25.101  31.171  1.00  0.00     0.049 A 
ATOM     51  H   UNL A   1      43.158  26.304  29.921  1.00  0.00     0.167 HD
ATOM     52  C   UNL A   1      39.767  28.245  27.713  1.00  0.00     0.034 A 
ATOM     53  C   UNL A   1      44.768  25.977  32.109  1.00  0.00     0.034 A 
ATOM     54  C   UNL A   1      41.018  28.788  27.255  1.00  0.00     0.049 A 
ATOM     55  C   UNL A   1      44.582  27.343  31.572  1.00  0.00     0.074 A 
ATOM     56  C   UNL A   1      41.655  28.959  26.047  1.00  0.00     0.029 A 
ATOM     57  N   UNL A   1      41.970  28.858  28.240  1.00  0.00    -0.354 N 
ATOM     58  N   UNL A   1      45.273  27.820  30.574  1.00  0.00    -0.248 NA
ATOM     59  C   UNL A   1      43.366  28.079  31.905  1.00  0.00     0.031 C 
ATOM     60  C   UNL A   1      43.049  29.021  26.337  1.00  0.00     0.029 A 
ATOM     61  C   UNL A   1      43.230  28.931  27.715  1.00  0.00     0.049 A 
ATOM     62  H   UNL A   1      41.770  28.857  29.203  1.00  0.00     0.167 HD
ATOM     63  C   UNL A   1      44.368  28.610  29.895  1.00  0.00     0.074 A 
ATOM     64  C   UNL A   1      43.294  28.882  30.840  1.00  0.00     0.031 C 
ATOM     65  C   UNL A   1      44.396  28.685  28.538  1.00  0.00     0.034 A 
BRANCH  52  66
ATOM     66  C   UNL A   1      38.849  29.046  28.604  1.00  0.00     0.023 A 
ATOM     67  C   UNL A   1      38.934  29.004  30.008  1.00  0.00     0.031 A 
ATOM     68  C   UNL A   1      38.040  30.064  28.067  1.00  0.00     0.131 A 
ATOM     69  C   UNL A   1      38.211  29.879  30.822  1.00  0.00     0.055 A 
ATOM     70  C   UNL A   1      37.373  30.991  28.879  1.00  0.00     0.041 A 
ATOM     71  F   UNL A   1      37.919  30.217  26.739  1.00  0.00    -0.206 F 
ATOM     72  C   UNL A   1      37.450  30.898  30.266  1.00  0.00     0.022 A 
BRANCH  69  73
ATOM     73  S   UNL A   1      38.287  29.703  32.625  1.00  0.00     0.124 S 
ATOM     74  O   UNL A   1      37.444  28.535  32.853  1.00  0.00    -0.237 OA
ATOM     75  O   UNL A   1      39.719  29.505  32.836  1.00  0.00    -0.237 OA
ATOM     76  O   UNL A   1      37.763  30.975  33.116  1.00  0.00    -0.744 OA
ENDBRANCH  69  73
ENDBRANCH  52  66
BRANCH  53  77
ATOM     77  C   UNL A   1      44.970  25.764  33.560  1.00  0.00     0.023 A 
ATOM     78  C   UNL A   1      44.025  26.264  34.474  1.00  0.00     0.031 A 
ATOM     79  C   UNL A   1      46.239  25.417  34.062  1.00  0.00     0.131 A 
ATOM     80  C   UNL A   1      44.387  26.483  35.812  1.00  0.00     0.055 A 
ATOM     81  C   UNL A   1      46.591  25.623  35.401  1.00  0.00     0.041 A 
ATOM     82  F   UNL A   1      47.192  24.952  33.240  1.00  0.00    -0.206 F 
ATOM     83  C   UNL A   1      45.668  26.179  36.279  1.00  0.00     0.022 A 
BRANCH  80  84
ATOM     84  S   UNL A   1      43.215  27.255  36.961  1.00  0.00     0.124 S 
ATOM     85  O   UNL A   1      43.919  28.474  37.353  1.00  0.00    -0.237 OA
ATOM     86  O   UNL A   1      42.048  27.452  36.108  1.00  0.00    -0.237 OA
ATOM     87  O   UNL A   1      43.073  26.259  38.019  1.00  0.00    -0.744 OA
ENDBRANCH  80  84
ENDBRANCH  53  77
BRANCH  65  88
ATOM     88  C   UNL A   1      45.680  28.374  27.833  1.00  0.00     0.023 A 
ATOM     89  C   UNL A   1      45.848  27.037  27.445  1.00  0.00     0.031 A 
ATOM     90  C   UNL A   1      46.767  29.250  27.689  1.00  0.00     0.131 A 
ATOM     91  C   UNL A   1      47.087  26.584  26.994  1.00  0.00     0.055 A 
ATOM     92  C   UNL A   1      47.992  28.809  27.174  1.00  0.00     0.041 A 
ATOM     93  F   UNL A   1      46.698  30.524  28.104  1.00  0.00    -0.206 F 
ATOM     94  C   UNL A   1      48.161  27.464  26.842  1.00  0.00     0.022 A 
BRANCH  91  95
ATOM     95  S   UNL A   1      47.350  24.815  26.730  1.00  0.00     0.124 S 
ATOM     96  O   UNL A   1      48.750  24.649  27.107  1.00  0.00    -0.237 OA
ATOM     97  O   UNL A   1      46.377  24.221  27.644  1.00  0.00    -0.237 OA
ATOM     98  O   UNL A   1      47.063  24.621  25.311  1.00  0.00    -0.744 OA
ENDBRANCH  91  95
ENDBRANCH  65  88
ENDBRANCH  39  40
ENDBRANCH  32  34
ENDBRANCH  31  32
ENDBRANCH  30  31
ENDBRANCH  29  30
ENDBRANCH   1  29
TORSDOF 22
ENDMDL
