MODEL 1
REMARK VINA RESULT:     -10.1      0.000      0.000
REMARK SMILES C[C@H](CCCO)Nc1ccc2c(C(=O)OCCOCCOC(=O)c3ccc(-c4c5nc(c(-c6cc(S(=O)(=O)[O-])ccc6F)c6ccc([nH]6)c(-c6cc(S(=O)(=O)[O-])ccc6F)c6nc(c(-c7cc(S(=O)(=O)[O-])ccc7F)c7ccc4[nH]7)C=C6)C=C5)cc3)cccc2n1
REMARK SMILES IDX 16 1 15 2 13 3 14 4 12 5 8 6 9 7 91 8 10 9 90 10 11 11 89 12
REMARK SMILES IDX 88 13 87 14 7 15 2 17 1 18 3 19 4 20 5 21 6 22 17 24 18 25
REMARK SMILES IDX 19 26 20 27 21 28 22 29 23 30 24 31 25 32 86 33 26 34 85 35
REMARK SMILES IDX 27 36 28 37 29 38 79 39 30 40 84 41 78 42 80 43 31 44 83 45
REMARK SMILES IDX 77 46 76 47 32 49 64 50 44 51 63 52 45 53 48 54 62 55 81 56
REMARK SMILES IDX 46 57 47 58 61 60 82 61 49 62 33 63 34 64 42 65 35 66 41 67
REMARK SMILES IDX 43 68 40 69 36 70 37 71 38 72 39 73 65 74 66 75 74 76 67 77
REMARK SMILES IDX 73 78 75 79 72 80 68 81 69 82 70 83 71 84 50 85 51 86 59 87
REMARK SMILES IDX 52 88 58 89 60 90 57 91 53 92 54 93 55 94 56 95
REMARK H PARENT 7 16 6 23 80 48 48 59
REMARK Flexibility Score: inf
ROOT
ATOM      1  C   UNL A   1      37.028  23.628  24.912  1.00  0.00     0.261 C 
ENDROOT
BRANCH   1   2
ATOM      2  O   UNL A   1      35.928  24.311  25.535  1.00  0.00    -0.460 OA
BRANCH   2   3
ATOM      3  C   UNL A   1      34.830  24.450  24.761  1.00  0.00     0.338 C 
ATOM      4  O   UNL A   1      34.773  24.945  23.642  1.00  0.00    -0.246 OA
BRANCH   3   5
ATOM      5  C   UNL A   1      33.683  23.773  25.401  1.00  0.00     0.069 A 
ATOM      6  C   UNL A   1      33.019  19.660  24.968  1.00  0.00     0.126 A 
ATOM      7  C   UNL A   1      34.264  20.145  24.612  1.00  0.00     0.047 A 
ATOM      8  N   UNL A   1      32.086  20.454  25.529  1.00  0.00    -0.231 NA
ATOM      9  C   UNL A   1      34.518  21.504  24.744  1.00  0.00     0.015 A 
ATOM     10  C   UNL A   1      32.349  21.760  25.715  1.00  0.00     0.073 A 
ATOM     11  C   UNL A   1      33.537  22.366  25.273  1.00  0.00     0.015 A 
ATOM     12  C   UNL A   1      31.405  22.547  26.366  1.00  0.00     0.029 A 
ATOM     13  C   UNL A   1      31.592  23.916  26.575  1.00  0.00     0.003 A 
ATOM     14  C   UNL A   1      32.729  24.540  26.076  1.00  0.00     0.016 A 
BRANCH   6  15
ATOM     15  N   UNL A   1      32.702  18.360  24.629  1.00  0.00    -0.368 N 
ATOM     16  H   UNL A   1      32.103  17.835  25.208  1.00  0.00     0.162 HD
BRANCH  15  17
ATOM     17  C   UNL A   1      33.247  17.763  23.421  1.00  0.00     0.077 C 
ATOM     18  C   UNL A   1      32.155  17.710  22.362  1.00  0.00     0.031 C 
BRANCH  17  19
ATOM     19  C   UNL A   1      33.919  16.426  23.828  1.00  0.00     0.027 C 
BRANCH  19  20
ATOM     20  C   UNL A   1      33.685  15.858  25.229  1.00  0.00     0.030 C 
BRANCH  20  21
ATOM     21  C   UNL A   1      32.532  14.871  25.380  1.00  0.00     0.156 C 
BRANCH  21  22
ATOM     22  O   UNL A   1      32.989  13.580  25.748  1.00  0.00    -0.396 OA
ATOM     23  H   UNL A   1      33.959  13.570  25.753  1.00  0.00     0.210 HD
ENDBRANCH  21  22
ENDBRANCH  20  21
ENDBRANCH  19  20
ENDBRANCH  17  19
ENDBRANCH  15  17
ENDBRANCH   6  15
ENDBRANCH   3   5
ENDBRANCH   2   3
ENDBRANCH   1   2
BRANCH   1  24
ATOM     24  C   UNL A   1      37.757  22.740  25.923  1.00  0.00     0.202 C 
BRANCH  24  25
ATOM     25  O   UNL A   1      38.538  21.675  25.376  1.00  0.00    -0.374 OA
BRANCH  25  26
ATOM     26  C   UNL A   1      39.123  20.753  26.296  1.00  0.00     0.202 C 
BRANCH  26  27
ATOM     27  C   UNL A   1      39.930  19.586  25.711  1.00  0.00     0.261 C 
BRANCH  27  28
ATOM     28  O   UNL A   1      41.118  19.301  26.470  1.00  0.00    -0.460 OA
BRANCH  28  29
ATOM     29  C   UNL A   1      42.242  19.881  25.983  1.00  0.00     0.338 C 
ATOM     30  O   UNL A   1      43.032  19.391  25.188  1.00  0.00    -0.246 OA
BRANCH  29  31
ATOM     31  C   UNL A   1      42.310  21.297  26.395  1.00  0.00     0.060 A 
ATOM     32  C   UNL A   1      42.274  22.258  25.378  1.00  0.00     0.016 A 
ATOM     33  C   UNL A   1      42.475  21.681  27.728  1.00  0.00     0.016 A 
ATOM     34  C   UNL A   1      42.465  23.603  25.682  1.00  0.00     0.010 A 
ATOM     35  C   UNL A   1      42.672  23.035  28.031  1.00  0.00     0.010 A 
ATOM     36  C   UNL A   1      42.707  23.997  27.005  1.00  0.00    -0.014 A 
BRANCH  36  37
ATOM     37  C   UNL A   1      43.147  25.390  27.268  1.00  0.00     0.031 A 
ATOM     38  C   UNL A   1      42.172  26.359  27.885  1.00  0.00     0.074 A 
ATOM     39  C   UNL A   1      44.420  25.762  27.038  1.00  0.00     0.049 A 
ATOM     40  N   UNL A   1      42.351  27.605  28.240  1.00  0.00    -0.248 NA
ATOM     41  C   UNL A   1      40.815  25.850  28.136  1.00  0.00     0.031 C 
ATOM     42  C   UNL A   1      45.464  24.897  26.490  1.00  0.00     0.029 A 
ATOM     43  N   UNL A   1      45.054  26.961  27.251  1.00  0.00    -0.354 N 
ATOM     44  C   UNL A   1      41.134  28.027  28.768  1.00  0.00     0.074 A 
ATOM     45  C   UNL A   1      40.213  26.918  28.637  1.00  0.00     0.031 C 
ATOM     46  C   UNL A   1      46.611  25.593  26.416  1.00  0.00     0.029 A 
ATOM     47  C   UNL A   1      46.379  26.959  26.881  1.00  0.00     0.049 A 
ATOM     48  H   UNL A   1      44.602  27.748  27.632  1.00  0.00     0.167 HD
ATOM     49  C   UNL A   1      40.820  29.222  29.327  1.00  0.00     0.034 A 
ATOM     50  C   UNL A   1      47.293  27.949  26.905  1.00  0.00     0.034 A 
ATOM     51  C   UNL A   1      41.743  30.326  29.437  1.00  0.00     0.049 A 
ATOM     52  C   UNL A   1      46.890  29.302  27.446  1.00  0.00     0.074 A 
ATOM     53  C   UNL A   1      41.527  31.583  29.974  1.00  0.00     0.029 A 
ATOM     54  N   UNL A   1      43.060  30.308  28.993  1.00  0.00    -0.354 N 
ATOM     55  N   UNL A   1      45.736  29.685  27.945  1.00  0.00    -0.248 NA
ATOM     56  C   UNL A   1      47.919  30.350  27.439  1.00  0.00     0.031 C 
ATOM     57  C   UNL A   1      42.688  32.345  29.796  1.00  0.00     0.029 A 
ATOM     58  C   UNL A   1      43.656  31.539  29.220  1.00  0.00     0.049 A 
ATOM     59  H   UNL A   1      43.505  29.533  28.580  1.00  0.00     0.167 HD
ATOM     60  C   UNL A   1      45.917  31.008  28.344  1.00  0.00     0.074 A 
ATOM     61  C   UNL A   1      47.293  31.347  28.044  1.00  0.00     0.031 C 
ATOM     62  C   UNL A   1      45.028  31.866  28.909  1.00  0.00     0.034 A 
BRANCH  49  63
ATOM     63  C   UNL A   1      39.405  29.404  29.821  1.00  0.00     0.023 A 
ATOM     64  C   UNL A   1      38.461  30.157  29.100  1.00  0.00     0.031 A 
ATOM     65  C   UNL A   1      38.999  28.834  31.040  1.00  0.00     0.131 A 
ATOM     66  C   UNL A   1      37.181  30.372  29.634  1.00  0.00     0.055 A 
ATOM     67  C   UNL A   1      37.699  28.987  31.530  1.00  0.00     0.041 A 
ATOM     68  F   UNL A   1      39.862  28.124  31.785  1.00  0.00    -0.206 F 
ATOM     69  C   UNL A   1      36.786  29.772  30.831  1.00  0.00     0.022 A 
BRANCH  66  70
ATOM     70  S   UNL A   1      36.081  31.553  28.806  1.00  0.00     0.124 S 
ATOM     71  O   UNL A   1      35.161  31.905  29.885  1.00  0.00    -0.237 OA
ATOM     72  O   UNL A   1      37.002  32.602  28.384  1.00  0.00    -0.237 OA
ATOM     73  O   UNL A   1      35.490  30.770  27.723  1.00  0.00    -0.744 OA
ENDBRANCH  66  70
ENDBRANCH  49  63
BRANCH  50  74
ATOM     74  C   UNL A   1      48.673  27.728  26.381  1.00  0.00     0.023 A 
ATOM     75  C   UNL A   1      48.957  27.840  25.010  1.00  0.00     0.031 A 
ATOM     76  C   UNL A   1      49.712  27.320  27.236  1.00  0.00     0.131 A 
ATOM     77  C   UNL A   1      50.227  27.490  24.527  1.00  0.00     0.055 A 
ATOM     78  C   UNL A   1      50.991  27.031  26.758  1.00  0.00     0.041 A 
ATOM     79  F   UNL A   1      49.498  27.194  28.555  1.00  0.00    -0.206 F 
ATOM     80  C   UNL A   1      51.250  27.098  25.393  1.00  0.00     0.022 A 
BRANCH  77  81
ATOM     81  S   UNL A   1      50.491  27.445  22.733  1.00  0.00     0.124 S 
ATOM     82  O   UNL A   1      50.409  28.859  22.385  1.00  0.00    -0.237 OA
ATOM     83  O   UNL A   1      51.814  26.837  22.638  1.00  0.00    -0.237 OA
ATOM     84  O   UNL A   1      49.389  26.617  22.247  1.00  0.00    -0.744 OA
ENDBRANCH  77  81
ENDBRANCH  50  74
BRANCH  62  85
ATOM     85  C   UNL A   1      45.544  33.236  29.282  1.00  0.00     0.023 A 
ATOM     86  C   UNL A   1      45.513  34.311  28.377  1.00  0.00     0.031 A 
ATOM     87  C   UNL A   1      46.101  33.460  30.554  1.00  0.00     0.131 A 
ATOM     88  C   UNL A   1      46.092  35.540  28.730  1.00  0.00     0.055 A 
ATOM     89  C   UNL A   1      46.616  34.703  30.922  1.00  0.00     0.041 A 
ATOM     90  F   UNL A   1      46.157  32.470  31.459  1.00  0.00    -0.206 F 
ATOM     91  C   UNL A   1      46.629  35.747  30.003  1.00  0.00     0.022 A 
BRANCH  88  92
ATOM     92  S   UNL A   1      46.235  36.831  27.462  1.00  0.00     0.124 S 
ATOM     93  O   UNL A   1      46.613  37.995  28.255  1.00  0.00    -0.237 OA
ATOM     94  O   UNL A   1      47.268  36.293  26.585  1.00  0.00    -0.237 OA
ATOM     95  O   UNL A   1      44.895  36.887  26.879  1.00  0.00    -0.744 OA
ENDBRANCH  88  92
ENDBRANCH  62  85
ENDBRANCH  36  37
ENDBRANCH  29  31
ENDBRANCH  28  29
ENDBRANCH  27  28
ENDBRANCH  26  27
ENDBRANCH  25  26
ENDBRANCH  24  25
ENDBRANCH   1  24
TORSDOF 23
ENDMDL
MODEL 2
REMARK VINA RESULT:      -9.9      6.047     11.040
REMARK SMILES C[C@H](CCCO)Nc1ccc2c(C(=O)OCCOCCOC(=O)c3ccc(-c4c5nc(c(-c6cc(S(=O)(=O)[O-])ccc6F)c6ccc([nH]6)c(-c6cc(S(=O)(=O)[O-])ccc6F)c6nc(c(-c7cc(S(=O)(=O)[O-])ccc7F)c7ccc4[nH]7)C=C6)C=C5)cc3)cccc2n1
REMARK SMILES IDX 16 1 15 2 13 3 14 4 12 5 8 6 9 7 91 8 10 9 90 10 11 11 89 12
REMARK SMILES IDX 88 13 87 14 7 15 2 17 1 18 3 19 4 20 5 21 6 22 17 24 18 25
REMARK SMILES IDX 19 26 20 27 21 28 22 29 23 30 24 31 25 32 86 33 26 34 85 35
REMARK SMILES IDX 27 36 28 37 29 38 79 39 30 40 84 41 78 42 80 43 31 44 83 45
REMARK SMILES IDX 77 46 76 47 32 49 64 50 44 51 63 52 45 53 48 54 62 55 81 56
REMARK SMILES IDX 46 57 47 58 61 60 82 61 49 62 33 63 34 64 42 65 35 66 41 67
REMARK SMILES IDX 43 68 40 69 36 70 37 71 38 72 39 73 65 74 66 75 74 76 67 77
REMARK SMILES IDX 73 78 75 79 72 80 68 81 69 82 70 83 71 84 50 85 51 86 59 87
REMARK SMILES IDX 52 88 58 89 60 90 57 91 53 92 54 93 55 94 56 95
REMARK H PARENT 7 16 6 23 80 48 48 59
REMARK Flexibility Score: inf
ROOT
ATOM      1  C   UNL A   1      33.882  28.578  27.223  1.00  0.00     0.261 C 
ENDROOT
BRANCH   1   2
ATOM      2  O   UNL A   1      33.028  28.023  26.209  1.00  0.00    -0.460 OA
BRANCH   2   3
ATOM      3  C   UNL A   1      31.857  27.524  26.660  1.00  0.00     0.338 C 
ATOM      4  O   UNL A   1      31.294  27.798  27.713  1.00  0.00    -0.246 OA
BRANCH   3   5
ATOM      5  C   UNL A   1      31.245  26.674  25.618  1.00  0.00     0.069 A 
ATOM      6  C   UNL A   1      31.544  22.497  25.713  1.00  0.00     0.126 A 
ATOM      7  C   UNL A   1      31.858  23.185  26.871  1.00  0.00     0.047 A 
ATOM      8  N   UNL A   1      31.061  23.129  24.625  1.00  0.00    -0.231 NA
ATOM      9  C   UNL A   1      31.770  24.570  26.873  1.00  0.00     0.015 A 
ATOM     10  C   UNL A   1      30.915  24.467  24.643  1.00  0.00     0.073 A 
ATOM     11  C   UNL A   1      31.323  25.260  25.729  1.00  0.00     0.015 A 
ATOM     12  C   UNL A   1      30.342  25.093  23.542  1.00  0.00     0.029 A 
ATOM     13  C   UNL A   1      30.180  26.479  23.473  1.00  0.00     0.003 A 
ATOM     14  C   UNL A   1      30.648  27.279  24.508  1.00  0.00     0.016 A 
BRANCH   6  15
ATOM     15  N   UNL A   1      31.845  21.151  25.648  1.00  0.00    -0.368 N 
ATOM     16  H   UNL A   1      31.127  20.496  25.491  1.00  0.00     0.162 HD
BRANCH  15  17
ATOM     17  C   UNL A   1      33.217  20.698  25.811  1.00  0.00     0.077 C 
ATOM     18  C   UNL A   1      33.734  21.173  27.161  1.00  0.00     0.031 C 
BRANCH  17  19
ATOM     19  C   UNL A   1      34.001  21.135  24.546  1.00  0.00     0.027 C 
BRANCH  19  20
ATOM     20  C   UNL A   1      35.113  22.179  24.669  1.00  0.00     0.030 C 
BRANCH  20  21
ATOM     21  C   UNL A   1      36.543  21.649  24.711  1.00  0.00     0.156 C 
BRANCH  21  22
ATOM     22  O   UNL A   1      36.580  20.257  24.981  1.00  0.00    -0.396 OA
ATOM     23  H   UNL A   1      37.501  19.976  25.098  1.00  0.00     0.210 HD
ENDBRANCH  21  22
ENDBRANCH  20  21
ENDBRANCH  19  20
ENDBRANCH  17  19
ENDBRANCH  15  17
ENDBRANCH   6  15
ENDBRANCH   3   5
ENDBRANCH   2   3
ENDBRANCH   1   2
BRANCH   1  24
ATOM     24  C   UNL A   1      33.944  30.103  27.103  1.00  0.00     0.202 C 
BRANCH  24  25
ATOM     25  O   UNL A   1      32.809  30.818  27.597  1.00  0.00    -0.374 OA
BRANCH  25  26
ATOM     26  C   UNL A   1      32.064  31.594  26.658  1.00  0.00     0.202 C 
BRANCH  26  27
ATOM     27  C   UNL A   1      31.966  33.104  26.907  1.00  0.00     0.261 C 
BRANCH  27  28
ATOM     28  O   UNL A   1      32.615  33.506  28.126  1.00  0.00    -0.460 OA
BRANCH  28  29
ATOM     29  C   UNL A   1      33.842  34.055  27.948  1.00  0.00     0.338 C 
ATOM     30  O   UNL A   1      34.144  34.922  27.140  1.00  0.00    -0.246 OA
BRANCH  29  31
ATOM     31  C   UNL A   1      34.766  33.604  29.006  1.00  0.00     0.060 A 
ATOM     32  C   UNL A   1      36.062  34.132  28.987  1.00  0.00     0.016 A 
ATOM     33  C   UNL A   1      34.407  32.639  29.952  1.00  0.00     0.016 A 
ATOM     34  C   UNL A   1      37.023  33.654  29.874  1.00  0.00     0.010 A 
ATOM     35  C   UNL A   1      35.377  32.156  30.839  1.00  0.00     0.010 A 
ATOM     36  C   UNL A   1      36.700  32.634  30.778  1.00  0.00    -0.014 A 
BRANCH  36  37
ATOM     37  C   UNL A   1      37.793  31.976  31.536  1.00  0.00     0.031 A 
ATOM     38  C   UNL A   1      38.563  30.858  30.885  1.00  0.00     0.074 A 
ATOM     39  C   UNL A   1      38.149  32.424  32.755  1.00  0.00     0.049 A 
ATOM     40  N   UNL A   1      39.581  30.173  31.340  1.00  0.00    -0.248 NA
ATOM     41  C   UNL A   1      38.127  30.463  29.537  1.00  0.00     0.031 C 
ATOM     42  C   UNL A   1      37.508  33.531  33.465  1.00  0.00     0.029 A 
ATOM     43  N   UNL A   1      39.145  32.013  33.605  1.00  0.00    -0.354 N 
ATOM     44  C   UNL A   1      39.915  29.275  30.332  1.00  0.00     0.074 A 
ATOM     45  C   UNL A   1      38.958  29.468  29.264  1.00  0.00     0.031 C 
ATOM     46  C   UNL A   1      38.133  33.715  34.640  1.00  0.00     0.029 A 
ATOM     47  C   UNL A   1      39.196  32.722  34.782  1.00  0.00     0.049 A 
ATOM     48  H   UNL A   1      39.764  31.278  33.391  1.00  0.00     0.167 HD
ATOM     49  C   UNL A   1      40.937  28.383  30.294  1.00  0.00     0.034 A 
ATOM     50  C   UNL A   1      40.001  32.577  35.854  1.00  0.00     0.034 A 
ATOM     51  C   UNL A   1      41.875  28.188  31.373  1.00  0.00     0.049 A 
ATOM     52  C   UNL A   1      41.072  31.512  35.824  1.00  0.00     0.074 A 
ATOM     53  C   UNL A   1      42.939  27.306  31.444  1.00  0.00     0.029 A 
ATOM     54  N   UNL A   1      41.856  28.881  32.577  1.00  0.00    -0.354 N 
ATOM     55  N   UNL A   1      41.378  30.672  34.861  1.00  0.00    -0.248 NA
ATOM     56  C   UNL A   1      41.914  31.387  37.021  1.00  0.00     0.031 C 
ATOM     57  C   UNL A   1      43.521  27.418  32.712  1.00  0.00     0.029 A 
ATOM     58  C   UNL A   1      42.872  28.427  33.405  1.00  0.00     0.049 A 
ATOM     59  H   UNL A   1      41.216  29.593  32.808  1.00  0.00     0.167 HD
ATOM     60  C   UNL A   1      42.473  29.945  35.326  1.00  0.00     0.074 A 
ATOM     61  C   UNL A   1      42.781  30.460  36.645  1.00  0.00     0.031 C 
ATOM     62  C   UNL A   1      43.164  28.944  34.721  1.00  0.00     0.034 A 
BRANCH  49  63
ATOM     63  C   UNL A   1      41.060  27.525  29.057  1.00  0.00     0.023 A 
ATOM     64  C   UNL A   1      42.039  27.775  28.079  1.00  0.00     0.031 A 
ATOM     65  C   UNL A   1      40.174  26.455  28.843  1.00  0.00     0.131 A 
ATOM     66  C   UNL A   1      42.068  27.007  26.905  1.00  0.00     0.055 A 
ATOM     67  C   UNL A   1      40.257  25.645  27.708  1.00  0.00     0.041 A 
ATOM     68  F   UNL A   1      39.204  26.181  29.730  1.00  0.00    -0.206 F 
ATOM     69  C   UNL A   1      41.200  25.928  26.724  1.00  0.00     0.022 A 
BRANCH  66  70
ATOM     70  S   UNL A   1      43.171  27.518  25.559  1.00  0.00     0.124 S 
ATOM     71  O   UNL A   1      44.113  28.384  26.264  1.00  0.00    -0.237 OA
ATOM     72  O   UNL A   1      43.704  26.246  25.085  1.00  0.00    -0.237 OA
ATOM     73  O   UNL A   1      42.280  28.207  24.628  1.00  0.00    -0.744 OA
ENDBRANCH  66  70
ENDBRANCH  49  63
BRANCH  50  74
ATOM     74  C   UNL A   1      39.823  33.433  37.064  1.00  0.00     0.023 A 
ATOM     75  C   UNL A   1      39.105  32.973  38.180  1.00  0.00     0.031 A 
ATOM     76  C   UNL A   1      40.300  34.756  37.088  1.00  0.00     0.131 A 
ATOM     77  C   UNL A   1      38.832  33.846  39.245  1.00  0.00     0.055 A 
ATOM     78  C   UNL A   1      40.077  35.601  38.176  1.00  0.00     0.041 A 
ATOM     79  F   UNL A   1      40.989  35.250  36.048  1.00  0.00    -0.206 F 
ATOM     80  C   UNL A   1      39.324  35.152  39.257  1.00  0.00     0.022 A 
BRANCH  77  81
ATOM     81  S   UNL A   1      37.727  33.281  40.569  1.00  0.00     0.124 S 
ATOM     82  O   UNL A   1      38.539  32.256  41.216  1.00  0.00    -0.237 OA
ATOM     83  O   UNL A   1      37.516  34.508  41.329  1.00  0.00    -0.237 OA
ATOM     84  O   UNL A   1      36.557  32.787  39.846  1.00  0.00    -0.744 OA
ENDBRANCH  77  81
ENDBRANCH  50  74
BRANCH  62  85
ATOM     85  C   UNL A   1      44.351  28.384  35.468  1.00  0.00     0.023 A 
ATOM     86  C   UNL A   1      44.211  27.359  36.419  1.00  0.00     0.031 A 
ATOM     87  C   UNL A   1      45.638  28.905  35.243  1.00  0.00     0.131 A 
ATOM     88  C   UNL A   1      45.325  26.936  37.162  1.00  0.00     0.055 A 
ATOM     89  C   UNL A   1      46.753  28.434  35.937  1.00  0.00     0.041 A 
ATOM     90  F   UNL A   1      45.832  29.885  34.346  1.00  0.00    -0.206 F 
ATOM     91  C   UNL A   1      46.598  27.456  36.915  1.00  0.00     0.022 A 
BRANCH  88  92
ATOM     92  S   UNL A   1      45.067  25.776  38.532  1.00  0.00     0.124 S 
ATOM     93  O   UNL A   1      44.394  24.665  37.868  1.00  0.00    -0.237 OA
ATOM     94  O   UNL A   1      46.430  25.518  38.983  1.00  0.00    -0.237 OA
ATOM     95  O   UNL A   1      44.238  26.532  39.470  1.00  0.00    -0.744 OA
ENDBRANCH  88  92
ENDBRANCH  62  85
ENDBRANCH  36  37
ENDBRANCH  29  31
ENDBRANCH  28  29
ENDBRANCH  27  28
ENDBRANCH  26  27
ENDBRANCH  25  26
ENDBRANCH  24  25
ENDBRANCH   1  24
TORSDOF 23
ENDMDL
MODEL 3
REMARK VINA RESULT:      -9.6      5.770     10.418
REMARK SMILES C[C@H](CCCO)Nc1ccc2c(C(=O)OCCOCCOC(=O)c3ccc(-c4c5nc(c(-c6cc(S(=O)(=O)[O-])ccc6F)c6ccc([nH]6)c(-c6cc(S(=O)(=O)[O-])ccc6F)c6nc(c(-c7cc(S(=O)(=O)[O-])ccc7F)c7ccc4[nH]7)C=C6)C=C5)cc3)cccc2n1
REMARK SMILES IDX 16 1 15 2 13 3 14 4 12 5 8 6 9 7 91 8 10 9 90 10 11 11 89 12
REMARK SMILES IDX 88 13 87 14 7 15 2 17 1 18 3 19 4 20 5 21 6 22 17 24 18 25
REMARK SMILES IDX 19 26 20 27 21 28 22 29 23 30 24 31 25 32 86 33 26 34 85 35
REMARK SMILES IDX 27 36 28 37 29 38 79 39 30 40 84 41 78 42 80 43 31 44 83 45
REMARK SMILES IDX 77 46 76 47 32 49 64 50 44 51 63 52 45 53 48 54 62 55 81 56
REMARK SMILES IDX 46 57 47 58 61 60 82 61 49 62 33 63 34 64 42 65 35 66 41 67
REMARK SMILES IDX 43 68 40 69 36 70 37 71 38 72 39 73 65 74 66 75 74 76 67 77
REMARK SMILES IDX 73 78 75 79 72 80 68 81 69 82 70 83 71 84 50 85 51 86 59 87
REMARK SMILES IDX 52 88 58 89 60 90 57 91 53 92 54 93 55 94 56 95
REMARK H PARENT 7 16 6 23 80 48 48 59
REMARK Flexibility Score: inf
ROOT
ATOM      1  C   UNL A   1      33.907  28.595  27.248  1.00  0.00     0.261 C 
ENDROOT
BRANCH   1   2
ATOM      2  O   UNL A   1      32.951  28.190  26.256  1.00  0.00    -0.460 OA
BRANCH   2   3
ATOM      3  C   UNL A   1      31.823  27.631  26.746  1.00  0.00     0.338 C 
ATOM      4  O   UNL A   1      31.314  27.833  27.841  1.00  0.00    -0.246 OA
BRANCH   3   5
ATOM      5  C   UNL A   1      31.177  26.816  25.696  1.00  0.00     0.069 A 
ATOM      6  C   UNL A   1      31.477  22.638  25.643  1.00  0.00     0.126 A 
ATOM      7  C   UNL A   1      31.829  23.287  26.812  1.00  0.00     0.047 A 
ATOM      8  N   UNL A   1      30.959  23.306  24.592  1.00  0.00    -0.231 NA
ATOM      9  C   UNL A   1      31.741  24.671  26.863  1.00  0.00     0.015 A 
ATOM     10  C   UNL A   1      30.814  24.642  24.660  1.00  0.00     0.073 A 
ATOM     11  C   UNL A   1      31.258  25.399  25.757  1.00  0.00     0.015 A 
ATOM     12  C   UNL A   1      30.207  25.304  23.599  1.00  0.00     0.029 A 
ATOM     13  C   UNL A   1      30.043  26.692  23.582  1.00  0.00     0.003 A 
ATOM     14  C   UNL A   1      30.545  27.457  24.627  1.00  0.00     0.016 A 
BRANCH   6  15
ATOM     15  N   UNL A   1      31.775  21.295  25.523  1.00  0.00    -0.368 N 
ATOM     16  H   UNL A   1      31.058  20.625  25.598  1.00  0.00     0.162 HD
BRANCH  15  17
ATOM     17  C   UNL A   1      33.144  20.867  25.287  1.00  0.00     0.077 C 
ATOM     18  C   UNL A   1      33.754  21.745  24.203  1.00  0.00     0.031 C 
BRANCH  17  19
ATOM     19  C   UNL A   1      33.114  19.336  25.039  1.00  0.00     0.027 C 
BRANCH  19  20
ATOM     20  C   UNL A   1      34.392  18.615  24.607  1.00  0.00     0.030 C 
BRANCH  20  21
ATOM     21  C   UNL A   1      34.266  17.124  24.311  1.00  0.00     0.156 C 
BRANCH  21  22
ATOM     22  O   UNL A   1      34.914  16.335  25.295  1.00  0.00    -0.396 OA
ATOM     23  H   UNL A   1      34.338  16.252  26.072  1.00  0.00     0.210 HD
ENDBRANCH  21  22
ENDBRANCH  20  21
ENDBRANCH  19  20
ENDBRANCH  17  19
ENDBRANCH  15  17
ENDBRANCH   6  15
ENDBRANCH   3   5
ENDBRANCH   2   3
ENDBRANCH   1   2
BRANCH   1  24
ATOM     24  C   UNL A   1      34.063  30.118  27.262  1.00  0.00     0.202 C 
BRANCH  24  25
ATOM     25  O   UNL A   1      32.904  30.864  27.641  1.00  0.00    -0.374 OA
BRANCH  25  26
ATOM     26  C   UNL A   1      32.309  31.701  26.647  1.00  0.00     0.202 C 
BRANCH  26  27
ATOM     27  C   UNL A   1      31.918  33.124  27.063  1.00  0.00     0.261 C 
BRANCH  27  28
ATOM     28  O   UNL A   1      32.632  33.576  28.227  1.00  0.00    -0.460 OA
BRANCH  28  29
ATOM     29  C   UNL A   1      33.864  34.076  27.965  1.00  0.00     0.338 C 
ATOM     30  O   UNL A   1      34.151  34.899  27.107  1.00  0.00    -0.246 OA
BRANCH  29  31
ATOM     31  C   UNL A   1      34.827  33.636  28.992  1.00  0.00     0.060 A 
ATOM     32  C   UNL A   1      36.150  34.069  28.853  1.00  0.00     0.016 A 
ATOM     33  C   UNL A   1      34.471  32.767  30.028  1.00  0.00     0.016 A 
ATOM     34  C   UNL A   1      37.137  33.588  29.710  1.00  0.00     0.010 A 
ATOM     35  C   UNL A   1      35.467  32.280  30.886  1.00  0.00     0.010 A 
ATOM     36  C   UNL A   1      36.810  32.659  30.706  1.00  0.00    -0.014 A 
BRANCH  36  37
ATOM     37  C   UNL A   1      37.908  31.981  31.440  1.00  0.00     0.031 A 
ATOM     38  C   UNL A   1      38.626  30.833  30.782  1.00  0.00     0.074 A 
ATOM     39  C   UNL A   1      38.312  32.436  32.641  1.00  0.00     0.049 A 
ATOM     40  N   UNL A   1      39.637  30.125  31.216  1.00  0.00    -0.248 NA
ATOM     41  C   UNL A   1      38.138  30.432  29.453  1.00  0.00     0.031 C 
ATOM     42  C   UNL A   1      37.725  33.570  33.354  1.00  0.00     0.029 A 
ATOM     43  N   UNL A   1      39.322  32.008  33.466  1.00  0.00    -0.354 N 
ATOM     44  C   UNL A   1      39.916  29.204  30.211  1.00  0.00     0.074 A 
ATOM     45  C   UNL A   1      38.932  29.410  29.170  1.00  0.00     0.031 C 
ATOM     46  C   UNL A   1      38.390  33.752  34.507  1.00  0.00     0.029 A 
ATOM     47  C   UNL A   1      39.429  32.731  34.631  1.00  0.00     0.049 A 
ATOM     48  H   UNL A   1      39.914  31.253  33.244  1.00  0.00     0.167 HD
ATOM     49  C   UNL A   1      40.910  28.284  30.155  1.00  0.00     0.034 A 
ATOM     50  C   UNL A   1      40.262  32.578  35.680  1.00  0.00     0.034 A 
ATOM     51  C   UNL A   1      41.875  28.077  31.208  1.00  0.00     0.049 A 
ATOM     52  C   UNL A   1      41.302  31.483  35.633  1.00  0.00     0.074 A 
ATOM     53  C   UNL A   1      42.916  27.166  31.259  1.00  0.00     0.029 A 
ATOM     54  N   UNL A   1      41.913  28.787  32.401  1.00  0.00    -0.354 N 
ATOM     55  N   UNL A   1      41.555  30.621  34.673  1.00  0.00    -0.248 NA
ATOM     56  C   UNL A   1      42.176  31.350  36.805  1.00  0.00     0.031 C 
ATOM     57  C   UNL A   1      43.540  27.279  32.507  1.00  0.00     0.029 A 
ATOM     58  C   UNL A   1      42.940  28.315  33.205  1.00  0.00     0.049 A 
ATOM     59  H   UNL A   1      41.300  29.520  32.642  1.00  0.00     0.167 HD
ATOM     60  C   UNL A   1      42.643  29.870  35.116  1.00  0.00     0.074 A 
ATOM     61  C   UNL A   1      43.006  30.394  36.416  1.00  0.00     0.031 C 
ATOM     62  C   UNL A   1      43.287  28.842  34.504  1.00  0.00     0.034 A 
BRANCH  49  63
ATOM     63  C   UNL A   1      40.972  27.406  28.928  1.00  0.00     0.023 A 
ATOM     64  C   UNL A   1      41.947  27.595  27.932  1.00  0.00     0.031 A 
ATOM     65  C   UNL A   1      40.030  26.378  28.740  1.00  0.00     0.131 A 
ATOM     66  C   UNL A   1      41.919  26.812  26.767  1.00  0.00     0.055 A 
ATOM     67  C   UNL A   1      40.055  25.552  27.615  1.00  0.00     0.041 A 
ATOM     68  F   UNL A   1      39.062  26.164  29.646  1.00  0.00    -0.206 F 
ATOM     69  C   UNL A   1      40.996  25.776  26.613  1.00  0.00     0.022 A 
BRANCH  66  70
ATOM     70  S   UNL A   1      43.025  27.252  25.398  1.00  0.00     0.124 S 
ATOM     71  O   UNL A   1      42.246  28.280  24.710  1.00  0.00    -0.237 OA
ATOM     72  O   UNL A   1      44.221  27.715  26.093  1.00  0.00    -0.237 OA
ATOM     73  O   UNL A   1      43.176  25.998  24.663  1.00  0.00    -0.744 OA
ENDBRANCH  66  70
ENDBRANCH  49  63
BRANCH  50  74
ATOM     74  C   UNL A   1      40.145  33.455  36.882  1.00  0.00     0.023 A 
ATOM     75  C   UNL A   1      40.997  34.556  37.065  1.00  0.00     0.031 A 
ATOM     76  C   UNL A   1      39.231  33.154  37.908  1.00  0.00     0.131 A 
ATOM     77  C   UNL A   1      40.960  35.278  38.267  1.00  0.00     0.055 A 
ATOM     78  C   UNL A   1      39.157  33.912  39.077  1.00  0.00     0.041 A 
ATOM     79  F   UNL A   1      38.394  32.111  37.788  1.00  0.00    -0.206 F 
ATOM     80  C   UNL A   1      40.038  34.972  39.269  1.00  0.00     0.022 A 
BRANCH  77  81
ATOM     81  S   UNL A   1      42.215  36.558  38.550  1.00  0.00     0.124 S 
ATOM     82  O   UNL A   1      41.512  37.471  39.444  1.00  0.00    -0.237 OA
ATOM     83  O   UNL A   1      43.302  35.787  39.146  1.00  0.00    -0.237 OA
ATOM     84  O   UNL A   1      42.481  37.075  37.210  1.00  0.00    -0.744 OA
ENDBRANCH  77  81
ENDBRANCH  50  74
BRANCH  62  85
ATOM     85  C   UNL A   1      44.480  28.259  35.223  1.00  0.00     0.023 A 
ATOM     86  C   UNL A   1      45.784  28.738  35.006  1.00  0.00     0.031 A 
ATOM     87  C   UNL A   1      44.312  27.186  36.117  1.00  0.00     0.131 A 
ATOM     88  C   UNL A   1      46.875  28.103  35.619  1.00  0.00     0.055 A 
ATOM     89  C   UNL A   1      45.395  26.601  36.775  1.00  0.00     0.041 A 
ATOM     90  F   UNL A   1      43.090  26.687  36.363  1.00  0.00    -0.206 F 
ATOM     91  C   UNL A   1      46.686  27.047  36.514  1.00  0.00     0.022 A 
BRANCH  88  92
ATOM     92  S   UNL A   1      48.552  28.603  35.143  1.00  0.00     0.124 S 
ATOM     93  O   UNL A   1      48.594  28.226  33.734  1.00  0.00    -0.237 OA
ATOM     94  O   UNL A   1      48.541  30.035  35.420  1.00  0.00    -0.237 OA
ATOM     95  O   UNL A   1      49.409  27.809  36.022  1.00  0.00    -0.744 OA
ENDBRANCH  88  92
ENDBRANCH  62  85
ENDBRANCH  36  37
ENDBRANCH  29  31
ENDBRANCH  28  29
ENDBRANCH  27  28
ENDBRANCH  26  27
ENDBRANCH  25  26
ENDBRANCH  24  25
ENDBRANCH   1  24
TORSDOF 23
ENDMDL
