MODEL 1
REMARK VINA RESULT:     -10.6      0.000      0.000
REMARK SMILES CC(C)[NH2+][C@](C)(C[N@@H+]1CCC(C)(C)C1)C(=O)OCCOCCOC(=O)c1ccc(-c2c3nc(c(-c4cc(S(=O)(=O)[O-])ccc4F)c4ccc([nH]4)c(-c4cc(S(=O)(=O)[O-])ccc4F)c4nc(c(-c5cc(S(=O)(=O)[O-])ccc5F)c5ccc2[nH]5)C=C4)C=C3)cc1
REMARK SMILES IDX 21 1 20 2 19 3 18 4 17 5 15 6 16 7 5 8 6 9 4 10 2 13 1 14
REMARK SMILES IDX 3 15 7 16 8 17 9 18 14 19 10 21 11 22 12 23 13 24 22 25
REMARK SMILES IDX 23 26 24 27 25 28 26 29 27 30 88 31 28 32 87 33 29 34 30 35
REMARK SMILES IDX 31 36 81 37 32 38 86 39 80 40 82 41 33 42 85 43 79 44 78 45
REMARK SMILES IDX 34 47 66 48 46 49 65 50 47 51 50 52 64 53 83 54 48 55 49 56
REMARK SMILES IDX 63 58 84 59 51 60 35 61 36 62 44 63 37 64 43 65 45 66 42 67
REMARK SMILES IDX 38 68 39 69 40 70 41 71 67 72 68 73 76 74 69 75 75 76 77 77
REMARK SMILES IDX 74 78 70 79 71 80 72 81 73 82 52 83 53 84 61 85 54 86 60 87
REMARK SMILES IDX 62 88 59 89 55 90 56 91 57 92 58 93
REMARK H PARENT 4 11 4 12 8 20 82 46 50 57
REMARK Flexibility Score: inf
ROOT
ATOM      1  C   UNL A   1      31.876  29.408  25.406  1.00  0.00     0.202 C 
ENDROOT
BRANCH   1   2
ATOM      2  O   UNL A   1      31.093  28.277  25.780  1.00  0.00    -0.374 OA
BRANCH   2   3
ATOM      3  C   UNL A   1      31.083  27.145  24.925  1.00  0.00     0.202 C 
BRANCH   3   4
ATOM      4  C   UNL A   1      30.198  25.993  25.438  1.00  0.00     0.261 C 
BRANCH   4   5
ATOM      5  O   UNL A   1      30.691  24.659  25.175  1.00  0.00    -0.458 OA
BRANCH   5   6
ATOM      6  C   UNL A   1      31.457  24.122  26.167  1.00  0.00     0.373 C 
ATOM      7  O   UNL A   1      31.384  24.490  27.342  1.00  0.00    -0.244 OA
BRANCH   6   8
ATOM      8  C   UNL A   1      32.655  23.223  25.667  1.00  0.00     0.240 C 
ATOM      9  C   UNL A   1      33.872  24.170  25.686  1.00  0.00     0.099 C 
BRANCH   8  10
ATOM     10  N   UNL A   1      32.210  22.917  24.267  1.00  0.00    -0.326 N 
ATOM     11  H   UNL A   1      32.051  21.909  24.246  1.00  0.00     0.347 HD
ATOM     12  H   UNL A   1      31.445  23.585  24.168  1.00  0.00     0.347 HD
BRANCH  10  13
ATOM     13  C   UNL A   1      32.973  23.214  23.062  1.00  0.00     0.177 C 
ATOM     14  C   UNL A   1      32.582  22.112  22.055  1.00  0.00     0.075 C 
ATOM     15  C   UNL A   1      32.692  24.559  22.397  1.00  0.00     0.075 C 
ENDBRANCH  10  13
ENDBRANCH   8  10
BRANCH   8  16
ATOM     16  C   UNL A   1      32.992  21.903  26.503  1.00  0.00     0.343 C 
BRANCH  16  17
ATOM     17  N   UNL A   1      33.353  20.595  25.893  1.00  0.00    -0.329 N 
ATOM     18  C   UNL A   1      34.503  20.473  25.012  1.00  0.00     0.263 C 
ATOM     19  C   UNL A   1      32.259  19.931  25.149  1.00  0.00     0.269 C 
ATOM     20  H   UNL A   1      33.597  20.155  26.781  1.00  0.00     0.348 HD
ATOM     21  C   UNL A   1      34.432  19.005  24.576  1.00  0.00     0.073 C 
ATOM     22  C   UNL A   1      32.925  18.675  24.518  1.00  0.00     0.019 C 
ATOM     23  C   UNL A   1      32.533  18.436  23.054  1.00  0.00     0.017 C 
ATOM     24  C   UNL A   1      32.555  17.399  25.299  1.00  0.00     0.017 C 
ENDBRANCH  16  17
ENDBRANCH   8  16
ENDBRANCH   6   8
ENDBRANCH   5   6
ENDBRANCH   4   5
ENDBRANCH   3   4
ENDBRANCH   2   3
ENDBRANCH   1   2
BRANCH   1  25
ATOM     25  C   UNL A   1      32.178  30.480  26.435  1.00  0.00     0.261 C 
BRANCH  25  26
ATOM     26  O   UNL A   1      33.546  30.658  26.714  1.00  0.00    -0.460 OA
BRANCH  26  27
ATOM     27  C   UNL A   1      33.828  31.688  27.526  1.00  0.00     0.338 C 
ATOM     28  O   UNL A   1      33.248  32.743  27.673  1.00  0.00    -0.246 OA
BRANCH  27  29
ATOM     29  C   UNL A   1      35.086  31.262  28.106  1.00  0.00     0.060 A 
ATOM     30  C   UNL A   1      35.242  29.910  28.396  1.00  0.00     0.016 A 
ATOM     31  C   UNL A   1      36.139  32.183  28.164  1.00  0.00     0.016 A 
ATOM     32  C   UNL A   1      36.476  29.477  28.833  1.00  0.00     0.010 A 
ATOM     33  C   UNL A   1      37.383  31.739  28.572  1.00  0.00     0.010 A 
ATOM     34  C   UNL A   1      37.531  30.395  28.945  1.00  0.00    -0.014 A 
BRANCH  34  35
ATOM     35  C   UNL A   1      38.765  29.952  29.601  1.00  0.00     0.031 A 
ATOM     36  C   UNL A   1      39.054  30.481  30.969  1.00  0.00     0.074 A 
ATOM     37  C   UNL A   1      39.535  29.044  28.982  1.00  0.00     0.049 A 
ATOM     38  N   UNL A   1      40.019  30.170  31.786  1.00  0.00    -0.248 NA
ATOM     39  C   UNL A   1      38.127  31.505  31.487  1.00  0.00     0.031 C 
ATOM     40  C   UNL A   1      39.279  28.495  27.646  1.00  0.00     0.029 A 
ATOM     41  N   UNL A   1      40.668  28.410  29.397  1.00  0.00    -0.354 N 
ATOM     42  C   UNL A   1      39.813  30.949  32.918  1.00  0.00     0.074 A 
ATOM     43  C   UNL A   1      38.667  31.790  32.660  1.00  0.00     0.031 C 
ATOM     44  C   UNL A   1      40.224  27.584  27.363  1.00  0.00     0.029 A 
ATOM     45  C   UNL A   1      41.161  27.515  28.479  1.00  0.00     0.049 A 
ATOM     46  H   UNL A   1      41.091  28.576  30.270  1.00  0.00     0.167 HD
ATOM     47  C   UNL A   1      40.519  30.938  34.073  1.00  0.00     0.034 A 
ATOM     48  C   UNL A   1      42.256  26.735  28.549  1.00  0.00     0.034 A 
ATOM     49  C   UNL A   1      41.670  30.092  34.262  1.00  0.00     0.049 A 
ATOM     50  C   UNL A   1      43.055  26.781  29.826  1.00  0.00     0.074 A 
ATOM     51  C   UNL A   1      42.486  29.975  35.371  1.00  0.00     0.029 A 
ATOM     52  N   UNL A   1      42.176  29.223  33.299  1.00  0.00    -0.354 N 
ATOM     53  N   UNL A   1      42.841  27.497  30.909  1.00  0.00    -0.248 NA
ATOM     54  C   UNL A   1      44.227  25.906  29.901  1.00  0.00     0.031 C 
ATOM     55  C   UNL A   1      43.525  29.093  35.051  1.00  0.00     0.029 A 
ATOM     56  C   UNL A   1      43.311  28.591  33.774  1.00  0.00     0.049 A 
ATOM     57  H   UNL A   1      41.782  29.078  32.407  1.00  0.00     0.167 HD
ATOM     58  C   UNL A   1      43.841  27.140  31.806  1.00  0.00     0.074 A 
ATOM     59  C   UNL A   1      44.639  26.126  31.140  1.00  0.00     0.031 C 
ATOM     60  C   UNL A   1      44.084  27.597  33.063  1.00  0.00     0.034 A 
BRANCH  47  61
ATOM     61  C   UNL A   1      40.092  31.899  35.154  1.00  0.00     0.023 A 
ATOM     62  C   UNL A   1      39.258  31.504  36.216  1.00  0.00     0.031 A 
ATOM     63  C   UNL A   1      40.476  33.251  35.091  1.00  0.00     0.131 A 
ATOM     64  C   UNL A   1      38.775  32.459  37.124  1.00  0.00     0.055 A 
ATOM     65  C   UNL A   1      40.059  34.181  36.046  1.00  0.00     0.041 A 
ATOM     66  F   UNL A   1      41.244  33.697  34.085  1.00  0.00    -0.206 F 
ATOM     67  C   UNL A   1      39.191  33.791  37.062  1.00  0.00     0.022 A 
BRANCH  64  68
ATOM     68  S   UNL A   1      37.480  31.970  38.297  1.00  0.00     0.124 S 
ATOM     69  O   UNL A   1      36.441  32.960  38.020  1.00  0.00    -0.237 OA
ATOM     70  O   UNL A   1      37.183  30.602  37.889  1.00  0.00    -0.237 OA
ATOM     71  O   UNL A   1      38.127  32.105  39.601  1.00  0.00    -0.744 OA
ENDBRANCH  64  68
ENDBRANCH  47  61
BRANCH  48  72
ATOM     72  C   UNL A   1      42.647  25.876  27.397  1.00  0.00     0.023 A 
ATOM     73  C   UNL A   1      42.193  24.555  27.283  1.00  0.00     0.031 A 
ATOM     74  C   UNL A   1      43.504  26.366  26.393  1.00  0.00     0.131 A 
ATOM     75  C   UNL A   1      42.630  23.753  26.216  1.00  0.00     0.055 A 
ATOM     76  C   UNL A   1      43.892  25.583  25.305  1.00  0.00     0.041 A 
ATOM     77  F   UNL A   1      43.964  27.627  26.447  1.00  0.00    -0.206 F 
ATOM     78  C   UNL A   1      43.466  24.263  25.219  1.00  0.00     0.022 A 
BRANCH  75  79
ATOM     79  S   UNL A   1      42.158  22.003  26.193  1.00  0.00     0.124 S 
ATOM     80  O   UNL A   1      42.543  21.574  27.534  1.00  0.00    -0.237 OA
ATOM     81  O   UNL A   1      40.725  22.080  25.930  1.00  0.00    -0.237 OA
ATOM     82  O   UNL A   1      42.961  21.447  25.106  1.00  0.00    -0.744 OA
ENDBRANCH  75  79
ENDBRANCH  48  72
BRANCH  60  83
ATOM     83  C   UNL A   1      45.246  26.970  33.789  1.00  0.00     0.023 A 
ATOM     84  C   UNL A   1      45.095  25.791  34.536  1.00  0.00     0.031 A 
ATOM     85  C   UNL A   1      46.516  27.571  33.740  1.00  0.00     0.131 A 
ATOM     86  C   UNL A   1      46.180  25.288  35.266  1.00  0.00     0.055 A 
ATOM     87  C   UNL A   1      47.611  27.022  34.407  1.00  0.00     0.041 A 
ATOM     88  F   UNL A   1      46.713  28.699  33.039  1.00  0.00    -0.206 F 
ATOM     89  C   UNL A   1      47.442  25.884  35.189  1.00  0.00     0.022 A 
BRANCH  86  90
ATOM     90  S   UNL A   1      45.889  23.909  36.406  1.00  0.00     0.124 S 
ATOM     91  O   UNL A   1      47.153  23.183  36.329  1.00  0.00    -0.237 OA
ATOM     92  O   UNL A   1      45.625  24.595  37.666  1.00  0.00    -0.237 OA
ATOM     93  O   UNL A   1      44.741  23.219  35.822  1.00  0.00    -0.744 OA
ENDBRANCH  86  90
ENDBRANCH  60  83
ENDBRANCH  34  35
ENDBRANCH  27  29
ENDBRANCH  26  27
ENDBRANCH  25  26
ENDBRANCH   1  25
TORSDOF 21
ENDMDL
MODEL 2
REMARK VINA RESULT:     -10.5      4.890     10.400
REMARK SMILES CC(C)[NH2+][C@](C)(C[N@@H+]1CCC(C)(C)C1)C(=O)OCCOCCOC(=O)c1ccc(-c2c3nc(c(-c4cc(S(=O)(=O)[O-])ccc4F)c4ccc([nH]4)c(-c4cc(S(=O)(=O)[O-])ccc4F)c4nc(c(-c5cc(S(=O)(=O)[O-])ccc5F)c5ccc2[nH]5)C=C4)C=C3)cc1
REMARK SMILES IDX 21 1 20 2 19 3 18 4 17 5 15 6 16 7 5 8 6 9 4 10 2 13 1 14
REMARK SMILES IDX 3 15 7 16 8 17 9 18 14 19 10 21 11 22 12 23 13 24 22 25
REMARK SMILES IDX 23 26 24 27 25 28 26 29 27 30 88 31 28 32 87 33 29 34 30 35
REMARK SMILES IDX 31 36 81 37 32 38 86 39 80 40 82 41 33 42 85 43 79 44 78 45
REMARK SMILES IDX 34 47 66 48 46 49 65 50 47 51 50 52 64 53 83 54 48 55 49 56
REMARK SMILES IDX 63 58 84 59 51 60 35 61 36 62 44 63 37 64 43 65 45 66 42 67
REMARK SMILES IDX 38 68 39 69 40 70 41 71 67 72 68 73 76 74 69 75 75 76 77 77
REMARK SMILES IDX 74 78 70 79 71 80 72 81 73 82 52 83 53 84 61 85 54 86 60 87
REMARK SMILES IDX 62 88 59 89 55 90 56 91 57 92 58 93
REMARK H PARENT 4 11 4 12 8 20 82 46 50 57
REMARK Flexibility Score: inf
ROOT
ATOM      1  C   UNL A   1      36.907  20.006  24.930  1.00  0.00     0.202 C 
ENDROOT
BRANCH   1   2
ATOM      2  O   UNL A   1      35.484  20.067  24.993  1.00  0.00    -0.374 OA
BRANCH   2   3
ATOM      3  C   UNL A   1      34.862  21.340  25.069  1.00  0.00     0.202 C 
BRANCH   3   4
ATOM      4  C   UNL A   1      33.800  21.574  23.979  1.00  0.00     0.261 C 
BRANCH   4   5
ATOM      5  O   UNL A   1      33.002  22.771  24.126  1.00  0.00    -0.458 OA
BRANCH   5   6
ATOM      6  C   UNL A   1      33.479  23.866  23.466  1.00  0.00     0.373 C 
ATOM      7  O   UNL A   1      34.408  23.806  22.657  1.00  0.00    -0.244 OA
BRANCH   6   8
ATOM      8  C   UNL A   1      32.977  25.252  24.032  1.00  0.00     0.240 C 
ATOM      9  C   UNL A   1      33.907  25.530  25.230  1.00  0.00     0.099 C 
BRANCH   8  10
ATOM     10  N   UNL A   1      31.591  24.887  24.477  1.00  0.00    -0.326 N 
ATOM     11  H   UNL A   1      30.967  25.500  23.951  1.00  0.00     0.347 HD
ATOM     12  H   UNL A   1      31.609  23.879  24.324  1.00  0.00     0.347 HD
BRANCH  10  13
ATOM     13  C   UNL A   1      31.113  24.935  25.851  1.00  0.00     0.177 C 
ATOM     14  C   UNL A   1      29.775  25.702  25.788  1.00  0.00     0.075 C 
ATOM     15  C   UNL A   1      30.835  23.590  26.519  1.00  0.00     0.075 C 
ENDBRANCH  10  13
ENDBRANCH   8  10
BRANCH   8  16
ATOM     16  C   UNL A   1      32.991  26.507  23.043  1.00  0.00     0.343 C 
BRANCH  16  17
ATOM     17  N   UNL A   1      32.093  27.685  23.171  1.00  0.00    -0.329 N 
ATOM     18  C   UNL A   1      31.748  28.222  24.477  1.00  0.00     0.263 C 
ATOM     19  C   UNL A   1      30.789  27.554  22.482  1.00  0.00     0.269 C 
ATOM     20  H   UNL A   1      32.747  28.335  22.734  1.00  0.00     0.348 HD
ATOM     21  C   UNL A   1      30.765  29.345  24.124  1.00  0.00     0.073 C 
ATOM     22  C   UNL A   1      30.010  28.841  22.876  1.00  0.00     0.019 C 
ATOM     23  C   UNL A   1      28.547  28.586  23.258  1.00  0.00     0.017 C 
ATOM     24  C   UNL A   1      30.004  29.861  21.720  1.00  0.00     0.017 C 
ENDBRANCH  16  17
ENDBRANCH   8  16
ENDBRANCH   6   8
ENDBRANCH   5   6
ENDBRANCH   4   5
ENDBRANCH   3   4
ENDBRANCH   2   3
ENDBRANCH   1   2
BRANCH   1  25
ATOM     25  C   UNL A   1      37.708  21.293  24.884  1.00  0.00     0.261 C 
BRANCH  25  26
ATOM     26  O   UNL A   1      38.252  21.690  26.120  1.00  0.00    -0.460 OA
BRANCH  26  27
ATOM     27  C   UNL A   1      39.547  21.384  26.292  1.00  0.00     0.338 C 
ATOM     28  O   UNL A   1      40.112  20.314  26.199  1.00  0.00    -0.246 OA
BRANCH  27  29
ATOM     29  C   UNL A   1      40.086  22.652  26.739  1.00  0.00     0.060 A 
ATOM     30  C   UNL A   1      39.557  23.814  26.183  1.00  0.00     0.016 A 
ATOM     31  C   UNL A   1      40.960  22.657  27.832  1.00  0.00     0.016 A 
ATOM     32  C   UNL A   1      39.977  25.026  26.689  1.00  0.00     0.010 A 
ATOM     33  C   UNL A   1      41.353  23.873  28.358  1.00  0.00     0.010 A 
ATOM     34  C   UNL A   1      40.891  25.052  27.754  1.00  0.00    -0.014 A 
BRANCH  34  35
ATOM     35  C   UNL A   1      41.471  26.343  28.134  1.00  0.00     0.031 A 
ATOM     36  C   UNL A   1      42.855  26.650  27.658  1.00  0.00     0.074 A 
ATOM     37  C   UNL A   1      40.716  27.213  28.821  1.00  0.00     0.049 A 
ATOM     38  N   UNL A   1      43.542  27.750  27.778  1.00  0.00    -0.248 NA
ATOM     39  C   UNL A   1      43.563  25.568  26.950  1.00  0.00     0.031 C 
ATOM     40  C   UNL A   1      39.353  26.951  29.296  1.00  0.00     0.029 A 
ATOM     41  N   UNL A   1      40.973  28.491  29.221  1.00  0.00    -0.354 N 
ATOM     42  C   UNL A   1      44.758  27.499  27.155  1.00  0.00     0.074 A 
ATOM     43  C   UNL A   1      44.738  26.125  26.708  1.00  0.00     0.031 C 
ATOM     44  C   UNL A   1      38.887  28.053  29.905  1.00  0.00     0.029 A 
ATOM     45  C   UNL A   1      39.927  29.075  29.892  1.00  0.00     0.049 A 
ATOM     46  H   UNL A   1      41.826  28.950  29.045  1.00  0.00     0.167 HD
ATOM     47  C   UNL A   1      45.786  28.357  26.963  1.00  0.00     0.034 A 
ATOM     48  C   UNL A   1      39.840  30.304  30.432  1.00  0.00     0.034 A 
ATOM     49  C   UNL A   1      45.758  29.712  27.454  1.00  0.00     0.049 A 
ATOM     50  C   UNL A   1      41.020  31.223  30.251  1.00  0.00     0.074 A 
ATOM     51  C   UNL A   1      46.722  30.695  27.341  1.00  0.00     0.029 A 
ATOM     52  N   UNL A   1      44.701  30.269  28.170  1.00  0.00    -0.354 N 
ATOM     53  N   UNL A   1      42.158  30.994  29.634  1.00  0.00    -0.248 NA
ATOM     54  C   UNL A   1      40.900  32.568  30.819  1.00  0.00     0.031 C 
ATOM     55  C   UNL A   1      46.280  31.817  28.052  1.00  0.00     0.029 A 
ATOM     56  C   UNL A   1      45.003  31.569  28.534  1.00  0.00     0.049 A 
ATOM     57  H   UNL A   1      43.860  29.804  28.386  1.00  0.00     0.167 HD
ATOM     58  C   UNL A   1      42.884  32.177  29.717  1.00  0.00     0.074 A 
ATOM     59  C   UNL A   1      42.038  33.121  30.425  1.00  0.00     0.031 C 
ATOM     60  C   UNL A   1      44.129  32.467  29.257  1.00  0.00     0.034 A 
BRANCH  47  61
ATOM     61  C   UNL A   1      47.011  27.827  26.260  1.00  0.00     0.023 A 
ATOM     62  C   UNL A   1      47.254  28.078  24.897  1.00  0.00     0.031 A 
ATOM     63  C   UNL A   1      47.920  27.003  26.947  1.00  0.00     0.131 A 
ATOM     64  C   UNL A   1      48.332  27.454  24.249  1.00  0.00     0.055 A 
ATOM     65  C   UNL A   1      49.038  26.451  26.316  1.00  0.00     0.041 A 
ATOM     66  F   UNL A   1      47.726  26.699  28.240  1.00  0.00    -0.206 F 
ATOM     67  C   UNL A   1      49.241  26.662  24.956  1.00  0.00     0.022 A 
BRANCH  64  68
ATOM     68  S   UNL A   1      48.447  27.567  22.441  1.00  0.00     0.124 S 
ATOM     69  O   UNL A   1      48.519  26.159  22.061  1.00  0.00    -0.237 OA
ATOM     70  O   UNL A   1      47.213  28.262  22.090  1.00  0.00    -0.237 OA
ATOM     71  O   UNL A   1      49.675  28.328  22.222  1.00  0.00    -0.744 OA
ENDBRANCH  64  68
ENDBRANCH  47  61
BRANCH  48  72
ATOM     72  C   UNL A   1      38.620  30.715  31.182  1.00  0.00     0.023 A 
ATOM     73  C   UNL A   1      37.546  31.347  30.541  1.00  0.00     0.031 A 
ATOM     74  C   UNL A   1      38.520  30.494  32.569  1.00  0.00     0.131 A 
ATOM     75  C   UNL A   1      36.437  31.776  31.289  1.00  0.00     0.055 A 
ATOM     76  C   UNL A   1      37.393  30.872  33.300  1.00  0.00     0.041 A 
ATOM     77  F   UNL A   1      39.516  29.886  33.235  1.00  0.00    -0.206 F 
ATOM     78  C   UNL A   1      36.347  31.530  32.662  1.00  0.00     0.022 A 
BRANCH  75  79
ATOM     79  S   UNL A   1      35.145  32.737  30.456  1.00  0.00     0.124 S 
ATOM     80  O   UNL A   1      34.147  32.872  31.512  1.00  0.00    -0.237 OA
ATOM     81  O   UNL A   1      35.863  33.954  30.092  1.00  0.00    -0.237 OA
ATOM     82  O   UNL A   1      34.756  31.886  29.334  1.00  0.00    -0.744 OA
ENDBRANCH  75  79
ENDBRANCH  48  72
BRANCH  60  83
ATOM     83  C   UNL A   1      44.616  33.874  29.489  1.00  0.00     0.023 A 
ATOM     84  C   UNL A   1      44.292  34.918  28.607  1.00  0.00     0.031 A 
ATOM     85  C   UNL A   1      45.427  34.166  30.599  1.00  0.00     0.131 A 
ATOM     86  C   UNL A   1      44.835  36.193  28.812  1.00  0.00     0.055 A 
ATOM     87  C   UNL A   1      45.903  35.454  30.838  1.00  0.00     0.041 A 
ATOM     88  F   UNL A   1      45.767  33.203  31.471  1.00  0.00    -0.206 F 
ATOM     89  C   UNL A   1      45.622  36.473  29.933  1.00  0.00     0.022 A 
BRANCH  86  90
ATOM     90  S   UNL A   1      44.592  37.451  27.530  1.00  0.00     0.124 S 
ATOM     91  O   UNL A   1      45.841  37.360  26.778  1.00  0.00    -0.237 OA
ATOM     92  O   UNL A   1      43.398  36.971  26.842  1.00  0.00    -0.237 OA
ATOM     93  O   UNL A   1      44.416  38.685  28.292  1.00  0.00    -0.744 OA
ENDBRANCH  86  90
ENDBRANCH  60  83
ENDBRANCH  34  35
ENDBRANCH  27  29
ENDBRANCH  26  27
ENDBRANCH  25  26
ENDBRANCH   1  25
TORSDOF 21
ENDMDL
MODEL 3
REMARK VINA RESULT:     -10.4      1.562      2.124
REMARK SMILES CC(C)[NH2+][C@](C)(C[N@@H+]1CCC(C)(C)C1)C(=O)OCCOCCOC(=O)c1ccc(-c2c3nc(c(-c4cc(S(=O)(=O)[O-])ccc4F)c4ccc([nH]4)c(-c4cc(S(=O)(=O)[O-])ccc4F)c4nc(c(-c5cc(S(=O)(=O)[O-])ccc5F)c5ccc2[nH]5)C=C4)C=C3)cc1
REMARK SMILES IDX 21 1 20 2 19 3 18 4 17 5 15 6 16 7 5 8 6 9 4 10 2 13 1 14
REMARK SMILES IDX 3 15 7 16 8 17 9 18 14 19 10 21 11 22 12 23 13 24 22 25
REMARK SMILES IDX 23 26 24 27 25 28 26 29 27 30 88 31 28 32 87 33 29 34 30 35
REMARK SMILES IDX 31 36 81 37 32 38 86 39 80 40 82 41 33 42 85 43 79 44 78 45
REMARK SMILES IDX 34 47 66 48 46 49 65 50 47 51 50 52 64 53 83 54 48 55 49 56
REMARK SMILES IDX 63 58 84 59 51 60 35 61 36 62 44 63 37 64 43 65 45 66 42 67
REMARK SMILES IDX 38 68 39 69 40 70 41 71 67 72 68 73 76 74 69 75 75 76 77 77
REMARK SMILES IDX 74 78 70 79 71 80 72 81 73 82 52 83 53 84 61 85 54 86 60 87
REMARK SMILES IDX 62 88 59 89 55 90 56 91 57 92 58 93
REMARK H PARENT 4 11 4 12 8 20 82 46 50 57
REMARK Flexibility Score: inf
ROOT
ATOM      1  C   UNL A   1      32.013  29.331  24.891  1.00  0.00     0.202 C 
ENDROOT
BRANCH   1   2
ATOM      2  O   UNL A   1      30.913  28.424  24.841  1.00  0.00    -0.374 OA
BRANCH   2   3
ATOM      3  C   UNL A   1      30.951  27.363  23.900  1.00  0.00     0.202 C 
BRANCH   3   4
ATOM      4  C   UNL A   1      32.376  26.982  23.459  1.00  0.00     0.261 C 
BRANCH   4   5
ATOM      5  O   UNL A   1      32.900  25.756  24.019  1.00  0.00    -0.458 OA
BRANCH   5   6
ATOM      6  C   UNL A   1      32.876  24.682  23.179  1.00  0.00     0.373 C 
ATOM      7  O   UNL A   1      33.285  24.732  22.017  1.00  0.00    -0.244 OA
BRANCH   6   8
ATOM      8  C   UNL A   1      32.009  23.462  23.686  1.00  0.00     0.240 C 
ATOM      9  C   UNL A   1      30.568  23.828  23.279  1.00  0.00     0.099 C 
BRANCH   8  10
ATOM     10  N   UNL A   1      32.213  23.572  25.169  1.00  0.00    -0.326 N 
ATOM     11  H   UNL A   1      33.211  23.418  25.318  1.00  0.00     0.347 HD
ATOM     12  H   UNL A   1      31.776  24.477  25.347  1.00  0.00     0.347 HD
BRANCH  10  13
ATOM     13  C   UNL A   1      31.541  22.755  26.170  1.00  0.00     0.177 C 
ATOM     14  C   UNL A   1      32.553  22.618  27.326  1.00  0.00     0.075 C 
ATOM     15  C   UNL A   1      30.252  23.327  26.757  1.00  0.00     0.075 C 
ENDBRANCH  10  13
ENDBRANCH   8  10
BRANCH   8  16
ATOM     16  C   UNL A   1      32.371  22.010  23.126  1.00  0.00     0.343 C 
BRANCH  16  17
ATOM     17  N   UNL A   1      32.945  20.914  23.950  1.00  0.00    -0.329 N 
ATOM     18  C   UNL A   1      34.368  20.868  24.248  1.00  0.00     0.263 C 
ATOM     19  C   UNL A   1      32.636  19.547  23.472  1.00  0.00     0.269 C 
ATOM     20  H   UNL A   1      32.461  21.190  24.804  1.00  0.00     0.348 HD
ATOM     21  C   UNL A   1      34.501  19.556  25.030  1.00  0.00     0.073 C 
ATOM     22  C   UNL A   1      33.445  18.612  24.416  1.00  0.00     0.019 C 
ATOM     23  C   UNL A   1      34.172  17.476  23.686  1.00  0.00     0.017 C 
ATOM     24  C   UNL A   1      32.529  17.960  25.470  1.00  0.00     0.017 C 
ENDBRANCH  16  17
ENDBRANCH   8  16
ENDBRANCH   6   8
ENDBRANCH   5   6
ENDBRANCH   4   5
ENDBRANCH   3   4
ENDBRANCH   2   3
ENDBRANCH   1   2
BRANCH   1  25
ATOM     25  C   UNL A   1      32.156  30.265  26.077  1.00  0.00     0.261 C 
BRANCH  25  26
ATOM     26  O   UNL A   1      33.484  30.490  26.489  1.00  0.00    -0.460 OA
BRANCH  26  27
ATOM     27  C   UNL A   1      33.648  31.528  27.323  1.00  0.00     0.338 C 
ATOM     28  O   UNL A   1      33.003  32.551  27.428  1.00  0.00    -0.246 OA
BRANCH  27  29
ATOM     29  C   UNL A   1      34.878  31.165  27.996  1.00  0.00     0.060 A 
ATOM     30  C   UNL A   1      35.064  29.827  28.332  1.00  0.00     0.016 A 
ATOM     31  C   UNL A   1      35.890  32.127  28.100  1.00  0.00     0.016 A 
ATOM     32  C   UNL A   1      36.280  29.452  28.862  1.00  0.00     0.010 A 
ATOM     33  C   UNL A   1      37.119  31.741  28.602  1.00  0.00     0.010 A 
ATOM     34  C   UNL A   1      37.291  30.413  29.020  1.00  0.00    -0.014 A 
BRANCH  34  35
ATOM     35  C   UNL A   1      38.493  30.033  29.768  1.00  0.00     0.031 A 
ATOM     36  C   UNL A   1      38.641  30.561  31.159  1.00  0.00     0.074 A 
ATOM     37  C   UNL A   1      39.361  29.178  29.206  1.00  0.00     0.049 A 
ATOM     38  N   UNL A   1      39.555  30.295  32.048  1.00  0.00    -0.248 NA
ATOM     39  C   UNL A   1      37.619  31.523  31.610  1.00  0.00     0.031 C 
ATOM     40  C   UNL A   1      39.244  28.633  27.850  1.00  0.00     0.029 A 
ATOM     41  N   UNL A   1      40.493  28.605  29.704  1.00  0.00    -0.354 N 
ATOM     42  C   UNL A   1      39.216  31.047  33.167  1.00  0.00     0.074 A 
ATOM     43  C   UNL A   1      38.047  31.824  32.825  1.00  0.00     0.031 C 
ATOM     44  C   UNL A   1      40.259  27.781  27.635  1.00  0.00     0.029 A 
ATOM     45  C   UNL A   1      41.108  27.752  28.821  1.00  0.00     0.049 A 
ATOM     46  H   UNL A   1      40.835  28.785  30.609  1.00  0.00     0.167 HD
ATOM     47  C   UNL A   1      39.828  31.062  34.373  1.00  0.00     0.034 A 
ATOM     48  C   UNL A   1      42.237  27.036  28.972  1.00  0.00     0.034 A 
ATOM     49  C   UNL A   1      41.008  30.281  34.647  1.00  0.00     0.049 A 
ATOM     50  C   UNL A   1      42.929  27.112  30.309  1.00  0.00     0.074 A 
ATOM     51  C   UNL A   1      41.739  30.197  35.816  1.00  0.00     0.029 A 
ATOM     52  N   UNL A   1      41.638  29.455  33.720  1.00  0.00    -0.354 N 
ATOM     53  N   UNL A   1      42.589  27.800  31.377  1.00  0.00    -0.248 NA
ATOM     54  C   UNL A   1      44.140  26.304  30.470  1.00  0.00     0.031 C 
ATOM     55  C   UNL A   1      42.849  29.381  35.573  1.00  0.00     0.029 A 
ATOM     56  C   UNL A   1      42.767  28.883  34.279  1.00  0.00     0.049 A 
ATOM     57  H   UNL A   1      41.325  29.299  32.799  1.00  0.00     0.167 HD
ATOM     58  C   UNL A   1      43.534  27.489  32.348  1.00  0.00     0.074 A 
ATOM     59  C   UNL A   1      44.440  26.532  31.740  1.00  0.00     0.031 C 
ATOM     60  C   UNL A   1      43.650  27.945  33.624  1.00  0.00     0.034 A 
BRANCH  47  61
ATOM     61  C   UNL A   1      39.262  31.984  35.425  1.00  0.00     0.023 A 
ATOM     62  C   UNL A   1      39.668  33.326  35.535  1.00  0.00     0.031 A 
ATOM     63  C   UNL A   1      38.347  31.496  36.375  1.00  0.00     0.131 A 
ATOM     64  C   UNL A   1      39.220  34.110  36.610  1.00  0.00     0.055 A 
ATOM     65  C   UNL A   1      37.841  32.305  37.395  1.00  0.00     0.041 A 
ATOM     66  F   UNL A   1      37.947  30.215  36.345  1.00  0.00    -0.206 F 
ATOM     67  C   UNL A   1      38.289  33.616  37.527  1.00  0.00     0.022 A 
BRANCH  64  68
ATOM     68  S   UNL A   1      39.983  35.734  36.882  1.00  0.00     0.124 S 
ATOM     69  O   UNL A   1      39.279  36.195  38.077  1.00  0.00    -0.237 OA
ATOM     70  O   UNL A   1      41.391  35.396  37.060  1.00  0.00    -0.237 OA
ATOM     71  O   UNL A   1      39.669  36.471  35.660  1.00  0.00    -0.744 OA
ENDBRANCH  64  68
ENDBRANCH  47  61
BRANCH  48  72
ATOM     72  C   UNL A   1      42.768  26.215  27.848  1.00  0.00     0.023 A 
ATOM     73  C   UNL A   1      42.271  24.931  27.582  1.00  0.00     0.031 A 
ATOM     74  C   UNL A   1      43.803  26.703  27.027  1.00  0.00     0.131 A 
ATOM     75  C   UNL A   1      42.835  24.161  26.552  1.00  0.00     0.055 A 
ATOM     76  C   UNL A   1      44.324  25.955  25.970  1.00  0.00     0.041 A 
ATOM     77  F   UNL A   1      44.313  27.928  27.232  1.00  0.00    -0.206 F 
ATOM     78  C   UNL A   1      43.849  24.670  25.736  1.00  0.00     0.022 A 
BRANCH  75  79
ATOM     79  S   UNL A   1      42.283  22.446  26.347  1.00  0.00     0.124 S 
ATOM     80  O   UNL A   1      40.839  22.577  26.510  1.00  0.00    -0.237 OA
ATOM     81  O   UNL A   1      42.751  22.138  25.000  1.00  0.00    -0.237 OA
ATOM     82  O   UNL A   1      42.970  21.736  27.422  1.00  0.00    -0.744 OA
ENDBRANCH  75  79
ENDBRANCH  48  72
BRANCH  60  83
ATOM     83  C   UNL A   1      44.786  27.376  34.435  1.00  0.00     0.023 A 
ATOM     84  C   UNL A   1      44.631  26.206  35.195  1.00  0.00     0.031 A 
ATOM     85  C   UNL A   1      46.033  28.024  34.454  1.00  0.00     0.131 A 
ATOM     86  C   UNL A   1      45.685  25.758  36.003  1.00  0.00     0.055 A 
ATOM     87  C   UNL A   1      47.102  27.531  35.201  1.00  0.00     0.041 A 
ATOM     88  F   UNL A   1      46.233  29.146  33.744  1.00  0.00    -0.206 F 
ATOM     89  C   UNL A   1      46.926  26.401  35.994  1.00  0.00     0.022 A 
BRANCH  86  90
ATOM     90  S   UNL A   1      45.374  24.391  37.150  1.00  0.00     0.124 S 
ATOM     91  O   UNL A   1      46.590  24.392  37.957  1.00  0.00    -0.237 OA
ATOM     92  O   UNL A   1      44.157  24.823  37.830  1.00  0.00    -0.237 OA
ATOM     93  O   UNL A   1      45.215  23.235  36.270  1.00  0.00    -0.744 OA
ENDBRANCH  86  90
ENDBRANCH  60  83
ENDBRANCH  34  35
ENDBRANCH  27  29
ENDBRANCH  26  27
ENDBRANCH  25  26
ENDBRANCH   1  25
TORSDOF 21
ENDMDL
