MODEL 1
REMARK VINA RESULT:      -9.3      0.000      0.000
REMARK SMILES O=C(OCCOCCOC(=O)[C@H]1CC2(CC[NH+](C(=O)C3CC3)CC2)CN1C(=O)CCn1cccn1)c1ccc(-c2c3nc(c(-c4cc(S(=O)(=O)[O-])ccc4F)c4ccc([nH]4)c(-c4cc(S(=O)(=O)[O-])ccc4F)c4nc(c(-c5cc(S(=O)(=O)[O-])ccc5F)c5ccc2[nH]5)C=C4)C=C3)cc1
REMARK SMILES IDX 7 1 6 2 5 3 4 4 3 5 2 6 1 7 36 8 37 9 98 10 38 11 97 12
REMARK SMILES IDX 39 13 40 14 41 15 91 16 42 17 96 18 90 19 92 20 43 21 95 22
REMARK SMILES IDX 89 23 88 24 44 26 76 27 56 28 75 29 57 30 60 31 74 32 93 33
REMARK SMILES IDX 58 34 59 35 73 37 94 38 61 39 45 40 46 41 54 42 47 43 53 44
REMARK SMILES IDX 55 45 52 46 48 47 49 48 50 49 51 50 77 51 78 52 86 53 79 54
REMARK SMILES IDX 85 55 87 56 84 57 80 58 81 59 82 60 83 61 62 62 63 63 71 64
REMARK SMILES IDX 64 65 70 66 72 67 69 68 65 69 66 70 67 71 68 72 8 73 9 74
REMARK SMILES IDX 10 75 11 76 12 77 13 78 26 79 14 80 25 81 15 82 24 83 16 84
REMARK SMILES IDX 23 85 17 86 27 88 28 89 29 90 30 91 31 92 32 93 35 94 33 95
REMARK SMILES IDX 34 96 18 97 19 98 20 99 21 100 22 101
REMARK H PARENT 92 25 60 36 17 87
REMARK Flexibility Score: inf
ROOT
ATOM      1  C   UNL A   1      33.989  34.450  31.758  1.00  0.00     0.202 C 
ENDROOT
BRANCH   1   2
ATOM      2  O   UNL A   1      33.885  35.077  30.487  1.00  0.00    -0.374 OA
BRANCH   2   3
ATOM      3  C   UNL A   1      33.835  34.239  29.346  1.00  0.00     0.202 C 
BRANCH   3   4
ATOM      4  C   UNL A   1      35.075  33.368  29.007  1.00  0.00     0.261 C 
BRANCH   4   5
ATOM      5  O   UNL A   1      34.978  31.955  29.202  1.00  0.00    -0.460 OA
BRANCH   5   6
ATOM      6  C   UNL A   1      35.671  31.025  28.513  1.00  0.00     0.338 C 
ATOM      7  O   UNL A   1      35.347  30.732  27.376  1.00  0.00    -0.246 OA
BRANCH   6   8
ATOM      8  C   UNL A   1      36.952  30.546  29.077  1.00  0.00     0.060 A 
ATOM      9  C   UNL A   1      38.078  31.340  29.318  1.00  0.00     0.016 A 
ATOM     10  C   UNL A   1      37.023  29.160  29.254  1.00  0.00     0.016 A 
ATOM     11  C   UNL A   1      39.288  30.775  29.607  1.00  0.00     0.010 A 
ATOM     12  C   UNL A   1      38.234  28.578  29.542  1.00  0.00     0.010 A 
ATOM     13  C   UNL A   1      39.355  29.398  29.653  1.00  0.00    -0.014 A 
BRANCH  13  14
ATOM     14  C   UNL A   1      40.660  28.846  29.901  1.00  0.00     0.031 A 
ATOM     15  C   UNL A   1      40.983  28.718  31.342  1.00  0.00     0.074 A 
ATOM     16  C   UNL A   1      41.372  28.419  28.847  1.00  0.00     0.049 A 
ATOM     17  N   UNL A   1      42.025  29.141  31.978  1.00  0.00    -0.248 NA
ATOM     18  C   UNL A   1      39.912  28.218  32.227  1.00  0.00     0.031 C 
ATOM     19  C   UNL A   1      40.919  28.364  27.452  1.00  0.00     0.029 A 
ATOM     20  N   UNL A   1      42.544  27.743  28.826  1.00  0.00    -0.354 N 
ATOM     21  C   UNL A   1      41.845  28.722  33.295  1.00  0.00     0.074 A 
ATOM     22  C   UNL A   1      40.455  28.401  33.425  1.00  0.00     0.031 C 
ATOM     23  C   UNL A   1      41.637  27.422  26.809  1.00  0.00     0.029 A 
ATOM     24  C   UNL A   1      42.641  26.905  27.722  1.00  0.00     0.049 A 
ATOM     25  H   UNL A   1      43.244  27.836  29.511  1.00  0.00     0.167 HD
ATOM     26  C   UNL A   1      42.907  28.373  34.069  1.00  0.00     0.034 A 
ATOM     27  C   UNL A   1      43.365  25.761  27.650  1.00  0.00     0.034 A 
ATOM     28  C   UNL A   1      44.120  28.998  33.580  1.00  0.00     0.049 A 
ATOM     29  C   UNL A   1      44.380  25.814  28.738  1.00  0.00     0.074 A 
ATOM     30  C   UNL A   1      44.489  30.310  33.349  1.00  0.00     0.029 A 
ATOM     31  N   UNL A   1      45.036  28.230  32.888  1.00  0.00    -0.354 N 
ATOM     32  N   UNL A   1      45.329  26.710  28.792  1.00  0.00    -0.248 NA
ATOM     33  C   UNL A   1      44.062  25.185  30.015  1.00  0.00     0.031 C 
ATOM     34  C   UNL A   1      45.279  30.271  32.163  1.00  0.00     0.029 A 
ATOM     35  C   UNL A   1      45.415  28.937  31.774  1.00  0.00     0.049 A 
ATOM     36  H   UNL A   1      45.357  27.336  33.146  1.00  0.00     0.167 HD
ATOM     37  C   UNL A   1      45.416  27.066  30.132  1.00  0.00     0.074 A 
ATOM     38  C   UNL A   1      44.709  26.007  30.849  1.00  0.00     0.031 C 
ATOM     39  C   UNL A   1      45.782  28.330  30.508  1.00  0.00     0.034 A 
BRANCH  26  40
ATOM     40  C   UNL A   1      42.914  27.127  34.943  1.00  0.00     0.023 A 
ATOM     41  C   UNL A   1      43.735  26.076  34.503  1.00  0.00     0.031 A 
ATOM     42  C   UNL A   1      41.964  26.776  35.934  1.00  0.00     0.131 A 
ATOM     43  C   UNL A   1      43.456  24.747  34.854  1.00  0.00     0.055 A 
ATOM     44  C   UNL A   1      41.736  25.456  36.336  1.00  0.00     0.041 A 
ATOM     45  F   UNL A   1      41.161  27.658  36.535  1.00  0.00    -0.206 F 
ATOM     46  C   UNL A   1      42.447  24.425  35.755  1.00  0.00     0.022 A 
BRANCH  43  47
ATOM     47  S   UNL A   1      44.288  23.447  33.916  1.00  0.00     0.124 S 
ATOM     48  O   UNL A   1      44.302  22.363  34.892  1.00  0.00    -0.237 OA
ATOM     49  O   UNL A   1      43.388  23.283  32.778  1.00  0.00    -0.237 OA
ATOM     50  O   UNL A   1      45.588  24.035  33.606  1.00  0.00    -0.744 OA
ENDBRANCH  43  47
ENDBRANCH  26  40
BRANCH  27  51
ATOM     51  C   UNL A   1      42.950  24.530  26.925  1.00  0.00     0.023 A 
ATOM     52  C   UNL A   1      43.821  23.837  26.070  1.00  0.00     0.031 A 
ATOM     53  C   UNL A   1      41.704  23.910  27.200  1.00  0.00     0.131 A 
ATOM     54  C   UNL A   1      43.426  22.604  25.504  1.00  0.00     0.055 A 
ATOM     55  C   UNL A   1      41.306  22.708  26.614  1.00  0.00     0.041 A 
ATOM     56  F   UNL A   1      40.854  24.414  28.110  1.00  0.00    -0.206 F 
ATOM     57  C   UNL A   1      42.171  22.045  25.762  1.00  0.00     0.022 A 
BRANCH  54  58
ATOM     58  S   UNL A   1      44.599  21.654  24.489  1.00  0.00     0.124 S 
ATOM     59  O   UNL A   1      44.500  22.321  23.197  1.00  0.00    -0.237 OA
ATOM     60  O   UNL A   1      45.852  21.829  25.215  1.00  0.00    -0.237 OA
ATOM     61  O   UNL A   1      44.057  20.295  24.525  1.00  0.00    -0.744 OA
ENDBRANCH  54  58
ENDBRANCH  27  51
BRANCH  39  62
ATOM     62  C   UNL A   1      46.383  29.250  29.466  1.00  0.00     0.023 A 
ATOM     63  C   UNL A   1      45.653  30.203  28.720  1.00  0.00     0.031 A 
ATOM     64  C   UNL A   1      47.784  29.257  29.336  1.00  0.00     0.131 A 
ATOM     65  C   UNL A   1      46.326  31.107  27.877  1.00  0.00     0.055 A 
ATOM     66  C   UNL A   1      48.448  30.163  28.512  1.00  0.00     0.041 A 
ATOM     67  F   UNL A   1      48.539  28.406  30.051  1.00  0.00    -0.206 F 
ATOM     68  C   UNL A   1      47.721  31.090  27.773  1.00  0.00     0.022 A 
BRANCH  65  69
ATOM     69  S   UNL A   1      45.399  32.328  26.893  1.00  0.00     0.124 S 
ATOM     70  O   UNL A   1      45.459  31.798  25.537  1.00  0.00    -0.237 OA
ATOM     71  O   UNL A   1      44.083  32.311  27.530  1.00  0.00    -0.237 OA
ATOM     72  O   UNL A   1      46.151  33.567  27.095  1.00  0.00    -0.744 OA
ENDBRANCH  65  69
ENDBRANCH  39  62
ENDBRANCH  13  14
ENDBRANCH   6   8
ENDBRANCH   5   6
ENDBRANCH   4   5
ENDBRANCH   3   4
ENDBRANCH   2   3
ENDBRANCH   1   2
BRANCH   1  73
ATOM     73  C   UNL A   1      34.953  35.037  32.781  1.00  0.00     0.261 C 
BRANCH  73  74
ATOM     74  O   UNL A   1      36.204  34.328  32.900  1.00  0.00    -0.462 OA
BRANCH  74  75
ATOM     75  C   UNL A   1      36.230  33.540  33.990  1.00  0.00     0.328 C 
ATOM     76  O   UNL A   1      35.266  33.467  34.758  1.00  0.00    -0.250 OA
BRANCH  75  77
ATOM     77  C   UNL A   1      37.545  32.769  34.304  1.00  0.00     0.195 C 
ATOM     78  C   UNL A   1      38.647  33.598  33.640  1.00  0.00     0.046 C 
ATOM     79  N   UNL A   1      38.352  32.011  35.298  1.00  0.00    -0.328 N 
ATOM     80  C   UNL A   1      39.944  32.769  33.749  1.00  0.00     0.001 C 
ATOM     81  C   UNL A   1      39.514  31.522  34.552  1.00  0.00     0.128 C 
ATOM     82  C   UNL A   1      41.028  33.573  34.495  1.00  0.00     0.071 C 
ATOM     83  C   UNL A   1      40.469  32.421  32.350  1.00  0.00     0.071 C 
ATOM     84  C   UNL A   1      41.463  34.805  33.705  1.00  0.00     0.270 C 
ATOM     85  C   UNL A   1      40.904  33.681  31.591  1.00  0.00     0.270 C 
ATOM     86  N   UNL A   1      41.892  34.448  32.355  1.00  0.00    -0.272 N 
ATOM     87  H   UNL A   1      41.816  33.465  32.359  1.00  0.00     0.356 HD
BRANCH  79  88
ATOM     88  C   UNL A   1      38.627  32.288  36.634  1.00  0.00     0.225 C 
ATOM     89  O   UNL A   1      39.657  31.901  37.195  1.00  0.00    -0.275 OA
BRANCH  88  90
ATOM     90  C   UNL A   1      37.631  33.040  37.446  1.00  0.00     0.124 C 
BRANCH  90  91
ATOM     91  C   UNL A   1      38.228  33.519  38.760  1.00  0.00     0.154 C 
BRANCH  91  92
ATOM     92  N   UNL A   1      37.624  32.852  39.901  1.00  0.00    -0.272 N 
ATOM     93  C   UNL A   1      36.956  33.420  40.946  1.00  0.00     0.108 A 
ATOM     94  N   UNL A   1      37.684  31.512  39.989  1.00  0.00    -0.182 NA
ATOM     95  C   UNL A   1      36.584  32.382  41.769  1.00  0.00     0.042 A 
ATOM     96  C   UNL A   1      37.072  31.226  41.136  1.00  0.00     0.135 A 
ENDBRANCH  91  92
ENDBRANCH  90  91
ENDBRANCH  88  90
ENDBRANCH  79  88
BRANCH  86  97
ATOM     97  C   UNL A   1      43.037  34.859  31.675  1.00  0.00     0.315 C 
ATOM     98  O   UNL A   1      43.984  35.357  32.285  1.00  0.00    -0.231 OA
BRANCH  97  99
ATOM     99  C   UNL A   1      43.205  34.804  30.193  1.00  0.00     0.119 C 
ATOM    100  C   UNL A   1      42.646  35.722  29.148  1.00  0.00     0.019 C 
ATOM    101  C   UNL A   1      44.128  35.717  29.433  1.00  0.00     0.019 C 
ENDBRANCH  97  99
ENDBRANCH  86  97
ENDBRANCH  75  77
ENDBRANCH  74  75
ENDBRANCH  73  74
ENDBRANCH   1  73
TORSDOF 23
ENDMDL
MODEL 2
REMARK VINA RESULT:      -8.6      1.756      2.089
REMARK SMILES O=C(OCCOCCOC(=O)[C@H]1CC2(CC[NH+](C(=O)C3CC3)CC2)CN1C(=O)CCn1cccn1)c1ccc(-c2c3nc(c(-c4cc(S(=O)(=O)[O-])ccc4F)c4ccc([nH]4)c(-c4cc(S(=O)(=O)[O-])ccc4F)c4nc(c(-c5cc(S(=O)(=O)[O-])ccc5F)c5ccc2[nH]5)C=C4)C=C3)cc1
REMARK SMILES IDX 7 1 6 2 5 3 4 4 3 5 2 6 1 7 36 8 37 9 98 10 38 11 97 12
REMARK SMILES IDX 39 13 40 14 41 15 91 16 42 17 96 18 90 19 92 20 43 21 95 22
REMARK SMILES IDX 89 23 88 24 44 26 76 27 56 28 75 29 57 30 60 31 74 32 93 33
REMARK SMILES IDX 58 34 59 35 73 37 94 38 61 39 45 40 46 41 54 42 47 43 53 44
REMARK SMILES IDX 55 45 52 46 48 47 49 48 50 49 51 50 77 51 78 52 86 53 79 54
REMARK SMILES IDX 85 55 87 56 84 57 80 58 81 59 82 60 83 61 62 62 63 63 71 64
REMARK SMILES IDX 64 65 70 66 72 67 69 68 65 69 66 70 67 71 68 72 8 73 9 74
REMARK SMILES IDX 10 75 11 76 12 77 13 78 26 79 14 80 25 81 15 82 24 83 16 84
REMARK SMILES IDX 23 85 17 86 27 88 28 89 29 90 30 91 31 92 32 93 35 94 33 95
REMARK SMILES IDX 34 96 18 97 19 98 20 99 21 100 22 101
REMARK H PARENT 92 25 60 36 17 87
REMARK Flexibility Score: inf
ROOT
ATOM      1  C   UNL A   1      34.509  34.084  32.200  1.00  0.00     0.202 C 
ENDROOT
BRANCH   1   2
ATOM      2  O   UNL A   1      35.682  34.545  31.543  1.00  0.00    -0.374 OA
BRANCH   2   3
ATOM      3  C   UNL A   1      36.010  33.954  30.298  1.00  0.00     0.202 C 
BRANCH   3   4
ATOM      4  C   UNL A   1      35.011  32.947  29.666  1.00  0.00     0.261 C 
BRANCH   4   5
ATOM      5  O   UNL A   1      35.240  31.551  29.876  1.00  0.00    -0.460 OA
BRANCH   5   6
ATOM      6  C   UNL A   1      36.006  30.762  29.094  1.00  0.00     0.338 C 
ATOM      7  O   UNL A   1      35.718  30.592  27.923  1.00  0.00    -0.246 OA
BRANCH   6   8
ATOM      8  C   UNL A   1      37.308  30.303  29.624  1.00  0.00     0.060 A 
ATOM      9  C   UNL A   1      38.355  31.136  30.034  1.00  0.00     0.016 A 
ATOM     10  C   UNL A   1      37.494  28.917  29.579  1.00  0.00     0.016 A 
ATOM     11  C   UNL A   1      39.601  30.631  30.276  1.00  0.00     0.010 A 
ATOM     12  C   UNL A   1      38.743  28.396  29.817  1.00  0.00     0.010 A 
ATOM     13  C   UNL A   1      39.786  29.275  30.103  1.00  0.00    -0.014 A 
BRANCH  13  14
ATOM     14  C   UNL A   1      41.127  28.798  30.310  1.00  0.00     0.031 A 
ATOM     15  C   UNL A   1      41.510  28.719  31.740  1.00  0.00     0.074 A 
ATOM     16  C   UNL A   1      41.820  28.387  29.238  1.00  0.00     0.049 A 
ATOM     17  N   UNL A   1      42.552  29.208  32.327  1.00  0.00    -0.248 NA
ATOM     18  C   UNL A   1      40.502  28.182  32.675  1.00  0.00     0.031 C 
ATOM     19  C   UNL A   1      41.319  28.278  27.863  1.00  0.00     0.029 A 
ATOM     20  N   UNL A   1      43.025  27.773  29.185  1.00  0.00    -0.354 N 
ATOM     21  C   UNL A   1      42.444  28.809  33.658  1.00  0.00     0.074 A 
ATOM     22  C   UNL A   1      41.079  28.419  33.847  1.00  0.00     0.031 C 
ATOM     23  C   UNL A   1      42.060  27.362  27.211  1.00  0.00     0.029 A 
ATOM     24  C   UNL A   1      43.125  26.917  28.094  1.00  0.00     0.049 A 
ATOM     25  H   UNL A   1      43.745  27.917  29.840  1.00  0.00     0.167 HD
ATOM     26  C   UNL A   1      43.552  28.533  34.396  1.00  0.00     0.034 A 
ATOM     27  C   UNL A   1      43.906  25.812  28.016  1.00  0.00     0.034 A 
ATOM     28  C   UNL A   1      44.711  29.210  33.849  1.00  0.00     0.049 A 
ATOM     29  C   UNL A   1      44.956  25.942  29.062  1.00  0.00     0.074 A 
ATOM     30  C   UNL A   1      45.000  30.535  33.578  1.00  0.00     0.029 A 
ATOM     31  N   UNL A   1      45.639  28.477  33.137  1.00  0.00    -0.354 N 
ATOM     32  N   UNL A   1      45.858  26.888  29.062  1.00  0.00    -0.248 NA
ATOM     33  C   UNL A   1      44.721  25.324  30.363  1.00  0.00     0.031 C 
ATOM     34  C   UNL A   1      45.745  30.512  32.363  1.00  0.00     0.029 A 
ATOM     35  C   UNL A   1      45.938  29.179  31.995  1.00  0.00     0.049 A 
ATOM     36  H   UNL A   1      46.017  27.607  33.399  1.00  0.00     0.167 HD
ATOM     37  C   UNL A   1      45.977  27.276  30.390  1.00  0.00     0.074 A 
ATOM     38  C   UNL A   1      45.355  26.197  31.154  1.00  0.00     0.031 C 
ATOM     39  C   UNL A   1      46.288  28.565  30.727  1.00  0.00     0.034 A 
BRANCH  26  40
ATOM     40  C   UNL A   1      43.659  27.308  35.294  1.00  0.00     0.023 A 
ATOM     41  C   UNL A   1      44.055  27.553  36.618  1.00  0.00     0.031 A 
ATOM     42  C   UNL A   1      43.736  25.955  34.881  1.00  0.00     0.131 A 
ATOM     43  C   UNL A   1      44.699  26.562  37.374  1.00  0.00     0.055 A 
ATOM     44  C   UNL A   1      44.314  24.952  35.666  1.00  0.00     0.041 A 
ATOM     45  F   UNL A   1      43.318  25.519  33.690  1.00  0.00    -0.206 F 
ATOM     46  C   UNL A   1      44.850  25.264  36.900  1.00  0.00     0.022 A 
BRANCH  43  47
ATOM     47  S   UNL A   1      45.541  27.085  38.884  1.00  0.00     0.124 S 
ATOM     48  O   UNL A   1      46.875  27.381  38.371  1.00  0.00    -0.237 OA
ATOM     49  O   UNL A   1      44.734  28.232  39.289  1.00  0.00    -0.237 OA
ATOM     50  O   UNL A   1      45.443  25.912  39.748  1.00  0.00    -0.744 OA
ENDBRANCH  43  47
ENDBRANCH  26  40
BRANCH  27  51
ATOM     51  C   UNL A   1      43.529  24.546  27.332  1.00  0.00     0.023 A 
ATOM     52  C   UNL A   1      44.300  24.001  26.293  1.00  0.00     0.031 A 
ATOM     53  C   UNL A   1      42.462  23.748  27.816  1.00  0.00     0.131 A 
ATOM     54  C   UNL A   1      43.976  22.732  25.760  1.00  0.00     0.055 A 
ATOM     55  C   UNL A   1      42.126  22.510  27.265  1.00  0.00     0.041 A 
ATOM     56  F   UNL A   1      41.748  24.108  28.895  1.00  0.00    -0.206 F 
ATOM     57  C   UNL A   1      42.888  21.993  26.233  1.00  0.00     0.022 A 
BRANCH  54  58
ATOM     58  S   UNL A   1      45.044  21.979  24.495  1.00  0.00     0.124 S 
ATOM     59  O   UNL A   1      44.296  20.781  24.134  1.00  0.00    -0.237 OA
ATOM     60  O   UNL A   1      45.117  23.028  23.484  1.00  0.00    -0.237 OA
ATOM     61  O   UNL A   1      46.297  21.733  25.211  1.00  0.00    -0.744 OA
ENDBRANCH  54  58
ENDBRANCH  27  51
BRANCH  39  62
ATOM     62  C   UNL A   1      46.800  29.493  29.646  1.00  0.00     0.023 A 
ATOM     63  C   UNL A   1      45.975  30.267  28.796  1.00  0.00     0.031 A 
ATOM     64  C   UNL A   1      48.188  29.709  29.578  1.00  0.00     0.131 A 
ATOM     65  C   UNL A   1      46.549  31.204  27.916  1.00  0.00     0.055 A 
ATOM     66  C   UNL A   1      48.752  30.649  28.716  1.00  0.00     0.041 A 
ATOM     67  F   UNL A   1      49.023  29.038  30.389  1.00  0.00    -0.206 F 
ATOM     68  C   UNL A   1      47.934  31.397  27.876  1.00  0.00     0.022 A 
BRANCH  65  69
ATOM     69  S   UNL A   1      45.504  32.194  26.801  1.00  0.00     0.124 S 
ATOM     70  O   UNL A   1      44.717  33.021  27.708  1.00  0.00    -0.237 OA
ATOM     71  O   UNL A   1      46.491  32.898  25.986  1.00  0.00    -0.237 OA
ATOM     72  O   UNL A   1      44.731  31.183  26.076  1.00  0.00    -0.744 OA
ENDBRANCH  65  69
ENDBRANCH  39  62
ENDBRANCH  13  14
ENDBRANCH   6   8
ENDBRANCH   5   6
ENDBRANCH   4   5
ENDBRANCH   3   4
ENDBRANCH   2   3
ENDBRANCH   1   2
BRANCH   1  73
ATOM     73  C   UNL A   1      34.665  33.166  33.405  1.00  0.00     0.261 C 
BRANCH  73  74
ATOM     74  O   UNL A   1      35.953  33.239  34.052  1.00  0.00    -0.462 OA
BRANCH  74  75
ATOM     75  C   UNL A   1      36.717  32.170  33.766  1.00  0.00     0.328 C 
ATOM     76  O   UNL A   1      36.314  31.268  33.024  1.00  0.00    -0.250 OA
BRANCH  75  77
ATOM     77  C   UNL A   1      38.106  32.057  34.457  1.00  0.00     0.195 C 
ATOM     78  C   UNL A   1      39.010  33.004  33.664  1.00  0.00     0.046 C 
ATOM     79  N   UNL A   1      38.876  31.964  35.727  1.00  0.00    -0.328 N 
ATOM     80  C   UNL A   1      40.446  32.774  34.182  1.00  0.00     0.001 C 
ATOM     81  C   UNL A   1      40.264  31.741  35.316  1.00  0.00     0.128 C 
ATOM     82  C   UNL A   1      41.037  34.095  34.713  1.00  0.00     0.071 C 
ATOM     83  C   UNL A   1      41.341  32.257  33.048  1.00  0.00     0.071 C 
ATOM     84  C   UNL A   1      41.226  35.120  33.597  1.00  0.00     0.270 C 
ATOM     85  C   UNL A   1      41.514  33.315  31.951  1.00  0.00     0.270 C 
ATOM     86  N   UNL A   1      42.025  34.574  32.502  1.00  0.00    -0.272 N 
ATOM     87  H   UNL A   1      42.260  33.677  32.835  1.00  0.00     0.356 HD
BRANCH  79  88
ATOM     88  C   UNL A   1      38.757  32.691  36.907  1.00  0.00     0.225 C 
ATOM     89  O   UNL A   1      37.784  33.411  37.150  1.00  0.00    -0.275 OA
BRANCH  88  90
ATOM     90  C   UNL A   1      39.858  32.648  37.908  1.00  0.00     0.124 C 
BRANCH  90  91
ATOM     91  C   UNL A   1      39.793  33.828  38.864  1.00  0.00     0.154 C 
BRANCH  91  92
ATOM     92  N   UNL A   1      39.125  33.479  40.108  1.00  0.00    -0.272 N 
ATOM     93  C   UNL A   1      38.363  34.284  40.903  1.00  0.00     0.108 A 
ATOM     94  N   UNL A   1      39.219  32.223  40.576  1.00  0.00    -0.182 NA
ATOM     95  C   UNL A   1      37.962  33.501  41.962  1.00  0.00     0.042 A 
ATOM     96  C   UNL A   1      38.531  32.241  41.716  1.00  0.00     0.135 A 
ENDBRANCH  91  92
ENDBRANCH  90  91
ENDBRANCH  88  90
ENDBRANCH  79  88
BRANCH  86  97
ATOM     97  C   UNL A   1      43.102  35.162  31.842  1.00  0.00     0.315 C 
ATOM     98  O   UNL A   1      42.997  35.527  30.670  1.00  0.00    -0.231 OA
BRANCH  97  99
ATOM     99  C   UNL A   1      44.459  35.346  32.437  1.00  0.00     0.119 C 
ATOM    100  C   UNL A   1      44.990  34.836  33.743  1.00  0.00     0.019 C 
ATOM    101  C   UNL A   1      45.509  34.269  32.444  1.00  0.00     0.019 C 
ENDBRANCH  97  99
ENDBRANCH  86  97
ENDBRANCH  75  77
ENDBRANCH  74  75
ENDBRANCH  73  74
ENDBRANCH   1  73
TORSDOF 23
ENDMDL
MODEL 3
REMARK VINA RESULT:      -8.6      3.552     11.952
REMARK SMILES O=C(OCCOCCOC(=O)[C@H]1CC2(CC[NH+](C(=O)C3CC3)CC2)CN1C(=O)CCn1cccn1)c1ccc(-c2c3nc(c(-c4cc(S(=O)(=O)[O-])ccc4F)c4ccc([nH]4)c(-c4cc(S(=O)(=O)[O-])ccc4F)c4nc(c(-c5cc(S(=O)(=O)[O-])ccc5F)c5ccc2[nH]5)C=C4)C=C3)cc1
REMARK SMILES IDX 7 1 6 2 5 3 4 4 3 5 2 6 1 7 36 8 37 9 98 10 38 11 97 12
REMARK SMILES IDX 39 13 40 14 41 15 91 16 42 17 96 18 90 19 92 20 43 21 95 22
REMARK SMILES IDX 89 23 88 24 44 26 76 27 56 28 75 29 57 30 60 31 74 32 93 33
REMARK SMILES IDX 58 34 59 35 73 37 94 38 61 39 45 40 46 41 54 42 47 43 53 44
REMARK SMILES IDX 55 45 52 46 48 47 49 48 50 49 51 50 77 51 78 52 86 53 79 54
REMARK SMILES IDX 85 55 87 56 84 57 80 58 81 59 82 60 83 61 62 62 63 63 71 64
REMARK SMILES IDX 64 65 70 66 72 67 69 68 65 69 66 70 67 71 68 72 8 73 9 74
REMARK SMILES IDX 10 75 11 76 12 77 13 78 26 79 14 80 25 81 15 82 24 83 16 84
REMARK SMILES IDX 23 85 17 86 27 88 28 89 29 90 30 91 31 92 32 93 35 94 33 95
REMARK SMILES IDX 34 96 18 97 19 98 20 99 21 100 22 101
REMARK H PARENT 92 25 60 36 17 87
REMARK Flexibility Score: inf
ROOT
ATOM      1  C   UNL A   1      50.299  27.699  26.321  1.00  0.00     0.202 C 
ENDROOT
BRANCH   1   2
ATOM      2  O   UNL A   1      49.675  28.941  26.026  1.00  0.00    -0.374 OA
BRANCH   2   3
ATOM      3  C   UNL A   1      48.620  29.361  26.873  1.00  0.00     0.202 C 
BRANCH   3   4
ATOM      4  C   UNL A   1      47.170  29.345  26.318  1.00  0.00     0.261 C 
BRANCH   4   5
ATOM      5  O   UNL A   1      46.693  30.515  25.648  1.00  0.00    -0.460 OA
BRANCH   5   6
ATOM      6  C   UNL A   1      46.116  31.575  26.250  1.00  0.00     0.338 C 
ATOM      7  O   UNL A   1      46.156  32.675  25.729  1.00  0.00    -0.246 OA
BRANCH   6   8
ATOM      8  C   UNL A   1      45.248  31.328  27.422  1.00  0.00     0.060 A 
ATOM      9  C   UNL A   1      43.915  30.908  27.369  1.00  0.00     0.016 A 
ATOM     10  C   UNL A   1      45.825  31.672  28.650  1.00  0.00     0.016 A 
ATOM     11  C   UNL A   1      43.123  30.942  28.482  1.00  0.00     0.010 A 
ATOM     12  C   UNL A   1      45.040  31.713  29.776  1.00  0.00     0.010 A 
ATOM     13  C   UNL A   1      43.686  31.404  29.653  1.00  0.00    -0.014 A 
BRANCH  13  14
ATOM     14  C   UNL A   1      42.799  31.479  30.783  1.00  0.00     0.031 A 
ATOM     15  C   UNL A   1      42.630  30.186  31.488  1.00  0.00     0.074 A 
ATOM     16  C   UNL A   1      42.327  32.685  31.132  1.00  0.00     0.049 A 
ATOM     17  N   UNL A   1      41.538  29.576  31.808  1.00  0.00    -0.248 NA
ATOM     18  C   UNL A   1      43.845  29.374  31.698  1.00  0.00     0.031 C 
ATOM     19  C   UNL A   1      42.697  33.974  30.535  1.00  0.00     0.029 A 
ATOM     20  N   UNL A   1      41.604  33.037  32.220  1.00  0.00    -0.354 N 
ATOM     21  C   UNL A   1      41.944  28.429  32.489  1.00  0.00     0.074 A 
ATOM     22  C   UNL A   1      43.328  28.244  32.167  1.00  0.00     0.031 C 
ATOM     23  C   UNL A   1      42.476  34.943  31.444  1.00  0.00     0.029 A 
ATOM     24  C   UNL A   1      41.865  34.343  32.618  1.00  0.00     0.049 A 
ATOM     25  H   UNL A   1      40.969  32.439  32.675  1.00  0.00     0.167 HD
ATOM     26  C   UNL A   1      41.198  27.919  33.504  1.00  0.00     0.034 A 
ATOM     27  C   UNL A   1      41.755  34.832  33.878  1.00  0.00     0.034 A 
ATOM     28  C   UNL A   1      39.815  28.335  33.380  1.00  0.00     0.049 A 
ATOM     29  C   UNL A   1      40.876  33.898  34.634  1.00  0.00     0.074 A 
ATOM     30  C   UNL A   1      38.869  28.208  32.380  1.00  0.00     0.029 A 
ATOM     31  N   UNL A   1      39.336  29.321  34.219  1.00  0.00    -0.354 N 
ATOM     32  N   UNL A   1      39.621  33.689  34.334  1.00  0.00    -0.248 NA
ATOM     33  C   UNL A   1      41.501  32.837  35.416  1.00  0.00     0.031 C 
ATOM     34  C   UNL A   1      38.142  29.434  32.398  1.00  0.00     0.029 A 
ATOM     35  C   UNL A   1      38.627  30.212  33.451  1.00  0.00     0.049 A 
ATOM     36  H   UNL A   1      39.478  29.377  35.191  1.00  0.00     0.167 HD
ATOM     37  C   UNL A   1      39.432  32.324  34.498  1.00  0.00     0.074 A 
ATOM     38  C   UNL A   1      40.578  31.876  35.285  1.00  0.00     0.031 C 
ATOM     39  C   UNL A   1      38.536  31.635  33.727  1.00  0.00     0.034 A 
BRANCH  26  40
ATOM     40  C   UNL A   1      41.807  27.458  34.822  1.00  0.00     0.023 A 
ATOM     41  C   UNL A   1      42.324  28.471  35.644  1.00  0.00     0.031 A 
ATOM     42  C   UNL A   1      42.210  26.143  35.159  1.00  0.00     0.131 A 
ATOM     43  C   UNL A   1      43.345  28.201  36.566  1.00  0.00     0.055 A 
ATOM     44  C   UNL A   1      43.178  25.869  36.131  1.00  0.00     0.041 A 
ATOM     45  F   UNL A   1      41.750  25.048  34.548  1.00  0.00    -0.206 F 
ATOM     46  C   UNL A   1      43.793  26.907  36.804  1.00  0.00     0.022 A 
BRANCH  43  47
ATOM     47  S   UNL A   1      44.232  29.613  37.262  1.00  0.00     0.124 S 
ATOM     48  O   UNL A   1      43.123  30.497  37.605  1.00  0.00    -0.237 OA
ATOM     49  O   UNL A   1      44.938  28.996  38.380  1.00  0.00    -0.237 OA
ATOM     50  O   UNL A   1      45.075  30.060  36.157  1.00  0.00    -0.744 OA
ENDBRANCH  43  47
ENDBRANCH  26  40
BRANCH  27  51
ATOM     51  C   UNL A   1      42.667  35.835  34.488  1.00  0.00     0.023 A 
ATOM     52  C   UNL A   1      44.050  35.829  34.251  1.00  0.00     0.031 A 
ATOM     53  C   UNL A   1      42.151  36.946  35.204  1.00  0.00     0.131 A 
ATOM     54  C   UNL A   1      44.860  36.876  34.748  1.00  0.00     0.055 A 
ATOM     55  C   UNL A   1      42.958  37.961  35.720  1.00  0.00     0.041 A 
ATOM     56  F   UNL A   1      40.830  37.124  35.367  1.00  0.00    -0.206 F 
ATOM     57  C   UNL A   1      44.322  37.931  35.489  1.00  0.00     0.022 A 
BRANCH  54  58
ATOM     58  S   UNL A   1      46.632  36.924  34.342  1.00  0.00     0.124 S 
ATOM     59  O   UNL A   1      47.158  35.813  35.126  1.00  0.00    -0.237 OA
ATOM     60  O   UNL A   1      46.625  36.751  32.894  1.00  0.00    -0.237 OA
ATOM     61  O   UNL A   1      47.049  38.251  34.796  1.00  0.00    -0.744 OA
ENDBRANCH  54  58
ENDBRANCH  27  51
BRANCH  39  62
ATOM     62  C   UNL A   1      37.534  32.419  32.905  1.00  0.00     0.023 A 
ATOM     63  C   UNL A   1      37.576  32.548  31.498  1.00  0.00     0.031 A 
ATOM     64  C   UNL A   1      36.407  32.933  33.571  1.00  0.00     0.131 A 
ATOM     65  C   UNL A   1      36.521  33.181  30.814  1.00  0.00     0.055 A 
ATOM     66  C   UNL A   1      35.357  33.545  32.889  1.00  0.00     0.041 A 
ATOM     67  F   UNL A   1      36.285  32.803  34.903  1.00  0.00    -0.206 F 
ATOM     68  C   UNL A   1      35.412  33.677  31.507  1.00  0.00     0.022 A 
BRANCH  65  69
ATOM     69  S   UNL A   1      36.570  33.373  29.003  1.00  0.00     0.124 S 
ATOM     70  O   UNL A   1      36.090  32.089  28.506  1.00  0.00    -0.237 OA
ATOM     71  O   UNL A   1      35.685  34.515  28.784  1.00  0.00    -0.237 OA
ATOM     72  O   UNL A   1      37.982  33.641  28.729  1.00  0.00    -0.744 OA
ENDBRANCH  65  69
ENDBRANCH  39  62
ENDBRANCH  13  14
ENDBRANCH   6   8
ENDBRANCH   5   6
ENDBRANCH   4   5
ENDBRANCH   3   4
ENDBRANCH   2   3
ENDBRANCH   1   2
BRANCH   1  73
ATOM     73  C   UNL A   1      49.574  26.413  25.944  1.00  0.00     0.261 C 
BRANCH  73  74
ATOM     74  O   UNL A   1      49.093  26.374  24.584  1.00  0.00    -0.462 OA
BRANCH  74  75
ATOM     75  C   UNL A   1      47.750  26.323  24.531  1.00  0.00     0.328 C 
ATOM     76  O   UNL A   1      47.105  27.064  23.783  1.00  0.00    -0.250 OA
BRANCH  75  77
ATOM     77  C   UNL A   1      47.015  25.350  25.497  1.00  0.00     0.195 C 
ATOM     78  C   UNL A   1      45.748  26.102  25.911  1.00  0.00     0.046 C 
ATOM     79  N   UNL A   1      46.602  23.953  25.803  1.00  0.00    -0.328 N 
ATOM     80  C   UNL A   1      45.088  25.264  27.027  1.00  0.00     0.001 C 
ATOM     81  C   UNL A   1      45.995  24.019  27.135  1.00  0.00     0.128 C 
ATOM     82  C   UNL A   1      43.650  24.879  26.623  1.00  0.00     0.071 C 
ATOM     83  C   UNL A   1      45.030  26.070  28.332  1.00  0.00     0.071 C 
ATOM     84  C   UNL A   1      42.744  26.104  26.520  1.00  0.00     0.270 C 
ATOM     85  C   UNL A   1      44.106  27.286  28.192  1.00  0.00     0.270 C 
ATOM     86  N   UNL A   1      42.765  26.888  27.753  1.00  0.00    -0.272 N 
ATOM     87  H   UNL A   1      43.349  26.351  28.338  1.00  0.00     0.356 HD
BRANCH  79  88
ATOM     88  C   UNL A   1      46.037  22.981  24.984  1.00  0.00     0.225 C 
ATOM     89  O   UNL A   1      45.972  23.102  23.757  1.00  0.00    -0.275 OA
BRANCH  88  90
ATOM     90  C   UNL A   1      45.441  21.763  25.596  1.00  0.00     0.124 C 
BRANCH  90  91
ATOM     91  C   UNL A   1      44.102  21.416  24.965  1.00  0.00     0.154 C 
BRANCH  91  92
ATOM     92  N   UNL A   1      43.463  20.297  25.638  1.00  0.00    -0.272 N 
ATOM     93  C   UNL A   1      43.683  18.965  25.441  1.00  0.00     0.108 A 
ATOM     94  N   UNL A   1      42.546  20.537  26.591  1.00  0.00    -0.182 NA
ATOM     95  C   UNL A   1      42.836  18.308  26.305  1.00  0.00     0.042 A 
ATOM     96  C   UNL A   1      42.148  19.328  26.982  1.00  0.00     0.135 A 
ENDBRANCH  91  92
ENDBRANCH  90  91
ENDBRANCH  88  90
ENDBRANCH  79  88
BRANCH  86  97
ATOM     97  C   UNL A   1      41.686  27.409  28.464  1.00  0.00     0.315 C 
ATOM     98  O   UNL A   1      41.230  26.811  29.440  1.00  0.00    -0.231 OA
BRANCH  97  99
ATOM     99  C   UNL A   1      40.956  28.658  28.096  1.00  0.00     0.119 C 
ATOM    100  C   UNL A   1      40.177  28.961  26.851  1.00  0.00     0.019 C 
ATOM    101  C   UNL A   1      39.459  28.790  28.167  1.00  0.00     0.019 C 
ENDBRANCH  97  99
ENDBRANCH  86  97
ENDBRANCH  75  77
ENDBRANCH  74  75
ENDBRANCH  73  74
ENDBRANCH   1  73
TORSDOF 23
ENDMDL
