MODEL 1
REMARK VINA RESULT:     -12.0      0.000      0.000
REMARK SMILES Cc1cccc(CC(=O)N2CCC3(CCC(=O)N([C@H](C)C(=O)OCCOCCOC(=O)c4ccc(-c5c6nc(c(-c7cc(S(=O)(=O)[O-])ccc7F)c7ccc([nH]7)c(-c7cc(S(=O)(=O)[O-])ccc7F)c7nc(c(-c8cc(S(=O)(=O)[O-])ccc8F)c8ccc5[nH]8)C=C7)C=C6)cc4)C3)CC2)c1
REMARK SMILES IDX 26 1 25 2 24 3 23 4 21 5 22 6 19 7 20 8 18 9 8 10 9 11 10 12
REMARK SMILES IDX 11 13 97 14 12 15 96 16 13 17 14 18 95 19 15 20 16 21 17 22
REMARK SMILES IDX 7 23 6 24 1 25 2 26 3 27 98 28 4 29 5 30 27 31 28 32 29 33
REMARK SMILES IDX 30 34 31 35 32 36 33 37 94 38 34 39 93 40 35 41 36 42 37 43
REMARK SMILES IDX 87 44 38 45 92 46 86 47 88 48 39 49 91 50 85 51 84 52 40 54
REMARK SMILES IDX 72 55 52 56 71 57 53 58 56 59 70 60 89 61 54 62 55 63 69 65
REMARK SMILES IDX 90 66 57 67 41 68 42 69 50 70 43 71 49 72 51 73 48 74 44 75
REMARK SMILES IDX 45 76 46 77 47 78 73 79 74 80 82 81 75 82 81 83 83 84 80 85
REMARK SMILES IDX 76 86 77 87 78 88 79 89 58 90 59 91 67 92 60 93 66 94 68 95
REMARK SMILES IDX 65 96 61 97 62 98 63 99 64 100
REMARK H PARENT 88 53 56 64
REMARK Flexibility Score: inf
ROOT
ATOM      1  O   UNL A   1      32.758  31.430  27.108  1.00  0.00    -0.374 OA
ENDROOT
BRANCH   1   2
ATOM      2  C   UNL A   1      31.786  30.689  26.377  1.00  0.00     0.202 C 
BRANCH   2   3
ATOM      3  C   UNL A   1      31.831  29.342  27.008  1.00  0.00     0.261 C 
BRANCH   3   4
ATOM      4  O   UNL A   1      31.892  28.421  25.935  1.00  0.00    -0.462 OA
BRANCH   4   5
ATOM      5  C   UNL A   1      32.997  27.887  25.369  1.00  0.00     0.328 C 
ATOM      6  O   UNL A   1      33.975  27.393  25.888  1.00  0.00    -0.250 OA
BRANCH   5   7
ATOM      7  C   UNL A   1      32.719  27.926  23.877  1.00  0.00     0.192 C 
ATOM      8  C   UNL A   1      34.033  28.256  23.144  1.00  0.00     0.044 C 
BRANCH   7   9
ATOM      9  N   UNL A   1      32.098  26.691  23.373  1.00  0.00    -0.329 N 
ATOM     10  C   UNL A   1      34.246  21.427  25.892  1.00  0.00     0.226 C 
ATOM     11  O   UNL A   1      34.115  21.355  27.121  1.00  0.00    -0.275 OA
ATOM     12  N   UNL A   1      33.294  22.057  25.110  1.00  0.00    -0.342 N 
ATOM     13  C   UNL A   1      32.481  23.095  25.729  1.00  0.00     0.120 C 
ATOM     14  C   UNL A   1      33.055  21.889  23.675  1.00  0.00     0.120 C 
ATOM     15  C   UNL A   1      32.787  24.408  25.022  1.00  0.00     0.030 C 
ATOM     16  C   UNL A   1      33.387  23.168  22.918  1.00  0.00     0.030 C 
ATOM     17  C   UNL A   1      32.543  24.316  23.486  1.00  0.00    -0.008 C 
ATOM     18  C   UNL A   1      31.060  24.081  23.110  1.00  0.00     0.019 C 
ATOM     19  C   UNL A   1      32.951  25.645  22.853  1.00  0.00     0.127 C 
ATOM     20  C   UNL A   1      30.181  25.175  23.650  1.00  0.00     0.101 C 
ATOM     21  C   UNL A   1      30.716  26.529  23.299  1.00  0.00     0.223 C 
ATOM     22  O   UNL A   1      29.919  27.417  23.043  1.00  0.00    -0.275 OA
BRANCH  10  23
ATOM     23  C   UNL A   1      35.585  21.023  25.285  1.00  0.00     0.135 C 
BRANCH  23  24
ATOM     24  C   UNL A   1      36.757  21.933  25.521  1.00  0.00    -0.038 A 
ATOM     25  C   UNL A   1      40.448  21.535  26.385  1.00  0.00     0.044 C 
ATOM     26  C   UNL A   1      39.107  22.155  26.122  1.00  0.00    -0.051 A 
ATOM     27  C   UNL A   1      38.890  23.512  26.395  1.00  0.00     0.003 A 
ATOM     28  C   UNL A   1      38.042  21.378  25.658  1.00  0.00     0.007 A 
ATOM     29  C   UNL A   1      37.630  24.084  26.201  1.00  0.00     0.001 A 
ATOM     30  C   UNL A   1      36.567  23.303  25.753  1.00  0.00     0.004 A 
ENDBRANCH  23  24
ENDBRANCH  10  23
ENDBRANCH   7   9
ENDBRANCH   5   7
ENDBRANCH   4   5
ENDBRANCH   3   4
ENDBRANCH   2   3
ENDBRANCH   1   2
BRANCH   1  31
ATOM     31  C   UNL A   1      33.831  30.708  27.648  1.00  0.00     0.202 C 
BRANCH  31  32
ATOM     32  C   UNL A   1      35.035  31.614  27.889  1.00  0.00     0.261 C 
BRANCH  32  33
ATOM     33  O   UNL A   1      34.596  32.971  28.154  1.00  0.00    -0.460 OA
BRANCH  33  34
ATOM     34  C   UNL A   1      34.584  33.363  29.463  1.00  0.00     0.338 C 
ATOM     35  O   UNL A   1      33.619  33.850  30.029  1.00  0.00    -0.246 OA
BRANCH  34  36
ATOM     36  C   UNL A   1      35.950  33.246  30.067  1.00  0.00     0.060 A 
ATOM     37  C   UNL A   1      37.096  33.706  29.381  1.00  0.00     0.016 A 
ATOM     38  C   UNL A   1      36.100  32.404  31.162  1.00  0.00     0.016 A 
ATOM     39  C   UNL A   1      38.372  33.196  29.697  1.00  0.00     0.010 A 
ATOM     40  C   UNL A   1      37.321  31.801  31.361  1.00  0.00     0.010 A 
ATOM     41  C   UNL A   1      38.467  32.172  30.635  1.00  0.00    -0.014 A 
BRANCH  41  42
ATOM     42  C   UNL A   1      39.630  31.327  30.940  1.00  0.00     0.031 A 
ATOM     43  C   UNL A   1      39.724  30.038  30.200  1.00  0.00     0.074 A 
ATOM     44  C   UNL A   1      40.733  31.806  31.577  1.00  0.00     0.049 A 
ATOM     45  N   UNL A   1      40.648  29.163  30.373  1.00  0.00    -0.248 NA
ATOM     46  C   UNL A   1      38.751  29.607  29.197  1.00  0.00     0.031 C 
ATOM     47  C   UNL A   1      42.109  31.319  31.436  1.00  0.00     0.029 A 
ATOM     48  N   UNL A   1      40.845  32.780  32.575  1.00  0.00    -0.354 N 
ATOM     49  C   UNL A   1      40.611  28.277  29.323  1.00  0.00     0.074 A 
ATOM     50  C   UNL A   1      39.352  28.533  28.680  1.00  0.00     0.031 C 
ATOM     51  C   UNL A   1      42.847  31.746  32.470  1.00  0.00     0.029 A 
ATOM     52  C   UNL A   1      41.952  32.438  33.375  1.00  0.00     0.049 A 
ATOM     53  H   UNL A   1      40.258  33.561  32.696  1.00  0.00     0.167 HD
ATOM     54  C   UNL A   1      41.723  27.527  29.085  1.00  0.00     0.034 A 
ATOM     55  C   UNL A   1      41.867  32.301  34.722  1.00  0.00     0.034 A 
ATOM     56  C   UNL A   1      42.700  27.717  30.170  1.00  0.00     0.049 A 
ATOM     57  C   UNL A   1      42.223  30.866  35.042  1.00  0.00     0.074 A 
ATOM     58  C   UNL A   1      43.916  28.370  30.273  1.00  0.00     0.029 A 
ATOM     59  N   UNL A   1      42.302  27.433  31.476  1.00  0.00    -0.354 N 
ATOM     60  N   UNL A   1      42.182  29.918  34.139  1.00  0.00    -0.248 NA
ATOM     61  C   UNL A   1      42.778  30.395  36.306  1.00  0.00     0.031 C 
ATOM     62  C   UNL A   1      44.208  28.530  31.661  1.00  0.00     0.029 A 
ATOM     63  C   UNL A   1      43.189  27.943  32.398  1.00  0.00     0.049 A 
ATOM     64  H   UNL A   1      41.488  26.930  31.709  1.00  0.00     0.167 HD
ATOM     65  C   UNL A   1      42.778  28.791  34.615  1.00  0.00     0.074 A 
ATOM     66  C   UNL A   1      43.090  29.121  35.997  1.00  0.00     0.031 C 
ATOM     67  C   UNL A   1      42.996  27.695  33.825  1.00  0.00     0.034 A 
BRANCH  54  68
ATOM     68  C   UNL A   1      42.044  26.745  27.824  1.00  0.00     0.023 A 
ATOM     69  C   UNL A   1      42.687  25.495  27.959  1.00  0.00     0.031 A 
ATOM     70  C   UNL A   1      41.820  27.146  26.489  1.00  0.00     0.131 A 
ATOM     71  C   UNL A   1      43.094  24.739  26.843  1.00  0.00     0.055 A 
ATOM     72  C   UNL A   1      42.214  26.390  25.376  1.00  0.00     0.041 A 
ATOM     73  F   UNL A   1      41.208  28.286  26.165  1.00  0.00    -0.206 F 
ATOM     74  C   UNL A   1      42.860  25.181  25.547  1.00  0.00     0.022 A 
BRANCH  71  75
ATOM     75  S   UNL A   1      43.954  23.167  27.110  1.00  0.00     0.124 S 
ATOM     76  O   UNL A   1      43.192  22.585  28.210  1.00  0.00    -0.237 OA
ATOM     77  O   UNL A   1      43.820  22.514  25.813  1.00  0.00    -0.237 OA
ATOM     78  O   UNL A   1      45.314  23.579  27.454  1.00  0.00    -0.744 OA
ENDBRANCH  71  75
ENDBRANCH  54  68
BRANCH  55  79
ATOM     79  C   UNL A   1      40.835  33.227  35.293  1.00  0.00     0.023 A 
ATOM     80  C   UNL A   1      39.675  32.633  35.877  1.00  0.00     0.031 A 
ATOM     81  C   UNL A   1      41.217  34.492  35.766  1.00  0.00     0.131 A 
ATOM     82  C   UNL A   1      39.051  33.216  36.998  1.00  0.00     0.055 A 
ATOM     83  C   UNL A   1      40.591  35.071  36.881  1.00  0.00     0.041 A 
ATOM     84  F   UNL A   1      42.304  35.104  35.272  1.00  0.00    -0.206 F 
ATOM     85  C   UNL A   1      39.538  34.417  37.524  1.00  0.00     0.022 A 
BRANCH  82  86
ATOM     86  S   UNL A   1      37.751  32.329  37.948  1.00  0.00     0.124 S 
ATOM     87  O   UNL A   1      37.692  31.049  37.249  1.00  0.00    -0.237 OA
ATOM     88  O   UNL A   1      38.252  32.257  39.315  1.00  0.00    -0.237 OA
ATOM     89  O   UNL A   1      36.572  33.183  37.775  1.00  0.00    -0.744 OA
ENDBRANCH  82  86
ENDBRANCH  55  79
BRANCH  67  90
ATOM     90  C   UNL A   1      43.107  26.285  34.351  1.00  0.00     0.023 A 
ATOM     91  C   UNL A   1      44.337  25.632  34.462  1.00  0.00     0.031 A 
ATOM     92  C   UNL A   1      41.996  25.591  34.889  1.00  0.00     0.131 A 
ATOM     93  C   UNL A   1      44.428  24.332  34.974  1.00  0.00     0.055 A 
ATOM     94  C   UNL A   1      42.104  24.339  35.500  1.00  0.00     0.041 A 
ATOM     95  F   UNL A   1      40.756  26.099  34.874  1.00  0.00    -0.206 F 
ATOM     96  C   UNL A   1      43.326  23.688  35.525  1.00  0.00     0.022 A 
BRANCH  93  97
ATOM     97  S   UNL A   1      46.014  23.486  34.798  1.00  0.00     0.124 S 
ATOM     98  O   UNL A   1      46.466  23.973  33.497  1.00  0.00    -0.237 OA
ATOM     99  O   UNL A   1      46.763  23.976  35.950  1.00  0.00    -0.237 OA
ATOM    100  O   UNL A   1      45.655  22.071  34.842  1.00  0.00    -0.744 OA
ENDBRANCH  93  97
ENDBRANCH  67  90
ENDBRANCH  41  42
ENDBRANCH  34  36
ENDBRANCH  33  34
ENDBRANCH  32  33
ENDBRANCH  31  32
ENDBRANCH   1  31
TORSDOF 20
ENDMDL
MODEL 2
REMARK VINA RESULT:     -12.0      1.886      2.496
REMARK SMILES Cc1cccc(CC(=O)N2CCC3(CCC(=O)N([C@H](C)C(=O)OCCOCCOC(=O)c4ccc(-c5c6nc(c(-c7cc(S(=O)(=O)[O-])ccc7F)c7ccc([nH]7)c(-c7cc(S(=O)(=O)[O-])ccc7F)c7nc(c(-c8cc(S(=O)(=O)[O-])ccc8F)c8ccc5[nH]8)C=C7)C=C6)cc4)C3)CC2)c1
REMARK SMILES IDX 26 1 25 2 24 3 23 4 21 5 22 6 19 7 20 8 18 9 8 10 9 11 10 12
REMARK SMILES IDX 11 13 97 14 12 15 96 16 13 17 14 18 95 19 15 20 16 21 17 22
REMARK SMILES IDX 7 23 6 24 1 25 2 26 3 27 98 28 4 29 5 30 27 31 28 32 29 33
REMARK SMILES IDX 30 34 31 35 32 36 33 37 94 38 34 39 93 40 35 41 36 42 37 43
REMARK SMILES IDX 87 44 38 45 92 46 86 47 88 48 39 49 91 50 85 51 84 52 40 54
REMARK SMILES IDX 72 55 52 56 71 57 53 58 56 59 70 60 89 61 54 62 55 63 69 65
REMARK SMILES IDX 90 66 57 67 41 68 42 69 50 70 43 71 49 72 51 73 48 74 44 75
REMARK SMILES IDX 45 76 46 77 47 78 73 79 74 80 82 81 75 82 81 83 83 84 80 85
REMARK SMILES IDX 76 86 77 87 78 88 79 89 58 90 59 91 67 92 60 93 66 94 68 95
REMARK SMILES IDX 65 96 61 97 62 98 63 99 64 100
REMARK H PARENT 88 53 56 64
REMARK Flexibility Score: inf
ROOT
ATOM      1  O   UNL A   1      33.858  32.620  27.664  1.00  0.00    -0.374 OA
ENDROOT
BRANCH   1   2
ATOM      2  C   UNL A   1      32.966  31.558  27.337  1.00  0.00     0.202 C 
BRANCH   2   3
ATOM      3  C   UNL A   1      33.877  30.422  27.028  1.00  0.00     0.261 C 
BRANCH   3   4
ATOM      4  O   UNL A   1      33.320  29.786  25.894  1.00  0.00    -0.462 OA
BRANCH   4   5
ATOM      5  C   UNL A   1      33.655  28.583  25.376  1.00  0.00     0.328 C 
ATOM      6  O   UNL A   1      34.220  27.643  25.894  1.00  0.00    -0.250 OA
BRANCH   5   7
ATOM      7  C   UNL A   1      33.061  28.590  23.978  1.00  0.00     0.192 C 
ATOM      8  C   UNL A   1      34.201  28.389  22.963  1.00  0.00     0.044 C 
BRANCH   7   9
ATOM      9  N   UNL A   1      31.983  27.605  23.805  1.00  0.00    -0.329 N 
ATOM     10  C   UNL A   1      32.759  22.257  26.882  1.00  0.00     0.226 C 
ATOM     11  O   UNL A   1      32.864  22.381  28.109  1.00  0.00    -0.275 OA
ATOM     12  N   UNL A   1      31.927  23.087  26.150  1.00  0.00    -0.342 N 
ATOM     13  C   UNL A   1      31.640  24.410  26.687  1.00  0.00     0.120 C 
ATOM     14  C   UNL A   1      31.360  22.846  24.821  1.00  0.00     0.120 C 
ATOM     15  C   UNL A   1      32.208  25.438  25.717  1.00  0.00     0.030 C 
ATOM     16  C   UNL A   1      31.930  23.826  23.805  1.00  0.00     0.030 C 
ATOM     17  C   UNL A   1      31.641  25.257  24.277  1.00  0.00    -0.008 C 
ATOM     18  C   UNL A   1      30.119  25.520  24.176  1.00  0.00     0.019 C 
ATOM     19  C   UNL A   1      32.322  26.271  23.360  1.00  0.00     0.127 C 
ATOM     20  C   UNL A   1      29.774  26.909  24.636  1.00  0.00     0.101 C 
ATOM     21  C   UNL A   1      30.639  27.936  23.970  1.00  0.00     0.223 C 
ATOM     22  O   UNL A   1      30.141  29.011  23.680  1.00  0.00    -0.275 OA
BRANCH  10  23
ATOM     23  C   UNL A   1      33.740  21.337  26.164  1.00  0.00     0.135 C 
BRANCH  23  24
ATOM     24  C   UNL A   1      34.908  21.975  25.468  1.00  0.00    -0.038 A 
ATOM     25  C   UNL A   1      37.911  24.098  26.468  1.00  0.00     0.044 C 
ATOM     26  C   UNL A   1      36.895  23.374  25.634  1.00  0.00    -0.051 A 
ATOM     27  C   UNL A   1      36.864  23.551  24.245  1.00  0.00     0.003 A 
ATOM     28  C   UNL A   1      35.930  22.562  26.235  1.00  0.00     0.007 A 
ATOM     29  C   UNL A   1      35.888  22.922  23.469  1.00  0.00     0.001 A 
ATOM     30  C   UNL A   1      34.918  22.124  24.073  1.00  0.00     0.004 A 
ENDBRANCH  23  24
ENDBRANCH  10  23
ENDBRANCH   7   9
ENDBRANCH   5   7
ENDBRANCH   4   5
ENDBRANCH   3   4
ENDBRANCH   2   3
ENDBRANCH   1   2
BRANCH   1  31
ATOM     31  C   UNL A   1      33.280  33.853  27.997  1.00  0.00     0.202 C 
BRANCH  31  32
ATOM     32  C   UNL A   1      33.862  34.397  29.299  1.00  0.00     0.261 C 
BRANCH  32  33
ATOM     33  O   UNL A   1      35.073  33.677  29.645  1.00  0.00    -0.460 OA
BRANCH  33  34
ATOM     34  C   UNL A   1      34.956  32.723  30.617  1.00  0.00     0.338 C 
ATOM     35  O   UNL A   1      34.246  32.829  31.605  1.00  0.00    -0.246 OA
BRANCH  34  36
ATOM     36  C   UNL A   1      35.920  31.600  30.383  1.00  0.00     0.060 A 
ATOM     37  C   UNL A   1      36.116  30.591  31.350  1.00  0.00     0.016 A 
ATOM     38  C   UNL A   1      36.833  31.744  29.346  1.00  0.00     0.016 A 
ATOM     39  C   UNL A   1      37.306  29.833  31.361  1.00  0.00     0.010 A 
ATOM     40  C   UNL A   1      38.050  31.110  29.455  1.00  0.00     0.010 A 
ATOM     41  C   UNL A   1      38.314  30.160  30.459  1.00  0.00    -0.014 A 
BRANCH  41  42
ATOM     42  C   UNL A   1      39.707  29.692  30.445  1.00  0.00     0.031 A 
ATOM     43  C   UNL A   1      39.937  28.316  29.925  1.00  0.00     0.074 A 
ATOM     44  C   UNL A   1      40.763  30.541  30.558  1.00  0.00     0.049 A 
ATOM     45  N   UNL A   1      41.081  27.734  29.881  1.00  0.00    -0.248 NA
ATOM     46  C   UNL A   1      38.870  27.450  29.420  1.00  0.00     0.031 C 
ATOM     47  C   UNL A   1      42.107  30.350  30.003  1.00  0.00     0.029 A 
ATOM     48  N   UNL A   1      40.891  31.728  31.288  1.00  0.00    -0.354 N 
ATOM     49  C   UNL A   1      40.980  26.635  29.062  1.00  0.00     0.074 A 
ATOM     50  C   UNL A   1      39.566  26.443  28.889  1.00  0.00     0.031 C 
ATOM     51  C   UNL A   1      42.972  31.167  30.621  1.00  0.00     0.029 A 
ATOM     52  C   UNL A   1      42.240  31.842  31.674  1.00  0.00     0.049 A 
ATOM     53  H   UNL A   1      40.170  32.366  31.494  1.00  0.00     0.167 HD
ATOM     54  C   UNL A   1      42.131  26.113  28.554  1.00  0.00     0.034 A 
ATOM     55  C   UNL A   1      42.620  32.020  32.964  1.00  0.00     0.034 A 
ATOM     56  C   UNL A   1      43.296  26.771  29.168  1.00  0.00     0.049 A 
ATOM     57  C   UNL A   1      43.458  30.820  33.346  1.00  0.00     0.074 A 
ATOM     58  C   UNL A   1      44.240  27.680  28.723  1.00  0.00     0.029 A 
ATOM     59  N   UNL A   1      43.423  26.730  30.556  1.00  0.00    -0.354 N 
ATOM     60  N   UNL A   1      43.417  29.697  32.673  1.00  0.00    -0.248 NA
ATOM     61  C   UNL A   1      44.488  30.803  34.377  1.00  0.00     0.031 C 
ATOM     62  C   UNL A   1      44.887  28.231  29.869  1.00  0.00     0.029 A 
ATOM     63  C   UNL A   1      44.363  27.631  31.006  1.00  0.00     0.049 A 
ATOM     64  H   UNL A   1      42.904  26.133  31.141  1.00  0.00     0.167 HD
ATOM     65  C   UNL A   1      44.431  28.878  33.065  1.00  0.00     0.074 A 
ATOM     66  C   UNL A   1      45.046  29.593  34.172  1.00  0.00     0.031 C 
ATOM     67  C   UNL A   1      44.702  27.700  32.425  1.00  0.00     0.034 A 
BRANCH  54  68
ATOM     68  C   UNL A   1      42.258  25.140  27.395  1.00  0.00     0.023 A 
ATOM     69  C   UNL A   1      41.670  23.863  27.529  1.00  0.00     0.031 A 
ATOM     70  C   UNL A   1      42.955  25.339  26.183  1.00  0.00     0.131 A 
ATOM     71  C   UNL A   1      41.806  22.870  26.539  1.00  0.00     0.055 A 
ATOM     72  C   UNL A   1      43.082  24.356  25.192  1.00  0.00     0.041 A 
ATOM     73  F   UNL A   1      43.556  26.487  25.870  1.00  0.00    -0.206 F 
ATOM     74  C   UNL A   1      42.511  23.110  25.366  1.00  0.00     0.022 A 
BRANCH  71  75
ATOM     75  S   UNL A   1      41.057  21.244  26.814  1.00  0.00     0.124 S 
ATOM     76  O   UNL A   1      42.147  20.341  26.459  1.00  0.00    -0.237 OA
ATOM     77  O   UNL A   1      40.698  21.301  28.226  1.00  0.00    -0.237 OA
ATOM     78  O   UNL A   1      39.923  21.232  25.891  1.00  0.00    -0.744 OA
ENDBRANCH  71  75
ENDBRANCH  54  68
BRANCH  55  79
ATOM     79  C   UNL A   1      41.594  32.806  33.724  1.00  0.00     0.023 A 
ATOM     80  C   UNL A   1      40.474  32.088  34.244  1.00  0.00     0.031 A 
ATOM     81  C   UNL A   1      41.967  33.985  34.388  1.00  0.00     0.131 A 
ATOM     82  C   UNL A   1      39.887  32.456  35.471  1.00  0.00     0.055 A 
ATOM     83  C   UNL A   1      41.378  34.349  35.608  1.00  0.00     0.041 A 
ATOM     84  F   UNL A   1      43.017  34.703  33.963  1.00  0.00    -0.206 F 
ATOM     85  C   UNL A   1      40.369  33.565  36.173  1.00  0.00     0.022 A 
BRANCH  82  86
ATOM     86  S   UNL A   1      38.649  31.384  36.308  1.00  0.00     0.124 S 
ATOM     87  O   UNL A   1      37.453  31.628  35.507  1.00  0.00    -0.237 OA
ATOM     88  O   UNL A   1      39.184  30.031  36.211  1.00  0.00    -0.237 OA
ATOM     89  O   UNL A   1      38.605  31.926  37.668  1.00  0.00    -0.744 OA
ENDBRANCH  82  86
ENDBRANCH  55  79
BRANCH  67  90
ATOM     90  C   UNL A   1      45.375  26.519  33.081  1.00  0.00     0.023 A 
ATOM     91  C   UNL A   1      44.650  25.539  33.763  1.00  0.00     0.031 A 
ATOM     92  C   UNL A   1      46.760  26.261  32.931  1.00  0.00     0.131 A 
ATOM     93  C   UNL A   1      45.285  24.437  34.348  1.00  0.00     0.055 A 
ATOM     94  C   UNL A   1      47.375  25.105  33.419  1.00  0.00     0.041 A 
ATOM     95  F   UNL A   1      47.580  27.099  32.283  1.00  0.00    -0.206 F 
ATOM     96  C   UNL A   1      46.640  24.192  34.156  1.00  0.00     0.022 A 
BRANCH  93  97
ATOM     97  S   UNL A   1      44.294  23.400  35.445  1.00  0.00     0.124 S 
ATOM     98  O   UNL A   1      45.080  22.170  35.478  1.00  0.00    -0.237 OA
ATOM     99  O   UNL A   1      44.279  24.173  36.683  1.00  0.00    -0.237 OA
ATOM    100  O   UNL A   1      43.010  23.300  34.756  1.00  0.00    -0.744 OA
ENDBRANCH  93  97
ENDBRANCH  67  90
ENDBRANCH  41  42
ENDBRANCH  34  36
ENDBRANCH  33  34
ENDBRANCH  32  33
ENDBRANCH  31  32
ENDBRANCH   1  31
TORSDOF 20
ENDMDL
MODEL 3
REMARK VINA RESULT:     -11.8      4.677     10.927
REMARK SMILES Cc1cccc(CC(=O)N2CCC3(CCC(=O)N([C@H](C)C(=O)OCCOCCOC(=O)c4ccc(-c5c6nc(c(-c7cc(S(=O)(=O)[O-])ccc7F)c7ccc([nH]7)c(-c7cc(S(=O)(=O)[O-])ccc7F)c7nc(c(-c8cc(S(=O)(=O)[O-])ccc8F)c8ccc5[nH]8)C=C7)C=C6)cc4)C3)CC2)c1
REMARK SMILES IDX 26 1 25 2 24 3 23 4 21 5 22 6 19 7 20 8 18 9 8 10 9 11 10 12
REMARK SMILES IDX 11 13 97 14 12 15 96 16 13 17 14 18 95 19 15 20 16 21 17 22
REMARK SMILES IDX 7 23 6 24 1 25 2 26 3 27 98 28 4 29 5 30 27 31 28 32 29 33
REMARK SMILES IDX 30 34 31 35 32 36 33 37 94 38 34 39 93 40 35 41 36 42 37 43
REMARK SMILES IDX 87 44 38 45 92 46 86 47 88 48 39 49 91 50 85 51 84 52 40 54
REMARK SMILES IDX 72 55 52 56 71 57 53 58 56 59 70 60 89 61 54 62 55 63 69 65
REMARK SMILES IDX 90 66 57 67 41 68 42 69 50 70 43 71 49 72 51 73 48 74 44 75
REMARK SMILES IDX 45 76 46 77 47 78 73 79 74 80 82 81 75 82 81 83 83 84 80 85
REMARK SMILES IDX 76 86 77 87 78 88 79 89 58 90 59 91 67 92 60 93 66 94 68 95
REMARK SMILES IDX 65 96 61 97 62 98 63 99 64 100
REMARK H PARENT 88 53 56 64
REMARK Flexibility Score: inf
ROOT
ATOM      1  O   UNL A   1      40.934  20.048  26.863  1.00  0.00    -0.374 OA
ENDROOT
BRANCH   1   2
ATOM      2  C   UNL A   1      40.835  21.214  26.050  1.00  0.00     0.202 C 
BRANCH   2   3
ATOM      3  C   UNL A   1      39.628  21.905  26.579  1.00  0.00     0.261 C 
BRANCH   3   4
ATOM      4  O   UNL A   1      38.534  21.356  25.868  1.00  0.00    -0.462 OA
BRANCH   4   5
ATOM      5  C   UNL A   1      37.645  22.012  25.089  1.00  0.00     0.328 C 
ATOM      6  O   UNL A   1      37.583  23.189  24.800  1.00  0.00    -0.250 OA
BRANCH   5   7
ATOM      7  C   UNL A   1      36.752  20.921  24.526  1.00  0.00     0.192 C 
ATOM      8  C   UNL A   1      37.216  19.568  25.098  1.00  0.00     0.044 C 
BRANCH   7   9
ATOM      9  N   UNL A   1      35.321  21.164  24.769  1.00  0.00    -0.329 N 
ATOM     10  C   UNL A   1      32.921  26.060  21.778  1.00  0.00     0.226 C 
ATOM     11  O   UNL A   1      33.018  26.005  20.545  1.00  0.00    -0.275 OA
ATOM     12  N   UNL A   1      32.710  24.915  22.527  1.00  0.00    -0.342 N 
ATOM     13  C   UNL A   1      33.161  23.645  21.975  1.00  0.00     0.120 C 
ATOM     14  C   UNL A   1      32.168  24.816  23.884  1.00  0.00     0.120 C 
ATOM     15  C   UNL A   1      34.242  23.096  22.896  1.00  0.00     0.030 C 
ATOM     16  C   UNL A   1      33.227  24.308  24.853  1.00  0.00     0.030 C 
ATOM     17  C   UNL A   1      33.738  22.947  24.363  1.00  0.00    -0.008 C 
ATOM     18  C   UNL A   1      32.609  21.900  24.524  1.00  0.00     0.019 C 
ATOM     19  C   UNL A   1      34.904  22.470  25.227  1.00  0.00     0.127 C 
ATOM     20  C   UNL A   1      33.051  20.544  24.050  1.00  0.00     0.101 C 
ATOM     21  C   UNL A   1      34.366  20.155  24.655  1.00  0.00     0.223 C 
ATOM     22  O   UNL A   1      34.546  18.983  24.943  1.00  0.00    -0.275 OA
BRANCH  10  23
ATOM     23  C   UNL A   1      33.280  27.368  22.472  1.00  0.00     0.135 C 
BRANCH  23  24
ATOM     24  C   UNL A   1      32.163  28.148  23.104  1.00  0.00    -0.038 A 
ATOM     25  C   UNL A   1      29.065  30.021  21.909  1.00  0.00     0.044 C 
ATOM     26  C   UNL A   1      30.153  29.489  22.797  1.00  0.00    -0.051 A 
ATOM     27  C   UNL A   1      30.290  29.962  24.107  1.00  0.00     0.003 A 
ATOM     28  C   UNL A   1      31.077  28.560  22.311  1.00  0.00     0.007 A 
ATOM     29  C   UNL A   1      31.332  29.511  24.922  1.00  0.00     0.001 A 
ATOM     30  C   UNL A   1      32.260  28.595  24.429  1.00  0.00     0.004 A 
ENDBRANCH  23  24
ENDBRANCH  10  23
ENDBRANCH   7   9
ENDBRANCH   5   7
ENDBRANCH   4   5
ENDBRANCH   3   4
ENDBRANCH   2   3
ENDBRANCH   1   2
BRANCH   1  31
ATOM     31  C   UNL A   1      42.023  19.199  26.622  1.00  0.00     0.202 C 
BRANCH  31  32
ATOM     32  C   UNL A   1      42.797  19.638  25.381  1.00  0.00     0.261 C 
BRANCH  32  33
ATOM     33  O   UNL A   1      44.194  19.846  25.711  1.00  0.00    -0.460 OA
BRANCH  33  34
ATOM     34  C   UNL A   1      44.788  20.954  25.173  1.00  0.00     0.338 C 
ATOM     35  O   UNL A   1      45.844  20.941  24.561  1.00  0.00    -0.246 OA
BRANCH  34  36
ATOM     36  C   UNL A   1      44.047  22.197  25.557  1.00  0.00     0.060 A 
ATOM     37  C   UNL A   1      43.810  23.227  24.620  1.00  0.00     0.016 A 
ATOM     38  C   UNL A   1      43.876  22.451  26.913  1.00  0.00     0.016 A 
ATOM     39  C   UNL A   1      43.556  24.544  25.055  1.00  0.00     0.010 A 
ATOM     40  C   UNL A   1      43.779  23.760  27.325  1.00  0.00     0.010 A 
ATOM     41  C   UNL A   1      43.630  24.824  26.416  1.00  0.00    -0.014 A 
BRANCH  41  42
ATOM     42  C   UNL A   1      43.651  26.139  27.073  1.00  0.00     0.031 A 
ATOM     43  C   UNL A   1      42.341  26.834  27.204  1.00  0.00     0.074 A 
ATOM     44  C   UNL A   1      44.702  26.561  27.827  1.00  0.00     0.049 A 
ATOM     45  N   UNL A   1      42.183  28.003  27.711  1.00  0.00    -0.248 NA
ATOM     46  C   UNL A   1      41.073  26.268  26.743  1.00  0.00     0.031 C 
ATOM     47  C   UNL A   1      44.654  27.495  28.956  1.00  0.00     0.029 A 
ATOM     48  N   UNL A   1      46.072  26.317  27.680  1.00  0.00    -0.354 N 
ATOM     49  C   UNL A   1      40.845  28.190  27.968  1.00  0.00     0.074 A 
ATOM     50  C   UNL A   1      40.190  27.130  27.252  1.00  0.00     0.031 C 
ATOM     51  C   UNL A   1      45.883  27.971  29.201  1.00  0.00     0.029 A 
ATOM     52  C   UNL A   1      46.756  27.444  28.173  1.00  0.00     0.049 A 
ATOM     53  H   UNL A   1      46.482  25.505  27.301  1.00  0.00     0.167 HD
ATOM     54  C   UNL A   1      40.499  29.163  28.856  1.00  0.00     0.034 A 
ATOM     55  C   UNL A   1      47.675  28.122  27.439  1.00  0.00     0.034 A 
ATOM     56  C   UNL A   1      41.685  29.952  29.227  1.00  0.00     0.049 A 
ATOM     57  C   UNL A   1      47.148  29.529  27.265  1.00  0.00     0.074 A 
ATOM     58  C   UNL A   1      42.464  30.050  30.367  1.00  0.00     0.029 A 
ATOM     59  N   UNL A   1      42.404  30.581  28.212  1.00  0.00    -0.354 N 
ATOM     60  N   UNL A   1      45.884  29.828  27.435  1.00  0.00    -0.248 NA
ATOM     61  C   UNL A   1      47.966  30.715  27.039  1.00  0.00     0.031 C 
ATOM     62  C   UNL A   1      43.687  30.689  30.004  1.00  0.00     0.029 A 
ATOM     63  C   UNL A   1      43.636  31.011  28.655  1.00  0.00     0.049 A 
ATOM     64  H   UNL A   1      42.073  30.703  27.293  1.00  0.00     0.167 HD
ATOM     65  C   UNL A   1      45.722  31.179  27.462  1.00  0.00     0.074 A 
ATOM     66  C   UNL A   1      47.048  31.694  27.159  1.00  0.00     0.031 C 
ATOM     67  C   UNL A   1      44.521  31.760  27.766  1.00  0.00     0.034 A 
BRANCH  54  68
ATOM     68  C   UNL A   1      39.155  29.336  29.541  1.00  0.00     0.023 A 
ATOM     69  C   UNL A   1      38.270  30.314  29.035  1.00  0.00     0.031 A 
ATOM     70  C   UNL A   1      38.684  28.657  30.686  1.00  0.00     0.131 A 
ATOM     71  C   UNL A   1      37.037  30.598  29.655  1.00  0.00     0.055 A 
ATOM     72  C   UNL A   1      37.452  28.931  31.298  1.00  0.00     0.041 A 
ATOM     73  F   UNL A   1      39.371  27.687  31.290  1.00  0.00    -0.206 F 
ATOM     74  C   UNL A   1      36.621  29.909  30.787  1.00  0.00     0.022 A 
BRANCH  71  75
ATOM     75  S   UNL A   1      35.984  31.901  28.965  1.00  0.00     0.124 S 
ATOM     76  O   UNL A   1      35.539  31.302  27.710  1.00  0.00    -0.237 OA
ATOM     77  O   UNL A   1      34.971  32.065  30.000  1.00  0.00    -0.237 OA
ATOM     78  O   UNL A   1      36.899  33.032  28.814  1.00  0.00    -0.744 OA
ENDBRANCH  71  75
ENDBRANCH  54  68
BRANCH  55  79
ATOM     79  C   UNL A   1      48.400  27.201  26.503  1.00  0.00     0.023 A 
ATOM     80  C   UNL A   1      48.086  27.301  25.113  1.00  0.00     0.031 A 
ATOM     81  C   UNL A   1      49.676  26.726  26.841  1.00  0.00     0.131 A 
ATOM     82  C   UNL A   1      49.077  27.098  24.132  1.00  0.00     0.055 A 
ATOM     83  C   UNL A   1      50.660  26.522  25.861  1.00  0.00     0.041 A 
ATOM     84  F   UNL A   1      50.045  26.618  28.126  1.00  0.00    -0.206 F 
ATOM     85  C   UNL A   1      50.376  26.748  24.512  1.00  0.00     0.022 A 
BRANCH  82  86
ATOM     86  S   UNL A   1      48.781  27.507  22.364  1.00  0.00     0.124 S 
ATOM     87  O   UNL A   1      49.939  28.339  22.052  1.00  0.00    -0.237 OA
ATOM     88  O   UNL A   1      48.744  26.225  21.672  1.00  0.00    -0.237 OA
ATOM     89  O   UNL A   1      47.500  28.218  22.398  1.00  0.00    -0.744 OA
ENDBRANCH  82  86
ENDBRANCH  55  79
BRANCH  67  90
ATOM     90  C   UNL A   1      44.104  33.131  27.292  1.00  0.00     0.023 A 
ATOM     91  C   UNL A   1      44.016  34.219  28.163  1.00  0.00     0.031 A 
ATOM     92  C   UNL A   1      43.909  33.428  25.921  1.00  0.00     0.131 A 
ATOM     93  C   UNL A   1      43.650  35.491  27.705  1.00  0.00     0.055 A 
ATOM     94  C   UNL A   1      43.652  34.718  25.452  1.00  0.00     0.041 A 
ATOM     95  F   UNL A   1      43.982  32.491  24.966  1.00  0.00    -0.206 F 
ATOM     96  C   UNL A   1      43.497  35.760  26.350  1.00  0.00     0.022 A 
BRANCH  93  97
ATOM     97  S   UNL A   1      43.285  36.744  28.954  1.00  0.00     0.124 S 
ATOM     98  O   UNL A   1      44.482  37.579  28.892  1.00  0.00    -0.237 OA
ATOM     99  O   UNL A   1      42.062  37.354  28.443  1.00  0.00    -0.237 OA
ATOM    100  O   UNL A   1      43.130  35.969  30.183  1.00  0.00    -0.744 OA
ENDBRANCH  93  97
ENDBRANCH  67  90
ENDBRANCH  41  42
ENDBRANCH  34  36
ENDBRANCH  33  34
ENDBRANCH  32  33
ENDBRANCH  31  32
ENDBRANCH   1  31
TORSDOF 20
ENDMDL
