MODEL 1
REMARK VINA RESULT:      -9.8      0.000      0.000
REMARK SMILES CC[C@H]1SC[C@H](C(=O)OCCOCCOC(=O)c2ccc(-c3c4nc(c(-c5cc(S(=O)(=O)[O-])ccc5F)c5ccc([nH]5)c(-c5cc(S(=O)(=O)[O-])ccc5F)c5nc(c(-c6cc(S(=O)(=O)[O-])ccc6F)c6ccc3[nH]6)C=C5)C=C4)cc2)N1C(=O)C[C@@H]1CSCC[NH2+]1
REMARK SMILES IDX 12 1 11 2 10 3 9 4 7 5 8 6 6 7 3 8 4 9 81 10 5 11 2 12 1 13
REMARK SMILES IDX 82 14 83 15 84 16 85 17 86 18 90 19 87 20 89 21 88 24 13 25
REMARK SMILES IDX 14 26 15 27 16 28 17 29 18 30 19 31 80 32 20 33 79 34 21 35
REMARK SMILES IDX 22 36 23 37 73 38 24 39 78 40 72 41 74 42 25 43 77 44 71 45
REMARK SMILES IDX 70 46 26 48 58 49 38 50 57 51 39 52 42 53 56 54 75 55 40 56
REMARK SMILES IDX 41 57 55 59 76 60 43 61 27 62 28 63 36 64 29 65 35 66 37 67
REMARK SMILES IDX 34 68 30 69 31 70 32 71 33 72 59 73 60 74 68 75 61 76 67 77
REMARK SMILES IDX 69 78 66 79 62 80 63 81 64 82 65 83 44 84 45 85 53 86 46 87
REMARK SMILES IDX 52 88 54 89 51 90 47 91 48 92 49 93 50 94
REMARK H PARENT 90 22 90 23 74 47 42 58
REMARK Flexibility Score: inf
ROOT
ATOM      1  O   UNL A   1      32.399  29.094  27.018  1.00  0.00    -0.374 OA
ENDROOT
BRANCH   1   2
ATOM      2  C   UNL A   1      31.572  27.931  26.964  1.00  0.00     0.202 C 
BRANCH   2   3
ATOM      3  C   UNL A   1      32.236  26.631  26.498  1.00  0.00     0.261 C 
BRANCH   3   4
ATOM      4  O   UNL A   1      31.453  25.492  26.883  1.00  0.00    -0.462 OA
BRANCH   4   5
ATOM      5  C   UNL A   1      31.609  24.389  26.095  1.00  0.00     0.329 C 
ATOM      6  O   UNL A   1      30.694  23.701  25.657  1.00  0.00    -0.250 OA
BRANCH   5   7
ATOM      7  C   UNL A   1      33.105  24.155  25.818  1.00  0.00     0.206 C 
ATOM      8  C   UNL A   1      33.682  22.103  24.576  1.00  0.00     0.144 C 
ATOM      9  S   UNL A   1      33.393  21.616  26.312  1.00  0.00    -0.134 SA
ATOM     10  N   UNL A   1      33.286  23.512  24.498  1.00  0.00    -0.316 N 
ATOM     11  C   UNL A   1      33.699  23.288  26.913  1.00  0.00     0.109 C 
BRANCH   8  12
ATOM     12  C   UNL A   1      35.171  21.923  24.238  1.00  0.00     0.033 C 
ATOM     13  C   UNL A   1      36.065  21.461  25.382  1.00  0.00     0.007 C 
ENDBRANCH   8  12
BRANCH  10  14
ATOM     14  C   UNL A   1      32.979  24.277  23.387  1.00  0.00     0.230 C 
ATOM     15  O   UNL A   1      32.123  23.877  22.592  1.00  0.00    -0.275 OA
BRANCH  14  16
ATOM     16  C   UNL A   1      33.775  25.530  23.057  1.00  0.00     0.166 C 
BRANCH  16  17
ATOM     17  C   UNL A   1      33.184  26.554  22.050  1.00  0.00     0.201 C 
ATOM     18  C   UNL A   1      33.831  27.945  22.108  1.00  0.00     0.135 C 
ATOM     19  N   UNL A   1      31.722  26.616  21.877  1.00  0.00    -0.342 N 
ATOM     20  S   UNL A   1      33.292  28.910  23.544  1.00  0.00    -0.150 SA
ATOM     21  C   UNL A   1      30.988  27.414  22.869  1.00  0.00     0.271 C 
ATOM     22  H   UNL A   1      31.362  25.663  21.916  1.00  0.00     0.346 HD
ATOM     23  H   UNL A   1      31.571  27.084  20.982  1.00  0.00     0.346 HD
ATOM     24  C   UNL A   1      31.510  28.816  23.215  1.00  0.00     0.131 C 
ENDBRANCH  16  17
ENDBRANCH  14  16
ENDBRANCH  10  14
ENDBRANCH   5   7
ENDBRANCH   4   5
ENDBRANCH   3   4
ENDBRANCH   2   3
ENDBRANCH   1   2
BRANCH   1  25
ATOM     25  C   UNL A   1      31.785  30.362  26.789  1.00  0.00     0.202 C 
BRANCH  25  26
ATOM     26  C   UNL A   1      32.711  31.578  26.634  1.00  0.00     0.261 C 
BRANCH  26  27
ATOM     27  O   UNL A   1      32.712  32.447  27.784  1.00  0.00    -0.460 OA
BRANCH  27  28
ATOM     28  C   UNL A   1      33.778  33.287  27.855  1.00  0.00     0.338 C 
ATOM     29  O   UNL A   1      33.760  34.503  27.794  1.00  0.00    -0.246 OA
BRANCH  28  30
ATOM     30  C   UNL A   1      34.999  32.532  28.192  1.00  0.00     0.060 A 
ATOM     31  C   UNL A   1      34.848  31.231  28.693  1.00  0.00     0.016 A 
ATOM     32  C   UNL A   1      36.260  33.127  28.133  1.00  0.00     0.016 A 
ATOM     33  C   UNL A   1      35.958  30.529  29.160  1.00  0.00     0.010 A 
ATOM     34  C   UNL A   1      37.371  32.423  28.615  1.00  0.00     0.010 A 
ATOM     35  C   UNL A   1      37.221  31.133  29.157  1.00  0.00    -0.014 A 
BRANCH  35  36
ATOM     36  C   UNL A   1      38.354  30.468  29.851  1.00  0.00     0.031 A 
ATOM     37  C   UNL A   1      38.656  30.843  31.278  1.00  0.00     0.074 A 
ATOM     38  C   UNL A   1      39.089  29.531  29.224  1.00  0.00     0.049 A 
ATOM     39  N   UNL A   1      39.624  30.435  32.055  1.00  0.00    -0.248 NA
ATOM     40  C   UNL A   1      37.744  31.810  31.910  1.00  0.00     0.031 C 
ATOM     41  C   UNL A   1      38.862  29.056  27.859  1.00  0.00     0.029 A 
ATOM     42  N   UNL A   1      40.185  28.820  29.646  1.00  0.00    -0.354 N 
ATOM     43  C   UNL A   1      39.452  31.107  33.262  1.00  0.00     0.074 A 
ATOM     44  C   UNL A   1      38.294  31.962  33.106  1.00  0.00     0.031 C 
ATOM     45  C   UNL A   1      39.803  28.148  27.550  1.00  0.00     0.029 A 
ATOM     46  C   UNL A   1      40.723  28.005  28.676  1.00  0.00     0.049 A 
ATOM     47  H   UNL A   1      40.551  28.886  30.557  1.00  0.00     0.167 HD
ATOM     48  C   UNL A   1      40.195  31.019  34.391  1.00  0.00     0.034 A 
ATOM     49  C   UNL A   1      41.847  27.258  28.687  1.00  0.00     0.034 A 
ATOM     50  C   UNL A   1      41.341  30.154  34.533  1.00  0.00     0.049 A 
ATOM     51  C   UNL A   1      42.690  27.223  29.943  1.00  0.00     0.074 A 
ATOM     52  C   UNL A   1      42.132  29.953  35.651  1.00  0.00     0.029 A 
ATOM     53  N   UNL A   1      41.868  29.357  33.526  1.00  0.00    -0.354 N 
ATOM     54  N   UNL A   1      42.493  27.838  31.088  1.00  0.00    -0.248 NA
ATOM     55  C   UNL A   1      43.897  26.388  29.913  1.00  0.00     0.031 C 
ATOM     56  C   UNL A   1      43.181  29.099  35.297  1.00  0.00     0.029 A 
ATOM     57  C   UNL A   1      42.997  28.698  33.984  1.00  0.00     0.049 A 
ATOM     58  H   UNL A   1      41.494  29.274  32.619  1.00  0.00     0.167 HD
ATOM     59  C   UNL A   1      43.532  27.428  31.922  1.00  0.00     0.074 A 
ATOM     60  C   UNL A   1      44.341  26.505  31.155  1.00  0.00     0.031 C 
ATOM     61  C   UNL A   1      43.792  27.777  33.208  1.00  0.00     0.034 A 
BRANCH  48  62
ATOM     62  C   UNL A   1      39.836  31.920  35.545  1.00  0.00     0.023 A 
ATOM     63  C   UNL A   1      38.911  31.541  36.533  1.00  0.00     0.031 A 
ATOM     64  C   UNL A   1      40.454  33.178  35.667  1.00  0.00     0.131 A 
ATOM     65  C   UNL A   1      38.602  32.430  37.576  1.00  0.00     0.055 A 
ATOM     66  C   UNL A   1      40.191  34.029  36.741  1.00  0.00     0.041 A 
ATOM     67  F   UNL A   1      41.328  33.601  34.739  1.00  0.00    -0.206 F 
ATOM     68  C   UNL A   1      39.255  33.659  37.700  1.00  0.00     0.022 A 
BRANCH  65  69
ATOM     69  S   UNL A   1      37.264  31.997  38.722  1.00  0.00     0.124 S 
ATOM     70  O   UNL A   1      36.178  32.849  38.243  1.00  0.00    -0.237 OA
ATOM     71  O   UNL A   1      37.101  30.566  38.494  1.00  0.00    -0.237 OA
ATOM     72  O   UNL A   1      37.802  32.363  40.031  1.00  0.00    -0.744 OA
ENDBRANCH  65  69
ENDBRANCH  48  62
BRANCH  49  73
ATOM     73  C   UNL A   1      42.290  26.524  27.463  1.00  0.00     0.023 A 
ATOM     74  C   UNL A   1      42.005  25.161  27.286  1.00  0.00     0.031 A 
ATOM     75  C   UNL A   1      43.093  27.157  26.497  1.00  0.00     0.131 A 
ATOM     76  C   UNL A   1      42.574  24.460  26.210  1.00  0.00     0.055 A 
ATOM     77  C   UNL A   1      43.602  26.471  25.393  1.00  0.00     0.041 A 
ATOM     78  F   UNL A   1      43.403  28.458  26.615  1.00  0.00    -0.206 F 
ATOM     79  C   UNL A   1      43.359  25.109  25.255  1.00  0.00     0.022 A 
BRANCH  76  80
ATOM     80  S   UNL A   1      42.384  22.655  26.154  1.00  0.00     0.124 S 
ATOM     81  O   UNL A   1      43.064  22.247  27.378  1.00  0.00    -0.237 OA
ATOM     82  O   UNL A   1      40.932  22.506  26.144  1.00  0.00    -0.237 OA
ATOM     83  O   UNL A   1      43.057  22.282  24.911  1.00  0.00    -0.744 OA
ENDBRANCH  76  80
ENDBRANCH  49  73
BRANCH  61  84
ATOM     84  C   UNL A   1      44.966  27.107  33.882  1.00  0.00     0.023 A 
ATOM     85  C   UNL A   1      46.252  27.675  33.875  1.00  0.00     0.031 A 
ATOM     86  C   UNL A   1      44.791  25.876  34.539  1.00  0.00     0.131 A 
ATOM     87  C   UNL A   1      47.323  26.986  34.464  1.00  0.00     0.055 A 
ATOM     88  C   UNL A   1      45.847  25.225  35.176  1.00  0.00     0.041 A 
ATOM     89  F   UNL A   1      43.585  25.286  34.575  1.00  0.00    -0.206 F 
ATOM     90  C   UNL A   1      47.126  25.772  35.128  1.00  0.00     0.022 A 
BRANCH  87  91
ATOM     91  S   UNL A   1      49.000  27.650  34.269  1.00  0.00     0.124 S 
ATOM     92  O   UNL A   1      49.806  26.434  34.229  1.00  0.00    -0.237 OA
ATOM     93  O   UNL A   1      48.899  28.390  33.016  1.00  0.00    -0.237 OA
ATOM     94  O   UNL A   1      49.183  28.475  35.463  1.00  0.00    -0.744 OA
ENDBRANCH  87  91
ENDBRANCH  61  84
ENDBRANCH  35  36
ENDBRANCH  28  30
ENDBRANCH  27  28
ENDBRANCH  26  27
ENDBRANCH  25  26
ENDBRANCH   1  25
TORSDOF 21
ENDMDL
MODEL 2
REMARK VINA RESULT:      -9.7      1.179      2.618
REMARK SMILES CC[C@H]1SC[C@H](C(=O)OCCOCCOC(=O)c2ccc(-c3c4nc(c(-c5cc(S(=O)(=O)[O-])ccc5F)c5ccc([nH]5)c(-c5cc(S(=O)(=O)[O-])ccc5F)c5nc(c(-c6cc(S(=O)(=O)[O-])ccc6F)c6ccc3[nH]6)C=C5)C=C4)cc2)N1C(=O)C[C@@H]1CSCC[NH2+]1
REMARK SMILES IDX 12 1 11 2 10 3 9 4 7 5 8 6 6 7 3 8 4 9 81 10 5 11 2 12 1 13
REMARK SMILES IDX 82 14 83 15 84 16 85 17 86 18 90 19 87 20 89 21 88 24 13 25
REMARK SMILES IDX 14 26 15 27 16 28 17 29 18 30 19 31 80 32 20 33 79 34 21 35
REMARK SMILES IDX 22 36 23 37 73 38 24 39 78 40 72 41 74 42 25 43 77 44 71 45
REMARK SMILES IDX 70 46 26 48 58 49 38 50 57 51 39 52 42 53 56 54 75 55 40 56
REMARK SMILES IDX 41 57 55 59 76 60 43 61 27 62 28 63 36 64 29 65 35 66 37 67
REMARK SMILES IDX 34 68 30 69 31 70 32 71 33 72 59 73 60 74 68 75 61 76 67 77
REMARK SMILES IDX 69 78 66 79 62 80 63 81 64 82 65 83 44 84 45 85 53 86 46 87
REMARK SMILES IDX 52 88 54 89 51 90 47 91 48 92 49 93 50 94
REMARK H PARENT 90 22 90 23 74 47 42 58
REMARK Flexibility Score: inf
ROOT
ATOM      1  O   UNL A   1      32.689  30.459  26.543  1.00  0.00    -0.374 OA
ENDROOT
BRANCH   1   2
ATOM      2  C   UNL A   1      32.621  29.123  26.046  1.00  0.00     0.202 C 
BRANCH   2   3
ATOM      3  C   UNL A   1      31.420  28.280  26.487  1.00  0.00     0.261 C 
BRANCH   3   4
ATOM      4  O   UNL A   1      31.049  27.345  25.464  1.00  0.00    -0.462 OA
BRANCH   4   5
ATOM      5  C   UNL A   1      31.058  26.034  25.845  1.00  0.00     0.329 C 
ATOM      6  O   UNL A   1      30.859  25.631  26.985  1.00  0.00    -0.250 OA
BRANCH   5   7
ATOM      7  C   UNL A   1      31.332  25.139  24.623  1.00  0.00     0.206 C 
ATOM      8  C   UNL A   1      32.717  26.122  22.834  1.00  0.00     0.144 C 
ATOM      9  S   UNL A   1      31.026  26.780  22.626  1.00  0.00    -0.134 SA
ATOM     10  N   UNL A   1      32.693  25.389  24.102  1.00  0.00    -0.316 N 
ATOM     11  C   UNL A   1      30.298  25.412  23.547  1.00  0.00     0.109 C 
BRANCH   8  12
ATOM     12  C   UNL A   1      33.048  25.190  21.656  1.00  0.00     0.033 C 
ATOM     13  C   UNL A   1      32.553  25.640  20.287  1.00  0.00     0.007 C 
ENDBRANCH   8  12
BRANCH  10  14
ATOM     14  C   UNL A   1      33.748  24.987  24.903  1.00  0.00     0.230 C 
ATOM     15  O   UNL A   1      34.597  25.815  25.249  1.00  0.00    -0.275 OA
BRANCH  14  16
ATOM     16  C   UNL A   1      33.955  23.520  25.247  1.00  0.00     0.166 C 
BRANCH  16  17
ATOM     17  C   UNL A   1      34.260  22.514  24.105  1.00  0.00     0.201 C 
ATOM     18  C   UNL A   1      33.023  21.798  23.544  1.00  0.00     0.135 C 
ATOM     19  N   UNL A   1      35.421  21.615  24.243  1.00  0.00    -0.342 N 
ATOM     20  S   UNL A   1      32.405  20.499  24.646  1.00  0.00    -0.150 SA
ATOM     21  C   UNL A   1      35.205  20.399  25.037  1.00  0.00     0.271 C 
ATOM     22  H   UNL A   1      36.174  22.144  24.681  1.00  0.00     0.346 HD
ATOM     23  H   UNL A   1      35.631  21.293  23.297  1.00  0.00     0.346 HD
ATOM     24  C   UNL A   1      33.950  19.556  24.762  1.00  0.00     0.131 C 
ENDBRANCH  16  17
ENDBRANCH  14  16
ENDBRANCH  10  14
ENDBRANCH   5   7
ENDBRANCH   4   5
ENDBRANCH   3   4
ENDBRANCH   2   3
ENDBRANCH   1   2
BRANCH   1  25
ATOM     25  C   UNL A   1      31.586  31.327  26.280  1.00  0.00     0.202 C 
BRANCH  25  26
ATOM     26  C   UNL A   1      31.603  32.712  26.943  1.00  0.00     0.261 C 
BRANCH  26  27
ATOM     27  O   UNL A   1      32.876  33.381  26.841  1.00  0.00    -0.460 OA
BRANCH  27  28
ATOM     28  C   UNL A   1      33.396  33.788  28.029  1.00  0.00     0.338 C 
ATOM     29  O   UNL A   1      32.900  34.572  28.818  1.00  0.00    -0.246 OA
BRANCH  28  30
ATOM     30  C   UNL A   1      34.610  33.011  28.345  1.00  0.00     0.060 A 
ATOM     31  C   UNL A   1      34.447  31.694  28.795  1.00  0.00     0.016 A 
ATOM     32  C   UNL A   1      35.875  33.599  28.315  1.00  0.00     0.016 A 
ATOM     33  C   UNL A   1      35.550  30.967  29.241  1.00  0.00     0.010 A 
ATOM     34  C   UNL A   1      36.978  32.871  28.777  1.00  0.00     0.010 A 
ATOM     35  C   UNL A   1      36.817  31.562  29.269  1.00  0.00    -0.014 A 
BRANCH  35  36
ATOM     36  C   UNL A   1      37.941  30.863  29.944  1.00  0.00     0.031 A 
ATOM     37  C   UNL A   1      38.213  31.155  31.396  1.00  0.00     0.074 A 
ATOM     38  C   UNL A   1      38.695  29.970  29.276  1.00  0.00     0.049 A 
ATOM     39  N   UNL A   1      39.169  30.707  32.167  1.00  0.00    -0.248 NA
ATOM     40  C   UNL A   1      37.282  32.076  32.067  1.00  0.00     0.031 C 
ATOM     41  C   UNL A   1      38.496  29.577  27.881  1.00  0.00     0.029 A 
ATOM     42  N   UNL A   1      39.787  29.241  29.677  1.00  0.00    -0.354 N 
ATOM     43  C   UNL A   1      38.969  31.304  33.407  1.00  0.00     0.074 A 
ATOM     44  C   UNL A   1      37.809  32.160  33.280  1.00  0.00     0.031 C 
ATOM     45  C   UNL A   1      39.450  28.694  27.537  1.00  0.00     0.029 A 
ATOM     46  C   UNL A   1      40.350  28.489  28.671  1.00  0.00     0.049 A 
ATOM     47  H   UNL A   1      40.136  29.255  30.597  1.00  0.00     0.167 HD
ATOM     48  C   UNL A   1      39.691  31.153  34.544  1.00  0.00     0.034 A 
ATOM     49  C   UNL A   1      41.479  27.750  28.659  1.00  0.00     0.034 A 
ATOM     50  C   UNL A   1      40.840  30.288  34.656  1.00  0.00     0.049 A 
ATOM     51  C   UNL A   1      42.297  27.645  29.926  1.00  0.00     0.074 A 
ATOM     52  C   UNL A   1      41.611  30.025  35.775  1.00  0.00     0.029 A 
ATOM     53  N   UNL A   1      41.392  29.556  33.613  1.00  0.00    -0.354 N 
ATOM     54  N   UNL A   1      42.074  28.189  31.102  1.00  0.00    -0.248 NA
ATOM     55  C   UNL A   1      43.511  26.820  29.870  1.00  0.00     0.031 C 
ATOM     56  C   UNL A   1      42.673  29.200  35.392  1.00  0.00     0.029 A 
ATOM     57  C   UNL A   1      42.517  28.877  34.054  1.00  0.00     0.049 A 
ATOM     58  H   UNL A   1      41.037  29.525  32.696  1.00  0.00     0.167 HD
ATOM     59  C   UNL A   1      43.100  27.736  31.930  1.00  0.00     0.074 A 
ATOM     60  C   UNL A   1      43.931  26.865  31.125  1.00  0.00     0.031 C 
ATOM     61  C   UNL A   1      43.333  28.009  33.239  1.00  0.00     0.034 A 
BRANCH  48  62
ATOM     62  C   UNL A   1      39.304  31.982  35.742  1.00  0.00     0.023 A 
ATOM     63  C   UNL A   1      38.520  31.466  36.789  1.00  0.00     0.031 A 
ATOM     64  C   UNL A   1      39.752  33.311  35.845  1.00  0.00     0.131 A 
ATOM     65  C   UNL A   1      38.175  32.290  37.872  1.00  0.00     0.055 A 
ATOM     66  C   UNL A   1      39.460  34.104  36.955  1.00  0.00     0.041 A 
ATOM     67  F   UNL A   1      40.483  33.863  34.864  1.00  0.00    -0.206 F 
ATOM     68  C   UNL A   1      38.661  33.596  37.975  1.00  0.00     0.022 A 
BRANCH  65  69
ATOM     69  S   UNL A   1      37.004  31.662  39.107  1.00  0.00     0.124 S 
ATOM     70  O   UNL A   1      35.928  32.646  39.020  1.00  0.00    -0.237 OA
ATOM     71  O   UNL A   1      36.694  30.330  38.602  1.00  0.00    -0.237 OA
ATOM     72  O   UNL A   1      37.768  31.695  40.353  1.00  0.00    -0.744 OA
ENDBRANCH  65  69
ENDBRANCH  48  62
BRANCH  49  73
ATOM     73  C   UNL A   1      41.950  27.093  27.402  1.00  0.00     0.023 A 
ATOM     74  C   UNL A   1      41.829  25.707  27.212  1.00  0.00     0.031 A 
ATOM     75  C   UNL A   1      42.620  27.834  26.411  1.00  0.00     0.131 A 
ATOM     76  C   UNL A   1      42.428  25.097  26.099  1.00  0.00     0.055 A 
ATOM     77  C   UNL A   1      43.157  27.232  25.272  1.00  0.00     0.041 A 
ATOM     78  F   UNL A   1      42.771  29.162  26.540  1.00  0.00    -0.206 F 
ATOM     79  C   UNL A   1      43.079  25.851  25.120  1.00  0.00     0.022 A 
BRANCH  76  80
ATOM     80  S   UNL A   1      42.462  23.284  26.017  1.00  0.00     0.124 S 
ATOM     81  O   UNL A   1      43.421  22.958  27.066  1.00  0.00    -0.237 OA
ATOM     82  O   UNL A   1      41.070  22.944  26.291  1.00  0.00    -0.237 OA
ATOM     83  O   UNL A   1      42.912  23.014  24.652  1.00  0.00    -0.744 OA
ENDBRANCH  76  80
ENDBRANCH  49  73
BRANCH  61  84
ATOM     84  C   UNL A   1      44.499  27.308  33.895  1.00  0.00     0.023 A 
ATOM     85  C   UNL A   1      45.781  27.882  33.945  1.00  0.00     0.031 A 
ATOM     86  C   UNL A   1      44.320  26.038  34.475  1.00  0.00     0.131 A 
ATOM     87  C   UNL A   1      46.846  27.165  34.512  1.00  0.00     0.055 A 
ATOM     88  C   UNL A   1      45.368  25.357  35.093  1.00  0.00     0.041 A 
ATOM     89  F   UNL A   1      43.117  25.442  34.454  1.00  0.00    -0.206 F 
ATOM     90  C   UNL A   1      46.644  25.913  35.101  1.00  0.00     0.022 A 
BRANCH  87  91
ATOM     91  S   UNL A   1      48.522  27.848  34.389  1.00  0.00     0.124 S 
ATOM     92  O   UNL A   1      48.940  27.390  33.068  1.00  0.00    -0.237 OA
ATOM     93  O   UNL A   1      48.285  29.281  34.521  1.00  0.00    -0.237 OA
ATOM     94  O   UNL A   1      49.227  27.232  35.511  1.00  0.00    -0.744 OA
ENDBRANCH  87  91
ENDBRANCH  61  84
ENDBRANCH  35  36
ENDBRANCH  28  30
ENDBRANCH  27  28
ENDBRANCH  26  27
ENDBRANCH  25  26
ENDBRANCH   1  25
TORSDOF 21
ENDMDL
MODEL 3
REMARK VINA RESULT:      -9.3      1.783      8.000
REMARK SMILES CC[C@H]1SC[C@H](C(=O)OCCOCCOC(=O)c2ccc(-c3c4nc(c(-c5cc(S(=O)(=O)[O-])ccc5F)c5ccc([nH]5)c(-c5cc(S(=O)(=O)[O-])ccc5F)c5nc(c(-c6cc(S(=O)(=O)[O-])ccc6F)c6ccc3[nH]6)C=C5)C=C4)cc2)N1C(=O)C[C@@H]1CSCC[NH2+]1
REMARK SMILES IDX 12 1 11 2 10 3 9 4 7 5 8 6 6 7 3 8 4 9 81 10 5 11 2 12 1 13
REMARK SMILES IDX 82 14 83 15 84 16 85 17 86 18 90 19 87 20 89 21 88 24 13 25
REMARK SMILES IDX 14 26 15 27 16 28 17 29 18 30 19 31 80 32 20 33 79 34 21 35
REMARK SMILES IDX 22 36 23 37 73 38 24 39 78 40 72 41 74 42 25 43 77 44 71 45
REMARK SMILES IDX 70 46 26 48 58 49 38 50 57 51 39 52 42 53 56 54 75 55 40 56
REMARK SMILES IDX 41 57 55 59 76 60 43 61 27 62 28 63 36 64 29 65 35 66 37 67
REMARK SMILES IDX 34 68 30 69 31 70 32 71 33 72 59 73 60 74 68 75 61 76 67 77
REMARK SMILES IDX 69 78 66 79 62 80 63 81 64 82 65 83 44 84 45 85 53 86 46 87
REMARK SMILES IDX 52 88 54 89 51 90 47 91 48 92 49 93 50 94
REMARK H PARENT 90 22 90 23 74 47 42 58
REMARK Flexibility Score: inf
ROOT
ATOM      1  O   UNL A   1      33.195  30.687  26.878  1.00  0.00    -0.374 OA
ENDROOT
BRANCH   1   2
ATOM      2  C   UNL A   1      33.322  29.288  27.130  1.00  0.00     0.202 C 
BRANCH   2   3
ATOM      3  C   UNL A   1      32.077  28.426  26.897  1.00  0.00     0.261 C 
BRANCH   3   4
ATOM      4  O   UNL A   1      32.339  27.402  25.927  1.00  0.00    -0.462 OA
BRANCH   4   5
ATOM      5  C   UNL A   1      31.290  26.567  25.669  1.00  0.00     0.329 C 
ATOM      6  O   UNL A   1      30.704  25.893  26.508  1.00  0.00    -0.250 OA
BRANCH   5   7
ATOM      7  C   UNL A   1      30.942  26.617  24.171  1.00  0.00     0.206 C 
ATOM      8  C   UNL A   1      32.792  26.172  22.600  1.00  0.00     0.144 C 
ATOM      9  S   UNL A   1      32.961  27.905  23.152  1.00  0.00    -0.134 SA
ATOM     10  N   UNL A   1      31.725  25.605  23.430  1.00  0.00    -0.316 N 
ATOM     11  C   UNL A   1      31.225  28.005  23.626  1.00  0.00     0.109 C 
BRANCH   8  12
ATOM     12  C   UNL A   1      32.411  26.148  21.110  1.00  0.00     0.033 C 
ATOM     13  C   UNL A   1      32.894  24.940  20.316  1.00  0.00     0.007 C 
ENDBRANCH   8  12
BRANCH  10  14
ATOM     14  C   UNL A   1      31.417  24.279  23.677  1.00  0.00     0.230 C 
ATOM     15  O   UNL A   1      30.277  23.980  24.049  1.00  0.00    -0.275 OA
BRANCH  14  16
ATOM     16  C   UNL A   1      32.491  23.204  23.632  1.00  0.00     0.166 C 
BRANCH  16  17
ATOM     17  C   UNL A   1      33.069  22.660  24.965  1.00  0.00     0.201 C 
ATOM     18  C   UNL A   1      33.569  23.746  25.929  1.00  0.00     0.135 C 
ATOM     19  N   UNL A   1      33.958  21.485  24.927  1.00  0.00    -0.342 N 
ATOM     20  S   UNL A   1      35.158  24.454  25.424  1.00  0.00    -0.150 SA
ATOM     21  C   UNL A   1      35.368  21.752  24.613  1.00  0.00     0.271 C 
ATOM     22  H   UNL A   1      33.599  20.844  24.220  1.00  0.00     0.346 HD
ATOM     23  H   UNL A   1      33.955  21.107  25.875  1.00  0.00     0.346 HD
ATOM     24  C   UNL A   1      36.081  22.894  25.354  1.00  0.00     0.131 C 
ENDBRANCH  16  17
ENDBRANCH  14  16
ENDBRANCH  10  14
ENDBRANCH   5   7
ENDBRANCH   4   5
ENDBRANCH   3   4
ENDBRANCH   2   3
ENDBRANCH   1   2
BRANCH   1  25
ATOM     25  C   UNL A   1      31.883  31.247  26.866  1.00  0.00     0.202 C 
BRANCH  25  26
ATOM     26  C   UNL A   1      31.748  32.741  27.200  1.00  0.00     0.261 C 
BRANCH  26  27
ATOM     27  O   UNL A   1      33.003  33.450  27.169  1.00  0.00    -0.460 OA
BRANCH  27  28
ATOM     28  C   UNL A   1      33.434  33.885  28.382  1.00  0.00     0.338 C 
ATOM     29  O   UNL A   1      32.855  34.642  29.139  1.00  0.00    -0.246 OA
BRANCH  28  30
ATOM     30  C   UNL A   1      34.669  33.176  28.766  1.00  0.00     0.060 A 
ATOM     31  C   UNL A   1      34.541  31.962  29.455  1.00  0.00     0.016 A 
ATOM     32  C   UNL A   1      35.927  33.746  28.563  1.00  0.00     0.016 A 
ATOM     33  C   UNL A   1      35.671  31.325  29.964  1.00  0.00     0.010 A 
ATOM     34  C   UNL A   1      37.058  33.110  29.089  1.00  0.00     0.010 A 
ATOM     35  C   UNL A   1      36.933  31.912  29.816  1.00  0.00    -0.014 A 
BRANCH  35  36
ATOM     36  C   UNL A   1      38.097  31.344  30.544  1.00  0.00     0.031 A 
ATOM     37  C   UNL A   1      38.937  30.293  29.866  1.00  0.00     0.074 A 
ATOM     38  C   UNL A   1      38.411  31.772  31.781  1.00  0.00     0.049 A 
ATOM     39  N   UNL A   1      39.959  29.622  30.331  1.00  0.00    -0.248 NA
ATOM     40  C   UNL A   1      38.574  29.953  28.482  1.00  0.00     0.031 C 
ATOM     41  C   UNL A   1      37.696  32.815  32.517  1.00  0.00     0.029 A 
ATOM     42  N   UNL A   1      39.402  31.374  32.643  1.00  0.00    -0.354 N 
ATOM     43  C   UNL A   1      40.350  28.767  29.305  1.00  0.00     0.074 A 
ATOM     44  C   UNL A   1      39.443  28.994  28.199  1.00  0.00     0.031 C 
ATOM     45  C   UNL A   1      38.260  32.958  33.729  1.00  0.00     0.029 A 
ATOM     46  C   UNL A   1      39.348  31.993  33.872  1.00  0.00     0.049 A 
ATOM     47  H   UNL A   1      40.087  30.709  32.406  1.00  0.00     0.167 HD
ATOM     48  C   UNL A   1      41.369  27.875  29.291  1.00  0.00     0.034 A 
ATOM     49  C   UNL A   1      40.072  31.779  34.991  1.00  0.00     0.034 A 
ATOM     50  C   UNL A   1      42.270  27.668  30.399  1.00  0.00     0.049 A 
ATOM     51  C   UNL A   1      41.166  30.735  34.965  1.00  0.00     0.074 A 
ATOM     52  C   UNL A   1      43.365  26.824  30.469  1.00  0.00     0.029 A 
ATOM     53  N   UNL A   1      42.174  28.298  31.633  1.00  0.00    -0.354 N 
ATOM     54  N   UNL A   1      41.546  29.960  33.975  1.00  0.00    -0.248 NA
ATOM     55  C   UNL A   1      41.935  30.545  36.202  1.00  0.00     0.031 C 
ATOM     56  C   UNL A   1      43.882  26.884  31.767  1.00  0.00     0.029 A 
ATOM     57  C   UNL A   1      43.164  27.830  32.482  1.00  0.00     0.049 A 
ATOM     58  H   UNL A   1      41.502  28.977  31.869  1.00  0.00     0.167 HD
ATOM     59  C   UNL A   1      42.623  29.222  34.462  1.00  0.00     0.074 A 
ATOM     60  C   UNL A   1      42.841  29.655  35.826  1.00  0.00     0.031 C 
ATOM     61  C   UNL A   1      43.371  28.275  33.839  1.00  0.00     0.034 A 
BRANCH  48  62
ATOM     62  C   UNL A   1      41.533  27.008  28.068  1.00  0.00     0.023 A 
ATOM     63  C   UNL A   1      41.117  25.666  28.039  1.00  0.00     0.031 A 
ATOM     64  C   UNL A   1      42.099  27.551  26.900  1.00  0.00     0.131 A 
ATOM     65  C   UNL A   1      41.312  24.901  26.877  1.00  0.00     0.055 A 
ATOM     66  C   UNL A   1      42.229  26.804  25.729  1.00  0.00     0.041 A 
ATOM     67  F   UNL A   1      42.535  28.820  26.879  1.00  0.00    -0.206 F 
ATOM     68  C   UNL A   1      41.840  25.469  25.715  1.00  0.00     0.022 A 
BRANCH  65  69
ATOM     69  S   UNL A   1      40.948  23.125  26.931  1.00  0.00     0.124 S 
ATOM     70  O   UNL A   1      41.397  22.773  28.276  1.00  0.00    -0.237 OA
ATOM     71  O   UNL A   1      39.508  23.089  26.708  1.00  0.00    -0.237 OA
ATOM     72  O   UNL A   1      41.761  22.576  25.848  1.00  0.00    -0.744 OA
ENDBRANCH  65  69
ENDBRANCH  48  62
BRANCH  49  73
ATOM     73  C   UNL A   1      39.762  32.515  36.254  1.00  0.00     0.023 A 
ATOM     74  C   UNL A   1      38.811  32.030  37.166  1.00  0.00     0.031 A 
ATOM     75  C   UNL A   1      40.344  33.768  36.518  1.00  0.00     0.131 A 
ATOM     76  C   UNL A   1      38.419  32.822  38.258  1.00  0.00     0.055 A 
ATOM     77  C   UNL A   1      40.000  34.522  37.641  1.00  0.00     0.041 A 
ATOM     78  F   UNL A   1      41.257  34.285  35.679  1.00  0.00    -0.206 F 
ATOM     79  C   UNL A   1      39.018  34.058  38.509  1.00  0.00     0.022 A 
BRANCH  76  80
ATOM     80  S   UNL A   1      37.017  32.271  39.270  1.00  0.00     0.124 S 
ATOM     81  O   UNL A   1      37.233  30.829  39.318  1.00  0.00    -0.237 OA
ATOM     82  O   UNL A   1      37.242  32.996  40.516  1.00  0.00    -0.237 OA
ATOM     83  O   UNL A   1      35.852  32.703  38.499  1.00  0.00    -0.744 OA
ENDBRANCH  76  80
ENDBRANCH  49  73
BRANCH  61  84
ATOM     84  C   UNL A   1      44.531  27.692  34.610  1.00  0.00     0.023 A 
ATOM     85  C   UNL A   1      44.421  26.485  35.322  1.00  0.00     0.031 A 
ATOM     86  C   UNL A   1      45.767  28.363  34.634  1.00  0.00     0.131 A 
ATOM     87  C   UNL A   1      45.510  26.015  36.072  1.00  0.00     0.055 A 
ATOM     88  C   UNL A   1      46.865  27.859  35.331  1.00  0.00     0.041 A 
ATOM     89  F   UNL A   1      45.928  29.521  33.974  1.00  0.00    -0.206 F 
ATOM     90  C   UNL A   1      46.736  26.685  36.067  1.00  0.00     0.022 A 
BRANCH  87  91
ATOM     91  S   UNL A   1      45.276  24.561  37.132  1.00  0.00     0.124 S 
ATOM     92  O   UNL A   1      44.539  23.660  36.253  1.00  0.00    -0.237 OA
ATOM     93  O   UNL A   1      46.649  24.173  37.437  1.00  0.00    -0.237 OA
ATOM     94  O   UNL A   1      44.514  25.082  38.266  1.00  0.00    -0.744 OA
ENDBRANCH  87  91
ENDBRANCH  61  84
ENDBRANCH  35  36
ENDBRANCH  28  30
ENDBRANCH  27  28
ENDBRANCH  26  27
ENDBRANCH  25  26
ENDBRANCH   1  25
TORSDOF 21
ENDMDL
