MODEL 1
REMARK VINA RESULT:     -10.6      0.000      0.000
REMARK SMILES CC(C)(C)c1csc(C[NH+]2CC(C(=O)OCCOCCOC(=O)c3ccc(-c4c5nc(c(-c6cc(S(=O)(=O)[O-])ccc6F)c6ccc([nH]6)c(-c6cc(S(=O)(=O)[O-])ccc6F)c6nc(c(-c7cc(S(=O)(=O)[O-])ccc7F)c7ccc4[nH]7)C=C6)C=C5)cc3)C2)n1
REMARK SMILES IDX 18 1 17 2 16 3 15 4 13 5 14 6 12 7 10 8 11 9 87 10 9 12 8 13
REMARK SMILES IDX 5 14 6 15 88 16 7 17 2 18 1 19 3 20 4 21 19 22 20 23 21 24
REMARK SMILES IDX 22 25 23 26 24 27 25 28 86 29 26 30 85 31 27 32 28 33 29 34
REMARK SMILES IDX 79 35 30 36 84 37 78 38 80 39 31 40 83 41 77 42 76 43 32 45
REMARK SMILES IDX 64 46 44 47 63 48 45 49 48 50 62 51 81 52 46 53 47 54 61 56
REMARK SMILES IDX 82 57 49 58 33 59 34 60 42 61 35 62 41 63 43 64 40 65 36 66
REMARK SMILES IDX 37 67 38 68 39 69 65 70 66 71 74 72 67 73 73 74 75 75 72 76
REMARK SMILES IDX 68 77 69 78 70 79 71 80 50 81 51 82 59 83 52 84 58 85 60 86
REMARK SMILES IDX 57 87 53 88 54 89 55 90 56 91
REMARK H PARENT 10 11 80 44 48 55
REMARK Flexibility Score: inf
ROOT
ATOM      1  O   UNL A   1      32.335  30.546  26.491  1.00  0.00    -0.374 OA
ENDROOT
BRANCH   1   2
ATOM      2  C   UNL A   1      31.923  29.305  27.066  1.00  0.00     0.202 C 
BRANCH   2   3
ATOM      3  C   UNL A   1      33.023  28.258  27.269  1.00  0.00     0.261 C 
BRANCH   3   4
ATOM      4  O   UNL A   1      34.025  28.353  26.242  1.00  0.00    -0.463 OA
BRANCH   4   5
ATOM      5  C   UNL A   1      33.753  27.719  25.062  1.00  0.00     0.320 C 
ATOM      6  O   UNL A   1      33.902  28.247  23.959  1.00  0.00    -0.251 OA
BRANCH   5   7
ATOM      7  C   UNL A   1      33.317  26.260  25.246  1.00  0.00     0.208 C 
ATOM      8  N   UNL A   1      33.488  24.251  24.712  1.00  0.00    -0.327 N 
ATOM      9  C   UNL A   1      34.420  25.184  25.386  1.00  0.00     0.284 C 
ATOM     10  C   UNL A   1      32.854  25.402  24.043  1.00  0.00     0.284 C 
ATOM     11  H   UNL A   1      32.933  23.589  25.255  1.00  0.00     0.348 HD
BRANCH   8  12
ATOM     12  C   UNL A   1      34.128  23.289  23.801  1.00  0.00     0.331 C 
BRANCH  12  13
ATOM     13  C   UNL A   1      34.457  21.891  24.272  1.00  0.00     0.147 A 
ATOM     14  C   UNL A   1      34.233  19.694  24.598  1.00  0.00     0.057 A 
ATOM     15  C   UNL A   1      35.534  19.862  25.035  1.00  0.00     0.091 A 
ATOM     16  N   UNL A   1      33.621  20.875  24.187  1.00  0.00    -0.240 NA
ATOM     17  S   UNL A   1      36.030  21.486  24.840  1.00  0.00    -0.121 S 
BRANCH  14  18
ATOM     18  C   UNL A   1      33.453  18.393  24.459  1.00  0.00     0.005 C 
ATOM     19  C   UNL A   1      32.442  18.492  23.300  1.00  0.00     0.017 C 
ATOM     20  C   UNL A   1      32.674  18.037  25.742  1.00  0.00     0.017 C 
ATOM     21  C   UNL A   1      34.444  17.249  24.160  1.00  0.00     0.017 C 
ENDBRANCH  14  18
ENDBRANCH  12  13
ENDBRANCH   8  12
ENDBRANCH   5   7
ENDBRANCH   4   5
ENDBRANCH   3   4
ENDBRANCH   2   3
ENDBRANCH   1   2
BRANCH   1  22
ATOM     22  C   UNL A   1      31.321  31.521  26.248  1.00  0.00     0.202 C 
BRANCH  22  23
ATOM     23  C   UNL A   1      31.524  32.912  26.865  1.00  0.00     0.261 C 
BRANCH  23  24
ATOM     24  O   UNL A   1      32.884  33.374  26.763  1.00  0.00    -0.460 OA
BRANCH  24  25
ATOM     25  C   UNL A   1      33.419  33.807  27.931  1.00  0.00     0.338 C 
ATOM     26  O   UNL A   1      32.914  34.598  28.717  1.00  0.00    -0.246 OA
BRANCH  25  27
ATOM     27  C   UNL A   1      34.647  33.055  28.248  1.00  0.00     0.060 A 
ATOM     28  C   UNL A   1      34.499  31.723  28.657  1.00  0.00     0.016 A 
ATOM     29  C   UNL A   1      35.907  33.656  28.237  1.00  0.00     0.016 A 
ATOM     30  C   UNL A   1      35.604  31.001  29.106  1.00  0.00     0.010 A 
ATOM     31  C   UNL A   1      37.015  32.933  28.697  1.00  0.00     0.010 A 
ATOM     32  C   UNL A   1      36.862  31.615  29.167  1.00  0.00    -0.014 A 
BRANCH  32  33
ATOM     33  C   UNL A   1      37.977  30.929  29.869  1.00  0.00     0.031 A 
ATOM     34  C   UNL A   1      38.248  31.272  31.311  1.00  0.00     0.074 A 
ATOM     35  C   UNL A   1      38.714  29.994  29.245  1.00  0.00     0.049 A 
ATOM     36  N   UNL A   1      39.192  30.839  32.104  1.00  0.00    -0.248 NA
ATOM     37  C   UNL A   1      37.327  32.234  31.935  1.00  0.00     0.031 C 
ATOM     38  C   UNL A   1      38.509  29.537  27.871  1.00  0.00     0.029 A 
ATOM     39  N   UNL A   1      39.788  29.261  29.687  1.00  0.00    -0.354 N 
ATOM     40  C   UNL A   1      38.987  31.480  33.322  1.00  0.00     0.074 A 
ATOM     41  C   UNL A   1      37.847  32.356  33.147  1.00  0.00     0.031 C 
ATOM     42  C   UNL A   1      39.436  28.607  27.579  1.00  0.00     0.029 A 
ATOM     43  C   UNL A   1      40.322  28.432  28.728  1.00  0.00     0.049 A 
ATOM     44  H   UNL A   1      40.141  29.323  30.603  1.00  0.00     0.167 HD
ATOM     45  C   UNL A   1      39.680  31.345  34.479  1.00  0.00     0.034 A 
ATOM     46  C   UNL A   1      41.415  27.643  28.768  1.00  0.00     0.034 A 
ATOM     47  C   UNL A   1      40.819  30.473  34.637  1.00  0.00     0.049 A 
ATOM     48  C   UNL A   1      42.226  27.576  30.042  1.00  0.00     0.074 A 
ATOM     49  C   UNL A   1      41.588  30.254  35.767  1.00  0.00     0.029 A 
ATOM     50  N   UNL A   1      41.362  29.684  33.630  1.00  0.00    -0.354 N 
ATOM     51  N   UNL A   1      42.023  28.188  31.185  1.00  0.00    -0.248 NA
ATOM     52  C   UNL A   1      43.409  26.705  30.030  1.00  0.00     0.031 C 
ATOM     53  C   UNL A   1      42.635  29.391  35.425  1.00  0.00     0.029 A 
ATOM     54  C   UNL A   1      42.474  29.005  34.103  1.00  0.00     0.049 A 
ATOM     55  H   UNL A   1      41.007  29.617  32.714  1.00  0.00     0.167 HD
ATOM     56  C   UNL A   1      43.033  27.748  32.037  1.00  0.00     0.074 A 
ATOM     57  C   UNL A   1      43.837  26.813  31.279  1.00  0.00     0.031 C 
ATOM     58  C   UNL A   1      43.272  28.081  33.333  1.00  0.00     0.034 A 
BRANCH  45  59
ATOM     59  C   UNL A   1      39.256  32.206  35.646  1.00  0.00     0.023 A 
ATOM     60  C   UNL A   1      39.696  33.533  35.789  1.00  0.00     0.031 A 
ATOM     61  C   UNL A   1      38.418  31.678  36.645  1.00  0.00     0.131 A 
ATOM     62  C   UNL A   1      39.352  34.264  36.937  1.00  0.00     0.055 A 
ATOM     63  C   UNL A   1      38.016  32.436  37.746  1.00  0.00     0.041 A 
ATOM     64  F   UNL A   1      37.985  30.409  36.574  1.00  0.00    -0.206 F 
ATOM     65  C   UNL A   1      38.494  33.733  37.904  1.00  0.00     0.022 A 
BRANCH  62  66
ATOM     66  S   UNL A   1      40.149  35.869  37.216  1.00  0.00     0.124 S 
ATOM     67  O   UNL A   1      39.714  36.622  36.042  1.00  0.00    -0.237 OA
ATOM     68  O   UNL A   1      39.580  36.287  38.492  1.00  0.00    -0.237 OA
ATOM     69  O   UNL A   1      41.574  35.543  37.245  1.00  0.00    -0.744 OA
ENDBRANCH  62  66
ENDBRANCH  45  59
BRANCH  46  70
ATOM     70  C   UNL A   1      41.844  26.884  27.558  1.00  0.00     0.023 A 
ATOM     71  C   UNL A   1      41.634  25.499  27.456  1.00  0.00     0.031 A 
ATOM     72  C   UNL A   1      42.526  27.525  26.509  1.00  0.00     0.131 A 
ATOM     73  C   UNL A   1      42.145  24.794  26.356  1.00  0.00     0.055 A 
ATOM     74  C   UNL A   1      42.986  26.827  25.391  1.00  0.00     0.041 A 
ATOM     75  F   UNL A   1      42.754  28.849  26.554  1.00  0.00    -0.206 F 
ATOM     76  C   UNL A   1      42.808  25.449  25.317  1.00  0.00     0.022 A 
BRANCH  73  77
ATOM     77  S   UNL A   1      42.009  22.985  26.345  1.00  0.00     0.124 S 
ATOM     78  O   UNL A   1      42.803  22.620  27.512  1.00  0.00    -0.237 OA
ATOM     79  O   UNL A   1      40.568  22.790  26.463  1.00  0.00    -0.237 OA
ATOM     80  O   UNL A   1      42.584  22.608  25.056  1.00  0.00    -0.744 OA
ENDBRANCH  73  77
ENDBRANCH  46  70
BRANCH  58  81
ATOM     81  C   UNL A   1      44.421  27.384  34.023  1.00  0.00     0.023 A 
ATOM     82  C   UNL A   1      44.267  26.133  34.643  1.00  0.00     0.031 A 
ATOM     83  C   UNL A   1      45.691  27.989  34.060  1.00  0.00     0.131 A 
ATOM     84  C   UNL A   1      45.351  25.550  35.320  1.00  0.00     0.055 A 
ATOM     85  C   UNL A   1      46.779  27.378  34.684  1.00  0.00     0.041 A 
ATOM     86  F   UNL A   1      45.894  29.185  33.485  1.00  0.00    -0.206 F 
ATOM     87  C   UNL A   1      46.609  26.157  35.330  1.00  0.00     0.022 A 
BRANCH  84  88
ATOM     88  S   UNL A   1      45.072  24.026  36.263  1.00  0.00     0.124 S 
ATOM     89  O   UNL A   1      46.307  23.286  36.017  1.00  0.00    -0.237 OA
ATOM     90  O   UNL A   1      44.891  24.528  37.621  1.00  0.00    -0.237 OA
ATOM     91  O   UNL A   1      43.875  23.455  35.649  1.00  0.00    -0.744 OA
ENDBRANCH  84  88
ENDBRANCH  58  81
ENDBRANCH  32  33
ENDBRANCH  25  27
ENDBRANCH  24  25
ENDBRANCH  23  24
ENDBRANCH  22  23
ENDBRANCH   1  22
TORSDOF 20
ENDMDL
MODEL 2
REMARK VINA RESULT:      -9.9      1.013      7.899
REMARK SMILES CC(C)(C)c1csc(C[NH+]2CC(C(=O)OCCOCCOC(=O)c3ccc(-c4c5nc(c(-c6cc(S(=O)(=O)[O-])ccc6F)c6ccc([nH]6)c(-c6cc(S(=O)(=O)[O-])ccc6F)c6nc(c(-c7cc(S(=O)(=O)[O-])ccc7F)c7ccc4[nH]7)C=C6)C=C5)cc3)C2)n1
REMARK SMILES IDX 18 1 17 2 16 3 15 4 13 5 14 6 12 7 10 8 11 9 87 10 9 12 8 13
REMARK SMILES IDX 5 14 6 15 88 16 7 17 2 18 1 19 3 20 4 21 19 22 20 23 21 24
REMARK SMILES IDX 22 25 23 26 24 27 25 28 86 29 26 30 85 31 27 32 28 33 29 34
REMARK SMILES IDX 79 35 30 36 84 37 78 38 80 39 31 40 83 41 77 42 76 43 32 45
REMARK SMILES IDX 64 46 44 47 63 48 45 49 48 50 62 51 81 52 46 53 47 54 61 56
REMARK SMILES IDX 82 57 49 58 33 59 34 60 42 61 35 62 41 63 43 64 40 65 36 66
REMARK SMILES IDX 37 67 38 68 39 69 65 70 66 71 74 72 67 73 73 74 75 75 72 76
REMARK SMILES IDX 68 77 69 78 70 79 71 80 50 81 51 82 59 83 52 84 58 85 60 86
REMARK SMILES IDX 57 87 53 88 54 89 55 90 56 91
REMARK H PARENT 10 11 80 44 48 55
REMARK Flexibility Score: inf
ROOT
ATOM      1  O   UNL A   1      33.162  29.291  24.751  1.00  0.00    -0.374 OA
ENDROOT
BRANCH   1   2
ATOM      2  C   UNL A   1      33.562  27.991  25.191  1.00  0.00     0.202 C 
BRANCH   2   3
ATOM      3  C   UNL A   1      32.503  27.176  25.939  1.00  0.00     0.261 C 
BRANCH   3   4
ATOM      4  O   UNL A   1      31.834  26.262  25.053  1.00  0.00    -0.463 OA
BRANCH   4   5
ATOM      5  C   UNL A   1      32.619  25.342  24.416  1.00  0.00     0.320 C 
ATOM      6  O   UNL A   1      32.796  25.333  23.197  1.00  0.00    -0.251 OA
BRANCH   5   7
ATOM      7  C   UNL A   1      33.318  24.374  25.377  1.00  0.00     0.208 C 
ATOM      8  N   UNL A   1      34.799  22.949  25.735  1.00  0.00    -0.327 N 
ATOM      9  C   UNL A   1      34.863  24.399  25.440  1.00  0.00     0.284 C 
ATOM     10  C   UNL A   1      33.514  22.881  25.013  1.00  0.00     0.284 C 
ATOM     11  H   UNL A   1      34.879  22.610  26.694  1.00  0.00     0.348 HD
BRANCH   8  12
ATOM     12  C   UNL A   1      35.879  22.147  25.138  1.00  0.00     0.331 C 
BRANCH  12  13
ATOM     13  C   UNL A   1      35.737  20.649  25.008  1.00  0.00     0.147 A 
ATOM     14  C   UNL A   1      34.776  18.671  24.624  1.00  0.00     0.057 A 
ATOM     15  C   UNL A   1      36.095  18.270  24.734  1.00  0.00     0.091 A 
ATOM     16  N   UNL A   1      34.586  20.037  24.810  1.00  0.00    -0.240 NA
ATOM     17  S   UNL A   1      37.117  19.620  24.974  1.00  0.00    -0.121 S 
BRANCH  14  18
ATOM     18  C   UNL A   1      33.566  17.818  24.265  1.00  0.00     0.005 C 
ATOM     19  C   UNL A   1      34.002  16.577  23.461  1.00  0.00     0.017 C 
ATOM     20  C   UNL A   1      32.532  18.592  23.423  1.00  0.00     0.017 C 
ATOM     21  C   UNL A   1      32.882  17.353  25.567  1.00  0.00     0.017 C 
ENDBRANCH  14  18
ENDBRANCH  12  13
ENDBRANCH   8  12
ENDBRANCH   5   7
ENDBRANCH   4   5
ENDBRANCH   3   4
ENDBRANCH   2   3
ENDBRANCH   1   2
BRANCH   1  22
ATOM     22  C   UNL A   1      31.800  29.661  24.963  1.00  0.00     0.202 C 
BRANCH  22  23
ATOM     23  C   UNL A   1      31.535  30.863  25.880  1.00  0.00     0.261 C 
BRANCH  23  24
ATOM     24  O   UNL A   1      32.323  30.829  27.085  1.00  0.00    -0.460 OA
BRANCH  24  25
ATOM     25  C   UNL A   1      33.105  31.920  27.274  1.00  0.00     0.338 C 
ATOM     26  O   UNL A   1      32.752  33.091  27.220  1.00  0.00    -0.246 OA
BRANCH  25  27
ATOM     27  C   UNL A   1      34.445  31.521  27.744  1.00  0.00     0.060 A 
ATOM     28  C   UNL A   1      34.643  30.169  28.052  1.00  0.00     0.016 A 
ATOM     29  C   UNL A   1      35.460  32.455  27.966  1.00  0.00     0.016 A 
ATOM     30  C   UNL A   1      35.839  29.751  28.633  1.00  0.00     0.010 A 
ATOM     31  C   UNL A   1      36.658  32.034  28.559  1.00  0.00     0.010 A 
ATOM     32  C   UNL A   1      36.838  30.688  28.928  1.00  0.00    -0.014 A 
BRANCH  32  33
ATOM     33  C   UNL A   1      37.998  30.282  29.762  1.00  0.00     0.031 A 
ATOM     34  C   UNL A   1      38.986  29.294  29.201  1.00  0.00     0.074 A 
ATOM     35  C   UNL A   1      38.186  30.810  30.985  1.00  0.00     0.049 A 
ATOM     36  N   UNL A   1      40.040  28.762  29.764  1.00  0.00    -0.248 NA
ATOM     37  C   UNL A   1      38.749  28.849  27.820  1.00  0.00     0.031 C 
ATOM     38  C   UNL A   1      37.330  31.816  31.611  1.00  0.00     0.029 A 
ATOM     39  N   UNL A   1      39.161  30.567  31.922  1.00  0.00    -0.354 N 
ATOM     40  C   UNL A   1      40.589  27.912  28.809  1.00  0.00     0.074 A 
ATOM     41  C   UNL A   1      39.730  27.977  27.645  1.00  0.00     0.031 C 
ATOM     42  C   UNL A   1      37.813  32.098  32.833  1.00  0.00     0.029 A 
ATOM     43  C   UNL A   1      38.985  31.266  33.093  1.00  0.00     0.049 A 
ATOM     44  H   UNL A   1      39.912  29.951  31.769  1.00  0.00     0.167 HD
ATOM     45  C   UNL A   1      41.710  27.152  28.893  1.00  0.00     0.034 A 
ATOM     46  C   UNL A   1      39.678  31.217  34.249  1.00  0.00     0.034 A 
ATOM     47  C   UNL A   1      42.552  27.092  30.063  1.00  0.00     0.049 A 
ATOM     48  C   UNL A   1      40.872  30.297  34.352  1.00  0.00     0.074 A 
ATOM     49  C   UNL A   1      43.714  26.363  30.252  1.00  0.00     0.029 A 
ATOM     50  N   UNL A   1      42.317  27.776  31.249  1.00  0.00    -0.354 N 
ATOM     51  N   UNL A   1      41.381  29.496  33.444  1.00  0.00    -0.248 NA
ATOM     52  C   UNL A   1      41.589  30.280  35.635  1.00  0.00     0.031 C 
ATOM     53  C   UNL A   1      44.140  26.551  31.572  1.00  0.00     0.029 A 
ATOM     54  C   UNL A   1      43.291  27.460  32.183  1.00  0.00     0.049 A 
ATOM     55  H   UNL A   1      41.568  28.395  31.403  1.00  0.00     0.167 HD
ATOM     56  C   UNL A   1      42.497  28.908  34.035  1.00  0.00     0.074 A 
ATOM     57  C   UNL A   1      42.592  29.453  35.374  1.00  0.00     0.031 C 
ATOM     58  C   UNL A   1      43.370  28.005  33.518  1.00  0.00     0.034 A 
BRANCH  45  59
ATOM     59  C   UNL A   1      42.051  26.285  27.705  1.00  0.00     0.023 A 
ATOM     60  C   UNL A   1      41.641  24.943  27.622  1.00  0.00     0.031 A 
ATOM     61  C   UNL A   1      42.822  26.805  26.650  1.00  0.00     0.131 A 
ATOM     62  C   UNL A   1      42.060  24.149  26.543  1.00  0.00     0.055 A 
ATOM     63  C   UNL A   1      43.171  26.031  25.541  1.00  0.00     0.041 A 
ATOM     64  F   UNL A   1      43.262  28.073  26.685  1.00  0.00    -0.206 F 
ATOM     65  C   UNL A   1      42.801  24.690  25.490  1.00  0.00     0.022 A 
BRANCH  62  66
ATOM     66  S   UNL A   1      41.739  22.364  26.602  1.00  0.00     0.124 S 
ATOM     67  O   UNL A   1      42.422  21.983  27.836  1.00  0.00    -0.237 OA
ATOM     68  O   UNL A   1      40.282  22.307  26.633  1.00  0.00    -0.237 OA
ATOM     69  O   UNL A   1      42.357  21.864  25.375  1.00  0.00    -0.744 OA
ENDBRANCH  62  66
ENDBRANCH  45  59
BRANCH  46  70
ATOM     70  C   UNL A   1      39.244  32.027  35.425  1.00  0.00     0.023 A 
ATOM     71  C   UNL A   1      39.706  33.340  35.614  1.00  0.00     0.031 A 
ATOM     72  C   UNL A   1      38.408  31.474  36.411  1.00  0.00     0.131 A 
ATOM     73  C   UNL A   1      39.368  34.037  36.784  1.00  0.00     0.055 A 
ATOM     74  C   UNL A   1      38.032  32.192  37.548  1.00  0.00     0.041 A 
ATOM     75  F   UNL A   1      37.937  30.222  36.281  1.00  0.00    -0.206 F 
ATOM     76  C   UNL A   1      38.525  33.478  37.745  1.00  0.00     0.022 A 
BRANCH  73  77
ATOM     77  S   UNL A   1      40.123  35.661  37.075  1.00  0.00     0.124 S 
ATOM     78  O   UNL A   1      39.565  36.019  38.373  1.00  0.00    -0.237 OA
ATOM     79  O   UNL A   1      41.546  35.339  37.054  1.00  0.00    -0.237 OA
ATOM     80  O   UNL A   1      39.651  36.462  35.948  1.00  0.00    -0.744 OA
ENDBRANCH  73  77
ENDBRANCH  46  70
BRANCH  58  81
ATOM     81  C   UNL A   1      44.532  27.593  34.390  1.00  0.00     0.023 A 
ATOM     82  C   UNL A   1      44.509  26.413  35.152  1.00  0.00     0.031 A 
ATOM     83  C   UNL A   1      45.682  28.402  34.457  1.00  0.00     0.131 A 
ATOM     84  C   UNL A   1      45.591  26.100  35.990  1.00  0.00     0.055 A 
ATOM     85  C   UNL A   1      46.779  28.056  35.247  1.00  0.00     0.041 A 
ATOM     86  F   UNL A   1      45.759  29.541  33.751  1.00  0.00    -0.206 F 
ATOM     87  C   UNL A   1      46.732  26.906  36.030  1.00  0.00     0.022 A 
BRANCH  84  88
ATOM     88  S   UNL A   1      45.453  24.670  37.097  1.00  0.00     0.124 S 
ATOM     89  O   UNL A   1      46.698  24.750  37.854  1.00  0.00    -0.237 OA
ATOM     90  O   UNL A   1      44.234  24.968  37.842  1.00  0.00    -0.237 OA
ATOM     91  O   UNL A   1      45.356  23.535  36.181  1.00  0.00    -0.744 OA
ENDBRANCH  84  88
ENDBRANCH  58  81
ENDBRANCH  32  33
ENDBRANCH  25  27
ENDBRANCH  24  25
ENDBRANCH  23  24
ENDBRANCH  22  23
ENDBRANCH   1  22
TORSDOF 20
ENDMDL
MODEL 3
REMARK VINA RESULT:      -9.8      1.840      2.207
REMARK SMILES CC(C)(C)c1csc(C[NH+]2CC(C(=O)OCCOCCOC(=O)c3ccc(-c4c5nc(c(-c6cc(S(=O)(=O)[O-])ccc6F)c6ccc([nH]6)c(-c6cc(S(=O)(=O)[O-])ccc6F)c6nc(c(-c7cc(S(=O)(=O)[O-])ccc7F)c7ccc4[nH]7)C=C6)C=C5)cc3)C2)n1
REMARK SMILES IDX 18 1 17 2 16 3 15 4 13 5 14 6 12 7 10 8 11 9 87 10 9 12 8 13
REMARK SMILES IDX 5 14 6 15 88 16 7 17 2 18 1 19 3 20 4 21 19 22 20 23 21 24
REMARK SMILES IDX 22 25 23 26 24 27 25 28 86 29 26 30 85 31 27 32 28 33 29 34
REMARK SMILES IDX 79 35 30 36 84 37 78 38 80 39 31 40 83 41 77 42 76 43 32 45
REMARK SMILES IDX 64 46 44 47 63 48 45 49 48 50 62 51 81 52 46 53 47 54 61 56
REMARK SMILES IDX 82 57 49 58 33 59 34 60 42 61 35 62 41 63 43 64 40 65 36 66
REMARK SMILES IDX 37 67 38 68 39 69 65 70 66 71 74 72 67 73 73 74 75 75 72 76
REMARK SMILES IDX 68 77 69 78 70 79 71 80 50 81 51 82 59 83 52 84 58 85 60 86
REMARK SMILES IDX 57 87 53 88 54 89 55 90 56 91
REMARK H PARENT 10 11 80 44 48 55
REMARK Flexibility Score: inf
ROOT
ATOM      1  O   UNL A   1      31.232  29.106  26.013  1.00  0.00    -0.374 OA
ENDROOT
BRANCH   1   2
ATOM      2  C   UNL A   1      31.650  27.895  26.646  1.00  0.00     0.202 C 
BRANCH   2   3
ATOM      3  C   UNL A   1      31.065  26.599  26.076  1.00  0.00     0.261 C 
BRANCH   3   4
ATOM      4  O   UNL A   1      30.870  26.701  24.655  1.00  0.00    -0.463 OA
BRANCH   4   5
ATOM      5  C   UNL A   1      29.892  25.914  24.113  1.00  0.00     0.320 C 
ATOM      6  O   UNL A   1      28.699  26.221  24.114  1.00  0.00    -0.251 OA
BRANCH   5   7
ATOM      7  C   UNL A   1      30.438  24.650  23.438  1.00  0.00     0.208 C 
ATOM      8  N   UNL A   1      31.980  23.268  23.185  1.00  0.00    -0.327 N 
ATOM      9  C   UNL A   1      31.096  23.574  24.334  1.00  0.00     0.284 C 
ATOM     10  C   UNL A   1      31.805  24.654  22.710  1.00  0.00     0.284 C 
ATOM     11  H   UNL A   1      31.782  22.476  22.573  1.00  0.00     0.348 HD
BRANCH   8  12
ATOM     12  C   UNL A   1      33.362  22.915  23.546  1.00  0.00     0.331 C 
BRANCH  12  13
ATOM     13  C   UNL A   1      33.686  21.537  24.073  1.00  0.00     0.147 A 
ATOM     14  C   UNL A   1      33.650  19.312  24.252  1.00  0.00     0.057 A 
ATOM     15  C   UNL A   1      34.687  19.598  25.122  1.00  0.00     0.091 A 
ATOM     16  N   UNL A   1      33.070  20.439  23.679  1.00  0.00    -0.240 NA
ATOM     17  S   UNL A   1      35.005  21.277  25.148  1.00  0.00    -0.121 S 
BRANCH  14  18
ATOM     18  C   UNL A   1      33.142  17.942  23.821  1.00  0.00     0.005 C 
ATOM     19  C   UNL A   1      34.318  17.042  23.393  1.00  0.00     0.017 C 
ATOM     20  C   UNL A   1      32.154  18.029  22.640  1.00  0.00     0.017 C 
ATOM     21  C   UNL A   1      32.417  17.282  25.012  1.00  0.00     0.017 C 
ENDBRANCH  14  18
ENDBRANCH  12  13
ENDBRANCH   8  12
ENDBRANCH   5   7
ENDBRANCH   4   5
ENDBRANCH   3   4
ENDBRANCH   2   3
ENDBRANCH   1   2
BRANCH   1  22
ATOM     22  C   UNL A   1      32.237  30.087  25.755  1.00  0.00     0.202 C 
BRANCH  22  23
ATOM     23  C   UNL A   1      32.100  31.436  26.474  1.00  0.00     0.261 C 
BRANCH  23  24
ATOM     24  O   UNL A   1      32.896  31.513  27.671  1.00  0.00    -0.460 OA
BRANCH  24  25
ATOM     25  C   UNL A   1      33.876  32.449  27.634  1.00  0.00     0.338 C 
ATOM     26  O   UNL A   1      33.737  33.644  27.404  1.00  0.00    -0.246 OA
BRANCH  25  27
ATOM     27  C   UNL A   1      35.155  31.877  28.092  1.00  0.00     0.060 A 
ATOM     28  C   UNL A   1      35.169  30.518  28.431  1.00  0.00     0.016 A 
ATOM     29  C   UNL A   1      36.294  32.665  28.277  1.00  0.00     0.016 A 
ATOM     30  C   UNL A   1      36.306  29.950  29.003  1.00  0.00     0.010 A 
ATOM     31  C   UNL A   1      37.433  32.094  28.861  1.00  0.00     0.010 A 
ATOM     32  C   UNL A   1      37.431  30.745  29.260  1.00  0.00    -0.014 A 
BRANCH  32  33
ATOM     33  C   UNL A   1      38.538  30.199  30.086  1.00  0.00     0.031 A 
ATOM     34  C   UNL A   1      38.678  30.664  31.512  1.00  0.00     0.074 A 
ATOM     35  C   UNL A   1      39.384  29.281  29.586  1.00  0.00     0.049 A 
ATOM     36  N   UNL A   1      39.591  30.364  32.398  1.00  0.00    -0.248 NA
ATOM     37  C   UNL A   1      37.648  31.595  31.997  1.00  0.00     0.031 C 
ATOM     38  C   UNL A   1      39.313  28.712  28.241  1.00  0.00     0.029 A 
ATOM     39  N   UNL A   1      40.473  28.667  30.155  1.00  0.00    -0.354 N 
ATOM     40  C   UNL A   1      39.252  31.073  33.546  1.00  0.00     0.074 A 
ATOM     41  C   UNL A   1      38.068  31.844  33.228  1.00  0.00     0.031 C 
ATOM     42  C   UNL A   1      40.323  27.838  28.085  1.00  0.00     0.029 A 
ATOM     43  C   UNL A   1      41.133  27.815  29.301  1.00  0.00     0.049 A 
ATOM     44  H   UNL A   1      40.754  28.822  31.085  1.00  0.00     0.167 HD
ATOM     45  C   UNL A   1      39.867  31.076  34.754  1.00  0.00     0.034 A 
ATOM     46  C   UNL A   1      42.275  27.118  29.475  1.00  0.00     0.034 A 
ATOM     47  C   UNL A   1      41.051  30.308  35.055  1.00  0.00     0.049 A 
ATOM     48  C   UNL A   1      42.994  27.206  30.801  1.00  0.00     0.074 A 
ATOM     49  C   UNL A   1      41.750  30.230  36.247  1.00  0.00     0.029 A 
ATOM     50  N   UNL A   1      41.721  29.493  34.151  1.00  0.00    -0.354 N 
ATOM     51  N   UNL A   1      42.665  27.881  31.878  1.00  0.00    -0.248 NA
ATOM     52  C   UNL A   1      44.235  26.430  30.936  1.00  0.00     0.031 C 
ATOM     53  C   UNL A   1      42.879  29.429  36.044  1.00  0.00     0.029 A 
ATOM     54  C   UNL A   1      42.842  28.938  34.748  1.00  0.00     0.049 A 
ATOM     55  H   UNL A   1      41.440  29.334  33.221  1.00  0.00     0.167 HD
ATOM     56  C   UNL A   1      43.639  27.583  32.828  1.00  0.00     0.074 A 
ATOM     57  C   UNL A   1      44.562  26.660  32.200  1.00  0.00     0.031 C 
ATOM     58  C   UNL A   1      43.759  28.025  34.107  1.00  0.00     0.034 A 
BRANCH  45  59
ATOM     59  C   UNL A   1      39.299  31.983  35.820  1.00  0.00     0.023 A 
ATOM     60  C   UNL A   1      39.750  33.302  35.992  1.00  0.00     0.031 A 
ATOM     61  C   UNL A   1      38.305  31.507  36.695  1.00  0.00     0.131 A 
ATOM     62  C   UNL A   1      39.260  34.077  37.054  1.00  0.00     0.055 A 
ATOM     63  C   UNL A   1      37.765  32.309  37.702  1.00  0.00     0.041 A 
ATOM     64  F   UNL A   1      37.851  30.248  36.594  1.00  0.00    -0.206 F 
ATOM     65  C   UNL A   1      38.252  33.599  37.895  1.00  0.00     0.022 A 
BRANCH  62  66
ATOM     66  S   UNL A   1      40.054  35.670  37.407  1.00  0.00     0.124 S 
ATOM     67  O   UNL A   1      39.657  36.460  36.243  1.00  0.00    -0.237 OA
ATOM     68  O   UNL A   1      39.446  36.051  38.676  1.00  0.00    -0.237 OA
ATOM     69  O   UNL A   1      41.476  35.337  37.470  1.00  0.00    -0.744 OA
ENDBRANCH  62  66
ENDBRANCH  45  59
BRANCH  46  70
ATOM     70  C   UNL A   1      42.844  26.309  28.358  1.00  0.00     0.023 A 
ATOM     71  C   UNL A   1      43.934  26.775  27.605  1.00  0.00     0.031 A 
ATOM     72  C   UNL A   1      42.264  25.083  27.988  1.00  0.00     0.131 A 
ATOM     73  C   UNL A   1      44.378  26.044  26.493  1.00  0.00     0.055 A 
ATOM     74  C   UNL A   1      42.744  24.333  26.913  1.00  0.00     0.041 A 
ATOM     75  F   UNL A   1      41.219  24.590  28.674  1.00  0.00    -0.206 F 
ATOM     76  C   UNL A   1      43.799  24.821  26.149  1.00  0.00     0.022 A 
BRANCH  73  77
ATOM     77  S   UNL A   1      45.671  26.762  25.442  1.00  0.00     0.124 S 
ATOM     78  O   UNL A   1      46.065  25.616  24.632  1.00  0.00    -0.237 OA
ATOM     79  O   UNL A   1      44.944  27.819  24.749  1.00  0.00    -0.237 OA
ATOM     80  O   UNL A   1      46.672  27.222  26.402  1.00  0.00    -0.744 OA
ENDBRANCH  73  77
ENDBRANCH  46  70
BRANCH  58  81
ATOM     81  C   UNL A   1      44.901  27.471  34.924  1.00  0.00     0.023 A 
ATOM     82  C   UNL A   1      44.810  26.237  35.590  1.00  0.00     0.031 A 
ATOM     83  C   UNL A   1      46.102  28.196  35.037  1.00  0.00     0.131 A 
ATOM     84  C   UNL A   1      45.878  25.789  36.383  1.00  0.00     0.055 A 
ATOM     85  C   UNL A   1      47.183  27.718  35.779  1.00  0.00     0.041 A 
ATOM     86  F   UNL A   1      46.245  29.381  34.423  1.00  0.00    -0.206 F 
ATOM     87  C   UNL A   1      47.070  26.514  36.468  1.00  0.00     0.022 A 
BRANCH  84  88
ATOM     88  S   UNL A   1      45.659  24.285  37.374  1.00  0.00     0.124 S 
ATOM     89  O   UNL A   1      44.989  24.801  38.564  1.00  0.00    -0.237 OA
ATOM     90  O   UNL A   1      44.846  23.449  36.496  1.00  0.00    -0.237 OA
ATOM     91  O   UNL A   1      47.026  23.812  37.587  1.00  0.00    -0.744 OA
ENDBRANCH  84  88
ENDBRANCH  58  81
ENDBRANCH  32  33
ENDBRANCH  25  27
ENDBRANCH  24  25
ENDBRANCH  23  24
ENDBRANCH  22  23
ENDBRANCH   1  22
TORSDOF 20
ENDMDL
