MODEL 1
REMARK VINA RESULT:     -10.7      0.000      0.000
REMARK SMILES CSc1nc(C2CC2)nc(C)c1C(=O)OCCOCCOC(=O)c1ccc(-c2c3nc(c(-c4cc(S(=O)(=O)[O-])ccc4F)c4ccc([nH]4)c(-c4cc(S(=O)(=O)[O-])ccc4F)c4nc(c(-c5cc(S(=O)(=O)[O-])ccc5F)c5ccc2[nH]5)C=C4)C=C3)cc1
REMARK SMILES IDX 19 1 18 2 17 3 16 4 15 5 13 6 14 7 12 8 3 9 4 10 5 11 10 12
REMARK SMILES IDX 9 13 11 14 2 15 1 16 6 17 7 18 8 19 20 20 21 21 22 22 23 23
REMARK SMILES IDX 24 24 25 25 86 26 26 27 85 28 27 29 28 30 29 31 79 32 30 33
REMARK SMILES IDX 84 34 78 35 80 36 31 37 83 38 77 39 76 40 32 42 64 43 44 44
REMARK SMILES IDX 63 45 45 46 48 47 62 48 81 49 46 50 47 51 61 53 82 54 49 55
REMARK SMILES IDX 33 56 34 57 42 58 35 59 41 60 43 61 40 62 36 63 37 64 38 65
REMARK SMILES IDX 39 66 65 67 66 68 74 69 67 70 73 71 75 72 72 73 68 74 69 75
REMARK SMILES IDX 70 76 71 77 50 78 51 79 59 80 52 81 58 82 60 83 57 84 53 85
REMARK SMILES IDX 54 86 55 87 56 88
REMARK H PARENT 80 41 48 52
REMARK Flexibility Score: inf
ROOT
ATOM      1  C   UNL A   1      35.564  21.264  26.128  1.00  0.00     0.202 C 
ENDROOT
BRANCH   1   2
ATOM      2  O   UNL A   1      35.006  22.580  26.173  1.00  0.00    -0.374 OA
BRANCH   2   3
ATOM      3  C   UNL A   1      33.666  22.765  25.711  1.00  0.00     0.202 C 
BRANCH   3   4
ATOM      4  C   UNL A   1      33.460  22.715  24.195  1.00  0.00     0.261 C 
BRANCH   4   5
ATOM      5  O   UNL A   1      32.693  23.849  23.770  1.00  0.00    -0.460 OA
BRANCH   5   6
ATOM      6  C   UNL A   1      33.357  24.768  23.042  1.00  0.00     0.342 C 
ATOM      7  O   UNL A   1      34.367  24.594  22.377  1.00  0.00    -0.246 OA
BRANCH   6   8
ATOM      8  C   UNL A   1      32.627  26.031  23.075  1.00  0.00     0.113 A 
ATOM      9  C   UNL A   1      32.556  26.839  24.198  1.00  0.00     0.114 A 
ATOM     10  N   UNL A   1      31.692  27.883  24.238  1.00  0.00    -0.225 NA
ATOM     11  C   UNL A   1      30.907  28.148  23.183  1.00  0.00     0.133 A 
ATOM     12  C   UNL A   1      31.885  26.435  21.970  1.00  0.00     0.057 A 
ATOM     13  N   UNL A   1      31.023  27.479  22.028  1.00  0.00    -0.237 NA
ATOM     14  C   UNL A   1      31.904  25.727  20.645  1.00  0.00     0.068 C 
BRANCH   9  15
ATOM     15  S   UNL A   1      33.498  26.859  25.718  1.00  0.00    -0.109 SA
ATOM     16  C   UNL A   1      33.071  28.348  26.642  1.00  0.00     0.092 C 
ENDBRANCH   9  15
BRANCH  11  17
ATOM     17  C   UNL A   1      29.804  29.172  23.312  1.00  0.00     0.058 C 
ATOM     18  C   UNL A   1      29.529  30.160  22.197  1.00  0.00     0.012 C 
ATOM     19  C   UNL A   1      28.540  29.070  22.495  1.00  0.00     0.012 C 
ENDBRANCH  11  17
ENDBRANCH   6   8
ENDBRANCH   5   6
ENDBRANCH   4   5
ENDBRANCH   3   4
ENDBRANCH   2   3
ENDBRANCH   1   2
BRANCH   1  20
ATOM     20  C   UNL A   1      36.526  20.922  24.985  1.00  0.00     0.261 C 
BRANCH  20  21
ATOM     21  O   UNL A   1      37.690  21.761  24.951  1.00  0.00    -0.460 OA
BRANCH  21  22
ATOM     22  C   UNL A   1      38.716  21.335  25.730  1.00  0.00     0.338 C 
ATOM     23  O   UNL A   1      39.204  20.217  25.757  1.00  0.00    -0.246 OA
BRANCH  22  24
ATOM     24  C   UNL A   1      39.304  22.484  26.439  1.00  0.00     0.060 A 
ATOM     25  C   UNL A   1      38.772  23.757  26.194  1.00  0.00     0.016 A 
ATOM     26  C   UNL A   1      40.413  22.321  27.269  1.00  0.00     0.016 A 
ATOM     27  C   UNL A   1      39.371  24.883  26.756  1.00  0.00     0.010 A 
ATOM     28  C   UNL A   1      41.020  23.451  27.819  1.00  0.00     0.010 A 
ATOM     29  C   UNL A   1      40.520  24.737  27.542  1.00  0.00    -0.014 A 
BRANCH  29  30
ATOM     30  C   UNL A   1      41.315  25.919  27.949  1.00  0.00     0.031 A 
ATOM     31  C   UNL A   1      40.623  27.017  28.704  1.00  0.00     0.074 A 
ATOM     32  C   UNL A   1      42.612  26.029  27.613  1.00  0.00     0.049 A 
ATOM     33  N   UNL A   1      41.042  28.220  28.993  1.00  0.00    -0.248 NA
ATOM     34  C   UNL A   1      39.264  26.717  29.184  1.00  0.00     0.031 C 
ATOM     35  C   UNL A   1      43.399  24.997  26.940  1.00  0.00     0.029 A 
ATOM     36  N   UNL A   1      43.487  27.074  27.767  1.00  0.00    -0.354 N 
ATOM     37  C   UNL A   1      39.992  28.831  29.670  1.00  0.00     0.074 A 
ATOM     38  C   UNL A   1      38.910  27.871  29.726  1.00  0.00     0.031 C 
ATOM     39  C   UNL A   1      44.635  25.473  26.713  1.00  0.00     0.029 A 
ATOM     40  C   UNL A   1      44.706  26.860  27.171  1.00  0.00     0.049 A 
ATOM     41  H   UNL A   1      43.262  27.898  28.257  1.00  0.00     0.167 HD
ATOM     42  C   UNL A   1      39.940  30.081  30.194  1.00  0.00     0.034 A 
ATOM     43  C   UNL A   1      45.741  27.703  26.975  1.00  0.00     0.034 A 
ATOM     44  C   UNL A   1      41.031  31.021  30.114  1.00  0.00     0.049 A 
ATOM     45  C   UNL A   1      45.626  29.125  27.475  1.00  0.00     0.074 A 
ATOM     46  C   UNL A   1      41.097  32.310  30.612  1.00  0.00     0.029 A 
ATOM     47  N   UNL A   1      42.243  30.778  29.481  1.00  0.00    -0.354 N 
ATOM     48  N   UNL A   1      44.626  29.703  28.101  1.00  0.00    -0.248 NA
ATOM     49  C   UNL A   1      46.778  30.008  27.244  1.00  0.00     0.031 C 
ATOM     50  C   UNL A   1      42.316  32.869  30.218  1.00  0.00     0.029 A 
ATOM     51  C   UNL A   1      43.049  31.902  29.548  1.00  0.00     0.049 A 
ATOM     52  H   UNL A   1      42.492  29.929  29.048  1.00  0.00     0.167 HD
ATOM     53  C   UNL A   1      45.045  31.002  28.373  1.00  0.00     0.074 A 
ATOM     54  C   UNL A   1      46.386  31.126  27.841  1.00  0.00     0.031 C 
ATOM     55  C   UNL A   1      44.388  32.000  29.017  1.00  0.00     0.034 A 
BRANCH  42  56
ATOM     56  C   UNL A   1      38.646  30.513  30.838  1.00  0.00     0.023 A 
ATOM     57  C   UNL A   1      37.599  31.082  30.092  1.00  0.00     0.031 A 
ATOM     58  C   UNL A   1      38.468  30.384  32.226  1.00  0.00     0.131 A 
ATOM     59  C   UNL A   1      36.457  31.567  30.745  1.00  0.00     0.055 A 
ATOM     60  C   UNL A   1      37.293  30.792  32.860  1.00  0.00     0.041 A 
ATOM     61  F   UNL A   1      39.442  29.871  32.995  1.00  0.00    -0.206 F 
ATOM     62  C   UNL A   1      36.285  31.402  32.121  1.00  0.00     0.022 A 
BRANCH  59  63
ATOM     63  S   UNL A   1      35.266  32.549  29.792  1.00  0.00     0.124 S 
ATOM     64  O   UNL A   1      36.068  33.713  29.427  1.00  0.00    -0.237 OA
ATOM     65  O   UNL A   1      34.915  31.647  28.701  1.00  0.00    -0.237 OA
ATOM     66  O   UNL A   1      34.195  32.814  30.752  1.00  0.00    -0.744 OA
ENDBRANCH  59  63
ENDBRANCH  42  56
BRANCH  43  67
ATOM     67  C   UNL A   1      46.951  27.255  26.228  1.00  0.00     0.023 A 
ATOM     68  C   UNL A   1      47.157  27.628  24.892  1.00  0.00     0.031 A 
ATOM     69  C   UNL A   1      47.899  26.405  26.829  1.00  0.00     0.131 A 
ATOM     70  C   UNL A   1      48.256  27.117  24.184  1.00  0.00     0.055 A 
ATOM     71  C   UNL A   1      49.021  25.946  26.137  1.00  0.00     0.041 A 
ATOM     72  F   UNL A   1      47.752  26.016  28.105  1.00  0.00    -0.206 F 
ATOM     73  C   UNL A   1      49.197  26.290  24.802  1.00  0.00     0.022 A 
BRANCH  70  74
ATOM     74  S   UNL A   1      48.389  27.479  22.412  1.00  0.00     0.124 S 
ATOM     75  O   UNL A   1      48.468  26.139  21.842  1.00  0.00    -0.237 OA
ATOM     76  O   UNL A   1      47.153  28.212  22.160  1.00  0.00    -0.237 OA
ATOM     77  O   UNL A   1      49.612  28.271  22.317  1.00  0.00    -0.744 OA
ENDBRANCH  70  74
ENDBRANCH  43  67
BRANCH  55  78
ATOM     78  C   UNL A   1      45.136  33.290  29.252  1.00  0.00     0.023 A 
ATOM     79  C   UNL A   1      45.059  34.373  28.361  1.00  0.00     0.031 A 
ATOM     80  C   UNL A   1      45.907  33.443  30.419  1.00  0.00     0.131 A 
ATOM     81  C   UNL A   1      45.767  35.553  28.639  1.00  0.00     0.055 A 
ATOM     82  C   UNL A   1      46.565  34.637  30.716  1.00  0.00     0.041 A 
ATOM     83  F   UNL A   1      46.014  32.437  31.303  1.00  0.00    -0.206 F 
ATOM     84  C   UNL A   1      46.502  35.698  29.818  1.00  0.00     0.022 A 
BRANCH  81  85
ATOM     85  S   UNL A   1      45.757  36.888  27.411  1.00  0.00     0.124 S 
ATOM     86  O   UNL A   1      44.335  37.197  27.310  1.00  0.00    -0.237 OA
ATOM     87  O   UNL A   1      46.587  37.907  28.047  1.00  0.00    -0.237 OA
ATOM     88  O   UNL A   1      46.343  36.268  26.224  1.00  0.00    -0.744 OA
ENDBRANCH  81  85
ENDBRANCH  55  78
ENDBRANCH  29  30
ENDBRANCH  22  24
ENDBRANCH  21  22
ENDBRANCH  20  21
ENDBRANCH   1  20
TORSDOF 19
ENDMDL
MODEL 2
REMARK VINA RESULT:     -10.4      5.200     10.185
REMARK SMILES CSc1nc(C2CC2)nc(C)c1C(=O)OCCOCCOC(=O)c1ccc(-c2c3nc(c(-c4cc(S(=O)(=O)[O-])ccc4F)c4ccc([nH]4)c(-c4cc(S(=O)(=O)[O-])ccc4F)c4nc(c(-c5cc(S(=O)(=O)[O-])ccc5F)c5ccc2[nH]5)C=C4)C=C3)cc1
REMARK SMILES IDX 19 1 18 2 17 3 16 4 15 5 13 6 14 7 12 8 3 9 4 10 5 11 10 12
REMARK SMILES IDX 9 13 11 14 2 15 1 16 6 17 7 18 8 19 20 20 21 21 22 22 23 23
REMARK SMILES IDX 24 24 25 25 86 26 26 27 85 28 27 29 28 30 29 31 79 32 30 33
REMARK SMILES IDX 84 34 78 35 80 36 31 37 83 38 77 39 76 40 32 42 64 43 44 44
REMARK SMILES IDX 63 45 45 46 48 47 62 48 81 49 46 50 47 51 61 53 82 54 49 55
REMARK SMILES IDX 33 56 34 57 42 58 35 59 41 60 43 61 40 62 36 63 37 64 38 65
REMARK SMILES IDX 39 66 65 67 66 68 74 69 67 70 73 71 75 72 72 73 68 74 69 75
REMARK SMILES IDX 70 76 71 77 50 78 51 79 59 80 52 81 58 82 60 83 57 84 53 85
REMARK SMILES IDX 54 86 55 87 56 88
REMARK H PARENT 80 41 48 52
REMARK Flexibility Score: inf
ROOT
ATOM      1  C   UNL A   1      31.926  29.219  25.201  1.00  0.00     0.202 C 
ENDROOT
BRANCH   1   2
ATOM      2  O   UNL A   1      31.714  28.189  26.170  1.00  0.00    -0.374 OA
BRANCH   2   3
ATOM      3  C   UNL A   1      32.843  27.436  26.618  1.00  0.00     0.202 C 
BRANCH   3   4
ATOM      4  C   UNL A   1      33.867  27.049  25.549  1.00  0.00     0.261 C 
BRANCH   4   5
ATOM      5  O   UNL A   1      33.816  25.635  25.315  1.00  0.00    -0.460 OA
BRANCH   5   6
ATOM      6  C   UNL A   1      32.965  25.228  24.353  1.00  0.00     0.342 C 
ATOM      7  O   UNL A   1      32.482  25.907  23.459  1.00  0.00    -0.246 OA
BRANCH   6   8
ATOM      8  C   UNL A   1      32.761  23.788  24.465  1.00  0.00     0.113 A 
ATOM      9  C   UNL A   1      31.807  23.217  25.291  1.00  0.00     0.114 A 
ATOM     10  N   UNL A   1      31.807  21.880  25.518  1.00  0.00    -0.225 NA
ATOM     11  C   UNL A   1      32.726  21.099  24.933  1.00  0.00     0.133 A 
ATOM     12  C   UNL A   1      33.602  22.911  23.788  1.00  0.00     0.057 A 
ATOM     13  N   UNL A   1      33.592  21.578  24.029  1.00  0.00    -0.237 NA
ATOM     14  C   UNL A   1      34.640  23.347  22.792  1.00  0.00     0.068 C 
BRANCH   9  15
ATOM     15  S   UNL A   1      30.392  23.908  26.141  1.00  0.00    -0.109 SA
ATOM     16  C   UNL A   1      29.603  22.604  27.104  1.00  0.00     0.092 C 
ENDBRANCH   9  15
BRANCH  11  17
ATOM     17  C   UNL A   1      32.854  19.654  25.354  1.00  0.00     0.058 C 
ATOM     18  C   UNL A   1      32.389  18.536  24.443  1.00  0.00     0.012 C 
ATOM     19  C   UNL A   1      33.855  18.732  24.701  1.00  0.00     0.012 C 
ENDBRANCH  11  17
ENDBRANCH   6   8
ENDBRANCH   5   6
ENDBRANCH   4   5
ENDBRANCH   3   4
ENDBRANCH   2   3
ENDBRANCH   1   2
BRANCH   1  20
ATOM     20  C   UNL A   1      32.741  30.448  25.614  1.00  0.00     0.261 C 
BRANCH  20  21
ATOM     21  O   UNL A   1      32.466  30.889  26.953  1.00  0.00    -0.460 OA
BRANCH  21  22
ATOM     22  C   UNL A   1      33.138  32.007  27.329  1.00  0.00     0.338 C 
ATOM     23  O   UNL A   1      32.687  33.135  27.435  1.00  0.00    -0.246 OA
BRANCH  22  24
ATOM     24  C   UNL A   1      34.491  31.637  27.779  1.00  0.00     0.060 A 
ATOM     25  C   UNL A   1      34.713  30.318  28.198  1.00  0.00     0.016 A 
ATOM     26  C   UNL A   1      35.502  32.594  27.863  1.00  0.00     0.016 A 
ATOM     27  C   UNL A   1      35.947  29.957  28.737  1.00  0.00     0.010 A 
ATOM     28  C   UNL A   1      36.732  32.233  28.416  1.00  0.00     0.010 A 
ATOM     29  C   UNL A   1      36.950  30.923  28.881  1.00  0.00    -0.014 A 
BRANCH  29  30
ATOM     30  C   UNL A   1      38.172  30.634  29.666  1.00  0.00     0.031 A 
ATOM     31  C   UNL A   1      39.165  29.656  29.104  1.00  0.00     0.074 A 
ATOM     32  C   UNL A   1      38.370  31.196  30.871  1.00  0.00     0.049 A 
ATOM     33  N   UNL A   1      40.196  29.095  29.677  1.00  0.00    -0.248 NA
ATOM     34  C   UNL A   1      38.950  29.247  27.706  1.00  0.00     0.031 C 
ATOM     35  C   UNL A   1      37.507  32.207  31.481  1.00  0.00     0.029 A 
ATOM     36  N   UNL A   1      39.346  30.974  31.808  1.00  0.00    -0.354 N 
ATOM     37  C   UNL A   1      40.743  28.248  28.719  1.00  0.00     0.074 A 
ATOM     38  C   UNL A   1      39.913  28.355  27.538  1.00  0.00     0.031 C 
ATOM     39  C   UNL A   1      37.977  32.495  32.707  1.00  0.00     0.029 A 
ATOM     40  C   UNL A   1      39.137  31.650  32.987  1.00  0.00     0.049 A 
ATOM     41  H   UNL A   1      40.121  30.388  31.652  1.00  0.00     0.167 HD
ATOM     42  C   UNL A   1      41.838  27.455  28.822  1.00  0.00     0.034 A 
ATOM     43  C   UNL A   1      39.779  31.557  34.171  1.00  0.00     0.034 A 
ATOM     44  C   UNL A   1      42.640  27.361  30.017  1.00  0.00     0.049 A 
ATOM     45  C   UNL A   1      40.934  30.591  34.298  1.00  0.00     0.074 A 
ATOM     46  C   UNL A   1      43.774  26.598  30.237  1.00  0.00     0.029 A 
ATOM     47  N   UNL A   1      42.384  28.041  31.200  1.00  0.00    -0.354 N 
ATOM     48  N   UNL A   1      41.438  29.781  33.396  1.00  0.00    -0.248 NA
ATOM     49  C   UNL A   1      41.607  30.525  35.604  1.00  0.00     0.031 C 
ATOM     50  C   UNL A   1      44.158  26.761  31.571  1.00  0.00     0.029 A 
ATOM     51  C   UNL A   1      43.318  27.693  32.162  1.00  0.00     0.049 A 
ATOM     52  H   UNL A   1      41.646  28.680  31.335  1.00  0.00     0.167 HD
ATOM     53  C   UNL A   1      42.512  29.143  34.012  1.00  0.00     0.074 A 
ATOM     54  C   UNL A   1      42.580  29.657  35.364  1.00  0.00     0.031 C 
ATOM     55  C   UNL A   1      43.372  28.225  33.503  1.00  0.00     0.034 A 
BRANCH  42  56
ATOM     56  C   UNL A   1      42.185  26.589  27.636  1.00  0.00     0.023 A 
ATOM     57  C   UNL A   1      41.747  25.257  27.537  1.00  0.00     0.031 A 
ATOM     58  C   UNL A   1      42.994  27.094  26.604  1.00  0.00     0.131 A 
ATOM     59  C   UNL A   1      42.180  24.456  26.471  1.00  0.00     0.055 A 
ATOM     60  C   UNL A   1      43.353  26.316  25.502  1.00  0.00     0.041 A 
ATOM     61  F   UNL A   1      43.463  28.351  26.656  1.00  0.00    -0.206 F 
ATOM     62  C   UNL A   1      42.958  24.984  25.438  1.00  0.00     0.022 A 
BRANCH  59  63
ATOM     63  S   UNL A   1      41.835  22.676  26.528  1.00  0.00     0.124 S 
ATOM     64  O   UNL A   1      42.348  22.234  25.234  1.00  0.00    -0.237 OA
ATOM     65  O   UNL A   1      42.593  22.245  27.697  1.00  0.00    -0.237 OA
ATOM     66  O   UNL A   1      40.381  22.613  26.669  1.00  0.00    -0.744 OA
ENDBRANCH  59  63
ENDBRANCH  42  56
BRANCH  43  67
ATOM     67  C   UNL A   1      39.319  32.353  35.344  1.00  0.00     0.023 A 
ATOM     68  C   UNL A   1      39.746  33.676  35.534  1.00  0.00     0.031 A 
ATOM     69  C   UNL A   1      38.480  31.784  36.321  1.00  0.00     0.131 A 
ATOM     70  C   UNL A   1      39.372  34.372  36.695  1.00  0.00     0.055 A 
ATOM     71  C   UNL A   1      38.066  32.500  37.446  1.00  0.00     0.041 A 
ATOM     72  F   UNL A   1      38.042  30.522  36.191  1.00  0.00    -0.206 F 
ATOM     73  C   UNL A   1      38.524  33.798  37.645  1.00  0.00     0.022 A 
BRANCH  70  74
ATOM     74  S   UNL A   1      40.088  36.012  36.990  1.00  0.00     0.124 S 
ATOM     75  O   UNL A   1      39.332  36.459  38.153  1.00  0.00    -0.237 OA
ATOM     76  O   UNL A   1      41.493  35.691  37.221  1.00  0.00    -0.237 OA
ATOM     77  O   UNL A   1      39.811  36.731  35.749  1.00  0.00    -0.744 OA
ENDBRANCH  70  74
ENDBRANCH  43  67
BRANCH  55  78
ATOM     78  C   UNL A   1      44.511  27.772  34.385  1.00  0.00     0.023 A 
ATOM     79  C   UNL A   1      44.412  26.643  35.214  1.00  0.00     0.031 A 
ATOM     80  C   UNL A   1      45.732  28.470  34.355  1.00  0.00     0.131 A 
ATOM     81  C   UNL A   1      45.509  26.262  36.004  1.00  0.00     0.055 A 
ATOM     82  C   UNL A   1      46.835  28.056  35.101  1.00  0.00     0.041 A 
ATOM     83  F   UNL A   1      45.878  29.557  33.580  1.00  0.00    -0.206 F 
ATOM     84  C   UNL A   1      46.724  26.949  35.937  1.00  0.00     0.022 A 
BRANCH  81  85
ATOM     85  S   UNL A   1      45.315  24.880  37.162  1.00  0.00     0.124 S 
ATOM     86  O   UNL A   1      44.167  25.306  37.954  1.00  0.00    -0.237 OA
ATOM     87  O   UNL A   1      45.088  23.749  36.266  1.00  0.00    -0.237 OA
ATOM     88  O   UNL A   1      46.588  24.852  37.880  1.00  0.00    -0.744 OA
ENDBRANCH  81  85
ENDBRANCH  55  78
ENDBRANCH  29  30
ENDBRANCH  22  24
ENDBRANCH  21  22
ENDBRANCH  20  21
ENDBRANCH   1  20
TORSDOF 19
ENDMDL
MODEL 3
REMARK VINA RESULT:     -10.2      1.919      2.460
REMARK SMILES CSc1nc(C2CC2)nc(C)c1C(=O)OCCOCCOC(=O)c1ccc(-c2c3nc(c(-c4cc(S(=O)(=O)[O-])ccc4F)c4ccc([nH]4)c(-c4cc(S(=O)(=O)[O-])ccc4F)c4nc(c(-c5cc(S(=O)(=O)[O-])ccc5F)c5ccc2[nH]5)C=C4)C=C3)cc1
REMARK SMILES IDX 19 1 18 2 17 3 16 4 15 5 13 6 14 7 12 8 3 9 4 10 5 11 10 12
REMARK SMILES IDX 9 13 11 14 2 15 1 16 6 17 7 18 8 19 20 20 21 21 22 22 23 23
REMARK SMILES IDX 24 24 25 25 86 26 26 27 85 28 27 29 28 30 29 31 79 32 30 33
REMARK SMILES IDX 84 34 78 35 80 36 31 37 83 38 77 39 76 40 32 42 64 43 44 44
REMARK SMILES IDX 63 45 45 46 48 47 62 48 81 49 46 50 47 51 61 53 82 54 49 55
REMARK SMILES IDX 33 56 34 57 42 58 35 59 41 60 43 61 40 62 36 63 37 64 38 65
REMARK SMILES IDX 39 66 65 67 66 68 74 69 67 70 73 71 75 72 72 73 68 74 69 75
REMARK SMILES IDX 70 76 71 77 50 78 51 79 59 80 52 81 58 82 60 83 57 84 53 85
REMARK SMILES IDX 54 86 55 87 56 88
REMARK H PARENT 80 41 48 52
REMARK Flexibility Score: inf
ROOT
ATOM      1  C   UNL A   1      35.503  20.216  25.284  1.00  0.00     0.202 C 
ENDROOT
BRANCH   1   2
ATOM      2  O   UNL A   1      34.539  19.999  24.251  1.00  0.00    -0.374 OA
BRANCH   2   3
ATOM      3  C   UNL A   1      33.310  19.353  24.593  1.00  0.00     0.202 C 
BRANCH   3   4
ATOM      4  C   UNL A   1      32.070  20.247  24.656  1.00  0.00     0.261 C 
BRANCH   4   5
ATOM      5  O   UNL A   1      32.444  21.614  24.436  1.00  0.00    -0.460 OA
BRANCH   5   6
ATOM      6  C   UNL A   1      31.764  22.532  25.152  1.00  0.00     0.342 C 
ATOM      7  O   UNL A   1      30.792  22.338  25.866  1.00  0.00    -0.246 OA
BRANCH   6   8
ATOM      8  C   UNL A   1      32.426  23.826  25.034  1.00  0.00     0.113 A 
ATOM      9  C   UNL A   1      33.537  24.182  25.781  1.00  0.00     0.114 A 
ATOM     10  N   UNL A   1      33.976  25.465  25.789  1.00  0.00    -0.225 NA
ATOM     11  C   UNL A   1      33.344  26.397  25.060  1.00  0.00     0.133 A 
ATOM     12  C   UNL A   1      31.897  24.806  24.202  1.00  0.00     0.057 A 
ATOM     13  N   UNL A   1      32.344  26.084  24.223  1.00  0.00    -0.237 NA
ATOM     14  C   UNL A   1      30.746  24.575  23.263  1.00  0.00     0.068 C 
BRANCH   9  15
ATOM     15  S   UNL A   1      34.675  23.218  26.769  1.00  0.00    -0.109 SA
ATOM     16  C   UNL A   1      33.726  22.223  27.936  1.00  0.00     0.092 C 
ENDBRANCH   9  15
BRANCH  11  17
ATOM     17  C   UNL A   1      33.703  27.853  25.237  1.00  0.00     0.058 C 
ATOM     18  C   UNL A   1      32.624  28.913  25.322  1.00  0.00     0.012 C 
ATOM     19  C   UNL A   1      33.438  28.573  26.537  1.00  0.00     0.012 C 
ENDBRANCH  11  17
ENDBRANCH   6   8
ENDBRANCH   5   6
ENDBRANCH   4   5
ENDBRANCH   3   4
ENDBRANCH   2   3
ENDBRANCH   1   2
BRANCH   1  20
ATOM     20  C   UNL A   1      36.977  20.350  24.886  1.00  0.00     0.261 C 
BRANCH  20  21
ATOM     21  O   UNL A   1      37.637  21.461  25.513  1.00  0.00    -0.460 OA
BRANCH  21  22
ATOM     22  C   UNL A   1      38.902  21.203  25.930  1.00  0.00     0.338 C 
ATOM     23  O   UNL A   1      39.566  20.206  25.694  1.00  0.00    -0.246 OA
BRANCH  22  24
ATOM     24  C   UNL A   1      39.458  22.401  26.582  1.00  0.00     0.060 A 
ATOM     25  C   UNL A   1      39.029  23.658  26.134  1.00  0.00     0.016 A 
ATOM     26  C   UNL A   1      40.443  22.290  27.562  1.00  0.00     0.016 A 
ATOM     27  C   UNL A   1      39.613  24.816  26.645  1.00  0.00     0.010 A 
ATOM     28  C   UNL A   1      41.036  23.450  28.062  1.00  0.00     0.010 A 
ATOM     29  C   UNL A   1      40.645  24.715  27.585  1.00  0.00    -0.014 A 
BRANCH  29  30
ATOM     30  C   UNL A   1      41.445  25.903  27.963  1.00  0.00     0.031 A 
ATOM     31  C   UNL A   1      40.760  27.018  28.701  1.00  0.00     0.074 A 
ATOM     32  C   UNL A   1      42.739  26.004  27.615  1.00  0.00     0.049 A 
ATOM     33  N   UNL A   1      41.184  28.225  28.963  1.00  0.00    -0.248 NA
ATOM     34  C   UNL A   1      39.405  26.729  29.197  1.00  0.00     0.031 C 
ATOM     35  C   UNL A   1      43.520  24.957  26.957  1.00  0.00     0.029 A 
ATOM     36  N   UNL A   1      43.617  27.050  27.742  1.00  0.00    -0.354 N 
ATOM     37  C   UNL A   1      40.140  28.852  29.636  1.00  0.00     0.074 A 
ATOM     38  C   UNL A   1      39.057  27.895  29.718  1.00  0.00     0.031 C 
ATOM     39  C   UNL A   1      44.755  25.426  26.711  1.00  0.00     0.029 A 
ATOM     40  C   UNL A   1      44.832  26.821  27.141  1.00  0.00     0.049 A 
ATOM     41  H   UNL A   1      43.398  27.883  28.218  1.00  0.00     0.167 HD
ATOM     42  C   UNL A   1      40.095  30.112  30.136  1.00  0.00     0.034 A 
ATOM     43  C   UNL A   1      45.867  27.659  26.921  1.00  0.00     0.034 A 
ATOM     44  C   UNL A   1      41.187  31.048  30.029  1.00  0.00     0.049 A 
ATOM     45  C   UNL A   1      45.758  29.091  27.394  1.00  0.00     0.074 A 
ATOM     46  C   UNL A   1      41.259  32.346  30.501  1.00  0.00     0.029 A 
ATOM     47  N   UNL A   1      42.393  30.789  29.391  1.00  0.00    -0.354 N 
ATOM     48  N   UNL A   1      44.764  29.682  28.015  1.00  0.00    -0.248 NA
ATOM     49  C   UNL A   1      46.910  29.967  27.137  1.00  0.00     0.031 C 
ATOM     50  C   UNL A   1      42.476  32.894  30.086  1.00  0.00     0.029 A 
ATOM     51  C   UNL A   1      43.203  31.913  29.431  1.00  0.00     0.049 A 
ATOM     52  H   UNL A   1      42.638  29.932  28.973  1.00  0.00     0.167 HD
ATOM     53  C   UNL A   1      45.188  30.986  28.259  1.00  0.00     0.074 A 
ATOM     54  C   UNL A   1      46.525  31.096  27.714  1.00  0.00     0.031 C 
ATOM     55  C   UNL A   1      44.538  31.998  28.888  1.00  0.00     0.034 A 
BRANCH  42  56
ATOM     56  C   UNL A   1      38.806  30.559  30.780  1.00  0.00     0.023 A 
ATOM     57  C   UNL A   1      37.854  31.324  30.084  1.00  0.00     0.031 A 
ATOM     58  C   UNL A   1      38.539  30.243  32.124  1.00  0.00     0.131 A 
ATOM     59  C   UNL A   1      36.720  31.808  30.752  1.00  0.00     0.055 A 
ATOM     60  C   UNL A   1      37.369  30.658  32.760  1.00  0.00     0.041 A 
ATOM     61  F   UNL A   1      39.423  29.538  32.848  1.00  0.00    -0.206 F 
ATOM     62  C   UNL A   1      36.457  31.458  32.079  1.00  0.00     0.022 A 
BRANCH  59  63
ATOM     63  S   UNL A   1      35.670  33.022  29.908  1.00  0.00     0.124 S 
ATOM     64  O   UNL A   1      34.393  32.315  29.848  1.00  0.00    -0.237 OA
ATOM     65  O   UNL A   1      35.724  34.167  30.809  1.00  0.00    -0.237 OA
ATOM     66  O   UNL A   1      36.331  33.210  28.618  1.00  0.00    -0.744 OA
ENDBRANCH  59  63
ENDBRANCH  42  56
BRANCH  43  67
ATOM     67  C   UNL A   1      47.071  27.194  26.175  1.00  0.00     0.023 A 
ATOM     68  C   UNL A   1      48.109  26.512  26.828  1.00  0.00     0.031 A 
ATOM     69  C   UNL A   1      47.222  27.466  24.802  1.00  0.00     0.131 A 
ATOM     70  C   UNL A   1      49.272  26.167  26.121  1.00  0.00     0.055 A 
ATOM     71  C   UNL A   1      48.356  27.070  24.091  1.00  0.00     0.041 A 
ATOM     72  F   UNL A   1      46.260  28.115  24.127  1.00  0.00    -0.206 F 
ATOM     73  C   UNL A   1      49.397  26.428  24.755  1.00  0.00     0.022 A 
BRANCH  70  74
ATOM     74  S   UNL A   1      50.662  25.449  27.039  1.00  0.00     0.124 S 
ATOM     75  O   UNL A   1      51.625  25.203  25.972  1.00  0.00    -0.237 OA
ATOM     76  O   UNL A   1      50.995  26.523  27.970  1.00  0.00    -0.237 OA
ATOM     77  O   UNL A   1      50.085  24.254  27.649  1.00  0.00    -0.744 OA
ENDBRANCH  70  74
ENDBRANCH  43  67
BRANCH  55  78
ATOM     78  C   UNL A   1      45.290  33.291  29.092  1.00  0.00     0.023 A 
ATOM     79  C   UNL A   1      45.137  34.390  28.231  1.00  0.00     0.031 A 
ATOM     80  C   UNL A   1      46.144  33.429  30.201  1.00  0.00     0.131 A 
ATOM     81  C   UNL A   1      45.853  35.571  28.478  1.00  0.00     0.055 A 
ATOM     82  C   UNL A   1      46.812  34.624  30.471  1.00  0.00     0.041 A 
ATOM     83  F   UNL A   1      46.326  32.408  31.055  1.00  0.00    -0.206 F 
ATOM     84  C   UNL A   1      46.673  35.702  29.602  1.00  0.00     0.022 A 
BRANCH  81  85
ATOM     85  S   UNL A   1      45.739  36.929  27.281  1.00  0.00     0.124 S 
ATOM     86  O   UNL A   1      44.371  36.793  26.796  1.00  0.00    -0.237 OA
ATOM     87  O   UNL A   1      46.010  38.101  28.108  1.00  0.00    -0.237 OA
ATOM     88  O   UNL A   1      46.779  36.612  26.302  1.00  0.00    -0.744 OA
ENDBRANCH  81  85
ENDBRANCH  55  78
ENDBRANCH  29  30
ENDBRANCH  22  24
ENDBRANCH  21  22
ENDBRANCH  20  21
ENDBRANCH   1  20
TORSDOF 19
ENDMDL
