MODEL 1
REMARK VINA RESULT:     -11.0      0.000      0.000
REMARK SMILES CCN1CCN([C@H](C)c2ccc(C(=O)OCCOCCOC(=O)c3ccc(-c4c5nc(c(-c6cc(S(=O)(=O)[O-])ccc6F)c6ccc([nH]6)c(-c6cc(S(=O)(=O)[O-])ccc6F)c6nc(c(-c7cc(S(=O)(=O)[O-])ccc7F)c7ccc4[nH]7)C=C6)C=C5)cc3)o2)C(=O)C1=O
REMARK SMILES IDX 18 1 17 2 16 3 15 4 13 5 14 6 12 7 9 8 10 9 87 10 11 11 7 12
REMARK SMILES IDX 8 13 6 14 3 15 4 16 90 17 5 18 88 19 91 20 89 21 2 22 1 23
REMARK SMILES IDX 19 24 20 25 21 26 22 27 23 28 24 29 25 30 86 31 26 32 85 33
REMARK SMILES IDX 27 34 28 35 29 36 79 37 30 38 84 39 78 40 80 41 31 42 83 43
REMARK SMILES IDX 77 44 76 45 32 47 64 48 44 49 63 50 45 51 48 52 62 53 81 54
REMARK SMILES IDX 46 55 47 56 61 58 82 59 49 60 33 61 34 62 42 63 35 64 41 65
REMARK SMILES IDX 43 66 40 67 36 68 37 69 38 70 39 71 65 72 66 73 74 74 67 75
REMARK SMILES IDX 73 76 75 77 72 78 68 79 69 80 70 81 71 82 50 83 51 84 59 85
REMARK SMILES IDX 52 86 58 87 60 88 57 89 53 90 54 91 55 92 56 93
REMARK H PARENT 80 46 48 57
REMARK Flexibility Score: inf
ROOT
ATOM      1  O   UNL A   1      32.486  29.588  25.118  1.00  0.00    -0.374 OA
ENDROOT
BRANCH   1   2
ATOM      2  C   UNL A   1      32.292  28.877  23.892  1.00  0.00     0.202 C 
BRANCH   2   3
ATOM      3  C   UNL A   1      32.379  27.353  24.024  1.00  0.00     0.261 C 
BRANCH   3   4
ATOM      4  O   UNL A   1      32.756  26.994  25.364  1.00  0.00    -0.457 OA
BRANCH   4   5
ATOM      5  C   UNL A   1      31.785  26.413  26.126  1.00  0.00     0.374 C 
ATOM      6  O   UNL A   1      31.023  27.017  26.870  1.00  0.00    -0.242 OA
BRANCH   5   7
ATOM      7  C   UNL A   1      31.715  25.003  25.812  1.00  0.00     0.211 A 
ATOM      8  C   UNL A   1      32.394  23.169  24.785  1.00  0.00     0.127 A 
ATOM      9  C   UNL A   1      31.459  22.771  25.719  1.00  0.00     0.049 A 
ATOM     10  O   UNL A   1      32.535  24.524  24.825  1.00  0.00    -0.452 OA
ATOM     11  C   UNL A   1      31.021  23.946  26.376  1.00  0.00     0.058 A 
BRANCH   8  12
ATOM     12  C   UNL A   1      33.235  22.403  23.805  1.00  0.00     0.149 C 
ATOM     13  C   UNL A   1      34.654  22.971  23.769  1.00  0.00     0.040 C 
BRANCH  12  14
ATOM     14  N   UNL A   1      33.097  20.947  24.000  1.00  0.00    -0.323 N 
ATOM     15  N   UNL A   1      32.934  18.129  24.595  1.00  0.00    -0.333 N 
ATOM     16  C   UNL A   1      33.162  19.113  25.639  1.00  0.00     0.141 C 
ATOM     17  C   UNL A   1      32.524  18.570  23.325  1.00  0.00     0.312 C 
ATOM     18  C   UNL A   1      33.873  20.335  25.071  1.00  0.00     0.142 C 
ATOM     19  C   UNL A   1      32.477  20.110  23.064  1.00  0.00     0.312 C 
ATOM     20  O   UNL A   1      32.158  17.798  22.442  1.00  0.00    -0.263 OA
ATOM     21  O   UNL A   1      31.848  20.508  22.090  1.00  0.00    -0.263 OA
BRANCH  15  22
ATOM     22  C   UNL A   1      32.766  16.711  24.908  1.00  0.00     0.116 C 
ATOM     23  C   UNL A   1      34.021  15.979  25.357  1.00  0.00     0.027 C 
ENDBRANCH  15  22
ENDBRANCH  12  14
ENDBRANCH   8  12
ENDBRANCH   5   7
ENDBRANCH   4   5
ENDBRANCH   3   4
ENDBRANCH   2   3
ENDBRANCH   1   2
BRANCH   1  24
ATOM     24  C   UNL A   1      31.398  30.402  25.558  1.00  0.00     0.202 C 
BRANCH  24  25
ATOM     25  C   UNL A   1      31.770  31.538  26.517  1.00  0.00     0.261 C 
BRANCH  25  26
ATOM     26  O   UNL A   1      32.880  31.174  27.357  1.00  0.00    -0.460 OA
BRANCH  26  27
ATOM     27  C   UNL A   1      33.741  32.187  27.627  1.00  0.00     0.338 C 
ATOM     28  O   UNL A   1      33.477  33.376  27.675  1.00  0.00    -0.246 OA
BRANCH  27  29
ATOM     29  C   UNL A   1      35.050  31.638  28.037  1.00  0.00     0.060 A 
ATOM     30  C   UNL A   1      35.124  30.260  28.271  1.00  0.00     0.016 A 
ATOM     31  C   UNL A   1      36.170  32.451  28.242  1.00  0.00     0.016 A 
ATOM     32  C   UNL A   1      36.302  29.694  28.755  1.00  0.00     0.010 A 
ATOM     33  C   UNL A   1      37.350  31.882  28.734  1.00  0.00     0.010 A 
ATOM     34  C   UNL A   1      37.412  30.506  29.022  1.00  0.00    -0.014 A 
BRANCH  34  35
ATOM     35  C   UNL A   1      38.583  29.935  29.734  1.00  0.00     0.031 A 
ATOM     36  C   UNL A   1      38.903  30.421  31.122  1.00  0.00     0.074 A 
ATOM     37  C   UNL A   1      39.333  28.973  29.164  1.00  0.00     0.049 A 
ATOM     38  N   UNL A   1      39.893  30.092  31.911  1.00  0.00    -0.248 NA
ATOM     39  C   UNL A   1      37.982  31.417  31.690  1.00  0.00     0.031 C 
ATOM     40  C   UNL A   1      39.096  28.391  27.844  1.00  0.00     0.029 A 
ATOM     41  N   UNL A   1      40.449  28.320  29.625  1.00  0.00    -0.354 N 
ATOM     42  C   UNL A   1      39.715  30.836  33.072  1.00  0.00     0.074 A 
ATOM     43  C   UNL A   1      38.547  31.667  32.862  1.00  0.00     0.031 C 
ATOM     44  C   UNL A   1      40.047  27.473  27.596  1.00  0.00     0.029 A 
ATOM     45  C   UNL A   1      40.977  27.427  28.723  1.00  0.00     0.049 A 
ATOM     46  H   UNL A   1      40.834  28.475  30.517  1.00  0.00     0.167 HD
ATOM     47  C   UNL A   1      40.450  30.821  34.212  1.00  0.00     0.034 A 
ATOM     48  C   UNL A   1      42.097  26.679  28.787  1.00  0.00     0.034 A 
ATOM     49  C   UNL A   1      41.621  29.999  34.402  1.00  0.00     0.049 A 
ATOM     50  C   UNL A   1      42.952  26.742  30.031  1.00  0.00     0.074 A 
ATOM     51  C   UNL A   1      42.435  29.902  35.517  1.00  0.00     0.029 A 
ATOM     52  N   UNL A   1      42.152  29.140  33.447  1.00  0.00    -0.354 N 
ATOM     53  N   UNL A   1      42.772  27.451  31.122  1.00  0.00    -0.248 NA
ATOM     54  C   UNL A   1      44.154  25.899  30.052  1.00  0.00     0.031 C 
ATOM     55  C   UNL A   1      43.496  29.040  35.213  1.00  0.00     0.029 A 
ATOM     56  C   UNL A   1      43.301  28.535  33.937  1.00  0.00     0.049 A 
ATOM     57  H   UNL A   1      41.770  28.983  32.554  1.00  0.00     0.167 HD
ATOM     58  C   UNL A   1      43.824  27.114  31.971  1.00  0.00     0.074 A 
ATOM     59  C   UNL A   1      44.625  26.131  31.269  1.00  0.00     0.031 C 
ATOM     60  C   UNL A   1      44.101  27.569  33.221  1.00  0.00     0.034 A 
BRANCH  47  61
ATOM     61  C   UNL A   1      40.031  31.761  35.316  1.00  0.00     0.023 A 
ATOM     62  C   UNL A   1      39.171  31.352  36.351  1.00  0.00     0.031 A 
ATOM     63  C   UNL A   1      40.469  33.097  35.316  1.00  0.00     0.131 A 
ATOM     64  C   UNL A   1      38.721  32.285  37.298  1.00  0.00     0.055 A 
ATOM     65  C   UNL A   1      40.081  34.001  36.307  1.00  0.00     0.041 A 
ATOM     66  F   UNL A   1      41.272  33.553  34.340  1.00  0.00    -0.206 F 
ATOM     67  C   UNL A   1      39.190  33.601  37.298  1.00  0.00     0.022 A 
BRANCH  64  68
ATOM     68  S   UNL A   1      37.402  31.792  38.441  1.00  0.00     0.124 S 
ATOM     69  O   UNL A   1      37.151  30.414  38.024  1.00  0.00    -0.237 OA
ATOM     70  O   UNL A   1      38.032  31.961  39.744  1.00  0.00    -0.237 OA
ATOM     71  O   UNL A   1      36.322  32.730  38.142  1.00  0.00    -0.744 OA
ENDBRANCH  64  68
ENDBRANCH  47  61
BRANCH  48  72
ATOM     72  C   UNL A   1      42.507  25.836  27.627  1.00  0.00     0.023 A 
ATOM     73  C   UNL A   1      42.171  24.475  27.560  1.00  0.00     0.031 A 
ATOM     74  C   UNL A   1      43.287  26.376  26.589  1.00  0.00     0.131 A 
ATOM     75  C   UNL A   1      42.649  23.689  26.500  1.00  0.00     0.055 A 
ATOM     76  C   UNL A   1      43.717  25.602  25.510  1.00  0.00     0.041 A 
ATOM     77  F   UNL A   1      43.636  27.672  26.605  1.00  0.00    -0.206 F 
ATOM     78  C   UNL A   1      43.408  24.246  25.467  1.00  0.00     0.022 A 
BRANCH  75  79
ATOM     79  S   UNL A   1      42.328  21.904  26.526  1.00  0.00     0.124 S 
ATOM     80  O   UNL A   1      41.061  21.820  25.808  1.00  0.00    -0.237 OA
ATOM     81  O   UNL A   1      43.497  21.378  25.831  1.00  0.00    -0.237 OA
ATOM     82  O   UNL A   1      42.261  21.592  27.952  1.00  0.00    -0.744 OA
ENDBRANCH  75  79
ENDBRANCH  48  72
BRANCH  60  83
ATOM     83  C   UNL A   1      45.296  26.971  33.922  1.00  0.00     0.023 A 
ATOM     84  C   UNL A   1      45.199  25.792  34.683  1.00  0.00     0.031 A 
ATOM     85  C   UNL A   1      46.554  27.595  33.830  1.00  0.00     0.131 A 
ATOM     86  C   UNL A   1      46.323  25.305  35.366  1.00  0.00     0.055 A 
ATOM     87  C   UNL A   1      47.683  27.074  34.464  1.00  0.00     0.041 A 
ATOM     88  F   UNL A   1      46.706  28.722  33.117  1.00  0.00    -0.206 F 
ATOM     89  C   UNL A   1      47.569  25.929  35.248  1.00  0.00     0.022 A 
BRANCH  86  90
ATOM     90  S   UNL A   1      46.122  23.892  36.483  1.00  0.00     0.124 S 
ATOM     91  O   UNL A   1      46.378  24.496  37.788  1.00  0.00    -0.237 OA
ATOM     92  O   UNL A   1      44.744  23.486  36.229  1.00  0.00    -0.237 OA
ATOM     93  O   UNL A   1      47.139  22.946  36.029  1.00  0.00    -0.744 OA
ENDBRANCH  86  90
ENDBRANCH  60  83
ENDBRANCH  34  35
ENDBRANCH  27  29
ENDBRANCH  26  27
ENDBRANCH  25  26
ENDBRANCH  24  25
ENDBRANCH   1  24
TORSDOF 20
ENDMDL
MODEL 2
REMARK VINA RESULT:     -10.8      1.197      7.555
REMARK SMILES CCN1CCN([C@H](C)c2ccc(C(=O)OCCOCCOC(=O)c3ccc(-c4c5nc(c(-c6cc(S(=O)(=O)[O-])ccc6F)c6ccc([nH]6)c(-c6cc(S(=O)(=O)[O-])ccc6F)c6nc(c(-c7cc(S(=O)(=O)[O-])ccc7F)c7ccc4[nH]7)C=C6)C=C5)cc3)o2)C(=O)C1=O
REMARK SMILES IDX 18 1 17 2 16 3 15 4 13 5 14 6 12 7 9 8 10 9 87 10 11 11 7 12
REMARK SMILES IDX 8 13 6 14 3 15 4 16 90 17 5 18 88 19 91 20 89 21 2 22 1 23
REMARK SMILES IDX 19 24 20 25 21 26 22 27 23 28 24 29 25 30 86 31 26 32 85 33
REMARK SMILES IDX 27 34 28 35 29 36 79 37 30 38 84 39 78 40 80 41 31 42 83 43
REMARK SMILES IDX 77 44 76 45 32 47 64 48 44 49 63 50 45 51 48 52 62 53 81 54
REMARK SMILES IDX 46 55 47 56 61 58 82 59 49 60 33 61 34 62 42 63 35 64 41 65
REMARK SMILES IDX 43 66 40 67 36 68 37 69 38 70 39 71 65 72 66 73 74 74 67 75
REMARK SMILES IDX 73 76 75 77 72 78 68 79 69 80 70 81 71 82 50 83 51 84 59 85
REMARK SMILES IDX 52 86 58 87 60 88 57 89 53 90 54 91 55 92 56 93
REMARK H PARENT 80 46 48 57
REMARK Flexibility Score: inf
ROOT
ATOM      1  O   UNL A   1      32.946  29.652  24.846  1.00  0.00    -0.374 OA
ENDROOT
BRANCH   1   2
ATOM      2  C   UNL A   1      33.122  28.483  24.041  1.00  0.00     0.202 C 
BRANCH   2   3
ATOM      3  C   UNL A   1      33.083  27.165  24.822  1.00  0.00     0.261 C 
BRANCH   3   4
ATOM      4  O   UNL A   1      31.779  26.569  24.719  1.00  0.00    -0.457 OA
BRANCH   4   5
ATOM      5  C   UNL A   1      31.574  25.752  23.645  1.00  0.00     0.374 C 
ATOM      6  O   UNL A   1      30.739  25.941  22.770  1.00  0.00    -0.242 OA
BRANCH   5   7
ATOM      7  C   UNL A   1      32.583  24.715  23.640  1.00  0.00     0.211 A 
ATOM      8  C   UNL A   1      33.699  23.036  24.541  1.00  0.00     0.127 A 
ATOM      9  C   UNL A   1      34.074  23.086  23.213  1.00  0.00     0.049 A 
ATOM     10  O   UNL A   1      32.812  24.035  24.806  1.00  0.00    -0.452 OA
ATOM     11  C   UNL A   1      33.360  24.164  22.635  1.00  0.00     0.058 A 
BRANCH   8  12
ATOM     12  C   UNL A   1      34.075  22.113  25.664  1.00  0.00     0.149 C 
ATOM     13  C   UNL A   1      33.346  22.516  26.947  1.00  0.00     0.040 C 
BRANCH  12  14
ATOM     14  N   UNL A   1      33.982  20.699  25.253  1.00  0.00    -0.323 N 
ATOM     15  N   UNL A   1      33.561  17.960  24.453  1.00  0.00    -0.333 N 
ATOM     16  C   UNL A   1      32.511  18.956  24.330  1.00  0.00     0.141 C 
ATOM     17  C   UNL A   1      34.875  18.387  24.713  1.00  0.00     0.312 C 
ATOM     18  C   UNL A   1      32.686  20.045  25.381  1.00  0.00     0.142 C 
ATOM     19  C   UNL A   1      35.108  19.905  25.001  1.00  0.00     0.312 C 
ATOM     20  O   UNL A   1      35.838  17.627  24.672  1.00  0.00    -0.263 OA
ATOM     21  O   UNL A   1      36.254  20.333  24.931  1.00  0.00    -0.263 OA
BRANCH  15  22
ATOM     22  C   UNL A   1      33.375  16.593  23.968  1.00  0.00     0.116 C 
ATOM     23  C   UNL A   1      32.903  15.583  25.001  1.00  0.00     0.027 C 
ENDBRANCH  15  22
ENDBRANCH  12  14
ENDBRANCH   8  12
ENDBRANCH   5   7
ENDBRANCH   4   5
ENDBRANCH   3   4
ENDBRANCH   2   3
ENDBRANCH   1   2
BRANCH   1  24
ATOM     24  C   UNL A   1      31.599  30.071  25.068  1.00  0.00     0.202 C 
BRANCH  24  25
ATOM     25  C   UNL A   1      31.406  31.107  26.181  1.00  0.00     0.261 C 
BRANCH  25  26
ATOM     26  O   UNL A   1      32.412  30.977  27.201  1.00  0.00    -0.460 OA
BRANCH  26  27
ATOM     27  C   UNL A   1      33.204  32.067  27.357  1.00  0.00     0.338 C 
ATOM     28  O   UNL A   1      32.867  33.235  27.257  1.00  0.00    -0.246 OA
BRANCH  27  29
ATOM     29  C   UNL A   1      34.535  31.655  27.850  1.00  0.00     0.060 A 
ATOM     30  C   UNL A   1      34.707  30.306  28.183  1.00  0.00     0.016 A 
ATOM     31  C   UNL A   1      35.578  32.568  28.035  1.00  0.00     0.016 A 
ATOM     32  C   UNL A   1      35.905  29.872  28.746  1.00  0.00     0.010 A 
ATOM     33  C   UNL A   1      36.779  32.131  28.605  1.00  0.00     0.010 A 
ATOM     34  C   UNL A   1      36.937  30.788  28.993  1.00  0.00    -0.014 A 
BRANCH  34  35
ATOM     35  C   UNL A   1      38.121  30.363  29.783  1.00  0.00     0.031 A 
ATOM     36  C   UNL A   1      39.062  29.346  29.196  1.00  0.00     0.074 A 
ATOM     37  C   UNL A   1      38.370  30.899  30.992  1.00  0.00     0.049 A 
ATOM     38  N   UNL A   1      40.132  28.804  29.719  1.00  0.00    -0.248 NA
ATOM     39  C   UNL A   1      38.749  28.876  27.839  1.00  0.00     0.031 C 
ATOM     40  C   UNL A   1      37.556  31.923  31.644  1.00  0.00     0.029 A 
ATOM     41  N   UNL A   1      39.381  30.652  31.887  1.00  0.00    -0.354 N 
ATOM     42  C   UNL A   1      40.623  27.930  28.756  1.00  0.00     0.074 A 
ATOM     43  C   UNL A   1      39.706  27.983  27.636  1.00  0.00     0.031 C 
ATOM     44  C   UNL A   1      38.094  32.209  32.843  1.00  0.00     0.029 A 
ATOM     45  C   UNL A   1      39.268  31.366  33.056  1.00  0.00     0.049 A 
ATOM     46  H   UNL A   1      40.117  30.024  31.708  1.00  0.00     0.167 HD
ATOM     47  C   UNL A   1      41.742  27.163  28.796  1.00  0.00     0.034 A 
ATOM     48  C   UNL A   1      40.012  31.323  34.181  1.00  0.00     0.034 A 
ATOM     49  C   UNL A   1      42.638  27.109  29.926  1.00  0.00     0.049 A 
ATOM     50  C   UNL A   1      41.203  30.397  34.239  1.00  0.00     0.074 A 
ATOM     51  C   UNL A   1      43.801  26.372  30.069  1.00  0.00     0.029 A 
ATOM     52  N   UNL A   1      42.467  27.812  31.111  1.00  0.00    -0.354 N 
ATOM     53  N   UNL A   1      41.657  29.575  33.321  1.00  0.00    -0.248 NA
ATOM     54  C   UNL A   1      41.983  30.400  35.483  1.00  0.00     0.031 C 
ATOM     55  C   UNL A   1      44.293  26.574  31.364  1.00  0.00     0.029 A 
ATOM     56  C   UNL A   1      43.483  27.500  32.002  1.00  0.00     0.049 A 
ATOM     57  H   UNL A   1      41.731  28.441  31.293  1.00  0.00     0.167 HD
ATOM     58  C   UNL A   1      42.795  28.986  33.868  1.00  0.00     0.074 A 
ATOM     59  C   UNL A   1      42.963  29.556  35.189  1.00  0.00     0.031 C 
ATOM     60  C   UNL A   1      43.631  28.063  33.324  1.00  0.00     0.034 A 
BRANCH  47  61
ATOM     61  C   UNL A   1      42.020  26.286  27.599  1.00  0.00     0.023 A 
ATOM     62  C   UNL A   1      41.582  24.950  27.544  1.00  0.00     0.031 A 
ATOM     63  C   UNL A   1      42.762  26.780  26.513  1.00  0.00     0.131 A 
ATOM     64  C   UNL A   1      41.953  24.137  26.461  1.00  0.00     0.055 A 
ATOM     65  C   UNL A   1      43.059  25.989  25.402  1.00  0.00     0.041 A 
ATOM     66  F   UNL A   1      43.228  28.040  26.519  1.00  0.00    -0.206 F 
ATOM     67  C   UNL A   1      42.667  24.654  25.378  1.00  0.00     0.022 A 
BRANCH  64  68
ATOM     68  S   UNL A   1      41.614  22.358  26.559  1.00  0.00     0.124 S 
ATOM     69  O   UNL A   1      42.240  22.007  27.832  1.00  0.00    -0.237 OA
ATOM     70  O   UNL A   1      40.157  22.311  26.529  1.00  0.00    -0.237 OA
ATOM     71  O   UNL A   1      42.281  21.817  25.376  1.00  0.00    -0.744 OA
ENDBRANCH  64  68
ENDBRANCH  47  61
BRANCH  48  72
ATOM     72  C   UNL A   1      39.634  32.149  35.364  1.00  0.00     0.023 A 
ATOM     73  C   UNL A   1      38.816  31.635  36.381  1.00  0.00     0.031 A 
ATOM     74  C   UNL A   1      40.051  33.489  35.464  1.00  0.00     0.131 A 
ATOM     75  C   UNL A   1      38.405  32.467  37.435  1.00  0.00     0.055 A 
ATOM     76  C   UNL A   1      39.681  34.298  36.540  1.00  0.00     0.041 A 
ATOM     77  F   UNL A   1      40.833  34.030  34.517  1.00  0.00    -0.206 F 
ATOM     78  C   UNL A   1      38.843  33.790  37.529  1.00  0.00     0.022 A 
BRANCH  75  79
ATOM     79  S   UNL A   1      37.224  31.816  38.648  1.00  0.00     0.124 S 
ATOM     80  O   UNL A   1      37.029  30.452  38.169  1.00  0.00    -0.237 OA
ATOM     81  O   UNL A   1      37.965  31.959  39.896  1.00  0.00    -0.237 OA
ATOM     82  O   UNL A   1      36.070  32.700  38.506  1.00  0.00    -0.744 OA
ENDBRANCH  75  79
ENDBRANCH  48  72
BRANCH  60  83
ATOM     83  C   UNL A   1      44.826  27.649  34.148  1.00  0.00     0.023 A 
ATOM     84  C   UNL A   1      44.792  26.530  34.998  1.00  0.00     0.031 A 
ATOM     85  C   UNL A   1      46.019  28.393  34.084  1.00  0.00     0.131 A 
ATOM     86  C   UNL A   1      45.907  26.217  35.790  1.00  0.00     0.055 A 
ATOM     87  C   UNL A   1      47.146  28.043  34.830  1.00  0.00     0.041 A 
ATOM     88  F   UNL A   1      46.109  29.472  33.290  1.00  0.00    -0.206 F 
ATOM     89  C   UNL A   1      47.090  26.957  35.699  1.00  0.00     0.022 A 
BRANCH  86  90
ATOM     90  S   UNL A   1      45.767  24.881  37.007  1.00  0.00     0.124 S 
ATOM     91  O   UNL A   1      44.799  23.991  36.371  1.00  0.00    -0.237 OA
ATOM     92  O   UNL A   1      47.136  24.382  37.082  1.00  0.00    -0.237 OA
ATOM     93  O   UNL A   1      45.288  25.559  38.210  1.00  0.00    -0.744 OA
ENDBRANCH  86  90
ENDBRANCH  60  83
ENDBRANCH  34  35
ENDBRANCH  27  29
ENDBRANCH  26  27
ENDBRANCH  25  26
ENDBRANCH  24  25
ENDBRANCH   1  24
TORSDOF 20
ENDMDL
MODEL 3
REMARK VINA RESULT:     -10.8      1.872      2.290
REMARK SMILES CCN1CCN([C@H](C)c2ccc(C(=O)OCCOCCOC(=O)c3ccc(-c4c5nc(c(-c6cc(S(=O)(=O)[O-])ccc6F)c6ccc([nH]6)c(-c6cc(S(=O)(=O)[O-])ccc6F)c6nc(c(-c7cc(S(=O)(=O)[O-])ccc7F)c7ccc4[nH]7)C=C6)C=C5)cc3)o2)C(=O)C1=O
REMARK SMILES IDX 18 1 17 2 16 3 15 4 13 5 14 6 12 7 9 8 10 9 87 10 11 11 7 12
REMARK SMILES IDX 8 13 6 14 3 15 4 16 90 17 5 18 88 19 91 20 89 21 2 22 1 23
REMARK SMILES IDX 19 24 20 25 21 26 22 27 23 28 24 29 25 30 86 31 26 32 85 33
REMARK SMILES IDX 27 34 28 35 29 36 79 37 30 38 84 39 78 40 80 41 31 42 83 43
REMARK SMILES IDX 77 44 76 45 32 47 64 48 44 49 63 50 45 51 48 52 62 53 81 54
REMARK SMILES IDX 46 55 47 56 61 58 82 59 49 60 33 61 34 62 42 63 35 64 41 65
REMARK SMILES IDX 43 66 40 67 36 68 37 69 38 70 39 71 65 72 66 73 74 74 67 75
REMARK SMILES IDX 73 76 75 77 72 78 68 79 69 80 70 81 71 82 50 83 51 84 59 85
REMARK SMILES IDX 52 86 58 87 60 88 57 89 53 90 54 91 55 92 56 93
REMARK H PARENT 80 46 48 57
REMARK Flexibility Score: inf
ROOT
ATOM      1  O   UNL A   1      32.095  30.088  27.056  1.00  0.00    -0.374 OA
ENDROOT
BRANCH   1   2
ATOM      2  C   UNL A   1      31.830  28.782  26.536  1.00  0.00     0.202 C 
BRANCH   2   3
ATOM      3  C   UNL A   1      32.828  28.308  25.474  1.00  0.00     0.261 C 
BRANCH   3   4
ATOM      4  O   UNL A   1      32.243  28.410  24.165  1.00  0.00    -0.457 OA
BRANCH   4   5
ATOM      5  C   UNL A   1      31.168  27.606  23.923  1.00  0.00     0.374 C 
ATOM      6  O   UNL A   1      30.035  28.003  23.682  1.00  0.00    -0.242 OA
BRANCH   5   7
ATOM      7  C   UNL A   1      31.609  26.229  23.865  1.00  0.00     0.211 A 
ATOM      8  C   UNL A   1      31.963  24.227  24.727  1.00  0.00     0.127 A 
ATOM      9  C   UNL A   1      32.173  24.110  23.368  1.00  0.00     0.049 A 
ATOM     10  O   UNL A   1      31.641  25.515  25.032  1.00  0.00    -0.452 OA
ATOM     11  C   UNL A   1      31.948  25.394  22.814  1.00  0.00     0.058 A 
BRANCH   8  12
ATOM     12  C   UNL A   1      32.014  23.230  25.848  1.00  0.00     0.149 C 
ATOM     13  C   UNL A   1      30.626  23.056  26.466  1.00  0.00     0.040 C 
BRANCH  12  14
ATOM     14  N   UNL A   1      32.730  22.004  25.445  1.00  0.00    -0.323 N 
ATOM     15  N   UNL A   1      33.916  19.507  24.620  1.00  0.00    -0.333 N 
ATOM     16  C   UNL A   1      32.537  19.834  24.301  1.00  0.00     0.141 C 
ATOM     17  C   UNL A   1      34.761  20.522  25.102  1.00  0.00     0.312 C 
ATOM     18  C   UNL A   1      31.957  20.773  25.352  1.00  0.00     0.142 C 
ATOM     19  C   UNL A   1      34.128  21.918  25.406  1.00  0.00     0.312 C 
ATOM     20  O   UNL A   1      35.971  20.367  25.241  1.00  0.00    -0.263 OA
ATOM     21  O   UNL A   1      34.883  22.875  25.534  1.00  0.00    -0.263 OA
BRANCH  15  22
ATOM     22  C   UNL A   1      34.541  18.281  24.128  1.00  0.00     0.116 C 
ATOM     23  C   UNL A   1      33.590  17.220  23.595  1.00  0.00     0.027 C 
ENDBRANCH  15  22
ENDBRANCH  12  14
ENDBRANCH   8  12
ENDBRANCH   5   7
ENDBRANCH   4   5
ENDBRANCH   3   4
ENDBRANCH   2   3
ENDBRANCH   1   2
BRANCH   1  24
ATOM     24  C   UNL A   1      31.669  31.188  26.252  1.00  0.00     0.202 C 
BRANCH  24  25
ATOM     25  C   UNL A   1      31.655  32.551  26.954  1.00  0.00     0.261 C 
BRANCH  25  26
ATOM     26  O   UNL A   1      32.915  33.231  26.805  1.00  0.00    -0.460 OA
BRANCH  26  27
ATOM     27  C   UNL A   1      33.423  33.738  27.956  1.00  0.00     0.338 C 
ATOM     28  O   UNL A   1      32.901  34.567  28.682  1.00  0.00    -0.246 OA
BRANCH  27  29
ATOM     29  C   UNL A   1      34.654  33.009  28.325  1.00  0.00     0.060 A 
ATOM     30  C   UNL A   1      34.509  31.691  28.776  1.00  0.00     0.016 A 
ATOM     31  C   UNL A   1      35.917  33.608  28.285  1.00  0.00     0.016 A 
ATOM     32  C   UNL A   1      35.619  30.983  29.232  1.00  0.00     0.010 A 
ATOM     33  C   UNL A   1      37.030  32.896  28.749  1.00  0.00     0.010 A 
ATOM     34  C   UNL A   1      36.881  31.591  29.254  1.00  0.00    -0.014 A 
BRANCH  34  35
ATOM     35  C   UNL A   1      38.011  30.911  29.936  1.00  0.00     0.031 A 
ATOM     36  C   UNL A   1      38.322  31.266  31.365  1.00  0.00     0.074 A 
ATOM     37  C   UNL A   1      38.730  29.967  29.300  1.00  0.00     0.049 A 
ATOM     38  N   UNL A   1      39.280  30.828  32.141  1.00  0.00    -0.248 NA
ATOM     39  C   UNL A   1      37.434  32.251  31.998  1.00  0.00     0.031 C 
ATOM     40  C   UNL A   1      38.496  29.507  27.933  1.00  0.00     0.029 A 
ATOM     41  N   UNL A   1      39.806  29.228  29.724  1.00  0.00    -0.354 N 
ATOM     42  C   UNL A   1      39.111  31.482  33.356  1.00  0.00     0.074 A 
ATOM     43  C   UNL A   1      37.985  32.378  33.196  1.00  0.00     0.031 C 
ATOM     44  C   UNL A   1      39.411  28.571  27.625  1.00  0.00     0.029 A 
ATOM     45  C   UNL A   1      40.314  28.391  28.760  1.00  0.00     0.049 A 
ATOM     46  H   UNL A   1      40.179  29.292  30.633  1.00  0.00     0.167 HD
ATOM     47  C   UNL A   1      39.820  31.339  34.504  1.00  0.00     0.034 A 
ATOM     48  C   UNL A   1      41.399  27.590  28.781  1.00  0.00     0.034 A 
ATOM     49  C   UNL A   1      40.950  30.452  34.644  1.00  0.00     0.049 A 
ATOM     50  C   UNL A   1      42.230  27.511  30.040  1.00  0.00     0.074 A 
ATOM     51  C   UNL A   1      41.736  30.226  35.761  1.00  0.00     0.029 A 
ATOM     52  N   UNL A   1      41.464  29.652  33.631  1.00  0.00    -0.354 N 
ATOM     53  N   UNL A   1      42.058  28.135  31.183  1.00  0.00    -0.248 NA
ATOM     54  C   UNL A   1      43.393  26.616  30.011  1.00  0.00     0.031 C 
ATOM     55  C   UNL A   1      42.765  29.346  35.405  1.00  0.00     0.029 A 
ATOM     56  C   UNL A   1      42.575  28.958  34.088  1.00  0.00     0.049 A 
ATOM     57  H   UNL A   1      41.093  29.587  32.721  1.00  0.00     0.167 HD
ATOM     58  C   UNL A   1      43.077  27.682  32.019  1.00  0.00     0.074 A 
ATOM     59  C   UNL A   1      43.849  26.725  31.252  1.00  0.00     0.031 C 
ATOM     60  C   UNL A   1      43.346  28.019  33.307  1.00  0.00     0.034 A 
BRANCH  47  61
ATOM     61  C   UNL A   1      39.419  32.203  35.675  1.00  0.00     0.023 A 
ATOM     62  C   UNL A   1      40.020  33.452  35.912  1.00  0.00     0.031 A 
ATOM     63  C   UNL A   1      38.447  31.757  36.587  1.00  0.00     0.131 A 
ATOM     64  C   UNL A   1      39.696  34.176  37.071  1.00  0.00     0.055 A 
ATOM     65  C   UNL A   1      38.071  32.518  37.695  1.00  0.00     0.041 A 
ATOM     66  F   UNL A   1      37.856  30.561  36.427  1.00  0.00    -0.206 F 
ATOM     67  C   UNL A   1      38.707  33.730  37.951  1.00  0.00     0.022 A 
BRANCH  64  68
ATOM     68  S   UNL A   1      40.688  35.636  37.486  1.00  0.00     0.124 S 
ATOM     69  O   UNL A   1      39.669  36.683  37.530  1.00  0.00    -0.237 OA
ATOM     70  O   UNL A   1      41.279  35.264  38.766  1.00  0.00    -0.237 OA
ATOM     71  O   UNL A   1      41.627  35.739  36.371  1.00  0.00    -0.744 OA
ENDBRANCH  64  68
ENDBRANCH  47  61
BRANCH  48  72
ATOM     72  C   UNL A   1      41.796  26.828  27.562  1.00  0.00     0.023 A 
ATOM     73  C   UNL A   1      41.595  25.443  27.470  1.00  0.00     0.031 A 
ATOM     74  C   UNL A   1      42.431  27.477  26.487  1.00  0.00     0.131 A 
ATOM     75  C   UNL A   1      42.062  24.742  26.347  1.00  0.00     0.055 A 
ATOM     76  C   UNL A   1      42.847  26.783  25.349  1.00  0.00     0.041 A 
ATOM     77  F   UNL A   1      42.647  28.801  26.524  1.00  0.00    -0.206 F 
ATOM     78  C   UNL A   1      42.674  25.404  25.280  1.00  0.00     0.022 A 
BRANCH  75  79
ATOM     79  S   UNL A   1      41.926  22.933  26.332  1.00  0.00     0.124 S 
ATOM     80  O   UNL A   1      42.607  22.595  25.087  1.00  0.00    -0.237 OA
ATOM     81  O   UNL A   1      42.619  22.569  27.563  1.00  0.00    -0.237 OA
ATOM     82  O   UNL A   1      40.484  22.701  26.339  1.00  0.00    -0.744 OA
ENDBRANCH  75  79
ENDBRANCH  48  72
BRANCH  60  83
ATOM     83  C   UNL A   1      44.500  27.312  33.976  1.00  0.00     0.023 A 
ATOM     84  C   UNL A   1      44.336  26.078  34.631  1.00  0.00     0.031 A 
ATOM     85  C   UNL A   1      45.784  27.887  33.962  1.00  0.00     0.131 A 
ATOM     86  C   UNL A   1      45.424  25.486  35.291  1.00  0.00     0.055 A 
ATOM     87  C   UNL A   1      46.876  27.264  34.570  1.00  0.00     0.041 A 
ATOM     88  F   UNL A   1      45.999  29.063  33.352  1.00  0.00    -0.206 F 
ATOM     89  C   UNL A   1      46.697  26.063  35.250  1.00  0.00     0.022 A 
BRANCH  86  90
ATOM     90  S   UNL A   1      45.139  23.992  36.278  1.00  0.00     0.124 S 
ATOM     91  O   UNL A   1      44.797  24.552  37.583  1.00  0.00    -0.237 OA
ATOM     92  O   UNL A   1      44.048  23.345  35.557  1.00  0.00    -0.237 OA
ATOM     93  O   UNL A   1      46.420  23.292  36.221  1.00  0.00    -0.744 OA
ENDBRANCH  86  90
ENDBRANCH  60  83
ENDBRANCH  34  35
ENDBRANCH  27  29
ENDBRANCH  26  27
ENDBRANCH  25  26
ENDBRANCH  24  25
ENDBRANCH   1  24
TORSDOF 20
ENDMDL
