MODEL 1
REMARK VINA RESULT:     -10.6      0.000      0.000
REMARK SMILES Cc1cc(C)n(C)c(=O)c1C(=O)[NH+]1CCC2(CC1)C[NH2+][C@@H](C(=O)OCCOCCOC(=O)c1ccc(-c3c4nc(c(-c5cc(S(=O)(=O)[O-])ccc5F)c5ccc([nH]5)c(-c5cc(S(=O)(=O)[O-])ccc5F)c5nc(c(-c6cc(S(=O)(=O)[O-])ccc6F)c6ccc3[nH]6)C=C5)C=C4)cc1)C2
REMARK SMILES IDX 28 1 27 2 26 3 25 4 24 5 22 6 23 7 21 8 13 9 14 10 18 11
REMARK SMILES IDX 15 13 17 14 16 15 19 16 96 17 20 18 11 21 12 22 10 23 1 24
REMARK SMILES IDX 2 25 3 26 4 27 8 28 5 29 6 30 9 31 7 32 29 33 30 34 31 35
REMARK SMILES IDX 32 36 33 37 34 38 95 39 35 40 94 41 36 42 37 43 38 44 88 45
REMARK SMILES IDX 39 46 93 47 87 48 89 49 40 50 92 51 86 52 85 53 41 55 73 56
REMARK SMILES IDX 53 57 72 58 54 59 57 60 71 61 90 62 55 63 56 64 70 66 91 67
REMARK SMILES IDX 58 68 42 69 43 70 51 71 44 72 50 73 52 74 49 75 45 76 46 77
REMARK SMILES IDX 47 78 48 79 74 80 75 81 83 82 76 83 82 84 84 85 81 86 77 87
REMARK SMILES IDX 78 88 79 89 80 90 59 91 60 92 68 93 61 94 67 95 69 96 66 97
REMARK SMILES IDX 62 98 63 99 64 100 65 101
REMARK H PARENT 13 12 20 19 20 20 89 54 57 65
REMARK Flexibility Score: inf
ROOT
ATOM      1  C   UNL A   1      44.551  23.422  25.377  1.00  0.00     0.202 C 
ENDROOT
BRANCH   1   2
ATOM      2  O   UNL A   1      44.466  22.090  25.881  1.00  0.00    -0.374 OA
BRANCH   2   3
ATOM      3  C   UNL A   1      43.276  21.353  25.597  1.00  0.00     0.202 C 
BRANCH   3   4
ATOM      4  C   UNL A   1      42.378  21.016  26.790  1.00  0.00     0.261 C 
BRANCH   4   5
ATOM      5  O   UNL A   1      41.172  21.795  26.763  1.00  0.00    -0.459 OA
BRANCH   5   6
ATOM      6  C   UNL A   1      40.087  21.191  26.215  1.00  0.00     0.364 C 
ATOM      7  O   UNL A   1      39.945  19.978  26.078  1.00  0.00    -0.245 OA
BRANCH   6   8
ATOM      8  C   UNL A   1      39.026  22.184  25.748  1.00  0.00     0.294 C 
ATOM      9  N   UNL A   1      34.117  22.894  23.995  1.00  0.00    -0.267 N 
ATOM     10  C   UNL A   1      35.341  22.857  23.207  1.00  0.00     0.271 C 
ATOM     11  C   UNL A   1      34.166  22.042  25.177  1.00  0.00     0.271 C 
ATOM     12  H   UNL A   1      33.449  23.357  23.440  1.00  0.00     0.357 HD
ATOM     13  C   UNL A   1      36.440  23.519  24.021  1.00  0.00     0.075 C 
ATOM     14  C   UNL A   1      35.396  22.311  26.071  1.00  0.00     0.075 C 
ATOM     15  C   UNL A   1      36.700  22.810  25.372  1.00  0.00     0.036 C 
ATOM     16  C   UNL A   1      37.474  23.798  26.293  1.00  0.00     0.268 C 
ATOM     17  C   UNL A   1      37.710  21.644  25.189  1.00  0.00     0.090 C 
ATOM     18  N   UNL A   1      38.565  23.023  26.865  1.00  0.00    -0.334 N 
ATOM     19  H   UNL A   1      38.235  22.447  27.640  1.00  0.00     0.347 HD
ATOM     20  H   UNL A   1      39.306  23.610  27.248  1.00  0.00     0.347 HD
BRANCH   9  21
ATOM     21  C   UNL A   1      33.050  23.633  23.494  1.00  0.00     0.350 C 
ATOM     22  O   UNL A   1      32.322  23.148  22.620  1.00  0.00    -0.225 OA
BRANCH  21  23
ATOM     23  C   UNL A   1      32.813  25.077  23.856  1.00  0.00     0.147 A 
ATOM     24  C   UNL A   1      31.946  24.642  26.223  1.00  0.00     0.045 C 
ATOM     25  C   UNL A   1      32.397  25.489  25.075  1.00  0.00    -0.027 A 
ATOM     26  C   UNL A   1      32.480  26.886  25.454  1.00  0.00     0.026 A 
ATOM     27  C   UNL A   1      33.155  27.782  24.723  1.00  0.00     0.018 A 
ATOM     28  C   UNL A   1      33.404  26.131  22.934  1.00  0.00     0.267 A 
ATOM     29  C   UNL A   1      33.342  29.169  25.278  1.00  0.00     0.064 C 
ATOM     30  N   UNL A   1      33.653  27.406  23.482  1.00  0.00    -0.315 N 
ATOM     31  O   UNL A   1      33.656  25.864  21.758  1.00  0.00    -0.268 OA
ATOM     32  C   UNL A   1      34.412  28.353  22.676  1.00  0.00     0.153 C 
ENDBRANCH  21  23
ENDBRANCH   9  21
ENDBRANCH   6   8
ENDBRANCH   5   6
ENDBRANCH   4   5
ENDBRANCH   3   4
ENDBRANCH   2   3
ENDBRANCH   1   2
BRANCH   1  33
ATOM     33  C   UNL A   1      43.239  24.182  25.144  1.00  0.00     0.261 C 
BRANCH  33  34
ATOM     34  O   UNL A   1      42.634  24.638  26.368  1.00  0.00    -0.460 OA
BRANCH  34  35
ATOM     35  C   UNL A   1      41.661  25.567  26.199  1.00  0.00     0.338 C 
ATOM     36  O   UNL A   1      40.503  25.363  25.857  1.00  0.00    -0.246 OA
BRANCH  35  37
ATOM     37  C   UNL A   1      42.121  26.884  26.673  1.00  0.00     0.060 A 
ATOM     38  C   UNL A   1      43.012  26.904  27.753  1.00  0.00     0.016 A 
ATOM     39  C   UNL A   1      41.627  28.075  26.137  1.00  0.00     0.016 A 
ATOM     40  C   UNL A   1      43.378  28.115  28.334  1.00  0.00     0.010 A 
ATOM     41  C   UNL A   1      41.984  29.291  26.732  1.00  0.00     0.010 A 
ATOM     42  C   UNL A   1      42.833  29.313  27.854  1.00  0.00    -0.014 A 
BRANCH  42  43
ATOM     43  C   UNL A   1      43.025  30.557  28.639  1.00  0.00     0.031 A 
ATOM     44  C   UNL A   1      44.145  31.487  28.260  1.00  0.00     0.074 A 
ATOM     45  C   UNL A   1      42.170  30.893  29.622  1.00  0.00     0.049 A 
ATOM     46  N   UNL A   1      44.505  32.619  28.807  1.00  0.00    -0.248 NA
ATOM     47  C   UNL A   1      44.968  31.089  27.105  1.00  0.00     0.031 C 
ATOM     48  C   UNL A   1      41.003  30.110  30.028  1.00  0.00     0.029 A 
ATOM     49  N   UNL A   1      42.144  31.988  30.449  1.00  0.00    -0.354 N 
ATOM     50  C   UNL A   1      45.586  33.074  28.060  1.00  0.00     0.074 A 
ATOM     51  C   UNL A   1      45.850  32.076  27.046  1.00  0.00     0.031 C 
ATOM     52  C   UNL A   1      40.370  30.756  31.022  1.00  0.00     0.029 A 
ATOM     53  C   UNL A   1      41.105  31.977  31.348  1.00  0.00     0.049 A 
ATOM     54  H   UNL A   1      42.809  32.713  30.402  1.00  0.00     0.167 HD
ATOM     55  C   UNL A   1      46.287  34.225  28.200  1.00  0.00     0.034 A 
ATOM     56  C   UNL A   1      40.792  32.845  32.332  1.00  0.00     0.034 A 
ATOM     57  C   UNL A   1      46.023  35.209  29.217  1.00  0.00     0.049 A 
ATOM     58  C   UNL A   1      41.659  34.061  32.543  1.00  0.00     0.074 A 
ATOM     59  C   UNL A   1      46.682  36.403  29.450  1.00  0.00     0.029 A 
ATOM     60  N   UNL A   1      45.021  35.115  30.172  1.00  0.00    -0.354 N 
ATOM     61  N   UNL A   1      42.707  34.456  31.859  1.00  0.00    -0.248 NA
ATOM     62  C   UNL A   1      41.304  34.945  33.664  1.00  0.00     0.031 C 
ATOM     63  C   UNL A   1      46.120  36.999  30.583  1.00  0.00     0.029 A 
ATOM     64  C   UNL A   1      45.065  36.213  31.017  1.00  0.00     0.049 A 
ATOM     65  H   UNL A   1      44.374  34.375  30.241  1.00  0.00     0.167 HD
ATOM     66  C   UNL A   1      43.124  35.643  32.454  1.00  0.00     0.074 A 
ATOM     67  C   UNL A   1      42.213  35.905  33.549  1.00  0.00     0.031 C 
ATOM     68  C   UNL A   1      44.164  36.449  32.118  1.00  0.00     0.034 A 
BRANCH  55  69
ATOM     69  C   UNL A   1      47.434  34.459  27.253  1.00  0.00     0.023 A 
ATOM     70  C   UNL A   1      48.738  34.032  27.557  1.00  0.00     0.031 A 
ATOM     71  C   UNL A   1      47.218  35.107  26.025  1.00  0.00     0.131 A 
ATOM     72  C   UNL A   1      49.784  34.294  26.660  1.00  0.00     0.055 A 
ATOM     73  C   UNL A   1      48.251  35.310  25.109  1.00  0.00     0.041 A 
ATOM     74  F   UNL A   1      45.995  35.553  25.695  1.00  0.00    -0.206 F 
ATOM     75  C   UNL A   1      49.545  34.908  25.429  1.00  0.00     0.022 A 
BRANCH  72  76
ATOM     76  S   UNL A   1      51.480  33.891  27.159  1.00  0.00     0.124 S 
ATOM     77  O   UNL A   1      52.117  33.652  25.866  1.00  0.00    -0.237 OA
ATOM     78  O   UNL A   1      51.899  35.098  27.863  1.00  0.00    -0.237 OA
ATOM     79  O   UNL A   1      51.320  32.705  27.997  1.00  0.00    -0.744 OA
ENDBRANCH  72  76
ENDBRANCH  55  69
BRANCH  56  80
ATOM     80  C   UNL A   1      39.624  32.579  33.217  1.00  0.00     0.023 A 
ATOM     81  C   UNL A   1      38.379  33.178  32.973  1.00  0.00     0.031 A 
ATOM     82  C   UNL A   1      39.744  31.729  34.330  1.00  0.00     0.131 A 
ATOM     83  C   UNL A   1      37.305  32.933  33.843  1.00  0.00     0.055 A 
ATOM     84  C   UNL A   1      38.664  31.458  35.171  1.00  0.00     0.041 A 
ATOM     85  F   UNL A   1      40.915  31.132  34.605  1.00  0.00    -0.206 F 
ATOM     86  C   UNL A   1      37.436  32.067  34.932  1.00  0.00     0.022 A 
BRANCH  83  87
ATOM     87  S   UNL A   1      35.730  33.785  33.549  1.00  0.00     0.124 S 
ATOM     88  O   UNL A   1      35.400  34.264  34.886  1.00  0.00    -0.237 OA
ATOM     89  O   UNL A   1      36.112  34.804  32.577  1.00  0.00    -0.237 OA
ATOM     90  O   UNL A   1      34.865  32.728  33.031  1.00  0.00    -0.744 OA
ENDBRANCH  83  87
ENDBRANCH  56  80
BRANCH  68  91
ATOM     91  C   UNL A   1      44.364  37.702  32.929  1.00  0.00     0.023 A 
ATOM     92  C   UNL A   1      43.680  38.890  32.623  1.00  0.00     0.031 A 
ATOM     93  C   UNL A   1      45.211  37.690  34.051  1.00  0.00     0.131 A 
ATOM     94  C   UNL A   1      43.875  40.030  33.418  1.00  0.00     0.055 A 
ATOM     95  C   UNL A   1      45.365  38.813  34.865  1.00  0.00     0.041 A 
ATOM     96  F   UNL A   1      45.884  36.577  34.386  1.00  0.00    -0.206 F 
ATOM     97  C   UNL A   1      44.698  39.993  34.547  1.00  0.00     0.022 A 
BRANCH  94  98
ATOM     98  S   UNL A   1      43.060  41.577  32.940  1.00  0.00     0.124 S 
ATOM     99  O   UNL A   1      42.769  41.341  31.529  1.00  0.00    -0.237 OA
ATOM    100  O   UNL A   1      41.905  41.615  33.830  1.00  0.00    -0.237 OA
ATOM    101  O   UNL A   1      44.076  42.595  33.202  1.00  0.00    -0.744 OA
ENDBRANCH  94  98
ENDBRANCH  68  91
ENDBRANCH  42  43
ENDBRANCH  35  37
ENDBRANCH  34  35
ENDBRANCH  33  34
ENDBRANCH   1  33
TORSDOF 19
ENDMDL
MODEL 2
REMARK VINA RESULT:     -10.6      1.954      2.511
REMARK SMILES Cc1cc(C)n(C)c(=O)c1C(=O)[NH+]1CCC2(CC1)C[NH2+][C@@H](C(=O)OCCOCCOC(=O)c1ccc(-c3c4nc(c(-c5cc(S(=O)(=O)[O-])ccc5F)c5ccc([nH]5)c(-c5cc(S(=O)(=O)[O-])ccc5F)c5nc(c(-c6cc(S(=O)(=O)[O-])ccc6F)c6ccc3[nH]6)C=C5)C=C4)cc1)C2
REMARK SMILES IDX 28 1 27 2 26 3 25 4 24 5 22 6 23 7 21 8 13 9 14 10 18 11
REMARK SMILES IDX 15 13 17 14 16 15 19 16 96 17 20 18 11 21 12 22 10 23 1 24
REMARK SMILES IDX 2 25 3 26 4 27 8 28 5 29 6 30 9 31 7 32 29 33 30 34 31 35
REMARK SMILES IDX 32 36 33 37 34 38 95 39 35 40 94 41 36 42 37 43 38 44 88 45
REMARK SMILES IDX 39 46 93 47 87 48 89 49 40 50 92 51 86 52 85 53 41 55 73 56
REMARK SMILES IDX 53 57 72 58 54 59 57 60 71 61 90 62 55 63 56 64 70 66 91 67
REMARK SMILES IDX 58 68 42 69 43 70 51 71 44 72 50 73 52 74 49 75 45 76 46 77
REMARK SMILES IDX 47 78 48 79 74 80 75 81 83 82 76 83 82 84 84 85 81 86 77 87
REMARK SMILES IDX 78 88 79 89 80 90 59 91 60 92 68 93 61 94 67 95 69 96 66 97
REMARK SMILES IDX 62 98 63 99 64 100 65 101
REMARK H PARENT 13 12 20 19 20 20 89 54 57 65
REMARK Flexibility Score: inf
ROOT
ATOM      1  C   UNL A   1      42.522  22.503  26.647  1.00  0.00     0.202 C 
ENDROOT
BRANCH   1   2
ATOM      2  O   UNL A   1      42.424  21.283  27.381  1.00  0.00    -0.374 OA
BRANCH   2   3
ATOM      3  C   UNL A   1      41.128  20.701  27.521  1.00  0.00     0.202 C 
BRANCH   3   4
ATOM      4  C   UNL A   1      40.353  20.437  26.227  1.00  0.00     0.261 C 
BRANCH   4   5
ATOM      5  O   UNL A   1      39.228  21.321  26.110  1.00  0.00    -0.459 OA
BRANCH   5   6
ATOM      6  C   UNL A   1      38.206  20.882  25.332  1.00  0.00     0.364 C 
ATOM      7  O   UNL A   1      38.046  19.723  24.961  1.00  0.00    -0.245 OA
BRANCH   6   8
ATOM      8  C   UNL A   1      37.247  21.998  24.927  1.00  0.00     0.294 C 
ATOM      9  N   UNL A   1      32.258  23.425  24.056  1.00  0.00    -0.267 N 
ATOM     10  C   UNL A   1      33.259  23.058  23.064  1.00  0.00     0.271 C 
ATOM     11  C   UNL A   1      32.422  22.727  25.326  1.00  0.00     0.271 C 
ATOM     12  H   UNL A   1      31.571  23.939  23.574  1.00  0.00     0.357 HD
ATOM     13  C   UNL A   1      34.602  23.589  23.539  1.00  0.00     0.075 C 
ATOM     14  C   UNL A   1      33.844  22.860  25.914  1.00  0.00     0.075 C 
ATOM     15  C   UNL A   1      35.029  23.011  24.909  1.00  0.00     0.036 C 
ATOM     16  C   UNL A   1      36.135  23.934  25.497  1.00  0.00     0.268 C 
ATOM     17  C   UNL A   1      35.771  21.659  24.722  1.00  0.00     0.090 C 
ATOM     18  N   UNL A   1      37.182  23.038  25.965  1.00  0.00    -0.334 N 
ATOM     19  H   UNL A   1      36.938  22.634  26.870  1.00  0.00     0.347 HD
ATOM     20  H   UNL A   1      38.075  23.513  26.103  1.00  0.00     0.347 HD
BRANCH   9  21
ATOM     21  C   UNL A   1      31.243  24.291  23.658  1.00  0.00     0.350 C 
ATOM     22  O   UNL A   1      30.317  23.871  22.956  1.00  0.00    -0.225 OA
BRANCH  21  23
ATOM     23  C   UNL A   1      31.286  25.775  23.917  1.00  0.00     0.147 A 
ATOM     24  C   UNL A   1      30.029  25.715  26.145  1.00  0.00     0.045 C 
ATOM     25  C   UNL A   1      30.810  26.357  25.041  1.00  0.00    -0.027 A 
ATOM     26  C   UNL A   1      31.148  27.729  25.366  1.00  0.00     0.026 A 
ATOM     27  C   UNL A   1      32.099  28.403  24.705  1.00  0.00     0.018 A 
ATOM     28  C   UNL A   1      32.216  26.606  23.048  1.00  0.00     0.267 A 
ATOM     29  C   UNL A   1      32.511  29.756  25.220  1.00  0.00     0.064 C 
ATOM     30  N   UNL A   1      32.665  27.836  23.571  1.00  0.00    -0.315 N 
ATOM     31  O   UNL A   1      32.561  26.202  21.937  1.00  0.00    -0.268 OA
ATOM     32  C   UNL A   1      33.718  28.535  22.846  1.00  0.00     0.153 C 
ENDBRANCH  21  23
ENDBRANCH   9  21
ENDBRANCH   6   8
ENDBRANCH   5   6
ENDBRANCH   4   5
ENDBRANCH   3   4
ENDBRANCH   2   3
ENDBRANCH   1   2
BRANCH   1  33
ATOM     33  C   UNL A   1      43.392  22.506  25.383  1.00  0.00     0.261 C 
BRANCH  33  34
ATOM     34  O   UNL A   1      43.416  23.786  24.726  1.00  0.00    -0.460 OA
BRANCH  34  35
ATOM     35  C   UNL A   1      44.504  24.543  25.013  1.00  0.00     0.338 C 
ATOM     36  O   UNL A   1      45.607  24.469  24.488  1.00  0.00    -0.246 OA
BRANCH  35  37
ATOM     37  C   UNL A   1      44.141  25.634  25.934  1.00  0.00     0.060 A 
ATOM     38  C   UNL A   1      43.630  26.810  25.370  1.00  0.00     0.016 A 
ATOM     39  C   UNL A   1      44.378  25.549  27.307  1.00  0.00     0.016 A 
ATOM     40  C   UNL A   1      43.396  27.924  26.171  1.00  0.00     0.010 A 
ATOM     41  C   UNL A   1      44.156  26.676  28.109  1.00  0.00     0.010 A 
ATOM     42  C   UNL A   1      43.698  27.877  27.538  1.00  0.00    -0.014 A 
BRANCH  42  43
ATOM     43  C   UNL A   1      43.691  29.138  28.321  1.00  0.00     0.031 A 
ATOM     44  C   UNL A   1      44.950  29.960  28.381  1.00  0.00     0.074 A 
ATOM     45  C   UNL A   1      42.563  29.582  28.905  1.00  0.00     0.049 A 
ATOM     46  N   UNL A   1      45.177  31.084  29.009  1.00  0.00    -0.248 NA
ATOM     47  C   UNL A   1      46.106  29.447  27.628  1.00  0.00     0.031 C 
ATOM     48  C   UNL A   1      41.265  28.911  28.851  1.00  0.00     0.029 A 
ATOM     49  N   UNL A   1      42.327  30.713  29.647  1.00  0.00    -0.354 N 
ATOM     50  C   UNL A   1      46.495  31.420  28.720  1.00  0.00     0.074 A 
ATOM     51  C   UNL A   1      47.029  30.359  27.893  1.00  0.00     0.031 C 
ATOM     52  C   UNL A   1      40.365  29.648  29.523  1.00  0.00     0.029 A 
ATOM     53  C   UNL A   1      41.030  30.823  30.088  1.00  0.00     0.049 A 
ATOM     54  H   UNL A   1      43.022  31.381  29.845  1.00  0.00     0.167 HD
ATOM     55  C   UNL A   1      47.191  32.518  29.099  1.00  0.00     0.034 A 
ATOM     56  C   UNL A   1      40.449  31.756  30.869  1.00  0.00     0.034 A 
ATOM     57  C   UNL A   1      46.653  33.565  29.928  1.00  0.00     0.049 A 
ATOM     58  C   UNL A   1      41.277  32.910  31.376  1.00  0.00     0.074 A 
ATOM     59  C   UNL A   1      47.280  34.714  30.378  1.00  0.00     0.029 A 
ATOM     60  N   UNL A   1      45.363  33.592  30.436  1.00  0.00    -0.354 N 
ATOM     61  N   UNL A   1      42.536  33.191  31.133  1.00  0.00    -0.248 NA
ATOM     62  C   UNL A   1      40.609  33.868  32.269  1.00  0.00     0.031 C 
ATOM     63  C   UNL A   1      46.390  35.402  31.207  1.00  0.00     0.029 A 
ATOM     64  C   UNL A   1      45.184  34.720  31.220  1.00  0.00     0.049 A 
ATOM     65  H   UNL A   1      44.674  32.908  30.265  1.00  0.00     0.167 HD
ATOM     66  C   UNL A   1      42.804  34.368  31.826  1.00  0.00     0.074 A 
ATOM     67  C   UNL A   1      41.576  34.748  32.493  1.00  0.00     0.031 C 
ATOM     68  C   UNL A   1      43.960  35.075  31.897  1.00  0.00     0.034 A 
BRANCH  55  69
ATOM     69  C   UNL A   1      48.625  32.620  28.652  1.00  0.00     0.023 A 
ATOM     70  C   UNL A   1      48.978  33.266  27.455  1.00  0.00     0.031 A 
ATOM     71  C   UNL A   1      49.654  32.076  29.441  1.00  0.00     0.131 A 
ATOM     72  C   UNL A   1      50.323  33.316  27.061  1.00  0.00     0.055 A 
ATOM     73  C   UNL A   1      50.996  32.183  29.074  1.00  0.00     0.041 A 
ATOM     74  F   UNL A   1      49.369  31.432  30.584  1.00  0.00    -0.206 F 
ATOM     75  C   UNL A   1      51.336  32.800  27.873  1.00  0.00     0.022 A 
BRANCH  72  76
ATOM     76  S   UNL A   1      50.728  33.995  25.429  1.00  0.00     0.124 S 
ATOM     77  O   UNL A   1      51.096  32.790  24.692  1.00  0.00    -0.237 OA
ATOM     78  O   UNL A   1      49.476  34.630  25.030  1.00  0.00    -0.237 OA
ATOM     79  O   UNL A   1      51.832  34.913  25.703  1.00  0.00    -0.744 OA
ENDBRANCH  72  76
ENDBRANCH  55  69
BRANCH  56  80
ATOM     80  C   UNL A   1      39.016  31.622  31.251  1.00  0.00     0.023 A 
ATOM     81  C   UNL A   1      37.997  32.126  30.430  1.00  0.00     0.031 A 
ATOM     82  C   UNL A   1      38.648  30.995  32.455  1.00  0.00     0.131 A 
ATOM     83  C   UNL A   1      36.656  32.012  30.832  1.00  0.00     0.055 A 
ATOM     84  C   UNL A   1      37.313  30.850  32.833  1.00  0.00     0.041 A 
ATOM     85  F   UNL A   1      39.588  30.495  33.274  1.00  0.00    -0.206 F 
ATOM     86  C   UNL A   1      36.308  31.366  32.022  1.00  0.00     0.022 A 
BRANCH  83  87
ATOM     87  S   UNL A   1      35.366  32.746  29.790  1.00  0.00     0.124 S 
ATOM     88  O   UNL A   1      34.215  32.726  30.685  1.00  0.00    -0.237 OA
ATOM     89  O   UNL A   1      35.925  34.060  29.492  1.00  0.00    -0.237 OA
ATOM     90  O   UNL A   1      35.290  31.833  28.651  1.00  0.00    -0.744 OA
ENDBRANCH  83  87
ENDBRANCH  56  80
BRANCH  68  91
ATOM     91  C   UNL A   1      43.952  36.344  32.707  1.00  0.00     0.023 A 
ATOM     92  C   UNL A   1      43.713  37.594  32.111  1.00  0.00     0.031 A 
ATOM     93  C   UNL A   1      44.136  36.295  34.100  1.00  0.00     0.131 A 
ATOM     94  C   UNL A   1      43.689  38.750  32.904  1.00  0.00     0.055 A 
ATOM     95  C   UNL A   1      44.065  37.443  34.891  1.00  0.00     0.041 A 
ATOM     96  F   UNL A   1      44.364  35.124  34.718  1.00  0.00    -0.206 F 
ATOM     97  C   UNL A   1      43.845  38.681  34.291  1.00  0.00     0.022 A 
BRANCH  94  98
ATOM     98  S   UNL A   1      43.481  40.359  32.095  1.00  0.00     0.124 S 
ATOM     99  O   UNL A   1      44.648  41.092  32.576  1.00  0.00    -0.237 OA
ATOM    100  O   UNL A   1      43.492  40.005  30.680  1.00  0.00    -0.237 OA
ATOM    101  O   UNL A   1      42.196  40.836  32.602  1.00  0.00    -0.744 OA
ENDBRANCH  94  98
ENDBRANCH  68  91
ENDBRANCH  42  43
ENDBRANCH  35  37
ENDBRANCH  34  35
ENDBRANCH  33  34
ENDBRANCH   1  33
TORSDOF 19
ENDMDL
MODEL 3
REMARK VINA RESULT:     -10.4      4.509      7.038
REMARK SMILES Cc1cc(C)n(C)c(=O)c1C(=O)[NH+]1CCC2(CC1)C[NH2+][C@@H](C(=O)OCCOCCOC(=O)c1ccc(-c3c4nc(c(-c5cc(S(=O)(=O)[O-])ccc5F)c5ccc([nH]5)c(-c5cc(S(=O)(=O)[O-])ccc5F)c5nc(c(-c6cc(S(=O)(=O)[O-])ccc6F)c6ccc3[nH]6)C=C5)C=C4)cc1)C2
REMARK SMILES IDX 28 1 27 2 26 3 25 4 24 5 22 6 23 7 21 8 13 9 14 10 18 11
REMARK SMILES IDX 15 13 17 14 16 15 19 16 96 17 20 18 11 21 12 22 10 23 1 24
REMARK SMILES IDX 2 25 3 26 4 27 8 28 5 29 6 30 9 31 7 32 29 33 30 34 31 35
REMARK SMILES IDX 32 36 33 37 34 38 95 39 35 40 94 41 36 42 37 43 38 44 88 45
REMARK SMILES IDX 39 46 93 47 87 48 89 49 40 50 92 51 86 52 85 53 41 55 73 56
REMARK SMILES IDX 53 57 72 58 54 59 57 60 71 61 90 62 55 63 56 64 70 66 91 67
REMARK SMILES IDX 58 68 42 69 43 70 51 71 44 72 50 73 52 74 49 75 45 76 46 77
REMARK SMILES IDX 47 78 48 79 74 80 75 81 83 82 76 83 82 84 84 85 81 86 77 87
REMARK SMILES IDX 78 88 79 89 80 90 59 91 60 92 68 93 61 94 67 95 69 96 66 97
REMARK SMILES IDX 62 98 63 99 64 100 65 101
REMARK H PARENT 13 12 20 19 20 20 89 54 57 65
REMARK Flexibility Score: inf
ROOT
ATOM      1  C   UNL A   1      44.887  22.832  26.522  1.00  0.00     0.202 C 
ENDROOT
BRANCH   1   2
ATOM      2  O   UNL A   1      43.926  21.923  25.989  1.00  0.00    -0.374 OA
BRANCH   2   3
ATOM      3  C   UNL A   1      42.640  22.445  25.652  1.00  0.00     0.202 C 
BRANCH   3   4
ATOM      4  C   UNL A   1      41.468  21.998  26.530  1.00  0.00     0.261 C 
BRANCH   4   5
ATOM      5  O   UNL A   1      40.935  23.100  27.279  1.00  0.00    -0.459 OA
BRANCH   5   6
ATOM      6  C   UNL A   1      39.742  23.588  26.852  1.00  0.00     0.364 C 
ATOM      7  O   UNL A   1      38.829  22.914  26.383  1.00  0.00    -0.245 OA
BRANCH   6   8
ATOM      8  C   UNL A   1      39.636  25.104  26.990  1.00  0.00     0.294 C 
ATOM      9  N   UNL A   1      39.056  29.206  30.233  1.00  0.00    -0.267 N 
ATOM     10  C   UNL A   1      38.030  28.571  29.418  1.00  0.00     0.271 C 
ATOM     11  C   UNL A   1      40.087  28.280  30.688  1.00  0.00     0.271 C 
ATOM     12  H   UNL A   1      38.717  30.104  30.449  1.00  0.00     0.357 HD
ATOM     13  C   UNL A   1      38.671  28.149  28.106  1.00  0.00     0.075 C 
ATOM     14  C   UNL A   1      40.728  27.470  29.541  1.00  0.00     0.075 C 
ATOM     15  C   UNL A   1      39.839  27.152  28.298  1.00  0.00     0.036 C 
ATOM     16  C   UNL A   1      40.691  27.153  26.996  1.00  0.00     0.268 C 
ATOM     17  C   UNL A   1      39.304  25.695  28.360  1.00  0.00     0.090 C 
ATOM     18  N   UNL A   1      40.920  25.750  26.680  1.00  0.00    -0.334 N 
ATOM     19  H   UNL A   1      41.670  25.365  27.255  1.00  0.00     0.347 HD
ATOM     20  H   UNL A   1      41.209  25.607  25.712  1.00  0.00     0.347 HD
BRANCH   9  21
ATOM     21  C   UNL A   1      38.887  30.550  30.551  1.00  0.00     0.350 C 
ATOM     22  O   UNL A   1      39.783  31.362  30.289  1.00  0.00    -0.225 OA
BRANCH  21  23
ATOM     23  C   UNL A   1      37.712  31.062  31.344  1.00  0.00     0.147 A 
ATOM     24  C   UNL A   1      38.586  30.356  33.642  1.00  0.00     0.045 C 
ATOM     25  C   UNL A   1      37.641  31.024  32.694  1.00  0.00    -0.027 A 
ATOM     26  C   UNL A   1      36.641  31.796  33.406  1.00  0.00     0.026 A 
ATOM     27  C   UNL A   1      35.897  32.729  32.798  1.00  0.00     0.018 A 
ATOM     28  C   UNL A   1      36.732  31.975  30.625  1.00  0.00     0.267 A 
ATOM     29  C   UNL A   1      35.011  33.605  33.643  1.00  0.00     0.064 C 
ATOM     30  N   UNL A   1      35.963  32.852  31.416  1.00  0.00    -0.315 N 
ATOM     31  O   UNL A   1      36.631  31.942  29.398  1.00  0.00    -0.268 OA
ATOM     32  C   UNL A   1      35.183  33.875  30.731  1.00  0.00     0.153 C 
ENDBRANCH  21  23
ENDBRANCH   9  21
ENDBRANCH   6   8
ENDBRANCH   5   6
ENDBRANCH   4   5
ENDBRANCH   3   4
ENDBRANCH   2   3
ENDBRANCH   1   2
BRANCH   1  33
ATOM     33  C   UNL A   1      46.053  23.250  25.617  1.00  0.00     0.261 C 
BRANCH  33  34
ATOM     34  O   UNL A   1      46.805  24.354  26.151  1.00  0.00    -0.460 OA
BRANCH  34  35
ATOM     35  C   UNL A   1      46.683  25.508  25.448  1.00  0.00     0.338 C 
ATOM     36  O   UNL A   1      46.887  25.662  24.251  1.00  0.00    -0.246 OA
BRANCH  35  37
ATOM     37  C   UNL A   1      46.072  26.556  26.285  1.00  0.00     0.060 A 
ATOM     38  C   UNL A   1      46.917  27.266  27.146  1.00  0.00     0.016 A 
ATOM     39  C   UNL A   1      44.694  26.780  26.296  1.00  0.00     0.016 A 
ATOM     40  C   UNL A   1      46.382  28.173  28.057  1.00  0.00     0.010 A 
ATOM     41  C   UNL A   1      44.156  27.681  27.223  1.00  0.00     0.010 A 
ATOM     42  C   UNL A   1      44.995  28.355  28.130  1.00  0.00    -0.014 A 
BRANCH  42  43
ATOM     43  C   UNL A   1      44.427  29.118  29.269  1.00  0.00     0.031 A 
ATOM     44  C   UNL A   1      44.149  30.586  29.089  1.00  0.00     0.074 A 
ATOM     45  C   UNL A   1      44.093  28.501  30.416  1.00  0.00     0.049 A 
ATOM     46  N   UNL A   1      43.666  31.449  29.944  1.00  0.00    -0.248 NA
ATOM     47  C   UNL A   1      44.453  31.155  27.765  1.00  0.00     0.031 C 
ATOM     48  C   UNL A   1      44.244  27.070  30.679  1.00  0.00     0.029 A 
ATOM     49  N   UNL A   1      43.543  28.999  31.571  1.00  0.00    -0.354 N 
ATOM     50  C   UNL A   1      43.598  32.659  29.263  1.00  0.00     0.074 A 
ATOM     51  C   UNL A   1      44.126  32.428  27.935  1.00  0.00     0.031 C 
ATOM     52  C   UNL A   1      43.788  26.804  31.915  1.00  0.00     0.029 A 
ATOM     53  C   UNL A   1      43.348  28.049  32.545  1.00  0.00     0.049 A 
ATOM     54  H   UNL A   1      43.310  29.948  31.690  1.00  0.00     0.167 HD
ATOM     55  C   UNL A   1      43.126  33.852  29.700  1.00  0.00     0.034 A 
ATOM     56  C   UNL A   1      42.883  28.172  33.805  1.00  0.00     0.034 A 
ATOM     57  C   UNL A   1      42.608  34.075  31.025  1.00  0.00     0.049 A 
ATOM     58  C   UNL A   1      42.473  29.533  34.308  1.00  0.00     0.074 A 
ATOM     59  C   UNL A   1      42.117  35.248  31.569  1.00  0.00     0.029 A 
ATOM     60  N   UNL A   1      42.518  33.108  32.015  1.00  0.00    -0.354 N 
ATOM     61  N   UNL A   1      42.456  30.678  33.668  1.00  0.00    -0.248 NA
ATOM     62  C   UNL A   1      42.026  29.619  35.706  1.00  0.00     0.031 C 
ATOM     63  C   UNL A   1      41.788  35.005  32.907  1.00  0.00     0.029 A 
ATOM     64  C   UNL A   1      42.010  33.665  33.178  1.00  0.00     0.049 A 
ATOM     65  H   UNL A   1      42.779  32.163  31.909  1.00  0.00     0.167 HD
ATOM     66  C   UNL A   1      41.979  31.616  34.578  1.00  0.00     0.074 A 
ATOM     67  C   UNL A   1      41.714  30.904  35.811  1.00  0.00     0.031 C 
ATOM     68  C   UNL A   1      41.770  32.947  34.406  1.00  0.00     0.034 A 
BRANCH  55  69
ATOM     69  C   UNL A   1      43.186  35.015  28.746  1.00  0.00     0.023 A 
ATOM     70  C   UNL A   1      44.406  35.620  28.401  1.00  0.00     0.031 A 
ATOM     71  C   UNL A   1      42.008  35.516  28.164  1.00  0.00     0.131 A 
ATOM     72  C   UNL A   1      44.417  36.719  27.530  1.00  0.00     0.055 A 
ATOM     73  C   UNL A   1      42.031  36.570  27.251  1.00  0.00     0.041 A 
ATOM     74  F   UNL A   1      40.815  34.987  28.476  1.00  0.00    -0.206 F 
ATOM     75  C   UNL A   1      43.241  37.183  26.934  1.00  0.00     0.022 A 
BRANCH  72  76
ATOM     76  S   UNL A   1      45.982  37.590  27.244  1.00  0.00     0.124 S 
ATOM     77  O   UNL A   1      46.594  36.761  26.210  1.00  0.00    -0.237 OA
ATOM     78  O   UNL A   1      45.536  38.913  26.821  1.00  0.00    -0.237 OA
ATOM     79  O   UNL A   1      46.643  37.543  28.546  1.00  0.00    -0.744 OA
ENDBRANCH  72  76
ENDBRANCH  55  69
BRANCH  56  80
ATOM     80  C   UNL A   1      42.813  26.978  34.693  1.00  0.00     0.023 A 
ATOM     81  C   UNL A   1      43.951  26.508  35.366  1.00  0.00     0.031 A 
ATOM     82  C   UNL A   1      41.603  26.284  34.870  1.00  0.00     0.131 A 
ATOM     83  C   UNL A   1      43.860  25.362  36.172  1.00  0.00     0.055 A 
ATOM     84  C   UNL A   1      41.509  25.167  35.702  1.00  0.00     0.041 A 
ATOM     85  F   UNL A   1      40.488  26.696  34.248  1.00  0.00    -0.206 F 
ATOM     86  C   UNL A   1      42.644  24.697  36.354  1.00  0.00     0.022 A 
BRANCH  83  87
ATOM     87  S   UNL A   1      45.365  24.730  36.964  1.00  0.00     0.124 S 
ATOM     88  O   UNL A   1      46.382  25.622  36.421  1.00  0.00    -0.237 OA
ATOM     89  O   UNL A   1      45.056  24.893  38.381  1.00  0.00    -0.237 OA
ATOM     90  O   UNL A   1      45.435  23.345  36.501  1.00  0.00    -0.744 OA
ENDBRANCH  83  87
ENDBRANCH  56  80
BRANCH  68  91
ATOM     91  C   UNL A   1      41.210  33.720  35.571  1.00  0.00     0.023 A 
ATOM     92  C   UNL A   1      42.050  34.337  36.513  1.00  0.00     0.031 A 
ATOM     93  C   UNL A   1      39.821  33.884  35.708  1.00  0.00     0.131 A 
ATOM     94  C   UNL A   1      41.490  35.070  37.570  1.00  0.00     0.055 A 
ATOM     95  C   UNL A   1      39.271  34.653  36.735  1.00  0.00     0.041 A 
ATOM     96  F   UNL A   1      38.977  33.317  34.831  1.00  0.00    -0.206 F 
ATOM     97  C   UNL A   1      40.108  35.247  37.676  1.00  0.00     0.022 A 
BRANCH  94  98
ATOM     98  S   UNL A   1      42.593  35.767  38.828  1.00  0.00     0.124 S 
ATOM     99  O   UNL A   1      43.587  36.456  38.011  1.00  0.00    -0.237 OA
ATOM    100  O   UNL A   1      41.696  36.624  39.596  1.00  0.00    -0.237 OA
ATOM    101  O   UNL A   1      43.085  34.590  39.543  1.00  0.00    -0.744 OA
ENDBRANCH  94  98
ENDBRANCH  68  91
ENDBRANCH  42  43
ENDBRANCH  35  37
ENDBRANCH  34  35
ENDBRANCH  33  34
ENDBRANCH   1  33
TORSDOF 19
ENDMDL
