MODEL 1
REMARK VINA RESULT:     -10.1      0.000      0.000
REMARK SMILES CC[C@@H](C)N(C)S(=O)(=O)c1cc(C(=O)OCCOCCOC(=O)c2ccc(-c3c4nc(c(-c5cc(S(=O)(=O)[O-])ccc5F)c5ccc([nH]5)c(-c5cc(S(=O)(=O)[O-])ccc5F)c5nc(c(-c6cc(S(=O)(=O)[O-])ccc6F)c6ccc3[nH]6)C=C5)C=C4)cc2)c(C)cc1C
REMARK SMILES IDX 17 1 16 2 15 3 13 4 14 5 12 6 10 7 11 8 90 9 89 10 91 11
REMARK SMILES IDX 87 12 88 13 7 14 8 15 9 16 5 17 6 18 3 19 4 20 2 21 1 22
REMARK SMILES IDX 18 23 19 24 20 25 21 26 22 27 23 28 24 29 25 30 86 31 26 32
REMARK SMILES IDX 85 33 27 34 28 35 29 36 79 37 30 38 84 39 78 40 80 41 31 42
REMARK SMILES IDX 83 43 77 44 76 45 32 47 64 48 44 49 63 50 45 51 48 52 62 53
REMARK SMILES IDX 81 54 46 55 47 56 61 58 82 59 49 60 33 61 34 62 42 63 35 64
REMARK SMILES IDX 41 65 43 66 40 67 36 68 37 69 38 70 39 71 65 72 66 73 74 74
REMARK SMILES IDX 67 75 73 76 75 77 72 78 68 79 69 80 70 81 71 82 50 83 51 84
REMARK SMILES IDX 59 85 52 86 58 87 60 88 57 89 53 90 54 91 55 92 56 93
REMARK H PARENT 80 46 48 57
REMARK Flexibility Score: inf
ROOT
ATOM      1  C   UNL A   1      29.770  29.451  23.486  1.00  0.00     0.202 C 
ENDROOT
BRANCH   1   2
ATOM      2  C   UNL A   1      29.791  27.985  23.050  1.00  0.00     0.261 C 
BRANCH   2   3
ATOM      3  O   UNL A   1      30.946  27.342  23.618  1.00  0.00    -0.460 OA
BRANCH   3   4
ATOM      4  C   UNL A   1      30.741  26.665  24.767  1.00  0.00     0.338 C 
ATOM      5  O   UNL A   1      29.678  26.532  25.349  1.00  0.00    -0.246 OA
BRANCH   4   6
ATOM      6  C   UNL A   1      31.954  25.881  25.133  1.00  0.00     0.064 A 
ATOM      7  C   UNL A   1      32.763  23.613  25.637  1.00  0.00     0.086 A 
ATOM      8  C   UNL A   1      31.731  24.503  25.290  1.00  0.00     0.038 A 
ATOM      9  C   UNL A   1      34.027  24.131  25.958  1.00  0.00    -0.031 A 
ATOM     10  C   UNL A   1      34.253  25.511  25.742  1.00  0.00     0.009 A 
ATOM     11  C   UNL A   1      35.178  23.347  26.522  1.00  0.00     0.046 C 
ATOM     12  C   UNL A   1      33.244  26.396  25.308  1.00  0.00    -0.036 A 
ATOM     13  C   UNL A   1      33.597  27.849  25.137  1.00  0.00     0.045 C 
BRANCH   7  14
ATOM     14  S   UNL A   1      32.279  21.884  25.767  1.00  0.00     0.243 S 
ATOM     15  O   UNL A   1      30.830  21.862  25.781  1.00  0.00    -0.207 OA
ATOM     16  O   UNL A   1      33.016  21.264  26.846  1.00  0.00    -0.207 OA
BRANCH  14  17
ATOM     17  N   UNL A   1      32.798  21.150  24.285  1.00  0.00    -0.198 NA
ATOM     18  C   UNL A   1      34.229  20.742  24.255  1.00  0.00     0.124 C 
BRANCH  17  19
ATOM     19  C   UNL A   1      32.427  21.879  23.001  1.00  0.00     0.069 C 
ATOM     20  C   UNL A   1      31.778  20.957  21.967  1.00  0.00     0.026 C 
BRANCH  19  21
ATOM     21  C   UNL A   1      33.616  22.679  22.446  1.00  0.00     0.016 C 
ATOM     22  C   UNL A   1      33.236  24.086  21.997  1.00  0.00     0.005 C 
ENDBRANCH  19  21
ENDBRANCH  17  19
ENDBRANCH  14  17
ENDBRANCH   7  14
ENDBRANCH   4   6
ENDBRANCH   3   4
ENDBRANCH   2   3
ENDBRANCH   1   2
BRANCH   1  23
ATOM     23  O   UNL A   1      30.784  29.798  24.438  1.00  0.00    -0.374 OA
BRANCH  23  24
ATOM     24  C   UNL A   1      30.685  31.091  25.034  1.00  0.00     0.202 C 
BRANCH  24  25
ATOM     25  C   UNL A   1      31.199  31.205  26.472  1.00  0.00     0.261 C 
BRANCH  25  26
ATOM     26  O   UNL A   1      32.632  31.116  26.540  1.00  0.00    -0.460 OA
BRANCH  26  27
ATOM     27  C   UNL A   1      33.219  32.116  27.245  1.00  0.00     0.338 C 
ATOM     28  O   UNL A   1      32.736  33.206  27.505  1.00  0.00    -0.246 OA
BRANCH  27  29
ATOM     29  C   UNL A   1      34.496  31.652  27.826  1.00  0.00     0.060 A 
ATOM     30  C   UNL A   1      34.583  30.297  28.163  1.00  0.00     0.016 A 
ATOM     31  C   UNL A   1      35.561  32.517  28.093  1.00  0.00     0.016 A 
ATOM     32  C   UNL A   1      35.713  29.811  28.815  1.00  0.00     0.010 A 
ATOM     33  C   UNL A   1      36.697  32.026  28.753  1.00  0.00     0.010 A 
ATOM     34  C   UNL A   1      36.762  30.679  29.148  1.00  0.00    -0.014 A 
BRANCH  34  35
ATOM     35  C   UNL A   1      37.852  30.173  30.020  1.00  0.00     0.031 A 
ATOM     36  C   UNL A   1      38.862  29.211  29.453  1.00  0.00     0.074 A 
ATOM     37  C   UNL A   1      37.986  30.631  31.278  1.00  0.00     0.049 A 
ATOM     38  N   UNL A   1      39.944  28.723  30.003  1.00  0.00    -0.248 NA
ATOM     39  C   UNL A   1      38.614  28.737  28.083  1.00  0.00     0.031 C 
ATOM     40  C   UNL A   1      37.083  31.579  31.930  1.00  0.00     0.029 A 
ATOM     41  N   UNL A   1      38.942  30.371  32.227  1.00  0.00    -0.354 N 
ATOM     42  C   UNL A   1      40.518  27.896  29.042  1.00  0.00     0.074 A 
ATOM     43  C   UNL A   1      39.632  27.911  27.896  1.00  0.00     0.031 C 
ATOM     44  C   UNL A   1      37.533  31.826  33.172  1.00  0.00     0.029 A 
ATOM     45  C   UNL A   1      38.744  31.043  33.410  1.00  0.00     0.049 A 
ATOM     46  H   UNL A   1      39.699  29.760  32.076  1.00  0.00     0.167 HD
ATOM     47  C   UNL A   1      41.683  27.204  29.103  1.00  0.00     0.034 A 
ATOM     48  C   UNL A   1      39.457  31.028  34.554  1.00  0.00     0.034 A 
ATOM     49  C   UNL A   1      42.547  27.183  30.259  1.00  0.00     0.049 A 
ATOM     50  C   UNL A   1      40.719  30.204  34.620  1.00  0.00     0.074 A 
ATOM     51  C   UNL A   1      43.755  26.527  30.423  1.00  0.00     0.029 A 
ATOM     52  N   UNL A   1      42.290  27.839  31.457  1.00  0.00    -0.354 N 
ATOM     53  N   UNL A   1      41.267  29.452  33.692  1.00  0.00    -0.248 NA
ATOM     54  C   UNL A   1      41.467  30.243  35.882  1.00  0.00     0.031 C 
ATOM     55  C   UNL A   1      44.193  26.731  31.737  1.00  0.00     0.029 A 
ATOM     56  C   UNL A   1      43.298  27.575  32.374  1.00  0.00     0.049 A 
ATOM     57  H   UNL A   1      41.505  28.408  31.630  1.00  0.00     0.167 HD
ATOM     58  C   UNL A   1      42.439  28.951  34.253  1.00  0.00     0.074 A 
ATOM     59  C   UNL A   1      42.526  29.503  35.590  1.00  0.00     0.031 C 
ATOM     60  C   UNL A   1      43.362  28.114  33.713  1.00  0.00     0.034 A 
BRANCH  47  61
ATOM     61  C   UNL A   1      42.057  26.377  27.897  1.00  0.00     0.023 A 
ATOM     62  C   UNL A   1      41.680  25.027  27.779  1.00  0.00     0.031 A 
ATOM     63  C   UNL A   1      42.831  26.936  26.864  1.00  0.00     0.131 A 
ATOM     64  C   UNL A   1      42.134  24.265  26.691  1.00  0.00     0.055 A 
ATOM     65  C   UNL A   1      43.216  26.193  25.747  1.00  0.00     0.041 A 
ATOM     66  F   UNL A   1      43.240  28.212  26.932  1.00  0.00    -0.206 F 
ATOM     67  C   UNL A   1      42.879  24.844  25.663  1.00  0.00     0.022 A 
BRANCH  64  68
ATOM     68  S   UNL A   1      41.854  22.472  26.709  1.00  0.00     0.124 S 
ATOM     69  O   UNL A   1      42.730  22.048  27.800  1.00  0.00    -0.237 OA
ATOM     70  O   UNL A   1      40.422  22.379  26.966  1.00  0.00    -0.237 OA
ATOM     71  O   UNL A   1      42.280  22.045  25.378  1.00  0.00    -0.744 OA
ENDBRANCH  64  68
ENDBRANCH  47  61
BRANCH  48  72
ATOM     72  C   UNL A   1      38.993  31.800  35.741  1.00  0.00     0.023 A 
ATOM     73  C   UNL A   1      38.285  31.182  36.783  1.00  0.00     0.031 A 
ATOM     74  C   UNL A   1      39.209  33.188  35.820  1.00  0.00     0.131 A 
ATOM     75  C   UNL A   1      37.779  31.957  37.839  1.00  0.00     0.055 A 
ATOM     76  C   UNL A   1      38.745  33.947  36.896  1.00  0.00     0.041 A 
ATOM     77  F   UNL A   1      39.883  33.826  34.850  1.00  0.00    -0.206 F 
ATOM     78  C   UNL A   1      38.013  33.333  37.907  1.00  0.00     0.022 A 
BRANCH  75  79
ATOM     79  S   UNL A   1      36.739  31.151  39.087  1.00  0.00     0.124 S 
ATOM     80  O   UNL A   1      35.580  32.036  39.128  1.00  0.00    -0.237 OA
ATOM     81  O   UNL A   1      36.522  29.836  38.496  1.00  0.00    -0.237 OA
ATOM     82  O   UNL A   1      37.576  31.163  40.285  1.00  0.00    -0.744 OA
ENDBRANCH  75  79
ENDBRANCH  48  72
BRANCH  60  83
ATOM     83  C   UNL A   1      44.560  27.776  34.569  1.00  0.00     0.023 A 
ATOM     84  C   UNL A   1      44.557  26.671  35.439  1.00  0.00     0.031 A 
ATOM     85  C   UNL A   1      45.705  28.591  34.541  1.00  0.00     0.131 A 
ATOM     86  C   UNL A   1      45.648  26.451  36.295  1.00  0.00     0.055 A 
ATOM     87  C   UNL A   1      46.813  28.331  35.349  1.00  0.00     0.041 A 
ATOM     88  F   UNL A   1      45.764  29.660  33.731  1.00  0.00    -0.206 F 
ATOM     89  C   UNL A   1      46.782  27.266  36.245  1.00  0.00     0.022 A 
BRANCH  86  90
ATOM     90  S   UNL A   1      45.517  25.152  37.555  1.00  0.00     0.124 S 
ATOM     91  O   UNL A   1      46.553  24.215  37.135  1.00  0.00    -0.237 OA
ATOM     92  O   UNL A   1      45.785  25.887  38.788  1.00  0.00    -0.237 OA
ATOM     93  O   UNL A   1      44.146  24.669  37.407  1.00  0.00    -0.744 OA
ENDBRANCH  86  90
ENDBRANCH  60  83
ENDBRANCH  34  35
ENDBRANCH  27  29
ENDBRANCH  26  27
ENDBRANCH  25  26
ENDBRANCH  24  25
ENDBRANCH  23  24
ENDBRANCH   1  23
TORSDOF 21
ENDMDL
MODEL 2
REMARK VINA RESULT:      -9.5      5.345      9.006
REMARK SMILES CC[C@@H](C)N(C)S(=O)(=O)c1cc(C(=O)OCCOCCOC(=O)c2ccc(-c3c4nc(c(-c5cc(S(=O)(=O)[O-])ccc5F)c5ccc([nH]5)c(-c5cc(S(=O)(=O)[O-])ccc5F)c5nc(c(-c6cc(S(=O)(=O)[O-])ccc6F)c6ccc3[nH]6)C=C5)C=C4)cc2)c(C)cc1C
REMARK SMILES IDX 17 1 16 2 15 3 13 4 14 5 12 6 10 7 11 8 90 9 89 10 91 11
REMARK SMILES IDX 87 12 88 13 7 14 8 15 9 16 5 17 6 18 3 19 4 20 2 21 1 22
REMARK SMILES IDX 18 23 19 24 20 25 21 26 22 27 23 28 24 29 25 30 86 31 26 32
REMARK SMILES IDX 85 33 27 34 28 35 29 36 79 37 30 38 84 39 78 40 80 41 31 42
REMARK SMILES IDX 83 43 77 44 76 45 32 47 64 48 44 49 63 50 45 51 48 52 62 53
REMARK SMILES IDX 81 54 46 55 47 56 61 58 82 59 49 60 33 61 34 62 42 63 35 64
REMARK SMILES IDX 41 65 43 66 40 67 36 68 37 69 38 70 39 71 65 72 66 73 74 74
REMARK SMILES IDX 67 75 73 76 75 77 72 78 68 79 69 80 70 81 71 82 50 83 51 84
REMARK SMILES IDX 59 85 52 86 58 87 60 88 57 89 53 90 54 91 55 92 56 93
REMARK H PARENT 80 46 48 57
REMARK Flexibility Score: inf
ROOT
ATOM      1  C   UNL A   1      39.141  21.347  25.804  1.00  0.00     0.202 C 
ENDROOT
BRANCH   1   2
ATOM      2  C   UNL A   1      38.497  22.717  26.030  1.00  0.00     0.261 C 
BRANCH   2   3
ATOM      3  O   UNL A   1      37.065  22.570  26.019  1.00  0.00    -0.460 OA
BRANCH   3   4
ATOM      4  C   UNL A   1      36.431  23.042  24.926  1.00  0.00     0.338 C 
ATOM      5  O   UNL A   1      36.936  23.275  23.839  1.00  0.00    -0.246 OA
BRANCH   4   6
ATOM      6  C   UNL A   1      34.956  23.026  25.132  1.00  0.00     0.064 A 
ATOM      7  C   UNL A   1      33.015  24.455  25.630  1.00  0.00     0.086 A 
ATOM      8  C   UNL A   1      34.393  24.284  25.406  1.00  0.00     0.038 A 
ATOM      9  C   UNL A   1      32.195  23.319  25.707  1.00  0.00    -0.031 A 
ATOM     10  C   UNL A   1      32.763  22.066  25.374  1.00  0.00     0.009 A 
ATOM     11  C   UNL A   1      30.749  23.308  26.119  1.00  0.00     0.046 C 
ATOM     12  C   UNL A   1      34.127  21.900  25.061  1.00  0.00    -0.036 A 
ATOM     13  C   UNL A   1      34.623  20.514  24.747  1.00  0.00     0.045 C 
BRANCH   7  14
ATOM     14  S   UNL A   1      32.489  26.148  25.941  1.00  0.00     0.243 S 
ATOM     15  O   UNL A   1      33.686  26.901  26.256  1.00  0.00    -0.207 OA
ATOM     16  O   UNL A   1      31.382  26.137  26.873  1.00  0.00    -0.207 OA
BRANCH  14  17
ATOM     17  N   UNL A   1      31.891  26.729  24.422  1.00  0.00    -0.198 NA
ATOM     18  C   UNL A   1      32.936  26.973  23.389  1.00  0.00     0.124 C 
BRANCH  17  19
ATOM     19  C   UNL A   1      30.917  27.897  24.477  1.00  0.00     0.069 C 
ATOM     20  C   UNL A   1      29.715  27.707  23.551  1.00  0.00     0.026 C 
BRANCH  19  21
ATOM     21  C   UNL A   1      31.638  29.240  24.276  1.00  0.00     0.016 C 
ATOM     22  C   UNL A   1      31.421  30.217  25.427  1.00  0.00     0.005 C 
ENDBRANCH  19  21
ENDBRANCH  17  19
ENDBRANCH  14  17
ENDBRANCH   7  14
ENDBRANCH   4   6
ENDBRANCH   3   4
ENDBRANCH   2   3
ENDBRANCH   1   2
BRANCH   1  23
ATOM     23  O   UNL A   1      40.009  20.922  26.862  1.00  0.00    -0.374 OA
BRANCH  23  24
ATOM     24  C   UNL A   1      40.901  19.849  26.564  1.00  0.00     0.202 C 
BRANCH  24  25
ATOM     25  C   UNL A   1      42.312  20.255  26.128  1.00  0.00     0.261 C 
BRANCH  25  26
ATOM     26  O   UNL A   1      42.728  21.490  26.734  1.00  0.00    -0.460 OA
BRANCH  26  27
ATOM     27  C   UNL A   1      42.828  22.530  25.868  1.00  0.00     0.338 C 
ATOM     28  O   UNL A   1      42.907  22.460  24.653  1.00  0.00    -0.246 OA
BRANCH  27  29
ATOM     29  C   UNL A   1      42.655  23.810  26.583  1.00  0.00     0.060 A 
ATOM     30  C   UNL A   1      42.517  24.961  25.798  1.00  0.00     0.016 A 
ATOM     31  C   UNL A   1      42.682  23.905  27.977  1.00  0.00     0.016 A 
ATOM     32  C   UNL A   1      42.462  26.214  26.401  1.00  0.00     0.010 A 
ATOM     33  C   UNL A   1      42.629  25.169  28.582  1.00  0.00     0.010 A 
ATOM     34  C   UNL A   1      42.554  26.331  27.795  1.00  0.00    -0.014 A 
BRANCH  34  35
ATOM     35  C   UNL A   1      42.698  27.685  28.386  1.00  0.00     0.031 A 
ATOM     36  C   UNL A   1      44.065  28.311  28.467  1.00  0.00     0.074 A 
ATOM     37  C   UNL A   1      41.612  28.380  28.769  1.00  0.00     0.049 A 
ATOM     38  N   UNL A   1      44.406  29.515  28.852  1.00  0.00    -0.248 NA
ATOM     39  C   UNL A   1      45.196  27.465  28.060  1.00  0.00     0.031 C 
ATOM     40  C   UNL A   1      40.236  27.886  28.719  1.00  0.00     0.029 A 
ATOM     41  N   UNL A   1      41.494  29.655  29.263  1.00  0.00    -0.354 N 
ATOM     42  C   UNL A   1      45.789  29.578  28.719  1.00  0.00     0.074 A 
ATOM     43  C   UNL A   1      46.225  28.272  28.269  1.00  0.00     0.031 C 
ATOM     44  C   UNL A   1      39.410  28.852  29.158  1.00  0.00     0.029 A 
ATOM     45  C   UNL A   1      40.198  30.023  29.537  1.00  0.00     0.049 A 
ATOM     46  H   UNL A   1      42.264  30.249  29.408  1.00  0.00     0.167 HD
ATOM     47  C   UNL A   1      46.616  30.630  28.937  1.00  0.00     0.034 A 
ATOM     48  C   UNL A   1      39.704  31.174  30.036  1.00  0.00     0.034 A 
ATOM     49  C   UNL A   1      46.170  31.921  29.404  1.00  0.00     0.049 A 
ATOM     50  C   UNL A   1      40.650  32.313  30.326  1.00  0.00     0.074 A 
ATOM     51  C   UNL A   1      46.921  33.059  29.644  1.00  0.00     0.029 A 
ATOM     52  N   UNL A   1      44.855  32.244  29.717  1.00  0.00    -0.354 N 
ATOM     53  N   UNL A   1      41.953  32.369  30.165  1.00  0.00    -0.248 NA
ATOM     54  C   UNL A   1      40.054  33.549  30.847  1.00  0.00     0.031 C 
ATOM     55  C   UNL A   1      46.073  34.045  30.163  1.00  0.00     0.029 A 
ATOM     56  C   UNL A   1      44.779  33.550  30.179  1.00  0.00     0.049 A 
ATOM     57  H   UNL A   1      44.089  31.633  29.624  1.00  0.00     0.167 HD
ATOM     58  C   UNL A   1      42.326  33.657  30.542  1.00  0.00     0.074 A 
ATOM     59  C   UNL A   1      41.108  34.347  30.916  1.00  0.00     0.031 C 
ATOM     60  C   UNL A   1      43.561  34.221  30.572  1.00  0.00     0.034 A 
BRANCH  47  61
ATOM     61  C   UNL A   1      48.093  30.405  28.713  1.00  0.00     0.023 A 
ATOM     62  C   UNL A   1      48.894  29.752  29.667  1.00  0.00     0.031 A 
ATOM     63  C   UNL A   1      48.715  30.878  27.544  1.00  0.00     0.131 A 
ATOM     64  C   UNL A   1      50.280  29.654  29.466  1.00  0.00     0.055 A 
ATOM     65  C   UNL A   1      50.081  30.709  27.316  1.00  0.00     0.041 A 
ATOM     66  F   UNL A   1      48.005  31.528  26.608  1.00  0.00    -0.206 F 
ATOM     67  C   UNL A   1      50.875  30.106  28.288  1.00  0.00     0.022 A 
BRANCH  64  68
ATOM     68  S   UNL A   1      51.314  29.050  30.831  1.00  0.00     0.124 S 
ATOM     69  O   UNL A   1      50.489  29.375  31.992  1.00  0.00    -0.237 OA
ATOM     70  O   UNL A   1      51.450  27.631  30.519  1.00  0.00    -0.237 OA
ATOM     71  O   UNL A   1      52.539  29.837  30.706  1.00  0.00    -0.744 OA
ENDBRANCH  64  68
ENDBRANCH  47  61
BRANCH  48  72
ATOM     72  C   UNL A   1      38.247  31.310  30.315  1.00  0.00     0.023 A 
ATOM     73  C   UNL A   1      37.350  31.736  29.323  1.00  0.00     0.031 A 
ATOM     74  C   UNL A   1      37.739  31.063  31.603  1.00  0.00     0.131 A 
ATOM     75  C   UNL A   1      35.999  31.946  29.646  1.00  0.00     0.055 A 
ATOM     76  C   UNL A   1      36.386  31.227  31.907  1.00  0.00     0.041 A 
ATOM     77  F   UNL A   1      38.555  30.650  32.587  1.00  0.00    -0.206 F 
ATOM     78  C   UNL A   1      35.510  31.684  30.929  1.00  0.00     0.022 A 
BRANCH  75  79
ATOM     79  S   UNL A   1      34.902  32.644  28.382  1.00  0.00     0.124 S 
ATOM     80  O   UNL A   1      35.840  33.385  27.547  1.00  0.00    -0.237 OA
ATOM     81  O   UNL A   1      34.324  31.443  27.789  1.00  0.00    -0.237 OA
ATOM     82  O   UNL A   1      33.971  33.464  29.155  1.00  0.00    -0.744 OA
ENDBRANCH  75  79
ENDBRANCH  48  72
BRANCH  60  83
ATOM     83  C   UNL A   1      43.640  35.668  30.998  1.00  0.00     0.023 A 
ATOM     84  C   UNL A   1      43.641  36.715  30.058  1.00  0.00     0.031 A 
ATOM     85  C   UNL A   1      43.752  36.002  32.359  1.00  0.00     0.131 A 
ATOM     86  C   UNL A   1      43.821  38.039  30.487  1.00  0.00     0.055 A 
ATOM     87  C   UNL A   1      43.868  37.326  32.784  1.00  0.00     0.041 A 
ATOM     88  F   UNL A   1      43.757  35.044  33.300  1.00  0.00    -0.206 F 
ATOM     89  C   UNL A   1      43.920  38.353  31.845  1.00  0.00     0.022 A 
BRANCH  86  90
ATOM     90  S   UNL A   1      44.039  39.336  29.237  1.00  0.00     0.124 S 
ATOM     91  O   UNL A   1      43.129  40.373  29.712  1.00  0.00    -0.237 OA
ATOM     92  O   UNL A   1      45.463  39.639  29.348  1.00  0.00    -0.237 OA
ATOM     93  O   UNL A   1      43.640  38.683  27.992  1.00  0.00    -0.744 OA
ENDBRANCH  86  90
ENDBRANCH  60  83
ENDBRANCH  34  35
ENDBRANCH  27  29
ENDBRANCH  26  27
ENDBRANCH  25  26
ENDBRANCH  24  25
ENDBRANCH  23  24
ENDBRANCH   1  23
TORSDOF 21
ENDMDL
MODEL 3
REMARK VINA RESULT:      -9.3      4.673     11.910
REMARK SMILES CC[C@@H](C)N(C)S(=O)(=O)c1cc(C(=O)OCCOCCOC(=O)c2ccc(-c3c4nc(c(-c5cc(S(=O)(=O)[O-])ccc5F)c5ccc([nH]5)c(-c5cc(S(=O)(=O)[O-])ccc5F)c5nc(c(-c6cc(S(=O)(=O)[O-])ccc6F)c6ccc3[nH]6)C=C5)C=C4)cc2)c(C)cc1C
REMARK SMILES IDX 17 1 16 2 15 3 13 4 14 5 12 6 10 7 11 8 90 9 89 10 91 11
REMARK SMILES IDX 87 12 88 13 7 14 8 15 9 16 5 17 6 18 3 19 4 20 2 21 1 22
REMARK SMILES IDX 18 23 19 24 20 25 21 26 22 27 23 28 24 29 25 30 86 31 26 32
REMARK SMILES IDX 85 33 27 34 28 35 29 36 79 37 30 38 84 39 78 40 80 41 31 42
REMARK SMILES IDX 83 43 77 44 76 45 32 47 64 48 44 49 63 50 45 51 48 52 62 53
REMARK SMILES IDX 81 54 46 55 47 56 61 58 82 59 49 60 33 61 34 62 42 63 35 64
REMARK SMILES IDX 41 65 43 66 40 67 36 68 37 69 38 70 39 71 65 72 66 73 74 74
REMARK SMILES IDX 67 75 73 76 75 77 72 78 68 79 69 80 70 81 71 82 50 83 51 84
REMARK SMILES IDX 59 85 52 86 58 87 60 88 57 89 53 90 54 91 55 92 56 93
REMARK H PARENT 80 46 48 57
REMARK Flexibility Score: inf
ROOT
ATOM      1  C   UNL A   1      35.343  34.391  34.180  1.00  0.00     0.202 C 
ENDROOT
BRANCH   1   2
ATOM      2  C   UNL A   1      36.453  34.317  35.230  1.00  0.00     0.261 C 
BRANCH   2   3
ATOM      3  O   UNL A   1      36.581  32.958  35.684  1.00  0.00    -0.460 OA
BRANCH   3   4
ATOM      4  C   UNL A   1      37.831  32.550  35.983  1.00  0.00     0.338 C 
ATOM      5  O   UNL A   1      38.409  31.582  35.515  1.00  0.00    -0.246 OA
BRANCH   4   6
ATOM      6  C   UNL A   1      38.533  33.577  36.802  1.00  0.00     0.064 A 
ATOM      7  C   UNL A   1      38.833  34.407  39.099  1.00  0.00     0.086 A 
ATOM      8  C   UNL A   1      38.259  33.512  38.179  1.00  0.00     0.038 A 
ATOM      9  C   UNL A   1      39.604  35.476  38.616  1.00  0.00    -0.031 A 
ATOM     10  C   UNL A   1      39.917  35.498  37.236  1.00  0.00     0.009 A 
ATOM     11  C   UNL A   1      40.131  36.617  39.439  1.00  0.00     0.046 C 
ATOM     12  C   UNL A   1      39.416  34.551  36.319  1.00  0.00    -0.036 A 
ATOM     13  C   UNL A   1      39.798  34.691  34.871  1.00  0.00     0.045 C 
BRANCH   7  14
ATOM     14  S   UNL A   1      38.375  34.141  40.820  1.00  0.00     0.243 S 
ATOM     15  O   UNL A   1      38.013  35.438  41.354  1.00  0.00    -0.207 OA
ATOM     16  O   UNL A   1      39.404  33.359  41.470  1.00  0.00    -0.207 OA
BRANCH  14  17
ATOM     17  N   UNL A   1      36.936  33.178  40.768  1.00  0.00    -0.198 NA
ATOM     18  C   UNL A   1      35.851  33.620  41.687  1.00  0.00     0.124 C 
BRANCH  17  19
ATOM     19  C   UNL A   1      37.126  31.670  40.858  1.00  0.00     0.069 C 
ATOM     20  C   UNL A   1      36.405  30.917  39.739  1.00  0.00     0.026 C 
BRANCH  19  21
ATOM     21  C   UNL A   1      36.790  31.145  42.263  1.00  0.00     0.016 C 
ATOM     22  C   UNL A   1      37.926  30.347  42.894  1.00  0.00     0.005 C 
ENDBRANCH  19  21
ENDBRANCH  17  19
ENDBRANCH  14  17
ENDBRANCH   7  14
ENDBRANCH   4   6
ENDBRANCH   3   4
ENDBRANCH   2   3
ENDBRANCH   1   2
BRANCH   1  23
ATOM     23  O   UNL A   1      35.689  35.140  33.008  1.00  0.00    -0.374 OA
BRANCH  23  24
ATOM     24  C   UNL A   1      35.676  34.431  31.769  1.00  0.00     0.202 C 
BRANCH  24  25
ATOM     25  C   UNL A   1      34.293  34.064  31.225  1.00  0.00     0.261 C 
BRANCH  25  26
ATOM     26  O   UNL A   1      34.229  32.694  30.796  1.00  0.00    -0.460 OA
BRANCH  26  27
ATOM     27  C   UNL A   1      34.692  32.482  29.537  1.00  0.00     0.338 C 
ATOM     28  O   UNL A   1      34.232  32.941  28.506  1.00  0.00    -0.246 OA
BRANCH  27  29
ATOM     29  C   UNL A   1      35.966  31.736  29.579  1.00  0.00     0.060 A 
ATOM     30  C   UNL A   1      36.013  30.608  30.406  1.00  0.00     0.016 A 
ATOM     31  C   UNL A   1      37.105  32.149  28.881  1.00  0.00     0.016 A 
ATOM     32  C   UNL A   1      37.211  29.920  30.581  1.00  0.00     0.010 A 
ATOM     33  C   UNL A   1      38.311  31.457  29.061  1.00  0.00     0.010 A 
ATOM     34  C   UNL A   1      38.376  30.361  29.939  1.00  0.00    -0.014 A 
BRANCH  34  35
ATOM     35  C   UNL A   1      39.670  29.733  30.308  1.00  0.00     0.031 A 
ATOM     36  C   UNL A   1      40.400  30.215  31.533  1.00  0.00     0.074 A 
ATOM     37  C   UNL A   1      40.145  28.690  29.604  1.00  0.00     0.049 A 
ATOM     38  N   UNL A   1      41.487  29.746  32.091  1.00  0.00    -0.248 NA
ATOM     39  C   UNL A   1      39.826  31.382  32.218  1.00  0.00     0.031 C 
ATOM     40  C   UNL A   1      39.517  28.121  28.411  1.00  0.00     0.029 A 
ATOM     41  N   UNL A   1      41.260  27.913  29.798  1.00  0.00    -0.354 N 
ATOM     42  C   UNL A   1      41.720  30.549  33.203  1.00  0.00     0.074 A 
ATOM     43  C   UNL A   1      40.689  31.567  33.205  1.00  0.00     0.031 C 
ATOM     44  C   UNL A   1      40.253  27.081  27.985  1.00  0.00     0.029 A 
ATOM     45  C   UNL A   1      41.412  26.920  28.860  1.00  0.00     0.049 A 
ATOM     46  H   UNL A   1      41.892  28.054  30.539  1.00  0.00     0.167 HD
ATOM     47  C   UNL A   1      42.692  30.439  34.142  1.00  0.00     0.034 A 
ATOM     48  C   UNL A   1      42.376  25.988  28.723  1.00  0.00     0.034 A 
ATOM     49  C   UNL A   1      43.725  29.431  34.116  1.00  0.00     0.049 A 
ATOM     50  C   UNL A   1      43.482  25.920  29.747  1.00  0.00     0.074 A 
ATOM     51  C   UNL A   1      44.749  29.221  35.024  1.00  0.00     0.029 A 
ATOM     52  N   UNL A   1      43.875  28.470  33.124  1.00  0.00    -0.354 N 
ATOM     53  N   UNL A   1      43.671  26.667  30.811  1.00  0.00    -0.248 NA
ATOM     54  C   UNL A   1      44.491  24.871  29.560  1.00  0.00     0.031 C 
ATOM     55  C   UNL A   1      45.555  28.180  34.547  1.00  0.00     0.029 A 
ATOM     56  C   UNL A   1      44.993  27.688  33.379  1.00  0.00     0.049 A 
ATOM     57  H   UNL A   1      43.275  28.361  32.351  1.00  0.00     0.167 HD
ATOM     58  C   UNL A   1      44.809  26.158  31.434  1.00  0.00     0.074 A 
ATOM     59  C   UNL A   1      45.246  25.030  30.637  1.00  0.00     0.031 C 
ATOM     60  C   UNL A   1      45.433  26.580  32.563  1.00  0.00     0.034 A 
BRANCH  47  61
ATOM     61  C   UNL A   1      42.703  31.469  35.247  1.00  0.00     0.023 A 
ATOM     62  C   UNL A   1      43.497  32.628  35.170  1.00  0.00     0.031 A 
ATOM     63  C   UNL A   1      41.935  31.273  36.408  1.00  0.00     0.131 A 
ATOM     64  C   UNL A   1      43.557  33.508  36.262  1.00  0.00     0.055 A 
ATOM     65  C   UNL A   1      41.941  32.191  37.459  1.00  0.00     0.041 A 
ATOM     66  F   UNL A   1      41.176  30.174  36.547  1.00  0.00    -0.206 F 
ATOM     67  C   UNL A   1      42.767  33.310  37.396  1.00  0.00     0.022 A 
BRANCH  64  68
ATOM     68  S   UNL A   1      44.788  34.841  36.236  1.00  0.00     0.124 S 
ATOM     69  O   UNL A   1      44.283  35.728  37.282  1.00  0.00    -0.237 OA
ATOM     70  O   UNL A   1      46.026  34.133  36.539  1.00  0.00    -0.237 OA
ATOM     71  O   UNL A   1      44.688  35.373  34.878  1.00  0.00    -0.744 OA
ENDBRANCH  64  68
ENDBRANCH  47  61
BRANCH  48  72
ATOM     72  C   UNL A   1      42.358  25.051  27.564  1.00  0.00     0.023 A 
ATOM     73  C   UNL A   1      41.542  23.909  27.560  1.00  0.00     0.031 A 
ATOM     74  C   UNL A   1      43.206  25.261  26.461  1.00  0.00     0.131 A 
ATOM     75  C   UNL A   1      41.622  22.997  26.496  1.00  0.00     0.055 A 
ATOM     76  C   UNL A   1      43.246  24.376  25.382  1.00  0.00     0.041 A 
ATOM     77  F   UNL A   1      44.004  26.340  26.415  1.00  0.00    -0.206 F 
ATOM     78  C   UNL A   1      42.461  23.229  25.402  1.00  0.00     0.022 A 
BRANCH  75  79
ATOM     79  S   UNL A   1      40.668  21.458  26.597  1.00  0.00     0.124 S 
ATOM     80  O   UNL A   1      41.512  20.532  25.851  1.00  0.00    -0.237 OA
ATOM     81  O   UNL A   1      40.594  21.242  28.038  1.00  0.00    -0.237 OA
ATOM     82  O   UNL A   1      39.400  21.801  25.956  1.00  0.00    -0.744 OA
ENDBRANCH  75  79
ENDBRANCH  48  72
BRANCH  60  83
ATOM     83  C   UNL A   1      46.640  25.790  33.011  1.00  0.00     0.023 A 
ATOM     84  C   UNL A   1      46.524  24.706  33.900  1.00  0.00     0.031 A 
ATOM     85  C   UNL A   1      47.926  26.148  32.571  1.00  0.00     0.131 A 
ATOM     86  C   UNL A   1      47.679  24.064  34.374  1.00  0.00     0.055 A 
ATOM     87  C   UNL A   1      49.067  25.465  32.997  1.00  0.00     0.041 A 
ATOM     88  F   UNL A   1      48.098  27.175  31.722  1.00  0.00    -0.206 F 
ATOM     89  C   UNL A   1      48.948  24.427  33.917  1.00  0.00     0.022 A 
BRANCH  86  90
ATOM     90  S   UNL A   1      47.507  22.821  35.685  1.00  0.00     0.124 S 
ATOM     91  O   UNL A   1      48.040  21.625  35.042  1.00  0.00    -0.237 OA
ATOM     92  O   UNL A   1      48.321  23.385  36.758  1.00  0.00    -0.237 OA
ATOM     93  O   UNL A   1      46.069  22.796  35.946  1.00  0.00    -0.744 OA
ENDBRANCH  86  90
ENDBRANCH  60  83
ENDBRANCH  34  35
ENDBRANCH  27  29
ENDBRANCH  26  27
ENDBRANCH  25  26
ENDBRANCH  24  25
ENDBRANCH  23  24
ENDBRANCH   1  23
TORSDOF 21
ENDMDL
