MODEL 1
REMARK VINA RESULT:     -11.6      0.000      0.000
REMARK SMILES Cc1cc(N2CCCC2)nc2sc3c(=O)n(CC(=O)OCCOCCOC(=O)c4ccc(-c5c6nc(c(-c7cc(S(=O)(=O)[O-])ccc7F)c7ccc([nH]7)c(-c7cc(S(=O)(=O)[O-])ccc7F)c7nc(c(-c8cc(S(=O)(=O)[O-])ccc8F)c8ccc5[nH]8)C=C7)C=C6)cc4)cnc3c12
REMARK SMILES IDX 24 1 23 2 22 3 21 4 20 5 18 6 19 7 17 8 16 9 1 10 2 11 3 12
REMARK SMILES IDX 95 13 4 14 11 15 94 16 10 17 12 18 13 19 93 20 14 21 92 22
REMARK SMILES IDX 15 23 5 24 6 25 9 26 7 27 8 28 25 29 26 30 27 31 28 32 29 33
REMARK SMILES IDX 30 34 91 35 31 36 90 37 32 38 33 39 34 40 84 41 35 42 89 43
REMARK SMILES IDX 83 44 85 45 36 46 88 47 82 48 81 49 37 51 69 52 49 53 68 54
REMARK SMILES IDX 50 55 53 56 67 57 86 58 51 59 52 60 66 62 87 63 54 64 38 65
REMARK SMILES IDX 39 66 47 67 40 68 46 69 48 70 45 71 41 72 42 73 43 74 44 75
REMARK SMILES IDX 70 76 71 77 79 78 72 79 78 80 80 81 77 82 73 83 74 84 75 85
REMARK SMILES IDX 76 86 55 87 56 88 64 89 57 90 63 91 65 92 62 93 58 94 59 95
REMARK SMILES IDX 60 96 61 97
REMARK H PARENT 85 50 53 61
REMARK Flexibility Score: inf
ROOT
ATOM      1  C   UNL A   1      38.066  21.676  25.051  1.00  0.00     0.202 C 
ENDROOT
BRANCH   1   2
ATOM      2  O   UNL A   1      36.987  22.577  24.851  1.00  0.00    -0.374 OA
BRANCH   2   3
ATOM      3  C   UNL A   1      35.806  22.083  24.230  1.00  0.00     0.202 C 
BRANCH   3   4
ATOM      4  C   UNL A   1      34.894  21.155  25.042  1.00  0.00     0.261 C 
BRANCH   4   5
ATOM      5  O   UNL A   1      34.909  21.415  26.460  1.00  0.00    -0.462 OA
BRANCH   5   6
ATOM      6  C   UNL A   1      33.715  21.789  26.990  1.00  0.00     0.326 C 
ATOM      7  O   UNL A   1      33.509  21.980  28.186  1.00  0.00    -0.250 OA
BRANCH   6   8
ATOM      8  C   UNL A   1      32.615  22.044  25.962  1.00  0.00     0.249 C 
BRANCH   8   9
ATOM      9  N   UNL A   1      32.287  23.407  25.561  1.00  0.00    -0.287 N 
ATOM     10  C   UNL A   1      31.886  28.930  26.433  1.00  0.00     0.045 C 
ATOM     11  C   UNL A   1      31.205  28.563  25.144  1.00  0.00    -0.035 A 
ATOM     12  C   UNL A   1      30.619  29.598  24.399  1.00  0.00     0.051 A 
ATOM     13  C   UNL A   1      31.114  27.264  24.593  1.00  0.00     0.041 A 
ATOM     14  C   UNL A   1      29.920  29.353  23.219  1.00  0.00     0.130 A 
ATOM     15  C   UNL A   1      30.457  27.146  23.366  1.00  0.00     0.128 A 
ATOM     16  C   UNL A   1      31.524  25.965  25.027  1.00  0.00     0.098 A 
ATOM     17  N   UNL A   1      29.802  28.121  22.698  1.00  0.00    -0.220 NA
ATOM     18  S   UNL A   1      30.556  25.563  22.711  1.00  0.00    -0.108 S 
ATOM     19  C   UNL A   1      31.378  24.992  24.076  1.00  0.00     0.121 A 
ATOM     20  N   UNL A   1      32.011  25.672  26.310  1.00  0.00    -0.236 NA
ATOM     21  C   UNL A   1      31.816  23.637  24.270  1.00  0.00     0.271 A 
ATOM     22  C   UNL A   1      32.321  24.428  26.491  1.00  0.00     0.203 A 
ATOM     23  O   UNL A   1      31.752  22.740  23.428  1.00  0.00    -0.268 OA
BRANCH  14  24
ATOM     24  N   UNL A   1      29.281  30.410  22.623  1.00  0.00    -0.357 N 
ATOM     25  C   UNL A   1      28.373  30.247  21.504  1.00  0.00     0.118 C 
ATOM     26  C   UNL A   1      29.129  31.700  23.261  1.00  0.00     0.118 C 
ATOM     27  C   UNL A   1      28.317  31.670  20.963  1.00  0.00     0.023 C 
ATOM     28  C   UNL A   1      28.355  32.531  22.225  1.00  0.00     0.023 C 
ENDBRANCH  14  24
ENDBRANCH   8   9
ENDBRANCH   6   8
ENDBRANCH   5   6
ENDBRANCH   4   5
ENDBRANCH   3   4
ENDBRANCH   2   3
ENDBRANCH   1   2
BRANCH   1  29
ATOM     29  C   UNL A   1      38.945  21.733  26.314  1.00  0.00     0.261 C 
BRANCH  29  30
ATOM     30  O   UNL A   1      40.330  21.425  26.161  1.00  0.00    -0.460 OA
BRANCH  30  31
ATOM     31  C   UNL A   1      41.073  21.963  27.163  1.00  0.00     0.338 C 
ATOM     32  O   UNL A   1      41.761  21.348  27.962  1.00  0.00    -0.246 OA
BRANCH  31  33
ATOM     33  C   UNL A   1      41.055  23.428  27.128  1.00  0.00     0.060 A 
ATOM     34  C   UNL A   1      41.798  24.068  26.128  1.00  0.00     0.016 A 
ATOM     35  C   UNL A   1      40.530  24.141  28.198  1.00  0.00     0.016 A 
ATOM     36  C   UNL A   1      42.084  25.426  26.239  1.00  0.00     0.010 A 
ATOM     37  C   UNL A   1      40.849  25.493  28.317  1.00  0.00     0.010 A 
ATOM     38  C   UNL A   1      41.651  26.146  27.360  1.00  0.00    -0.014 A 
BRANCH  38  39
ATOM     39  C   UNL A   1      42.000  27.587  27.482  1.00  0.00     0.031 A 
ATOM     40  C   UNL A   1      40.822  28.494  27.622  1.00  0.00     0.074 A 
ATOM     41  C   UNL A   1      43.194  28.016  27.958  1.00  0.00     0.049 A 
ATOM     42  N   UNL A   1      40.169  28.573  28.744  1.00  0.00    -0.248 NA
ATOM     43  C   UNL A   1      40.130  29.109  26.493  1.00  0.00     0.031 C 
ATOM     44  C   UNL A   1      44.054  27.205  28.834  1.00  0.00     0.029 A 
ATOM     45  N   UNL A   1      43.771  29.272  27.996  1.00  0.00    -0.354 N 
ATOM     46  C   UNL A   1      38.953  29.165  28.478  1.00  0.00     0.074 A 
ATOM     47  C   UNL A   1      38.988  29.518  27.073  1.00  0.00     0.031 C 
ATOM     48  C   UNL A   1      44.921  28.020  29.470  1.00  0.00     0.029 A 
ATOM     49  C   UNL A   1      44.787  29.381  28.954  1.00  0.00     0.049 A 
ATOM     50  H   UNL A   1      43.497  30.013  27.408  1.00  0.00     0.167 HD
ATOM     51  C   UNL A   1      37.989  29.298  29.429  1.00  0.00     0.034 A 
ATOM     52  C   UNL A   1      45.042  30.500  29.697  1.00  0.00     0.034 A 
ATOM     53  C   UNL A   1      38.315  28.749  30.719  1.00  0.00     0.049 A 
ATOM     54  C   UNL A   1      43.800  30.554  30.561  1.00  0.00     0.074 A 
ATOM     55  C   UNL A   1      38.078  27.587  31.422  1.00  0.00     0.029 A 
ATOM     56  N   UNL A   1      39.169  29.463  31.529  1.00  0.00    -0.354 N 
ATOM     57  N   UNL A   1      43.525  29.797  31.590  1.00  0.00    -0.248 NA
ATOM     58  C   UNL A   1      42.656  31.287  30.016  1.00  0.00     0.031 C 
ATOM     59  C   UNL A   1      39.161  27.474  32.356  1.00  0.00     0.029 A 
ATOM     60  C   UNL A   1      40.010  28.558  32.137  1.00  0.00     0.049 A 
ATOM     61  H   UNL A   1      39.178  30.439  31.650  1.00  0.00     0.167 HD
ATOM     62  C   UNL A   1      42.128  29.745  31.650  1.00  0.00     0.074 A 
ATOM     63  C   UNL A   1      41.663  30.693  30.659  1.00  0.00     0.031 C 
ATOM     64  C   UNL A   1      41.418  28.825  32.371  1.00  0.00     0.034 A 
BRANCH  51  65
ATOM     65  C   UNL A   1      36.805  30.166  29.255  1.00  0.00     0.023 A 
ATOM     66  C   UNL A   1      36.616  31.390  29.910  1.00  0.00     0.031 A 
ATOM     67  C   UNL A   1      35.889  29.779  28.259  1.00  0.00     0.131 A 
ATOM     68  C   UNL A   1      35.527  32.197  29.535  1.00  0.00     0.055 A 
ATOM     69  C   UNL A   1      34.820  30.584  27.887  1.00  0.00     0.041 A 
ATOM     70  F   UNL A   1      36.058  28.616  27.605  1.00  0.00    -0.206 F 
ATOM     71  C   UNL A   1      34.638  31.804  28.523  1.00  0.00     0.022 A 
BRANCH  68  72
ATOM     72  S   UNL A   1      35.232  33.818  30.299  1.00  0.00     0.124 S 
ATOM     73  O   UNL A   1      36.510  34.090  30.954  1.00  0.00    -0.237 OA
ATOM     74  O   UNL A   1      34.939  34.649  29.134  1.00  0.00    -0.237 OA
ATOM     75  O   UNL A   1      34.109  33.580  31.198  1.00  0.00    -0.744 OA
ENDBRANCH  68  72
ENDBRANCH  51  65
BRANCH  52  76
ATOM     76  C   UNL A   1      45.532  31.715  28.954  1.00  0.00     0.023 A 
ATOM     77  C   UNL A   1      44.850  32.308  27.876  1.00  0.00     0.031 A 
ATOM     78  C   UNL A   1      46.756  32.310  29.326  1.00  0.00     0.131 A 
ATOM     79  C   UNL A   1      45.479  33.287  27.088  1.00  0.00     0.055 A 
ATOM     80  C   UNL A   1      47.351  33.333  28.582  1.00  0.00     0.041 A 
ATOM     81  F   UNL A   1      47.408  31.898  30.427  1.00  0.00    -0.206 F 
ATOM     82  C   UNL A   1      46.730  33.799  27.431  1.00  0.00     0.022 A 
BRANCH  79  83
ATOM     83  S   UNL A   1      44.714  33.858  25.545  1.00  0.00     0.124 S 
ATOM     84  O   UNL A   1      45.751  34.714  24.973  1.00  0.00    -0.237 OA
ATOM     85  O   UNL A   1      44.489  32.591  24.854  1.00  0.00    -0.237 OA
ATOM     86  O   UNL A   1      43.515  34.553  26.001  1.00  0.00    -0.744 OA
ENDBRANCH  79  83
ENDBRANCH  52  76
BRANCH  64  87
ATOM     87  C   UNL A   1      42.213  27.940  33.289  1.00  0.00     0.023 A 
ATOM     88  C   UNL A   1      43.158  27.018  32.797  1.00  0.00     0.031 A 
ATOM     89  C   UNL A   1      41.972  27.964  34.673  1.00  0.00     0.131 A 
ATOM     90  C   UNL A   1      43.786  26.122  33.678  1.00  0.00     0.055 A 
ATOM     91  C   UNL A   1      42.639  27.108  35.550  1.00  0.00     0.041 A 
ATOM     92  F   UNL A   1      41.051  28.792  35.193  1.00  0.00    -0.206 F 
ATOM     93  C   UNL A   1      43.542  26.173  35.054  1.00  0.00     0.022 A 
BRANCH  90  94
ATOM     94  S   UNL A   1      44.897  24.822  33.070  1.00  0.00     0.124 S 
ATOM     95  O   UNL A   1      45.578  25.481  31.957  1.00  0.00    -0.237 OA
ATOM     96  O   UNL A   1      45.733  24.567  34.242  1.00  0.00    -0.237 OA
ATOM     97  O   UNL A   1      44.001  23.734  32.695  1.00  0.00    -0.744 OA
ENDBRANCH  90  94
ENDBRANCH  64  87
ENDBRANCH  38  39
ENDBRANCH  31  33
ENDBRANCH  30  31
ENDBRANCH  29  30
ENDBRANCH   1  29
TORSDOF 19
ENDMDL
MODEL 2
REMARK VINA RESULT:     -11.2      4.069      7.062
REMARK SMILES Cc1cc(N2CCCC2)nc2sc3c(=O)n(CC(=O)OCCOCCOC(=O)c4ccc(-c5c6nc(c(-c7cc(S(=O)(=O)[O-])ccc7F)c7ccc([nH]7)c(-c7cc(S(=O)(=O)[O-])ccc7F)c7nc(c(-c8cc(S(=O)(=O)[O-])ccc8F)c8ccc5[nH]8)C=C7)C=C6)cc4)cnc3c12
REMARK SMILES IDX 24 1 23 2 22 3 21 4 20 5 18 6 19 7 17 8 16 9 1 10 2 11 3 12
REMARK SMILES IDX 95 13 4 14 11 15 94 16 10 17 12 18 13 19 93 20 14 21 92 22
REMARK SMILES IDX 15 23 5 24 6 25 9 26 7 27 8 28 25 29 26 30 27 31 28 32 29 33
REMARK SMILES IDX 30 34 91 35 31 36 90 37 32 38 33 39 34 40 84 41 35 42 89 43
REMARK SMILES IDX 83 44 85 45 36 46 88 47 82 48 81 49 37 51 69 52 49 53 68 54
REMARK SMILES IDX 50 55 53 56 67 57 86 58 51 59 52 60 66 62 87 63 54 64 38 65
REMARK SMILES IDX 39 66 47 67 40 68 46 69 48 70 45 71 41 72 42 73 43 74 44 75
REMARK SMILES IDX 70 76 71 77 79 78 72 79 78 80 80 81 77 82 73 83 74 84 75 85
REMARK SMILES IDX 76 86 55 87 56 88 64 89 57 90 63 91 65 92 62 93 58 94 59 95
REMARK SMILES IDX 60 96 61 97
REMARK H PARENT 85 50 53 61
REMARK Flexibility Score: inf
ROOT
ATOM      1  C   UNL A   1      45.345  26.322  25.806  1.00  0.00     0.202 C 
ENDROOT
BRANCH   1   2
ATOM      2  O   UNL A   1      44.026  25.851  26.041  1.00  0.00    -0.374 OA
BRANCH   2   3
ATOM      3  C   UNL A   1      43.446  24.976  25.082  1.00  0.00     0.202 C 
BRANCH   3   4
ATOM      4  C   UNL A   1      44.049  23.574  24.922  1.00  0.00     0.261 C 
BRANCH   4   5
ATOM      5  O   UNL A   1      43.910  22.741  26.090  1.00  0.00    -0.462 OA
BRANCH   5   6
ATOM      6  C   UNL A   1      43.337  21.528  25.868  1.00  0.00     0.326 C 
ATOM      7  O   UNL A   1      43.661  20.756  24.968  1.00  0.00    -0.250 OA
BRANCH   6   8
ATOM      8  C   UNL A   1      42.275  21.129  26.889  1.00  0.00     0.249 C 
BRANCH   8   9
ATOM      9  N   UNL A   1      40.859  21.240  26.557  1.00  0.00    -0.287 N 
ATOM     10  C   UNL A   1      35.942  19.183  24.821  1.00  0.00     0.045 C 
ATOM     11  C   UNL A   1      35.868  20.681  24.915  1.00  0.00    -0.035 A 
ATOM     12  C   UNL A   1      34.650  21.294  24.583  1.00  0.00     0.051 A 
ATOM     13  C   UNL A   1      36.911  21.540  25.329  1.00  0.00     0.041 A 
ATOM     14  C   UNL A   1      34.496  22.679  24.588  1.00  0.00     0.130 A 
ATOM     15  C   UNL A   1      36.621  22.906  25.370  1.00  0.00     0.128 A 
ATOM     16  C   UNL A   1      38.276  21.344  25.704  1.00  0.00     0.098 A 
ATOM     17  N   UNL A   1      35.487  23.509  24.952  1.00  0.00    -0.220 NA
ATOM     18  S   UNL A   1      37.897  23.834  26.046  1.00  0.00    -0.108 S 
ATOM     19  C   UNL A   1      38.880  22.466  26.204  1.00  0.00     0.121 A 
ATOM     20  N   UNL A   1      38.974  20.134  25.563  1.00  0.00    -0.236 NA
ATOM     21  C   UNL A   1      40.218  22.466  26.727  1.00  0.00     0.271 A 
ATOM     22  C   UNL A   1      40.204  20.179  25.962  1.00  0.00     0.203 A 
ATOM     23  O   UNL A   1      40.786  23.436  27.233  1.00  0.00    -0.268 OA
BRANCH  14  24
ATOM     24  N   UNL A   1      33.308  23.192  24.135  1.00  0.00    -0.357 N 
ATOM     25  C   UNL A   1      33.226  24.106  23.012  1.00  0.00     0.118 C 
ATOM     26  C   UNL A   1      32.024  22.602  24.448  1.00  0.00     0.118 C 
ATOM     27  C   UNL A   1      31.836  24.696  23.215  1.00  0.00     0.023 C 
ATOM     28  C   UNL A   1      31.017  23.509  23.722  1.00  0.00     0.023 C 
ENDBRANCH  14  24
ENDBRANCH   8   9
ENDBRANCH   6   8
ENDBRANCH   5   6
ENDBRANCH   4   5
ENDBRANCH   3   4
ENDBRANCH   2   3
ENDBRANCH   1   2
BRANCH   1  29
ATOM     29  C   UNL A   1      45.649  27.820  25.620  1.00  0.00     0.261 C 
BRANCH  29  30
ATOM     30  O   UNL A   1      44.638  28.747  26.016  1.00  0.00    -0.460 OA
BRANCH  30  31
ATOM     31  C   UNL A   1      45.140  30.000  26.157  1.00  0.00     0.338 C 
ATOM     32  O   UNL A   1      46.089  30.471  25.550  1.00  0.00    -0.246 OA
BRANCH  31  33
ATOM     33  C   UNL A   1      44.332  30.811  27.074  1.00  0.00     0.060 A 
ATOM     34  C   UNL A   1      44.636  32.173  27.182  1.00  0.00     0.016 A 
ATOM     35  C   UNL A   1      43.478  30.193  27.977  1.00  0.00     0.016 A 
ATOM     36  C   UNL A   1      44.138  32.912  28.253  1.00  0.00     0.010 A 
ATOM     37  C   UNL A   1      43.011  30.931  29.063  1.00  0.00     0.010 A 
ATOM     38  C   UNL A   1      43.356  32.287  29.233  1.00  0.00    -0.014 A 
BRANCH  38  39
ATOM     39  C   UNL A   1      42.866  33.082  30.392  1.00  0.00     0.031 A 
ATOM     40  C   UNL A   1      41.393  33.327  30.389  1.00  0.00     0.074 A 
ATOM     41  C   UNL A   1      43.516  33.125  31.580  1.00  0.00     0.049 A 
ATOM     42  N   UNL A   1      40.557  32.382  30.703  1.00  0.00    -0.248 NA
ATOM     43  C   UNL A   1      40.764  34.487  29.764  1.00  0.00     0.031 C 
ATOM     44  C   UNL A   1      44.444  32.078  32.033  1.00  0.00     0.029 A 
ATOM     45  N   UNL A   1      43.330  33.912  32.701  1.00  0.00    -0.354 N 
ATOM     46  C   UNL A   1      39.310  32.763  30.256  1.00  0.00     0.074 A 
ATOM     47  C   UNL A   1      39.478  34.096  29.715  1.00  0.00     0.031 C 
ATOM     48  C   UNL A   1      44.588  32.171  33.371  1.00  0.00     0.029 A 
ATOM     49  C   UNL A   1      43.889  33.359  33.860  1.00  0.00     0.049 A 
ATOM     50  H   UNL A   1      42.854  34.774  32.687  1.00  0.00     0.167 HD
ATOM     51  C   UNL A   1      38.229  31.940  30.338  1.00  0.00     0.034 A 
ATOM     52  C   UNL A   1      43.346  33.455  35.111  1.00  0.00     0.034 A 
ATOM     53  C   UNL A   1      38.486  30.637  30.892  1.00  0.00     0.049 A 
ATOM     54  C   UNL A   1      42.098  32.616  34.943  1.00  0.00     0.074 A 
ATOM     55  C   UNL A   1      38.734  29.363  30.428  1.00  0.00     0.029 A 
ATOM     56  N   UNL A   1      38.633  30.531  32.257  1.00  0.00    -0.354 N 
ATOM     57  N   UNL A   1      42.029  31.311  34.891  1.00  0.00    -0.248 NA
ATOM     58  C   UNL A   1      40.901  33.312  34.469  1.00  0.00     0.031 C 
ATOM     59  C   UNL A   1      39.469  28.708  31.472  1.00  0.00     0.029 A 
ATOM     60  C   UNL A   1      39.655  29.640  32.492  1.00  0.00     0.049 A 
ATOM     61  H   UNL A   1      38.104  31.005  32.938  1.00  0.00     0.167 HD
ATOM     62  C   UNL A   1      40.893  31.030  34.125  1.00  0.00     0.074 A 
ATOM     63  C   UNL A   1      40.244  32.307  33.910  1.00  0.00     0.031 C 
ATOM     64  C   UNL A   1      40.621  29.813  33.562  1.00  0.00     0.034 A 
BRANCH  51  65
ATOM     65  C   UNL A   1      36.844  32.413  30.133  1.00  0.00     0.023 A 
ATOM     66  C   UNL A   1      36.108  33.148  31.073  1.00  0.00     0.031 A 
ATOM     67  C   UNL A   1      36.302  32.216  28.848  1.00  0.00     0.131 A 
ATOM     68  C   UNL A   1      34.863  33.678  30.692  1.00  0.00     0.055 A 
ATOM     69  C   UNL A   1      35.074  32.749  28.477  1.00  0.00     0.041 A 
ATOM     70  F   UNL A   1      36.995  31.527  27.925  1.00  0.00    -0.206 F 
ATOM     71  C   UNL A   1      34.350  33.491  29.400  1.00  0.00     0.022 A 
BRANCH  68  72
ATOM     72  S   UNL A   1      33.865  34.681  31.830  1.00  0.00     0.124 S 
ATOM     73  O   UNL A   1      33.452  33.698  32.830  1.00  0.00    -0.237 OA
ATOM     74  O   UNL A   1      34.837  35.669  32.290  1.00  0.00    -0.237 OA
ATOM     75  O   UNL A   1      32.794  35.201  30.989  1.00  0.00    -0.744 OA
ENDBRANCH  68  72
ENDBRANCH  51  65
BRANCH  52  76
ATOM     76  C   UNL A   1      43.288  34.829  35.725  1.00  0.00     0.023 A 
ATOM     77  C   UNL A   1      43.461  36.023  35.003  1.00  0.00     0.031 A 
ATOM     78  C   UNL A   1      43.066  34.961  37.112  1.00  0.00     0.131 A 
ATOM     79  C   UNL A   1      43.628  37.245  35.678  1.00  0.00     0.055 A 
ATOM     80  C   UNL A   1      43.163  36.187  37.776  1.00  0.00     0.041 A 
ATOM     81  F   UNL A   1      42.755  33.887  37.859  1.00  0.00    -0.206 F 
ATOM     82  C   UNL A   1      43.486  37.333  37.062  1.00  0.00     0.022 A 
BRANCH  79  83
ATOM     83  S   UNL A   1      44.117  38.739  34.770  1.00  0.00     0.124 S 
ATOM     84  O   UNL A   1      42.928  39.030  33.973  1.00  0.00    -0.237 OA
ATOM     85  O   UNL A   1      44.384  39.663  35.868  1.00  0.00    -0.237 OA
ATOM     86  O   UNL A   1      45.285  38.303  34.010  1.00  0.00    -0.744 OA
ENDBRANCH  79  83
ENDBRANCH  52  76
BRANCH  64  87
ATOM     87  C   UNL A   1      41.524  28.680  33.957  1.00  0.00     0.023 A 
ATOM     88  C   UNL A   1      41.292  27.913  35.116  1.00  0.00     0.031 A 
ATOM     89  C   UNL A   1      42.680  28.407  33.205  1.00  0.00     0.131 A 
ATOM     90  C   UNL A   1      42.230  26.948  35.517  1.00  0.00     0.055 A 
ATOM     91  C   UNL A   1      43.581  27.408  33.579  1.00  0.00     0.041 A 
ATOM     92  F   UNL A   1      42.975  29.134  32.115  1.00  0.00    -0.206 F 
ATOM     93  C   UNL A   1      43.365  26.682  34.745  1.00  0.00     0.022 A 
BRANCH  90  94
ATOM     94  S   UNL A   1      42.044  26.042  37.078  1.00  0.00     0.124 S 
ATOM     95  O   UNL A   1      40.698  26.416  37.505  1.00  0.00    -0.237 OA
ATOM     96  O   UNL A   1      42.191  24.654  36.641  1.00  0.00    -0.237 OA
ATOM     97  O   UNL A   1      43.126  26.548  37.915  1.00  0.00    -0.744 OA
ENDBRANCH  90  94
ENDBRANCH  64  87
ENDBRANCH  38  39
ENDBRANCH  31  33
ENDBRANCH  30  31
ENDBRANCH  29  30
ENDBRANCH   1  29
TORSDOF 19
ENDMDL
MODEL 3
REMARK VINA RESULT:     -11.1      1.725      2.116
REMARK SMILES Cc1cc(N2CCCC2)nc2sc3c(=O)n(CC(=O)OCCOCCOC(=O)c4ccc(-c5c6nc(c(-c7cc(S(=O)(=O)[O-])ccc7F)c7ccc([nH]7)c(-c7cc(S(=O)(=O)[O-])ccc7F)c7nc(c(-c8cc(S(=O)(=O)[O-])ccc8F)c8ccc5[nH]8)C=C7)C=C6)cc4)cnc3c12
REMARK SMILES IDX 24 1 23 2 22 3 21 4 20 5 18 6 19 7 17 8 16 9 1 10 2 11 3 12
REMARK SMILES IDX 95 13 4 14 11 15 94 16 10 17 12 18 13 19 93 20 14 21 92 22
REMARK SMILES IDX 15 23 5 24 6 25 9 26 7 27 8 28 25 29 26 30 27 31 28 32 29 33
REMARK SMILES IDX 30 34 91 35 31 36 90 37 32 38 33 39 34 40 84 41 35 42 89 43
REMARK SMILES IDX 83 44 85 45 36 46 88 47 82 48 81 49 37 51 69 52 49 53 68 54
REMARK SMILES IDX 50 55 53 56 67 57 86 58 51 59 52 60 66 62 87 63 54 64 38 65
REMARK SMILES IDX 39 66 47 67 40 68 46 69 48 70 45 71 41 72 42 73 43 74 44 75
REMARK SMILES IDX 70 76 71 77 79 78 72 79 78 80 80 81 77 82 73 83 74 84 75 85
REMARK SMILES IDX 76 86 55 87 56 88 64 89 57 90 63 91 65 92 62 93 58 94 59 95
REMARK SMILES IDX 60 96 61 97
REMARK H PARENT 85 50 53 61
REMARK Flexibility Score: inf
ROOT
ATOM      1  C   UNL A   1      39.006  21.384  25.790  1.00  0.00     0.202 C 
ENDROOT
BRANCH   1   2
ATOM      2  O   UNL A   1      37.671  21.867  25.813  1.00  0.00    -0.374 OA
BRANCH   2   3
ATOM      3  C   UNL A   1      37.292  22.841  24.848  1.00  0.00     0.202 C 
BRANCH   3   4
ATOM      4  C   UNL A   1      36.159  22.494  23.873  1.00  0.00     0.261 C 
BRANCH   4   5
ATOM      5  O   UNL A   1      35.255  21.484  24.364  1.00  0.00    -0.462 OA
BRANCH   5   6
ATOM      6  C   UNL A   1      33.936  21.800  24.277  1.00  0.00     0.326 C 
ATOM      7  O   UNL A   1      33.158  21.334  23.448  1.00  0.00    -0.250 OA
BRANCH   6   8
ATOM      8  C   UNL A   1      33.436  22.751  25.362  1.00  0.00     0.249 C 
BRANCH   8   9
ATOM      9  N   UNL A   1      32.588  23.884  25.012  1.00  0.00    -0.287 N 
ATOM     10  C   UNL A   1      27.630  26.351  24.138  1.00  0.00     0.045 C 
ATOM     11  C   UNL A   1      28.741  27.254  23.681  1.00  0.00    -0.035 A 
ATOM     12  C   UNL A   1      28.387  28.503  23.148  1.00  0.00     0.051 A 
ATOM     13  C   UNL A   1      30.125  26.973  23.755  1.00  0.00     0.041 A 
ATOM     14  C   UNL A   1      29.340  29.389  22.649  1.00  0.00     0.130 A 
ATOM     15  C   UNL A   1      30.994  27.966  23.297  1.00  0.00     0.128 A 
ATOM     16  C   UNL A   1      30.893  25.843  24.177  1.00  0.00     0.098 A 
ATOM     17  N   UNL A   1      30.656  29.123  22.688  1.00  0.00    -0.220 NA
ATOM     18  S   UNL A   1      32.643  27.591  23.591  1.00  0.00    -0.108 S 
ATOM     19  C   UNL A   1      32.239  26.079  24.236  1.00  0.00     0.121 A 
ATOM     20  N   UNL A   1      30.352  24.585  24.485  1.00  0.00    -0.236 NA
ATOM     21  C   UNL A   1      33.182  25.111  24.724  1.00  0.00     0.271 A 
ATOM     22  C   UNL A   1      31.229  23.701  24.842  1.00  0.00     0.203 A 
ATOM     23  O   UNL A   1      34.395  25.294  24.844  1.00  0.00    -0.268 OA
BRANCH  14  24
ATOM     24  N   UNL A   1      28.892  30.533  22.040  1.00  0.00    -0.357 N 
ATOM     25  C   UNL A   1      27.909  30.520  20.974  1.00  0.00     0.118 C 
ATOM     26  C   UNL A   1      29.036  31.847  22.628  1.00  0.00     0.118 C 
ATOM     27  C   UNL A   1      28.107  31.906  20.375  1.00  0.00     0.023 C 
ATOM     28  C   UNL A   1      28.386  32.783  21.595  1.00  0.00     0.023 C 
ENDBRANCH  14  24
ENDBRANCH   8   9
ENDBRANCH   6   8
ENDBRANCH   5   6
ENDBRANCH   4   5
ENDBRANCH   3   4
ENDBRANCH   2   3
ENDBRANCH   1   2
BRANCH   1  29
ATOM     29  C   UNL A   1      40.079  21.924  26.754  1.00  0.00     0.261 C 
BRANCH  29  30
ATOM     30  O   UNL A   1      41.367  21.311  26.708  1.00  0.00    -0.460 OA
BRANCH  30  31
ATOM     31  C   UNL A   1      42.247  21.941  27.527  1.00  0.00     0.338 C 
ATOM     32  O   UNL A   1      43.109  21.408  28.208  1.00  0.00    -0.246 OA
BRANCH  31  33
ATOM     33  C   UNL A   1      42.130  23.400  27.434  1.00  0.00     0.060 A 
ATOM     34  C   UNL A   1      42.836  24.049  26.414  1.00  0.00     0.016 A 
ATOM     35  C   UNL A   1      41.551  24.117  28.473  1.00  0.00     0.016 A 
ATOM     36  C   UNL A   1      43.029  25.427  26.472  1.00  0.00     0.010 A 
ATOM     37  C   UNL A   1      41.777  25.491  28.540  1.00  0.00     0.010 A 
ATOM     38  C   UNL A   1      42.540  26.159  27.561  1.00  0.00    -0.014 A 
BRANCH  38  39
ATOM     39  C   UNL A   1      42.790  27.624  27.627  1.00  0.00     0.031 A 
ATOM     40  C   UNL A   1      41.561  28.463  27.499  1.00  0.00     0.074 A 
ATOM     41  C   UNL A   1      43.862  28.159  28.261  1.00  0.00     0.049 A 
ATOM     42  N   UNL A   1      40.723  28.576  28.487  1.00  0.00    -0.248 NA
ATOM     43  C   UNL A   1      41.042  28.954  26.227  1.00  0.00     0.031 C 
ATOM     44  C   UNL A   1      44.600  27.464  29.328  1.00  0.00     0.029 A 
ATOM     45  N   UNL A   1      44.360  29.448  28.297  1.00  0.00    -0.354 N 
ATOM     46  C   UNL A   1      39.542  29.072  27.977  1.00  0.00     0.074 A 
ATOM     47  C   UNL A   1      39.798  29.330  26.575  1.00  0.00     0.031 C 
ATOM     48  C   UNL A   1      45.303  28.374  30.034  1.00  0.00     0.029 A 
ATOM     49  C   UNL A   1      45.191  29.686  29.399  1.00  0.00     0.049 A 
ATOM     50  H   UNL A   1      44.153  30.129  27.616  1.00  0.00     0.167 HD
ATOM     51  C   UNL A   1      38.425  29.208  28.741  1.00  0.00     0.034 A 
ATOM     52  C   UNL A   1      45.259  30.865  30.085  1.00  0.00     0.034 A 
ATOM     53  C   UNL A   1      38.553  28.770  30.106  1.00  0.00     0.049 A 
ATOM     54  C   UNL A   1      43.887  30.900  30.723  1.00  0.00     0.074 A 
ATOM     55  C   UNL A   1      38.259  27.646  30.848  1.00  0.00     0.029 A 
ATOM     56  N   UNL A   1      39.220  29.589  30.989  1.00  0.00    -0.354 N 
ATOM     57  N   UNL A   1      43.479  30.199  31.748  1.00  0.00    -0.248 NA
ATOM     58  C   UNL A   1      42.817  31.521  29.941  1.00  0.00     0.031 C 
ATOM     59  C   UNL A   1      39.170  27.664  31.955  1.00  0.00     0.029 A 
ATOM     60  C   UNL A   1      39.989  28.782  31.797  1.00  0.00     0.049 A 
ATOM     61  H   UNL A   1      39.158  30.570  31.034  1.00  0.00     0.167 HD
ATOM     62  C   UNL A   1      42.096  30.064  31.578  1.00  0.00     0.074 A 
ATOM     63  C   UNL A   1      41.759  30.911  30.453  1.00  0.00     0.031 C 
ATOM     64  C   UNL A   1      41.321  29.152  32.241  1.00  0.00     0.034 A 
BRANCH  51  65
ATOM     65  C   UNL A   1      37.245  29.986  28.307  1.00  0.00     0.023 A 
ATOM     66  C   UNL A   1      36.084  29.426  27.757  1.00  0.00     0.031 A 
ATOM     67  C   UNL A   1      37.262  31.362  28.602  1.00  0.00     0.131 A 
ATOM     68  C   UNL A   1      34.971  30.256  27.537  1.00  0.00     0.055 A 
ATOM     69  C   UNL A   1      36.156  32.175  28.390  1.00  0.00     0.041 A 
ATOM     70  F   UNL A   1      38.359  31.920  29.144  1.00  0.00    -0.206 F 
ATOM     71  C   UNL A   1      34.999  31.621  27.860  1.00  0.00     0.022 A 
BRANCH  68  72
ATOM     72  S   UNL A   1      33.412  29.606  26.872  1.00  0.00     0.124 S 
ATOM     73  O   UNL A   1      32.413  30.395  27.589  1.00  0.00    -0.237 OA
ATOM     74  O   UNL A   1      33.543  29.909  25.449  1.00  0.00    -0.237 OA
ATOM     75  O   UNL A   1      33.450  28.189  27.216  1.00  0.00    -0.744 OA
ENDBRANCH  68  72
ENDBRANCH  51  65
BRANCH  52  76
ATOM     76  C   UNL A   1      45.806  32.056  29.342  1.00  0.00     0.023 A 
ATOM     77  C   UNL A   1      45.010  33.079  28.797  1.00  0.00     0.031 A 
ATOM     78  C   UNL A   1      47.198  32.174  29.148  1.00  0.00     0.131 A 
ATOM     79  C   UNL A   1      45.569  34.025  27.921  1.00  0.00     0.055 A 
ATOM     80  C   UNL A   1      47.763  33.158  28.332  1.00  0.00     0.041 A 
ATOM     81  F   UNL A   1      48.046  31.320  29.748  1.00  0.00    -0.206 F 
ATOM     82  C   UNL A   1      46.941  34.067  27.679  1.00  0.00     0.022 A 
BRANCH  79  83
ATOM     83  S   UNL A   1      44.503  35.177  27.008  1.00  0.00     0.124 S 
ATOM     84  O   UNL A   1      45.444  36.208  26.577  1.00  0.00    -0.237 OA
ATOM     85  O   UNL A   1      43.989  34.310  25.951  1.00  0.00    -0.237 OA
ATOM     86  O   UNL A   1      43.530  35.601  28.009  1.00  0.00    -0.744 OA
ENDBRANCH  79  83
ENDBRANCH  52  76
BRANCH  64  87
ATOM     87  C   UNL A   1      41.992  28.383  33.343  1.00  0.00     0.023 A 
ATOM     88  C   UNL A   1      42.957  27.392  33.078  1.00  0.00     0.031 A 
ATOM     89  C   UNL A   1      41.608  28.590  34.679  1.00  0.00     0.131 A 
ATOM     90  C   UNL A   1      43.465  26.610  34.127  1.00  0.00     0.055 A 
ATOM     91  C   UNL A   1      42.157  27.846  35.725  1.00  0.00     0.041 A 
ATOM     92  F   UNL A   1      40.660  29.491  34.988  1.00  0.00    -0.206 F 
ATOM     93  C   UNL A   1      43.080  26.843  35.452  1.00  0.00     0.022 A 
BRANCH  90  94
ATOM     94  S   UNL A   1      44.598  25.228  33.813  1.00  0.00     0.124 S 
ATOM     95  O   UNL A   1      43.703  24.072  33.835  1.00  0.00    -0.237 OA
ATOM     96  O   UNL A   1      45.134  25.570  32.497  1.00  0.00    -0.237 OA
ATOM     97  O   UNL A   1      45.555  25.294  34.912  1.00  0.00    -0.744 OA
ENDBRANCH  90  94
ENDBRANCH  64  87
ENDBRANCH  38  39
ENDBRANCH  31  33
ENDBRANCH  30  31
ENDBRANCH  29  30
ENDBRANCH   1  29
TORSDOF 19
ENDMDL
