MODEL 1
REMARK VINA RESULT:     -11.8      0.000      0.000
REMARK SMILES Cc1ccc(NC(=O)N2CCCC[C@@H]2C(=O)OCCOCCOC(=O)c2ccc(-c3c4nc(c(-c5cc(S(=O)(=O)[O-])ccc5F)c5ccc([nH]5)c(-c5cc(S(=O)(=O)[O-])ccc5F)c5nc(c(-c6cc(S(=O)(=O)[O-])ccc6F)c6ccc3[nH]6)C=C5)C=C4)cc2)cc1
REMARK SMILES IDX 21 1 20 2 19 3 18 4 17 5 15 6 16 7 14 8 9 9 10 10 11 11
REMARK SMILES IDX 13 12 12 13 7 14 6 15 8 17 5 18 1 19 2 20 3 21 90 22 4 23
REMARK SMILES IDX 89 24 22 25 23 26 24 27 25 28 26 29 27 30 88 31 28 32 87 33
REMARK SMILES IDX 29 34 30 35 31 36 81 37 32 38 86 39 80 40 82 41 33 42 85 43
REMARK SMILES IDX 79 44 78 45 34 47 66 48 46 49 65 50 47 51 50 52 64 53 83 54
REMARK SMILES IDX 48 55 49 56 63 58 84 59 51 60 35 61 36 62 44 63 37 64 43 65
REMARK SMILES IDX 45 66 42 67 38 68 39 69 40 70 41 71 67 72 68 73 76 74 69 75
REMARK SMILES IDX 75 76 77 77 74 78 70 79 71 80 72 81 73 82 52 83 53 84 61 85
REMARK SMILES IDX 54 86 60 87 62 88 59 89 55 90 56 91 57 92 58 93
REMARK H PARENT 6 16 82 46 50 57
REMARK Flexibility Score: inf
ROOT
ATOM      1  C   UNL A   1      32.826  29.999  27.206  1.00  0.00     0.202 C 
ENDROOT
BRANCH   1   2
ATOM      2  O   UNL A   1      33.227  29.589  25.911  1.00  0.00    -0.374 OA
BRANCH   2   3
ATOM      3  C   UNL A   1      34.281  28.625  25.868  1.00  0.00     0.202 C 
BRANCH   3   4
ATOM      4  C   UNL A   1      33.735  27.420  25.143  1.00  0.00     0.261 C 
BRANCH   4   5
ATOM      5  O   UNL A   1      33.751  26.233  25.954  1.00  0.00    -0.462 OA
BRANCH   5   6
ATOM      6  C   UNL A   1      34.129  25.062  25.367  1.00  0.00     0.329 C 
ATOM      7  O   UNL A   1      35.073  24.385  25.746  1.00  0.00    -0.250 OA
BRANCH   6   8
ATOM      8  C   UNL A   1      33.157  24.677  24.223  1.00  0.00     0.196 C 
ATOM      9  N   UNL A   1      31.874  23.988  24.572  1.00  0.00    -0.311 N 
ATOM     10  C   UNL A   1      31.319  23.014  23.626  1.00  0.00     0.122 C 
ATOM     11  C   UNL A   1      32.303  22.277  22.740  1.00  0.00     0.022 C 
ATOM     12  C   UNL A   1      34.032  23.924  23.178  1.00  0.00     0.037 C 
ATOM     13  C   UNL A   1      33.241  23.261  22.078  1.00  0.00     0.005 C 
BRANCH   9  14
ATOM     14  C   UNL A   1      30.952  24.352  25.542  1.00  0.00     0.322 C 
ATOM     15  N   UNL A   1      30.441  25.594  25.644  1.00  0.00    -0.308 N 
ATOM     16  H   UNL A   1      30.370  25.909  26.575  1.00  0.00     0.171 HD
ATOM     17  O   UNL A   1      30.600  23.548  26.414  1.00  0.00    -0.248 OA
BRANCH  15  18
ATOM     18  C   UNL A   1      29.990  26.531  24.712  1.00  0.00     0.042 A 
ATOM     19  C   UNL A   1      28.241  29.607  22.283  1.00  0.00     0.044 C 
ATOM     20  C   UNL A   1      28.877  28.475  23.029  1.00  0.00    -0.051 A 
ATOM     21  C   UNL A   1      30.218  28.560  23.427  1.00  0.00     0.005 A 
ATOM     22  C   UNL A   1      28.125  27.358  23.405  1.00  0.00     0.005 A 
ATOM     23  C   UNL A   1      30.778  27.578  24.244  1.00  0.00     0.026 A 
ATOM     24  C   UNL A   1      28.690  26.378  24.221  1.00  0.00     0.026 A 
ENDBRANCH  15  18
ENDBRANCH   9  14
ENDBRANCH   6   8
ENDBRANCH   5   6
ENDBRANCH   4   5
ENDBRANCH   3   4
ENDBRANCH   2   3
ENDBRANCH   1   2
BRANCH   1  25
ATOM     25  C   UNL A   1      33.057  31.490  27.493  1.00  0.00     0.261 C 
BRANCH  25  26
ATOM     26  O   UNL A   1      34.467  31.741  27.638  1.00  0.00    -0.460 OA
BRANCH  26  27
ATOM     27  C   UNL A   1      34.955  31.601  28.898  1.00  0.00     0.338 C 
ATOM     28  O   UNL A   1      34.663  32.319  29.850  1.00  0.00    -0.246 OA
BRANCH  27  29
ATOM     29  C   UNL A   1      36.000  30.544  28.920  1.00  0.00     0.060 A 
ATOM     30  C   UNL A   1      36.320  29.891  30.125  1.00  0.00     0.016 A 
ATOM     31  C   UNL A   1      36.816  30.377  27.800  1.00  0.00     0.016 A 
ATOM     32  C   UNL A   1      37.520  29.172  30.237  1.00  0.00     0.010 A 
ATOM     33  C   UNL A   1      38.024  29.720  27.935  1.00  0.00     0.010 A 
ATOM     34  C   UNL A   1      38.403  29.142  29.155  1.00  0.00    -0.014 A 
BRANCH  34  35
ATOM     35  C   UNL A   1      39.796  28.686  29.210  1.00  0.00     0.031 A 
ATOM     36  C   UNL A   1      40.121  27.283  28.870  1.00  0.00     0.074 A 
ATOM     37  C   UNL A   1      40.811  29.578  29.308  1.00  0.00     0.049 A 
ATOM     38  N   UNL A   1      41.285  26.760  29.040  1.00  0.00    -0.248 NA
ATOM     39  C   UNL A   1      39.158  26.319  28.347  1.00  0.00     0.031 C 
ATOM     40  C   UNL A   1      42.211  29.388  28.938  1.00  0.00     0.029 A 
ATOM     41  N   UNL A   1      40.799  30.875  29.826  1.00  0.00    -0.354 N 
ATOM     42  C   UNL A   1      41.337  25.585  28.335  1.00  0.00     0.074 A 
ATOM     43  C   UNL A   1      39.955  25.281  28.069  1.00  0.00     0.031 C 
ATOM     44  C   UNL A   1      42.955  30.391  29.427  1.00  0.00     0.029 A 
ATOM     45  C   UNL A   1      42.093  31.160  30.295  1.00  0.00     0.049 A 
ATOM     46  H   UNL A   1      40.024  31.481  29.857  1.00  0.00     0.167 HD
ATOM     47  C   UNL A   1      42.564  25.117  27.958  1.00  0.00     0.034 A 
ATOM     48  C   UNL A   1      42.296  31.424  31.612  1.00  0.00     0.034 A 
ATOM     49  C   UNL A   1      43.648  25.874  28.629  1.00  0.00     0.049 A 
ATOM     50  C   UNL A   1      43.136  30.326  32.229  1.00  0.00     0.074 A 
ATOM     51  C   UNL A   1      44.699  26.671  28.204  1.00  0.00     0.029 A 
ATOM     52  N   UNL A   1      43.592  26.048  30.019  1.00  0.00    -0.354 N 
ATOM     53  N   UNL A   1      43.386  29.189  31.631  1.00  0.00    -0.248 NA
ATOM     54  C   UNL A   1      43.813  30.426  33.510  1.00  0.00     0.031 C 
ATOM     55  C   UNL A   1      45.227  27.359  29.343  1.00  0.00     0.029 A 
ATOM     56  C   UNL A   1      44.533  26.951  30.473  1.00  0.00     0.049 A 
ATOM     57  H   UNL A   1      42.953  25.580  30.604  1.00  0.00     0.167 HD
ATOM     58  C   UNL A   1      44.256  28.434  32.363  1.00  0.00     0.074 A 
ATOM     59  C   UNL A   1      44.482  29.257  33.545  1.00  0.00     0.031 C 
ATOM     60  C   UNL A   1      44.688  27.210  31.915  1.00  0.00     0.034 A 
BRANCH  47  61
ATOM     61  C   UNL A   1      42.821  24.085  26.856  1.00  0.00     0.023 A 
ATOM     62  C   UNL A   1      42.264  22.790  26.973  1.00  0.00     0.031 A 
ATOM     63  C   UNL A   1      43.644  24.261  25.718  1.00  0.00     0.131 A 
ATOM     64  C   UNL A   1      42.535  21.773  26.027  1.00  0.00     0.055 A 
ATOM     65  C   UNL A   1      43.877  23.265  24.758  1.00  0.00     0.041 A 
ATOM     66  F   UNL A   1      44.312  25.388  25.467  1.00  0.00    -0.206 F 
ATOM     67  C   UNL A   1      43.327  22.010  24.911  1.00  0.00     0.022 A 
BRANCH  64  68
ATOM     68  S   UNL A   1      41.861  20.104  26.276  1.00  0.00     0.124 S 
ATOM     69  O   UNL A   1      42.335  19.780  27.616  1.00  0.00    -0.237 OA
ATOM     70  O   UNL A   1      40.427  20.320  26.126  1.00  0.00    -0.237 OA
ATOM     71  O   UNL A   1      42.479  19.325  25.201  1.00  0.00    -0.744 OA
ENDBRANCH  64  68
ENDBRANCH  47  61
BRANCH  48  72
ATOM     72  C   UNL A   1      41.179  32.240  32.188  1.00  0.00     0.023 A 
ATOM     73  C   UNL A   1      40.320  31.587  33.118  1.00  0.00     0.031 A 
ATOM     74  C   UNL A   1      41.227  33.640  32.232  1.00  0.00     0.131 A 
ATOM     75  C   UNL A   1      39.654  32.315  34.122  1.00  0.00     0.055 A 
ATOM     76  C   UNL A   1      40.537  34.364  33.219  1.00  0.00     0.041 A 
ATOM     77  F   UNL A   1      42.046  34.320  31.418  1.00  0.00    -0.206 F 
ATOM     78  C   UNL A   1      39.781  33.704  34.190  1.00  0.00     0.022 A 
BRANCH  75  79
ATOM     79  S   UNL A   1      38.886  31.439  35.537  1.00  0.00     0.124 S 
ATOM     80  O   UNL A   1      37.468  31.719  35.343  1.00  0.00    -0.237 OA
ATOM     81  O   UNL A   1      39.292  30.051  35.342  1.00  0.00    -0.237 OA
ATOM     82  O   UNL A   1      39.502  32.083  36.698  1.00  0.00    -0.744 OA
ENDBRANCH  75  79
ENDBRANCH  48  72
BRANCH  60  83
ATOM     83  C   UNL A   1      45.329  26.132  32.777  1.00  0.00     0.023 A 
ATOM     84  C   UNL A   1      44.600  25.176  33.492  1.00  0.00     0.031 A 
ATOM     85  C   UNL A   1      46.738  25.965  32.833  1.00  0.00     0.131 A 
ATOM     86  C   UNL A   1      45.227  24.149  34.219  1.00  0.00     0.055 A 
ATOM     87  C   UNL A   1      47.364  24.916  33.515  1.00  0.00     0.041 A 
ATOM     88  F   UNL A   1      47.585  26.791  32.204  1.00  0.00    -0.206 F 
ATOM     89  C   UNL A   1      46.607  23.998  34.220  1.00  0.00     0.022 A 
BRANCH  86  90
ATOM     90  S   UNL A   1      44.172  23.028  35.171  1.00  0.00     0.124 S 
ATOM     91  O   UNL A   1      44.587  23.311  36.543  1.00  0.00    -0.237 OA
ATOM     92  O   UNL A   1      42.833  23.483  34.812  1.00  0.00    -0.237 OA
ATOM     93  O   UNL A   1      44.536  21.704  34.671  1.00  0.00    -0.744 OA
ENDBRANCH  86  90
ENDBRANCH  60  83
ENDBRANCH  34  35
ENDBRANCH  27  29
ENDBRANCH  26  27
ENDBRANCH  25  26
ENDBRANCH   1  25
TORSDOF 19
ENDMDL
MODEL 2
REMARK VINA RESULT:     -11.7      1.874      3.369
REMARK SMILES Cc1ccc(NC(=O)N2CCCC[C@@H]2C(=O)OCCOCCOC(=O)c2ccc(-c3c4nc(c(-c5cc(S(=O)(=O)[O-])ccc5F)c5ccc([nH]5)c(-c5cc(S(=O)(=O)[O-])ccc5F)c5nc(c(-c6cc(S(=O)(=O)[O-])ccc6F)c6ccc3[nH]6)C=C5)C=C4)cc2)cc1
REMARK SMILES IDX 21 1 20 2 19 3 18 4 17 5 15 6 16 7 14 8 9 9 10 10 11 11
REMARK SMILES IDX 13 12 12 13 7 14 6 15 8 17 5 18 1 19 2 20 3 21 90 22 4 23
REMARK SMILES IDX 89 24 22 25 23 26 24 27 25 28 26 29 27 30 88 31 28 32 87 33
REMARK SMILES IDX 29 34 30 35 31 36 81 37 32 38 86 39 80 40 82 41 33 42 85 43
REMARK SMILES IDX 79 44 78 45 34 47 66 48 46 49 65 50 47 51 50 52 64 53 83 54
REMARK SMILES IDX 48 55 49 56 63 58 84 59 51 60 35 61 36 62 44 63 37 64 43 65
REMARK SMILES IDX 45 66 42 67 38 68 39 69 40 70 41 71 67 72 68 73 76 74 69 75
REMARK SMILES IDX 75 76 77 77 74 78 70 79 71 80 72 81 73 82 52 83 53 84 61 85
REMARK SMILES IDX 54 86 60 87 62 88 59 89 55 90 56 91 57 92 58 93
REMARK H PARENT 6 16 82 46 50 57
REMARK Flexibility Score: inf
ROOT
ATOM      1  C   UNL A   1      33.035  31.467  27.248  1.00  0.00     0.202 C 
ENDROOT
BRANCH   1   2
ATOM      2  O   UNL A   1      32.933  30.554  26.170  1.00  0.00    -0.374 OA
BRANCH   2   3
ATOM      3  C   UNL A   1      32.240  29.337  26.457  1.00  0.00     0.202 C 
BRANCH   3   4
ATOM      4  C   UNL A   1      33.169  28.212  26.074  1.00  0.00     0.261 C 
BRANCH   4   5
ATOM      5  O   UNL A   1      32.734  26.939  26.584  1.00  0.00    -0.462 OA
BRANCH   5   6
ATOM      6  C   UNL A   1      33.027  25.825  25.856  1.00  0.00     0.329 C 
ATOM      7  O   UNL A   1      34.000  25.115  26.059  1.00  0.00    -0.250 OA
BRANCH   6   8
ATOM      8  C   UNL A   1      31.921  25.543  24.806  1.00  0.00     0.196 C 
ATOM      9  N   UNL A   1      32.234  25.763  23.357  1.00  0.00    -0.311 N 
ATOM     10  C   UNL A   1      31.159  26.212  22.467  1.00  0.00     0.122 C 
ATOM     11  C   UNL A   1      30.050  27.038  23.087  1.00  0.00     0.022 C 
ATOM     12  C   UNL A   1      30.664  26.306  25.319  1.00  0.00     0.037 C 
ATOM     13  C   UNL A   1      29.527  26.352  24.329  1.00  0.00     0.005 C 
BRANCH   9  14
ATOM     14  C   UNL A   1      33.339  25.314  22.651  1.00  0.00     0.322 C 
ATOM     15  N   UNL A   1      33.975  24.160  22.930  1.00  0.00    -0.308 N 
ATOM     16  H   UNL A   1      34.956  24.236  22.885  1.00  0.00     0.171 HD
ATOM     17  O   UNL A   1      33.839  26.004  21.753  1.00  0.00    -0.248 OA
BRANCH  15  18
ATOM     18  C   UNL A   1      33.540  22.877  23.272  1.00  0.00     0.042 A 
ATOM     19  C   UNL A   1      32.452  18.760  23.803  1.00  0.00     0.044 C 
ATOM     20  C   UNL A   1      32.739  20.225  23.689  1.00  0.00    -0.051 A 
ATOM     21  C   UNL A   1      33.692  20.822  24.525  1.00  0.00     0.005 A 
ATOM     22  C   UNL A   1      32.121  20.998  22.701  1.00  0.00     0.005 A 
ATOM     23  C   UNL A   1      34.071  22.150  24.331  1.00  0.00     0.026 A 
ATOM     24  C   UNL A   1      32.502  22.326  22.513  1.00  0.00     0.026 A 
ENDBRANCH  15  18
ENDBRANCH   9  14
ENDBRANCH   6   8
ENDBRANCH   5   6
ENDBRANCH   4   5
ENDBRANCH   3   4
ENDBRANCH   2   3
ENDBRANCH   1   2
BRANCH   1  25
ATOM     25  C   UNL A   1      34.150  31.133  28.250  1.00  0.00     0.261 C 
BRANCH  25  26
ATOM     26  O   UNL A   1      35.381  30.894  27.542  1.00  0.00    -0.460 OA
BRANCH  26  27
ATOM     27  C   UNL A   1      36.512  31.221  28.218  1.00  0.00     0.338 C 
ATOM     28  O   UNL A   1      36.825  32.358  28.559  1.00  0.00    -0.246 OA
BRANCH  27  29
ATOM     29  C   UNL A   1      37.381  30.023  28.358  1.00  0.00     0.060 A 
ATOM     30  C   UNL A   1      37.424  29.319  29.576  1.00  0.00     0.016 A 
ATOM     31  C   UNL A   1      38.320  29.750  27.363  1.00  0.00     0.016 A 
ATOM     32  C   UNL A   1      38.479  28.431  29.838  1.00  0.00     0.010 A 
ATOM     33  C   UNL A   1      39.389  28.922  27.650  1.00  0.00     0.010 A 
ATOM     34  C   UNL A   1      39.498  28.283  28.894  1.00  0.00    -0.014 A 
BRANCH  34  35
ATOM     35  C   UNL A   1      40.788  27.629  29.135  1.00  0.00     0.031 A 
ATOM     36  C   UNL A   1      40.973  26.210  28.754  1.00  0.00     0.074 A 
ATOM     37  C   UNL A   1      41.884  28.359  29.452  1.00  0.00     0.049 A 
ATOM     38  N   UNL A   1      42.011  25.518  29.068  1.00  0.00    -0.248 NA
ATOM     39  C   UNL A   1      39.987  25.421  28.022  1.00  0.00     0.031 C 
ATOM     40  C   UNL A   1      43.287  27.986  29.293  1.00  0.00     0.029 A 
ATOM     41  N   UNL A   1      41.963  29.619  30.049  1.00  0.00    -0.354 N 
ATOM     42  C   UNL A   1      42.019  24.381  28.301  1.00  0.00     0.074 A 
ATOM     43  C   UNL A   1      40.671  24.293  27.802  1.00  0.00     0.031 C 
ATOM     44  C   UNL A   1      44.070  28.848  29.960  1.00  0.00     0.029 A 
ATOM     45  C   UNL A   1      43.188  29.693  30.733  1.00  0.00     0.049 A 
ATOM     46  H   UNL A   1      41.282  30.329  29.999  1.00  0.00     0.167 HD
ATOM     47  C   UNL A   1      43.217  23.758  28.090  1.00  0.00     0.034 A 
ATOM     48  C   UNL A   1      43.206  29.864  32.080  1.00  0.00     0.034 A 
ATOM     49  C   UNL A   1      44.267  24.319  28.973  1.00  0.00     0.049 A 
ATOM     50  C   UNL A   1      43.776  28.629  32.744  1.00  0.00     0.074 A 
ATOM     51  C   UNL A   1      45.472  24.975  28.773  1.00  0.00     0.029 A 
ATOM     52  N   UNL A   1      44.007  24.436  30.345  1.00  0.00    -0.354 N 
ATOM     53  N   UNL A   1      43.965  27.496  32.117  1.00  0.00    -0.248 NA
ATOM     54  C   UNL A   1      44.240  28.571  34.120  1.00  0.00     0.031 C 
ATOM     55  C   UNL A   1      45.893  25.526  30.025  1.00  0.00     0.029 A 
ATOM     56  C   UNL A   1      44.974  25.171  31.002  1.00  0.00     0.049 A 
ATOM     57  H   UNL A   1      43.224  24.038  30.789  1.00  0.00     0.167 HD
ATOM     58  C   UNL A   1      44.592  26.590  32.922  1.00  0.00     0.074 A 
ATOM     59  C   UNL A   1      44.730  27.317  34.178  1.00  0.00     0.031 C 
ATOM     60  C   UNL A   1      44.923  25.339  32.464  1.00  0.00     0.034 A 
BRANCH  47  61
ATOM     61  C   UNL A   1      43.510  22.752  26.974  1.00  0.00     0.023 A 
ATOM     62  C   UNL A   1      42.895  21.478  27.007  1.00  0.00     0.031 A 
ATOM     63  C   UNL A   1      44.418  22.928  25.902  1.00  0.00     0.131 A 
ATOM     64  C   UNL A   1      43.190  20.481  26.047  1.00  0.00     0.055 A 
ATOM     65  C   UNL A   1      44.678  21.954  24.927  1.00  0.00     0.041 A 
ATOM     66  F   UNL A   1      45.146  24.033  25.737  1.00  0.00    -0.206 F 
ATOM     67  C   UNL A   1      44.069  20.720  24.998  1.00  0.00     0.022 A 
BRANCH  64  68
ATOM     68  S   UNL A   1      42.435  18.835  26.191  1.00  0.00     0.124 S 
ATOM     69  O   UNL A   1      41.072  19.084  25.736  1.00  0.00    -0.237 OA
ATOM     70  O   UNL A   1      43.277  18.027  25.318  1.00  0.00    -0.237 OA
ATOM     71  O   UNL A   1      42.558  18.529  27.617  1.00  0.00    -0.744 OA
ENDBRANCH  64  68
ENDBRANCH  47  61
BRANCH  48  72
ATOM     72  C   UNL A   1      42.129  30.805  32.529  1.00  0.00     0.023 A 
ATOM     73  C   UNL A   1      41.162  30.289  33.438  1.00  0.00     0.031 A 
ATOM     74  C   UNL A   1      42.295  32.196  32.489  1.00  0.00     0.131 A 
ATOM     75  C   UNL A   1      40.501  31.135  34.349  1.00  0.00     0.055 A 
ATOM     76  C   UNL A   1      41.611  33.039  33.381  1.00  0.00     0.041 A 
ATOM     77  F   UNL A   1      43.218  32.751  31.691  1.00  0.00    -0.206 F 
ATOM     78  C   UNL A   1      40.743  32.510  34.339  1.00  0.00     0.022 A 
BRANCH  75  79
ATOM     79  S   UNL A   1      39.575  30.422  35.760  1.00  0.00     0.124 S 
ATOM     80  O   UNL A   1      40.406  29.283  36.134  1.00  0.00    -0.237 OA
ATOM     81  O   UNL A   1      39.525  31.516  36.725  1.00  0.00    -0.237 OA
ATOM     82  O   UNL A   1      38.278  30.089  35.170  1.00  0.00    -0.744 OA
ENDBRANCH  75  79
ENDBRANCH  48  72
BRANCH  60  83
ATOM     83  C   UNL A   1      45.262  24.141  33.340  1.00  0.00     0.023 A 
ATOM     84  C   UNL A   1      46.511  23.947  33.939  1.00  0.00     0.031 A 
ATOM     85  C   UNL A   1      44.281  23.175  33.690  1.00  0.00     0.131 A 
ATOM     86  C   UNL A   1      46.765  22.866  34.802  1.00  0.00     0.055 A 
ATOM     87  C   UNL A   1      44.517  22.127  34.586  1.00  0.00     0.041 A 
ATOM     88  F   UNL A   1      43.032  23.213  33.207  1.00  0.00    -0.206 F 
ATOM     89  C   UNL A   1      45.769  21.963  35.149  1.00  0.00     0.022 A 
BRANCH  86  90
ATOM     90  S   UNL A   1      48.447  22.681  35.444  1.00  0.00     0.124 S 
ATOM     91  O   UNL A   1      48.225  21.893  36.654  1.00  0.00    -0.237 OA
ATOM     92  O   UNL A   1      49.120  21.984  34.353  1.00  0.00    -0.237 OA
ATOM     93  O   UNL A   1      48.884  24.056  35.669  1.00  0.00    -0.744 OA
ENDBRANCH  86  90
ENDBRANCH  60  83
ENDBRANCH  34  35
ENDBRANCH  27  29
ENDBRANCH  26  27
ENDBRANCH  25  26
ENDBRANCH   1  25
TORSDOF 19
ENDMDL
MODEL 3
REMARK VINA RESULT:     -11.7      2.477      4.086
REMARK SMILES Cc1ccc(NC(=O)N2CCCC[C@@H]2C(=O)OCCOCCOC(=O)c2ccc(-c3c4nc(c(-c5cc(S(=O)(=O)[O-])ccc5F)c5ccc([nH]5)c(-c5cc(S(=O)(=O)[O-])ccc5F)c5nc(c(-c6cc(S(=O)(=O)[O-])ccc6F)c6ccc3[nH]6)C=C5)C=C4)cc2)cc1
REMARK SMILES IDX 21 1 20 2 19 3 18 4 17 5 15 6 16 7 14 8 9 9 10 10 11 11
REMARK SMILES IDX 13 12 12 13 7 14 6 15 8 17 5 18 1 19 2 20 3 21 90 22 4 23
REMARK SMILES IDX 89 24 22 25 23 26 24 27 25 28 26 29 27 30 88 31 28 32 87 33
REMARK SMILES IDX 29 34 30 35 31 36 81 37 32 38 86 39 80 40 82 41 33 42 85 43
REMARK SMILES IDX 79 44 78 45 34 47 66 48 46 49 65 50 47 51 50 52 64 53 83 54
REMARK SMILES IDX 48 55 49 56 63 58 84 59 51 60 35 61 36 62 44 63 37 64 43 65
REMARK SMILES IDX 45 66 42 67 38 68 39 69 40 70 41 71 67 72 68 73 76 74 69 75
REMARK SMILES IDX 75 76 77 77 74 78 70 79 71 80 72 81 73 82 52 83 53 84 61 85
REMARK SMILES IDX 54 86 60 87 62 88 59 89 55 90 56 91 57 92 58 93
REMARK H PARENT 6 16 82 46 50 57
REMARK Flexibility Score: inf
ROOT
ATOM      1  C   UNL A   1      32.902  30.649  27.259  1.00  0.00     0.202 C 
ENDROOT
BRANCH   1   2
ATOM      2  O   UNL A   1      32.546  29.971  26.068  1.00  0.00    -0.374 OA
BRANCH   2   3
ATOM      3  C   UNL A   1      31.735  28.806  26.241  1.00  0.00     0.202 C 
BRANCH   3   4
ATOM      4  C   UNL A   1      31.798  28.041  24.942  1.00  0.00     0.261 C 
BRANCH   4   5
ATOM      5  O   UNL A   1      31.859  26.618  25.142  1.00  0.00    -0.462 OA
BRANCH   5   6
ATOM      6  C   UNL A   1      33.035  25.984  24.870  1.00  0.00     0.329 C 
ATOM      7  O   UNL A   1      33.992  26.524  24.338  1.00  0.00    -0.250 OA
BRANCH   6   8
ATOM      8  C   UNL A   1      33.014  24.527  25.400  1.00  0.00     0.196 C 
ATOM      9  N   UNL A   1      32.969  23.403  24.410  1.00  0.00    -0.311 N 
ATOM     10  C   UNL A   1      32.256  22.175  24.773  1.00  0.00     0.122 C 
ATOM     11  C   UNL A   1      31.101  22.311  25.746  1.00  0.00     0.022 C 
ATOM     12  C   UNL A   1      31.879  24.494  26.466  1.00  0.00     0.037 C 
ATOM     13  C   UNL A   1      31.535  23.109  26.954  1.00  0.00     0.005 C 
BRANCH   9  14
ATOM     14  C   UNL A   1      33.767  23.228  23.290  1.00  0.00     0.322 C 
ATOM     15  N   UNL A   1      35.106  23.382  23.306  1.00  0.00    -0.308 N 
ATOM     16  H   UNL A   1      35.451  23.852  22.512  1.00  0.00     0.171 HD
ATOM     17  O   UNL A   1      33.264  22.978  22.187  1.00  0.00    -0.248 OA
BRANCH  15  18
ATOM     18  C   UNL A   1      36.108  23.019  24.209  1.00  0.00     0.042 A 
ATOM     19  C   UNL A   1      39.537  21.829  26.499  1.00  0.00     0.044 C 
ATOM     20  C   UNL A   1      38.272  22.206  25.791  1.00  0.00    -0.051 A 
ATOM     21  C   UNL A   1      37.792  23.520  25.861  1.00  0.00     0.005 A 
ATOM     22  C   UNL A   1      37.599  21.277  24.991  1.00  0.00     0.005 A 
ATOM     23  C   UNL A   1      36.699  23.917  25.091  1.00  0.00     0.026 A 
ATOM     24  C   UNL A   1      36.504  21.678  24.225  1.00  0.00     0.026 A 
ENDBRANCH  15  18
ENDBRANCH   9  14
ENDBRANCH   6   8
ENDBRANCH   5   6
ENDBRANCH   4   5
ENDBRANCH   3   4
ENDBRANCH   2   3
ENDBRANCH   1   2
BRANCH   1  25
ATOM     25  C   UNL A   1      34.326  31.224  27.253  1.00  0.00     0.261 C 
BRANCH  25  26
ATOM     26  O   UNL A   1      35.224  30.298  27.892  1.00  0.00    -0.460 OA
BRANCH  26  27
ATOM     27  C   UNL A   1      36.435  30.808  28.236  1.00  0.00     0.338 C 
ATOM     28  O   UNL A   1      36.706  32.004  28.290  1.00  0.00    -0.246 OA
BRANCH  27  29
ATOM     29  C   UNL A   1      37.420  29.706  28.396  1.00  0.00     0.060 A 
ATOM     30  C   UNL A   1      37.421  28.923  29.565  1.00  0.00     0.016 A 
ATOM     31  C   UNL A   1      38.481  29.612  27.495  1.00  0.00     0.016 A 
ATOM     32  C   UNL A   1      38.542  28.140  29.887  1.00  0.00     0.010 A 
ATOM     33  C   UNL A   1      39.605  28.889  27.845  1.00  0.00     0.010 A 
ATOM     34  C   UNL A   1      39.661  28.176  29.052  1.00  0.00    -0.014 A 
BRANCH  34  35
ATOM     35  C   UNL A   1      40.988  27.652  29.393  1.00  0.00     0.031 A 
ATOM     36  C   UNL A   1      41.462  26.396  28.768  1.00  0.00     0.074 A 
ATOM     37  C   UNL A   1      41.885  28.421  30.056  1.00  0.00     0.049 A 
ATOM     38  N   UNL A   1      42.538  25.786  29.123  1.00  0.00    -0.248 NA
ATOM     39  C   UNL A   1      40.748  25.681  27.715  1.00  0.00     0.031 C 
ATOM     40  C   UNL A   1      43.338  28.275  30.091  1.00  0.00     0.029 A 
ATOM     41  N   UNL A   1      41.659  29.507  30.905  1.00  0.00    -0.354 N 
ATOM     42  C   UNL A   1      42.854  24.870  28.152  1.00  0.00     0.074 A 
ATOM     43  C   UNL A   1      41.635  24.731  27.400  1.00  0.00     0.031 C 
ATOM     44  C   UNL A   1      43.852  29.050  31.059  1.00  0.00     0.029 A 
ATOM     45  C   UNL A   1      42.733  29.573  31.809  1.00  0.00     0.049 A 
ATOM     46  H   UNL A   1      40.887  30.116  30.875  1.00  0.00     0.167 HD
ATOM     47  C   UNL A   1      44.157  24.470  28.048  1.00  0.00     0.034 A 
ATOM     48  C   UNL A   1      42.511  29.426  33.141  1.00  0.00     0.034 A 
ATOM     49  C   UNL A   1      44.949  24.939  29.210  1.00  0.00     0.049 A 
ATOM     50  C   UNL A   1      43.168  28.153  33.630  1.00  0.00     0.074 A 
ATOM     51  C   UNL A   1      46.045  25.769  29.382  1.00  0.00     0.029 A 
ATOM     52  N   UNL A   1      44.462  24.698  30.502  1.00  0.00    -0.354 N 
ATOM     53  N   UNL A   1      43.637  27.230  32.829  1.00  0.00    -0.248 NA
ATOM     54  C   UNL A   1      43.413  27.835  35.026  1.00  0.00     0.031 C 
ATOM     55  C   UNL A   1      46.168  26.062  30.779  1.00  0.00     0.029 A 
ATOM     56  C   UNL A   1      45.179  25.376  31.468  1.00  0.00     0.049 A 
ATOM     57  H   UNL A   1      43.695  24.112  30.698  1.00  0.00     0.167 HD
ATOM     58  C   UNL A   1      44.272  26.249  33.533  1.00  0.00     0.074 A 
ATOM     59  C   UNL A   1      44.089  26.675  34.916  1.00  0.00     0.031 C 
ATOM     60  C   UNL A   1      44.873  25.191  32.897  1.00  0.00     0.034 A 
BRANCH  47  61
ATOM     61  C   UNL A   1      44.783  23.797  26.824  1.00  0.00     0.023 A 
ATOM     62  C   UNL A   1      44.357  22.501  26.449  1.00  0.00     0.031 A 
ATOM     63  C   UNL A   1      45.835  24.313  26.029  1.00  0.00     0.131 A 
ATOM     64  C   UNL A   1      44.957  21.799  25.376  1.00  0.00     0.055 A 
ATOM     65  C   UNL A   1      46.400  23.634  24.940  1.00  0.00     0.041 A 
ATOM     66  F   UNL A   1      46.419  25.488  26.265  1.00  0.00    -0.206 F 
ATOM     67  C   UNL A   1      45.967  22.367  24.610  1.00  0.00     0.022 A 
BRANCH  64  68
ATOM     68  S   UNL A   1      44.425  20.105  24.995  1.00  0.00     0.124 S 
ATOM     69  O   UNL A   1      45.392  19.306  25.740  1.00  0.00    -0.237 OA
ATOM     70  O   UNL A   1      43.052  20.089  25.484  1.00  0.00    -0.237 OA
ATOM     71  O   UNL A   1      44.558  20.027  23.539  1.00  0.00    -0.744 OA
ENDBRANCH  64  68
ENDBRANCH  47  61
BRANCH  48  72
ATOM     72  C   UNL A   1      41.237  30.093  33.563  1.00  0.00     0.023 A 
ATOM     73  C   UNL A   1      41.253  31.514  33.646  1.00  0.00     0.031 A 
ATOM     74  C   UNL A   1      39.989  29.472  33.416  1.00  0.00     0.131 A 
ATOM     75  C   UNL A   1      40.077  32.264  33.453  1.00  0.00     0.055 A 
ATOM     76  C   UNL A   1      38.814  30.224  33.252  1.00  0.00     0.041 A 
ATOM     77  F   UNL A   1      39.901  28.141  33.285  1.00  0.00    -0.206 F 
ATOM     78  C   UNL A   1      38.858  31.620  33.231  1.00  0.00     0.022 A 
BRANCH  75  79
ATOM     79  S   UNL A   1      40.174  34.071  33.165  1.00  0.00     0.124 S 
ATOM     80  O   UNL A   1      40.904  34.534  34.339  1.00  0.00    -0.237 OA
ATOM     81  O   UNL A   1      40.883  34.177  31.893  1.00  0.00    -0.237 OA
ATOM     82  O   UNL A   1      38.768  34.471  33.099  1.00  0.00    -0.744 OA
ENDBRANCH  75  79
ENDBRANCH  48  72
BRANCH  60  83
ATOM     83  C   UNL A   1      45.263  23.875  33.554  1.00  0.00     0.023 A 
ATOM     84  C   UNL A   1      46.542  23.608  34.055  1.00  0.00     0.031 A 
ATOM     85  C   UNL A   1      44.310  22.850  33.790  1.00  0.00     0.131 A 
ATOM     86  C   UNL A   1      46.847  22.408  34.721  1.00  0.00     0.055 A 
ATOM     87  C   UNL A   1      44.597  21.676  34.496  1.00  0.00     0.041 A 
ATOM     88  F   UNL A   1      43.038  22.944  33.379  1.00  0.00    -0.206 F 
ATOM     89  C   UNL A   1      45.877  21.446  34.966  1.00  0.00     0.022 A 
BRANCH  86  90
ATOM     90  S   UNL A   1      48.560  22.150  35.247  1.00  0.00     0.124 S 
ATOM     91  O   UNL A   1      48.387  21.630  36.600  1.00  0.00    -0.237 OA
ATOM     92  O   UNL A   1      49.045  21.189  34.261  1.00  0.00    -0.237 OA
ATOM     93  O   UNL A   1      49.151  23.483  35.162  1.00  0.00    -0.744 OA
ENDBRANCH  86  90
ENDBRANCH  60  83
ENDBRANCH  34  35
ENDBRANCH  27  29
ENDBRANCH  26  27
ENDBRANCH  25  26
ENDBRANCH   1  25
TORSDOF 19
ENDMDL
