MODEL 1
REMARK VINA RESULT:     -10.7      0.000      0.000
REMARK SMILES CC[C@H]1CC[C@](Cc2cccnc2)(C(=O)OCCOCCOC(=O)c2ccc(-c3c4nc(c(-c5cc(S(=O)(=O)[O-])ccc5F)c5ccc([nH]5)c(-c5cc(S(=O)(=O)[O-])ccc5F)c5nc(c(-c6cc(S(=O)(=O)[O-])ccc6F)c6ccc3[nH]6)C=C5)C=C4)cc2)C1
REMARK SMILES IDX 20 1 19 2 18 3 17 4 16 5 14 6 15 7 6 8 3 9 4 10 88 11 5 12
REMARK SMILES IDX 2 13 1 14 7 15 8 16 9 17 13 18 10 19 12 20 11 21 21 22 22 23
REMARK SMILES IDX 23 24 24 25 25 26 26 27 87 28 27 29 86 30 28 31 29 32 30 33
REMARK SMILES IDX 80 34 31 35 85 36 79 37 81 38 32 39 84 40 78 41 77 42 33 44
REMARK SMILES IDX 65 45 45 46 64 47 46 48 49 49 63 50 82 51 47 52 48 53 62 55
REMARK SMILES IDX 83 56 50 57 34 58 35 59 43 60 36 61 42 62 44 63 41 64 37 65
REMARK SMILES IDX 38 66 39 67 40 68 66 69 67 70 75 71 68 72 74 73 76 74 73 75
REMARK SMILES IDX 69 76 70 77 71 78 72 79 51 80 52 81 60 82 53 83 59 84 61 85
REMARK SMILES IDX 58 86 54 87 55 88 56 89 57 90
REMARK H PARENT 81 43 49 54
REMARK Flexibility Score: inf
ROOT
ATOM      1  C   UNL A   1      31.768  28.696  26.083  1.00  0.00     0.202 C 
ENDROOT
BRANCH   1   2
ATOM      2  O   UNL A   1      31.197  28.546  24.788  1.00  0.00    -0.374 OA
BRANCH   2   3
ATOM      3  C   UNL A   1      32.067  28.555  23.659  1.00  0.00     0.202 C 
BRANCH   3   4
ATOM      4  C   UNL A   1      31.617  27.841  22.381  1.00  0.00     0.261 C 
BRANCH   4   5
ATOM      5  O   UNL A   1      31.573  26.414  22.530  1.00  0.00    -0.463 OA
BRANCH   5   6
ATOM      6  C   UNL A   1      32.780  25.796  22.512  1.00  0.00     0.312 C 
ATOM      7  O   UNL A   1      33.594  25.894  21.597  1.00  0.00    -0.252 OA
BRANCH   6   8
ATOM      8  C   UNL A   1      33.062  24.945  23.758  1.00  0.00     0.072 C 
ATOM      9  C   UNL A   1      31.982  24.875  25.996  1.00  0.00    -0.010 C 
ATOM     10  C   UNL A   1      33.464  25.236  26.173  1.00  0.00     0.005 C 
ATOM     11  C   UNL A   1      31.717  24.962  24.497  1.00  0.00     0.022 C 
ATOM     12  C   UNL A   1      34.036  25.543  24.784  1.00  0.00     0.019 C 
BRANCH   9  13
ATOM     13  C   UNL A   1      31.614  23.550  26.680  1.00  0.00     0.000 C 
ATOM     14  C   UNL A   1      31.041  22.481  25.758  1.00  0.00     0.004 C 
ENDBRANCH   9  13
BRANCH   8  15
ATOM     15  C   UNL A   1      33.512  23.563  23.188  1.00  0.00     0.056 C 
BRANCH  15  16
ATOM     16  C   UNL A   1      34.644  22.792  23.809  1.00  0.00    -0.029 A 
ATOM     17  C   UNL A   1      34.398  21.764  24.722  1.00  0.00     0.007 A 
ATOM     18  C   UNL A   1      35.970  23.008  23.445  1.00  0.00     0.114 A 
ATOM     19  C   UNL A   1      35.461  21.064  25.285  1.00  0.00     0.020 A 
ATOM     20  N   UNL A   1      37.023  22.334  23.961  1.00  0.00    -0.264 NA
ATOM     21  C   UNL A   1      36.744  21.389  24.884  1.00  0.00     0.111 A 
ENDBRANCH  15  16
ENDBRANCH   8  15
ENDBRANCH   6   8
ENDBRANCH   5   6
ENDBRANCH   4   5
ENDBRANCH   3   4
ENDBRANCH   2   3
ENDBRANCH   1   2
BRANCH   1  22
ATOM     22  C   UNL A   1      31.789  30.079  26.747  1.00  0.00     0.261 C 
BRANCH  22  23
ATOM     23  O   UNL A   1      32.882  30.906  26.329  1.00  0.00    -0.460 OA
BRANCH  23  24
ATOM     24  C   UNL A   1      33.280  31.808  27.259  1.00  0.00     0.338 C 
ATOM     25  O   UNL A   1      32.602  32.703  27.753  1.00  0.00    -0.246 OA
BRANCH  24  26
ATOM     26  C   UNL A   1      34.617  31.458  27.761  1.00  0.00     0.060 A 
ATOM     27  C   UNL A   1      34.868  30.112  28.062  1.00  0.00     0.016 A 
ATOM     28  C   UNL A   1      35.585  32.435  27.999  1.00  0.00     0.016 A 
ATOM     29  C   UNL A   1      36.083  29.739  28.629  1.00  0.00     0.010 A 
ATOM     30  C   UNL A   1      36.797  32.060  28.587  1.00  0.00     0.010 A 
ATOM     31  C   UNL A   1      37.041  30.716  28.928  1.00  0.00    -0.014 A 
BRANCH  31  32
ATOM     32  C   UNL A   1      38.240  30.349  29.716  1.00  0.00     0.031 A 
ATOM     33  C   UNL A   1      39.196  29.334  29.151  1.00  0.00     0.074 A 
ATOM     34  C   UNL A   1      38.477  30.924  30.908  1.00  0.00     0.049 A 
ATOM     35  N   UNL A   1      40.258  28.803  29.695  1.00  0.00    -0.248 NA
ATOM     36  C   UNL A   1      38.913  28.855  27.789  1.00  0.00     0.031 C 
ATOM     37  C   UNL A   1      37.645  31.960  31.523  1.00  0.00     0.029 A 
ATOM     38  N   UNL A   1      39.479  30.711  31.822  1.00  0.00    -0.354 N 
ATOM     39  C   UNL A   1      40.765  27.917  28.751  1.00  0.00     0.074 A 
ATOM     40  C   UNL A   1      39.880  27.968  27.606  1.00  0.00     0.031 C 
ATOM     41  C   UNL A   1      38.160  32.274  32.725  1.00  0.00     0.029 A 
ATOM     42  C   UNL A   1      39.325  31.431  32.984  1.00  0.00     0.049 A 
ATOM     43  H   UNL A   1      40.234  30.102  31.660  1.00  0.00     0.167 HD
ATOM     44  C   UNL A   1      41.867  27.134  28.837  1.00  0.00     0.034 A 
ATOM     45  C   UNL A   1      40.021  31.382  34.138  1.00  0.00     0.034 A 
ATOM     46  C   UNL A   1      42.733  27.095  29.990  1.00  0.00     0.049 A 
ATOM     47  C   UNL A   1      41.196  30.435  34.238  1.00  0.00     0.074 A 
ATOM     48  C   UNL A   1      43.892  26.360  30.171  1.00  0.00     0.029 A 
ATOM     49  N   UNL A   1      42.528  27.808  31.165  1.00  0.00    -0.354 N 
ATOM     50  N   UNL A   1      41.676  29.613  33.332  1.00  0.00    -0.248 NA
ATOM     51  C   UNL A   1      41.925  30.414  35.513  1.00  0.00     0.031 C 
ATOM     52  C   UNL A   1      44.341  26.566  31.479  1.00  0.00     0.029 A 
ATOM     53  C   UNL A   1      43.514  27.497  32.088  1.00  0.00     0.049 A 
ATOM     54  H   UNL A   1      41.791  28.441  31.318  1.00  0.00     0.167 HD
ATOM     55  C   UNL A   1      42.780  29.002  33.921  1.00  0.00     0.074 A 
ATOM     56  C   UNL A   1      42.906  29.565  35.249  1.00  0.00     0.031 C 
ATOM     57  C   UNL A   1      43.618  28.062  33.413  1.00  0.00     0.034 A 
BRANCH  44  58
ATOM     58  C   UNL A   1      42.164  26.210  27.681  1.00  0.00     0.023 A 
ATOM     59  C   UNL A   1      41.664  24.899  27.626  1.00  0.00     0.031 A 
ATOM     60  C   UNL A   1      42.959  26.660  26.611  1.00  0.00     0.131 A 
ATOM     61  C   UNL A   1      42.001  24.068  26.545  1.00  0.00     0.055 A 
ATOM     62  C   UNL A   1      43.234  25.853  25.507  1.00  0.00     0.041 A 
ATOM     63  F   UNL A   1      43.484  27.896  26.624  1.00  0.00    -0.206 F 
ATOM     64  C   UNL A   1      42.761  24.545  25.474  1.00  0.00     0.022 A 
BRANCH  61  65
ATOM     65  S   UNL A   1      41.522  22.319  26.607  1.00  0.00     0.124 S 
ATOM     66  O   UNL A   1      42.161  21.795  25.403  1.00  0.00    -0.237 OA
ATOM     67  O   UNL A   1      42.092  21.881  27.875  1.00  0.00    -0.237 OA
ATOM     68  O   UNL A   1      40.062  22.362  26.560  1.00  0.00    -0.744 OA
ENDBRANCH  61  65
ENDBRANCH  44  58
BRANCH  45  69
ATOM     69  C   UNL A   1      39.600  32.193  35.317  1.00  0.00     0.023 A 
ATOM     70  C   UNL A   1      38.853  31.627  36.363  1.00  0.00     0.031 A 
ATOM     71  C   UNL A   1      39.867  33.574  35.374  1.00  0.00     0.131 A 
ATOM     72  C   UNL A   1      38.348  32.446  37.386  1.00  0.00     0.055 A 
ATOM     73  C   UNL A   1      39.419  34.372  36.427  1.00  0.00     0.041 A 
ATOM     74  F   UNL A   1      40.572  34.170  34.399  1.00  0.00    -0.206 F 
ATOM     75  C   UNL A   1      38.638  33.812  37.433  1.00  0.00     0.022 A 
BRANCH  72  76
ATOM     76  S   UNL A   1      37.205  31.720  38.592  1.00  0.00     0.124 S 
ATOM     77  O   UNL A   1      36.088  32.656  38.543  1.00  0.00    -0.237 OA
ATOM     78  O   UNL A   1      36.962  30.400  38.020  1.00  0.00    -0.237 OA
ATOM     79  O   UNL A   1      37.973  31.727  39.836  1.00  0.00    -0.744 OA
ENDBRANCH  72  76
ENDBRANCH  45  69
BRANCH  57  80
ATOM     80  C   UNL A   1      44.771  27.623  34.285  1.00  0.00     0.023 A 
ATOM     81  C   UNL A   1      44.620  26.628  35.266  1.00  0.00     0.031 A 
ATOM     82  C   UNL A   1      46.036  28.220  34.138  1.00  0.00     0.131 A 
ATOM     83  C   UNL A   1      45.699  26.300  36.101  1.00  0.00     0.055 A 
ATOM     84  C   UNL A   1      47.123  27.843  34.926  1.00  0.00     0.041 A 
ATOM     85  F   UNL A   1      46.237  29.179  33.219  1.00  0.00    -0.206 F 
ATOM     86  C   UNL A   1      46.955  26.888  35.924  1.00  0.00     0.022 A 
BRANCH  83  87
ATOM     87  S   UNL A   1      45.416  25.165  37.486  1.00  0.00     0.124 S 
ATOM     88  O   UNL A   1      46.633  24.358  37.469  1.00  0.00    -0.237 OA
ATOM     89  O   UNL A   1      45.273  26.078  38.615  1.00  0.00    -0.237 OA
ATOM     90  O   UNL A   1      44.197  24.455  37.105  1.00  0.00    -0.744 OA
ENDBRANCH  83  87
ENDBRANCH  57  80
ENDBRANCH  31  32
ENDBRANCH  24  26
ENDBRANCH  23  24
ENDBRANCH  22  23
ENDBRANCH   1  22
TORSDOF 20
ENDMDL
MODEL 2
REMARK VINA RESULT:     -10.6      1.357      7.789
REMARK SMILES CC[C@H]1CC[C@](Cc2cccnc2)(C(=O)OCCOCCOC(=O)c2ccc(-c3c4nc(c(-c5cc(S(=O)(=O)[O-])ccc5F)c5ccc([nH]5)c(-c5cc(S(=O)(=O)[O-])ccc5F)c5nc(c(-c6cc(S(=O)(=O)[O-])ccc6F)c6ccc3[nH]6)C=C5)C=C4)cc2)C1
REMARK SMILES IDX 20 1 19 2 18 3 17 4 16 5 14 6 15 7 6 8 3 9 4 10 88 11 5 12
REMARK SMILES IDX 2 13 1 14 7 15 8 16 9 17 13 18 10 19 12 20 11 21 21 22 22 23
REMARK SMILES IDX 23 24 24 25 25 26 26 27 87 28 27 29 86 30 28 31 29 32 30 33
REMARK SMILES IDX 80 34 31 35 85 36 79 37 81 38 32 39 84 40 78 41 77 42 33 44
REMARK SMILES IDX 65 45 45 46 64 47 46 48 49 49 63 50 82 51 47 52 48 53 62 55
REMARK SMILES IDX 83 56 50 57 34 58 35 59 43 60 36 61 42 62 44 63 41 64 37 65
REMARK SMILES IDX 38 66 39 67 40 68 66 69 67 70 75 71 68 72 74 73 76 74 73 75
REMARK SMILES IDX 69 76 70 77 71 78 72 79 51 80 52 81 60 82 53 83 59 84 61 85
REMARK SMILES IDX 58 86 54 87 55 88 56 89 57 90
REMARK H PARENT 81 43 49 54
REMARK Flexibility Score: inf
ROOT
ATOM      1  C   UNL A   1      31.658  31.257  26.726  1.00  0.00     0.202 C 
ENDROOT
BRANCH   1   2
ATOM      2  O   UNL A   1      31.720  30.613  25.459  1.00  0.00    -0.374 OA
BRANCH   2   3
ATOM      3  C   UNL A   1      31.734  29.188  25.422  1.00  0.00     0.202 C 
BRANCH   3   4
ATOM      4  C   UNL A   1      31.689  28.419  26.746  1.00  0.00     0.261 C 
BRANCH   4   5
ATOM      5  O   UNL A   1      32.376  27.160  26.679  1.00  0.00    -0.463 OA
BRANCH   5   6
ATOM      6  C   UNL A   1      31.609  26.106  26.308  1.00  0.00     0.312 C 
ATOM      7  O   UNL A   1      30.474  25.894  26.728  1.00  0.00    -0.252 OA
BRANCH   6   8
ATOM      8  C   UNL A   1      32.283  25.173  25.292  1.00  0.00     0.072 C 
ATOM      9  C   UNL A   1      34.644  24.438  25.030  1.00  0.00    -0.010 C 
ATOM     10  C   UNL A   1      34.207  25.162  23.749  1.00  0.00     0.005 C 
ATOM     11  C   UNL A   1      33.533  24.693  26.043  1.00  0.00     0.022 C 
ATOM     12  C   UNL A   1      32.862  25.841  24.035  1.00  0.00     0.019 C 
BRANCH   9  13
ATOM     13  C   UNL A   1      35.015  22.969  24.777  1.00  0.00     0.000 C 
ATOM     14  C   UNL A   1      35.229  22.130  26.030  1.00  0.00     0.004 C 
ENDBRANCH   9  13
BRANCH   8  15
ATOM     15  C   UNL A   1      31.206  24.084  24.991  1.00  0.00     0.056 C 
BRANCH  15  16
ATOM     16  C   UNL A   1      31.594  22.704  24.536  1.00  0.00    -0.029 A 
ATOM     17  C   UNL A   1      31.954  22.460  23.209  1.00  0.00     0.007 A 
ATOM     18  C   UNL A   1      31.692  21.636  25.423  1.00  0.00     0.114 A 
ATOM     19  C   UNL A   1      32.309  21.175  22.810  1.00  0.00     0.020 A 
ATOM     20  N   UNL A   1      32.050  20.380  25.069  1.00  0.00    -0.264 NA
ATOM     21  C   UNL A   1      32.333  20.176  23.766  1.00  0.00     0.111 A 
ENDBRANCH  15  16
ENDBRANCH   8  15
ENDBRANCH   6   8
ENDBRANCH   5   6
ENDBRANCH   4   5
ENDBRANCH   3   4
ENDBRANCH   2   3
ENDBRANCH   1   2
BRANCH   1  22
ATOM     22  C   UNL A   1      32.056  32.733  26.847  1.00  0.00     0.261 C 
BRANCH  22  23
ATOM     23  O   UNL A   1      32.791  33.040  28.039  1.00  0.00    -0.460 OA
BRANCH  23  24
ATOM     24  C   UNL A   1      33.929  33.743  27.822  1.00  0.00     0.338 C 
ATOM     25  O   UNL A   1      34.014  34.921  27.490  1.00  0.00    -0.246 OA
BRANCH  24  26
ATOM     26  C   UNL A   1      35.098  32.948  28.229  1.00  0.00     0.060 A 
ATOM     27  C   UNL A   1      34.872  31.641  28.680  1.00  0.00     0.016 A 
ATOM     28  C   UNL A   1      36.383  33.492  28.234  1.00  0.00     0.016 A 
ATOM     29  C   UNL A   1      35.930  30.878  29.166  1.00  0.00     0.010 A 
ATOM     30  C   UNL A   1      37.440  32.731  28.740  1.00  0.00     0.010 A 
ATOM     31  C   UNL A   1      37.214  31.431  29.232  1.00  0.00    -0.014 A 
BRANCH  31  32
ATOM     32  C   UNL A   1      38.292  30.698  29.936  1.00  0.00     0.031 A 
ATOM     33  C   UNL A   1      38.573  31.030  31.376  1.00  0.00     0.074 A 
ATOM     34  C   UNL A   1      38.997  29.744  29.303  1.00  0.00     0.049 A 
ATOM     35  N   UNL A   1      39.515  30.580  32.162  1.00  0.00    -0.248 NA
ATOM     36  C   UNL A   1      37.668  32.000  32.013  1.00  0.00     0.031 C 
ATOM     37  C   UNL A   1      38.769  29.305  27.925  1.00  0.00     0.029 A 
ATOM     38  N   UNL A   1      40.054  28.980  29.729  1.00  0.00    -0.354 N 
ATOM     39  C   UNL A   1      39.328  31.220  33.382  1.00  0.00     0.074 A 
ATOM     40  C   UNL A   1      38.193  32.106  33.225  1.00  0.00     0.031 C 
ATOM     41  C   UNL A   1      39.679  28.365  27.613  1.00  0.00     0.029 A 
ATOM     42  C   UNL A   1      40.578  28.171  28.747  1.00  0.00     0.049 A 
ATOM     43  H   UNL A   1      40.403  29.009  30.648  1.00  0.00     0.167 HD
ATOM     44  C   UNL A   1      40.041  31.079  34.525  1.00  0.00     0.034 A 
ATOM     45  C   UNL A   1      41.682  27.396  28.755  1.00  0.00     0.034 A 
ATOM     46  C   UNL A   1      41.172  30.194  34.658  1.00  0.00     0.049 A 
ATOM     47  C   UNL A   1      42.510  27.323  30.018  1.00  0.00     0.074 A 
ATOM     48  C   UNL A   1      41.947  29.951  35.779  1.00  0.00     0.029 A 
ATOM     49  N   UNL A   1      41.700  29.416  33.635  1.00  0.00    -0.354 N 
ATOM     50  N   UNL A   1      42.315  27.921  31.172  1.00  0.00    -0.248 NA
ATOM     51  C   UNL A   1      43.704  26.468  29.980  1.00  0.00     0.031 C 
ATOM     52  C   UNL A   1      42.989  29.094  35.413  1.00  0.00     0.029 A 
ATOM     53  C   UNL A   1      42.816  28.729  34.087  1.00  0.00     0.049 A 
ATOM     54  H   UNL A   1      41.335  29.362  32.723  1.00  0.00     0.167 HD
ATOM     55  C   UNL A   1      43.345  27.488  32.003  1.00  0.00     0.074 A 
ATOM     56  C   UNL A   1      44.144  26.565  31.226  1.00  0.00     0.031 C 
ATOM     57  C   UNL A   1      43.608  27.819  33.294  1.00  0.00     0.034 A 
BRANCH  44  58
ATOM     58  C   UNL A   1      39.661  31.945  35.701  1.00  0.00     0.023 A 
ATOM     59  C   UNL A   1      38.760  31.510  36.687  1.00  0.00     0.031 A 
ATOM     60  C   UNL A   1      40.224  33.227  35.839  1.00  0.00     0.131 A 
ATOM     61  C   UNL A   1      38.413  32.369  37.743  1.00  0.00     0.055 A 
ATOM     62  C   UNL A   1      39.928  34.049  36.927  1.00  0.00     0.041 A 
ATOM     63  F   UNL A   1      41.072  33.702  34.913  1.00  0.00    -0.206 F 
ATOM     64  C   UNL A   1      39.010  33.625  37.883  1.00  0.00     0.022 A 
BRANCH  61  65
ATOM     65  S   UNL A   1      37.088  31.867  38.876  1.00  0.00     0.124 S 
ATOM     66  O   UNL A   1      35.990  32.731  38.448  1.00  0.00    -0.237 OA
ATOM     67  O   UNL A   1      36.938  30.448  38.576  1.00  0.00    -0.237 OA
ATOM     68  O   UNL A   1      37.633  32.171  40.197  1.00  0.00    -0.744 OA
ENDBRANCH  61  65
ENDBRANCH  44  58
BRANCH  45  69
ATOM     69  C   UNL A   1      42.118  26.680  27.521  1.00  0.00     0.023 A 
ATOM     70  C   UNL A   1      41.866  25.310  27.345  1.00  0.00     0.031 A 
ATOM     71  C   UNL A   1      42.871  27.340  26.533  1.00  0.00     0.131 A 
ATOM     72  C   UNL A   1      42.413  24.632  26.243  1.00  0.00     0.055 A 
ATOM     73  C   UNL A   1      43.358  26.677  25.405  1.00  0.00     0.041 A 
ATOM     74  F   UNL A   1      43.148  28.649  26.650  1.00  0.00    -0.206 F 
ATOM     75  C   UNL A   1      43.145  25.310  25.265  1.00  0.00     0.022 A 
BRANCH  72  76
ATOM     76  S   UNL A   1      42.256  22.827  26.170  1.00  0.00     0.124 S 
ATOM     77  O   UNL A   1      40.819  22.647  26.344  1.00  0.00    -0.237 OA
ATOM     78  O   UNL A   1      42.784  22.532  24.842  1.00  0.00    -0.237 OA
ATOM     79  O   UNL A   1      43.083  22.369  27.285  1.00  0.00    -0.744 OA
ENDBRANCH  72  76
ENDBRANCH  45  69
BRANCH  57  80
ATOM     80  C   UNL A   1      44.784  27.138  33.953  1.00  0.00     0.023 A 
ATOM     81  C   UNL A   1      44.632  25.966  34.713  1.00  0.00     0.031 A 
ATOM     82  C   UNL A   1      46.077  27.679  33.824  1.00  0.00     0.131 A 
ATOM     83  C   UNL A   1      45.741  25.406  35.364  1.00  0.00     0.055 A 
ATOM     84  C   UNL A   1      47.187  27.080  34.418  1.00  0.00     0.041 A 
ATOM     85  F   UNL A   1      46.281  28.799  33.111  1.00  0.00    -0.206 F 
ATOM     86  C   UNL A   1      47.021  25.945  35.206  1.00  0.00     0.022 A 
BRANCH  83  87
ATOM     87  S   UNL A   1      45.476  24.019  36.501  1.00  0.00     0.124 S 
ATOM     88  O   UNL A   1      44.526  24.585  37.454  1.00  0.00    -0.237 OA
ATOM     89  O   UNL A   1      44.949  22.985  35.615  1.00  0.00    -0.237 OA
ATOM     90  O   UNL A   1      46.809  23.754  37.038  1.00  0.00    -0.744 OA
ENDBRANCH  83  87
ENDBRANCH  57  80
ENDBRANCH  31  32
ENDBRANCH  24  26
ENDBRANCH  23  24
ENDBRANCH  22  23
ENDBRANCH   1  22
TORSDOF 20
ENDMDL
MODEL 3
REMARK VINA RESULT:     -10.5      1.517      7.721
REMARK SMILES CC[C@H]1CC[C@](Cc2cccnc2)(C(=O)OCCOCCOC(=O)c2ccc(-c3c4nc(c(-c5cc(S(=O)(=O)[O-])ccc5F)c5ccc([nH]5)c(-c5cc(S(=O)(=O)[O-])ccc5F)c5nc(c(-c6cc(S(=O)(=O)[O-])ccc6F)c6ccc3[nH]6)C=C5)C=C4)cc2)C1
REMARK SMILES IDX 20 1 19 2 18 3 17 4 16 5 14 6 15 7 6 8 3 9 4 10 88 11 5 12
REMARK SMILES IDX 2 13 1 14 7 15 8 16 9 17 13 18 10 19 12 20 11 21 21 22 22 23
REMARK SMILES IDX 23 24 24 25 25 26 26 27 87 28 27 29 86 30 28 31 29 32 30 33
REMARK SMILES IDX 80 34 31 35 85 36 79 37 81 38 32 39 84 40 78 41 77 42 33 44
REMARK SMILES IDX 65 45 45 46 64 47 46 48 49 49 63 50 82 51 47 52 48 53 62 55
REMARK SMILES IDX 83 56 50 57 34 58 35 59 43 60 36 61 42 62 44 63 41 64 37 65
REMARK SMILES IDX 38 66 39 67 40 68 66 69 67 70 75 71 68 72 74 73 76 74 73 75
REMARK SMILES IDX 69 76 70 77 71 78 72 79 51 80 52 81 60 82 53 83 59 84 61 85
REMARK SMILES IDX 58 86 54 87 55 88 56 89 57 90
REMARK H PARENT 81 43 49 54
REMARK Flexibility Score: inf
ROOT
ATOM      1  C   UNL A   1      31.630  29.710  25.143  1.00  0.00     0.202 C 
ENDROOT
BRANCH   1   2
ATOM      2  O   UNL A   1      30.609  29.659  24.154  1.00  0.00    -0.374 OA
BRANCH   2   3
ATOM      3  C   UNL A   1      30.850  28.907  22.968  1.00  0.00     0.202 C 
BRANCH   3   4
ATOM      4  C   UNL A   1      32.152  28.108  22.857  1.00  0.00     0.261 C 
BRANCH   4   5
ATOM      5  O   UNL A   1      31.927  26.710  22.618  1.00  0.00    -0.463 OA
BRANCH   5   6
ATOM      6  C   UNL A   1      33.050  25.956  22.525  1.00  0.00     0.312 C 
ATOM      7  O   UNL A   1      33.883  26.062  21.629  1.00  0.00    -0.252 OA
BRANCH   6   8
ATOM      8  C   UNL A   1      33.205  24.930  23.657  1.00  0.00     0.072 C 
ATOM      9  C   UNL A   1      31.848  24.491  25.693  1.00  0.00    -0.010 C 
ATOM     10  C   UNL A   1      33.275  24.858  26.121  1.00  0.00     0.005 C 
ATOM     11  C   UNL A   1      31.776  24.800  24.201  1.00  0.00     0.022 C 
ATOM     12  C   UNL A   1      34.008  25.389  24.884  1.00  0.00     0.019 C 
BRANCH   9  13
ATOM     13  C   UNL A   1      31.455  23.068  26.116  1.00  0.00     0.000 C 
ATOM     14  C   UNL A   1      30.139  22.957  26.876  1.00  0.00     0.004 C 
ENDBRANCH   9  13
BRANCH   8  15
ATOM     15  C   UNL A   1      33.789  23.664  22.955  1.00  0.00     0.056 C 
BRANCH  15  16
ATOM     16  C   UNL A   1      34.764  22.760  23.657  1.00  0.00    -0.029 A 
ATOM     17  C   UNL A   1      36.141  22.958  23.538  1.00  0.00     0.007 A 
ATOM     18  C   UNL A   1      34.344  21.748  24.515  1.00  0.00     0.114 A 
ATOM     19  C   UNL A   1      37.026  22.109  24.197  1.00  0.00     0.020 A 
ATOM     20  N   UNL A   1      35.178  20.917  25.182  1.00  0.00    -0.264 NA
ATOM     21  C   UNL A   1      36.501  21.107  24.992  1.00  0.00     0.111 A 
ENDBRANCH  15  16
ENDBRANCH   8  15
ENDBRANCH   6   8
ENDBRANCH   5   6
ENDBRANCH   4   5
ENDBRANCH   3   4
ENDBRANCH   2   3
ENDBRANCH   1   2
BRANCH   1  22
ATOM     22  C   UNL A   1      31.707  30.912  26.093  1.00  0.00     0.261 C 
BRANCH  22  23
ATOM     23  O   UNL A   1      32.589  30.716  27.206  1.00  0.00    -0.460 OA
BRANCH  23  24
ATOM     24  C   UNL A   1      33.396  31.773  27.465  1.00  0.00     0.338 C 
ATOM     25  O   UNL A   1      33.078  32.958  27.474  1.00  0.00    -0.246 OA
BRANCH  24  26
ATOM     26  C   UNL A   1      34.708  31.303  27.934  1.00  0.00     0.060 A 
ATOM     27  C   UNL A   1      34.856  29.933  28.190  1.00  0.00     0.016 A 
ATOM     28  C   UNL A   1      35.754  32.192  28.186  1.00  0.00     0.016 A 
ATOM     29  C   UNL A   1      36.045  29.447  28.725  1.00  0.00     0.010 A 
ATOM     30  C   UNL A   1      36.940  31.704  28.743  1.00  0.00     0.010 A 
ATOM     31  C   UNL A   1      37.081  30.335  29.038  1.00  0.00    -0.014 A 
BRANCH  31  32
ATOM     32  C   UNL A   1      38.259  29.849  29.795  1.00  0.00     0.031 A 
ATOM     33  C   UNL A   1      38.501  30.384  31.180  1.00  0.00     0.074 A 
ATOM     34  C   UNL A   1      39.087  28.936  29.259  1.00  0.00     0.049 A 
ATOM     35  N   UNL A   1      39.504  30.167  31.988  1.00  0.00    -0.248 NA
ATOM     36  C   UNL A   1      37.472  31.286  31.723  1.00  0.00     0.031 C 
ATOM     37  C   UNL A   1      38.913  28.310  27.947  1.00  0.00     0.029 A 
ATOM     38  N   UNL A   1      40.245  28.384  29.743  1.00  0.00    -0.354 N 
ATOM     39  C   UNL A   1      39.238  30.914  33.131  1.00  0.00     0.074 A 
ATOM     40  C   UNL A   1      37.987  31.606  32.901  1.00  0.00     0.031 C 
ATOM     41  C   UNL A   1      39.945  27.477  27.722  1.00  0.00     0.029 A 
ATOM     42  C   UNL A   1      40.871  27.546  28.849  1.00  0.00     0.049 A 
ATOM     43  H   UNL A   1      40.594  28.569  30.645  1.00  0.00     0.167 HD
ATOM     44  C   UNL A   1      39.973  31.010  34.264  1.00  0.00     0.034 A 
ATOM     45  C   UNL A   1      42.075  26.941  28.918  1.00  0.00     0.034 A 
ATOM     46  C   UNL A   1      41.220  30.315  34.471  1.00  0.00     0.049 A 
ATOM     47  C   UNL A   1      42.916  27.135  30.160  1.00  0.00     0.074 A 
ATOM     48  C   UNL A   1      42.032  30.318  35.592  1.00  0.00     0.029 A 
ATOM     49  N   UNL A   1      41.845  29.504  33.531  1.00  0.00    -0.354 N 
ATOM     50  N   UNL A   1      42.646  27.831  31.242  1.00  0.00    -0.248 NA
ATOM     51  C   UNL A   1      44.218  26.458  30.192  1.00  0.00     0.031 C 
ATOM     52  C   UNL A   1      43.182  29.578  35.301  1.00  0.00     0.029 A 
ATOM     53  C   UNL A   1      43.051  29.039  34.031  1.00  0.00     0.049 A 
ATOM     54  H   UNL A   1      41.484  29.292  32.641  1.00  0.00     0.167 HD
ATOM     55  C   UNL A   1      43.735  27.648  32.092  1.00  0.00     0.074 A 
ATOM     56  C   UNL A   1      44.651  26.761  31.406  1.00  0.00     0.031 C 
ATOM     57  C   UNL A   1      43.958  28.162  33.329  1.00  0.00     0.034 A 
BRANCH  44  58
ATOM     58  C   UNL A   1      39.484  31.946  35.342  1.00  0.00     0.023 A 
ATOM     59  C   UNL A   1      39.911  33.282  35.421  1.00  0.00     0.031 A 
ATOM     60  C   UNL A   1      38.564  31.489  36.303  1.00  0.00     0.131 A 
ATOM     61  C   UNL A   1      39.453  34.101  36.466  1.00  0.00     0.055 A 
ATOM     62  C   UNL A   1      38.059  32.327  37.298  1.00  0.00     0.041 A 
ATOM     63  F   UNL A   1      38.141  30.214  36.289  1.00  0.00    -0.206 F 
ATOM     64  C   UNL A   1      38.511  33.640  37.389  1.00  0.00     0.022 A 
BRANCH  61  65
ATOM     65  S   UNL A   1      40.186  35.748  36.669  1.00  0.00     0.124 S 
ATOM     66  O   UNL A   1      39.653  36.454  35.506  1.00  0.00    -0.237 OA
ATOM     67  O   UNL A   1      39.665  36.168  37.965  1.00  0.00    -0.237 OA
ATOM     68  O   UNL A   1      41.624  35.490  36.628  1.00  0.00    -0.744 OA
ENDBRANCH  61  65
ENDBRANCH  44  58
BRANCH  45  69
ATOM     69  C   UNL A   1      42.598  26.153  27.765  1.00  0.00     0.023 A 
ATOM     70  C   UNL A   1      42.339  24.778  27.643  1.00  0.00     0.031 A 
ATOM     71  C   UNL A   1      43.441  26.749  26.808  1.00  0.00     0.131 A 
ATOM     72  C   UNL A   1      42.963  24.035  26.627  1.00  0.00     0.055 A 
ATOM     73  C   UNL A   1      44.007  26.019  25.762  1.00  0.00     0.041 A 
ATOM     74  F   UNL A   1      43.729  28.059  26.878  1.00  0.00    -0.206 F 
ATOM     75  C   UNL A   1      43.784  24.649  25.678  1.00  0.00     0.022 A 
BRANCH  72  76
ATOM     76  S   UNL A   1      42.782  22.231  26.639  1.00  0.00     0.124 S 
ATOM     77  O   UNL A   1      44.077  21.799  26.126  1.00  0.00    -0.237 OA
ATOM     78  O   UNL A   1      42.528  21.962  28.050  1.00  0.00    -0.237 OA
ATOM     79  O   UNL A   1      41.646  21.998  25.748  1.00  0.00    -0.744 OA
ENDBRANCH  72  76
ENDBRANCH  45  69
BRANCH  57  80
ATOM     80  C   UNL A   1      45.226  27.736  34.032  1.00  0.00     0.023 A 
ATOM     81  C   UNL A   1      45.279  26.577  34.824  1.00  0.00     0.031 A 
ATOM     82  C   UNL A   1      46.394  28.511  33.913  1.00  0.00     0.131 A 
ATOM     83  C   UNL A   1      46.458  26.256  35.515  1.00  0.00     0.055 A 
ATOM     84  C   UNL A   1      47.583  28.151  34.548  1.00  0.00     0.041 A 
ATOM     85  F   UNL A   1      46.400  29.631  33.172  1.00  0.00    -0.206 F 
ATOM     86  C   UNL A   1      47.615  27.026  35.367  1.00  0.00     0.022 A 
BRANCH  83  87
ATOM     87  S   UNL A   1      46.432  24.873  36.687  1.00  0.00     0.124 S 
ATOM     88  O   UNL A   1      45.468  25.337  37.681  1.00  0.00    -0.237 OA
ATOM     89  O   UNL A   1      45.997  23.760  35.849  1.00  0.00    -0.237 OA
ATOM     90  O   UNL A   1      47.814  24.793  37.155  1.00  0.00    -0.744 OA
ENDBRANCH  83  87
ENDBRANCH  57  80
ENDBRANCH  31  32
ENDBRANCH  24  26
ENDBRANCH  23  24
ENDBRANCH  22  23
ENDBRANCH   1  22
TORSDOF 20
ENDMDL
