MODEL 1
REMARK VINA RESULT:     -13.0      0.000      0.000
REMARK SMILES O=C(OCCOCCOC(=O)c1ccc(-c2c3nc(c(-c4cc(S(=O)(=O)[O-])ccc4F)c4ccc([nH]4)c(-c4cc(S(=O)(=O)[O-])ccc4F)c4nc(c(-c5cc(S(=O)(=O)[O-])ccc5F)c5ccc2[nH]5)C=C4)C=C3)cc1)C1=Cc2c(ccc(Cl)c2-c2ccccc2)O[C@H]1C(F)(F)F
REMARK SMILES IDX 7 1 6 2 5 3 4 4 3 5 2 6 1 7 75 8 76 9 91 10 77 11 90 12
REMARK SMILES IDX 78 13 83 14 79 15 81 16 80 17 82 18 92 19 93 20 94 21 95 22
REMARK SMILES IDX 84 23 85 24 89 25 86 26 88 27 87 28 8 29 9 30 10 31 11 32
REMARK SMILES IDX 12 33 13 34 74 35 14 36 73 37 15 38 16 39 17 40 67 41 18 42
REMARK SMILES IDX 72 43 66 44 68 45 19 46 71 47 65 48 64 49 20 51 52 52 32 53
REMARK SMILES IDX 51 54 33 55 36 56 50 57 69 58 34 59 35 60 49 62 70 63 37 64
REMARK SMILES IDX 21 65 22 66 30 67 23 68 29 69 31 70 28 71 24 72 25 73 26 74
REMARK SMILES IDX 27 75 53 76 54 77 62 78 55 79 61 80 63 81 60 82 56 83 57 84
REMARK SMILES IDX 58 85 59 86 38 87 39 88 47 89 40 90 46 91 48 92 45 93 41 94
REMARK SMILES IDX 42 95 43 96 44 97
REMARK H PARENT 68 50 36 61
REMARK Flexibility Score: inf
ROOT
ATOM      1  C   UNL A   1      35.438  20.626  25.138  1.00  0.00     0.202 C 
ENDROOT
BRANCH   1   2
ATOM      2  O   UNL A   1      35.020  21.428  26.253  1.00  0.00    -0.374 OA
BRANCH   2   3
ATOM      3  C   UNL A   1      33.812  21.094  26.898  1.00  0.00     0.202 C 
BRANCH   3   4
ATOM      4  C   UNL A   1      32.967  22.277  27.414  1.00  0.00     0.261 C 
BRANCH   4   5
ATOM      5  O   UNL A   1      32.211  22.888  26.351  1.00  0.00    -0.460 OA
BRANCH   5   6
ATOM      6  C   UNL A   1      31.869  24.194  26.285  1.00  0.00     0.338 C 
ATOM      7  O   UNL A   1      31.348  24.736  27.257  1.00  0.00    -0.246 OA
BRANCH   6   8
ATOM      8  C   UNL A   1      32.091  24.999  25.061  1.00  0.00     0.087 C 
ATOM      9  C   UNL A   1      32.763  26.155  24.956  1.00  0.00     0.028 C 
ATOM     10  C   UNL A   1      31.913  24.253  23.763  1.00  0.00     0.316 C 
ATOM     11  C   UNL A   1      32.065  27.104  24.092  1.00  0.00     0.027 A 
ATOM     12  O   UNL A   1      31.603  25.160  22.651  1.00  0.00    -0.475 OA
ATOM     13  C   UNL A   1      31.452  26.498  22.963  1.00  0.00     0.128 A 
ATOM     14  C   UNL A   1      31.895  28.465  24.478  1.00  0.00     0.011 A 
ATOM     15  C   UNL A   1      30.633  27.248  22.149  1.00  0.00     0.049 A 
ATOM     16  C   UNL A   1      30.885  29.106  23.734  1.00  0.00     0.049 A 
ATOM     17  C   UNL A   1      30.316  28.536  22.566  1.00  0.00     0.025 A 
ATOM     18  Cl  UNL A   1      30.094  30.532  24.273  1.00  0.00    -0.084 Cl
BRANCH  10  19
ATOM     19  C   UNL A   1      33.199  23.432  23.498  1.00  0.00     0.430 C 
ATOM     20  F   UNL A   1      33.699  23.651  22.251  1.00  0.00    -0.167 F 
ATOM     21  F   UNL A   1      34.187  23.720  24.371  1.00  0.00    -0.167 F 
ATOM     22  F   UNL A   1      32.963  22.099  23.567  1.00  0.00    -0.167 F 
ENDBRANCH  10  19
BRANCH  14  23
ATOM     23  C   UNL A   1      32.732  29.137  25.581  1.00  0.00    -0.016 A 
ATOM     24  C   UNL A   1      32.183  30.627  26.454  1.00  0.00     0.009 A 
ATOM     25  C   UNL A   1      34.352  28.451  26.020  1.00  0.00     0.009 A 
ATOM     26  C   UNL A   1      33.242  31.475  27.662  1.00  0.00     0.001 A 
ATOM     27  C   UNL A   1      35.428  29.265  27.240  1.00  0.00     0.001 A 
ATOM     28  C   UNL A   1      34.864  30.784  28.072  1.00  0.00     0.000 A 
ENDBRANCH  14  23
ENDBRANCH   6   8
ENDBRANCH   5   6
ENDBRANCH   4   5
ENDBRANCH   3   4
ENDBRANCH   2   3
ENDBRANCH   1   2
BRANCH   1  29
ATOM     29  C   UNL A   1      37.039  20.278  24.894  1.00  0.00     0.261 C 
BRANCH  29  30
ATOM     30  O   UNL A   1      38.730  20.924  25.781  1.00  0.00    -0.460 OA
BRANCH  30  31
ATOM     31  C   UNL A   1      40.030  20.967  26.332  1.00  0.00     0.338 C 
ATOM     32  O   UNL A   1      40.890  20.094  26.370  1.00  0.00    -0.246 OA
BRANCH  31  33
ATOM     33  C   UNL A   1      40.292  22.281  26.913  1.00  0.00     0.060 A 
ATOM     34  C   UNL A   1      39.563  23.367  26.433  1.00  0.00     0.016 A 
ATOM     35  C   UNL A   1      41.269  22.421  27.906  1.00  0.00     0.016 A 
ATOM     36  C   UNL A   1      39.796  24.617  26.983  1.00  0.00     0.010 A 
ATOM     37  C   UNL A   1      41.455  23.651  28.505  1.00  0.00     0.010 A 
ATOM     38  C   UNL A   1      40.749  24.753  28.006  1.00  0.00    -0.014 A 
BRANCH  38  39
ATOM     39  C   UNL A   1      41.298  26.086  28.270  1.00  0.00     0.031 A 
ATOM     40  C   UNL A   1      42.672  26.330  27.724  1.00  0.00     0.074 A 
ATOM     41  C   UNL A   1      40.600  26.999  28.958  1.00  0.00     0.049 A 
ATOM     42  N   UNL A   1      43.416  27.394  27.797  1.00  0.00    -0.248 NA
ATOM     43  C   UNL A   1      43.299  25.202  27.005  1.00  0.00     0.031 C 
ATOM     44  C   UNL A   1      39.259  26.808  29.506  1.00  0.00     0.029 A 
ATOM     45  N   UNL A   1      40.930  28.276  29.313  1.00  0.00    -0.354 N 
ATOM     46  C   UNL A   1      44.589  27.066  27.126  1.00  0.00     0.074 A 
ATOM     47  C   UNL A   1      44.486  25.691  26.706  1.00  0.00     0.031 C 
ATOM     48  C   UNL A   1      38.870  27.940  30.119  1.00  0.00     0.029 A 
ATOM     49  C   UNL A   1      39.953  28.914  30.038  1.00  0.00     0.049 A 
ATOM     50  H   UNL A   1      41.786  28.698  29.072  1.00  0.00     0.167 HD
ATOM     51  C   UNL A   1      45.655  27.858  26.879  1.00  0.00     0.034 A 
ATOM     52  C   UNL A   1      39.965  30.147  30.578  1.00  0.00     0.034 A 
ATOM     53  C   UNL A   1      45.733  29.205  27.373  1.00  0.00     0.049 A 
ATOM     54  C   UNL A   1      41.199  30.989  30.352  1.00  0.00     0.074 A 
ATOM     55  C   UNL A   1      46.760  30.118  27.243  1.00  0.00     0.029 A 
ATOM     56  N   UNL A   1      44.736  29.823  28.123  1.00  0.00    -0.354 N 
ATOM     57  N   UNL A   1      42.301  30.688  29.697  1.00  0.00    -0.248 NA
ATOM     58  C   UNL A   1      41.186  32.338  30.921  1.00  0.00     0.031 C 
ATOM     59  C   UNL A   1      46.414  31.260  27.974  1.00  0.00     0.029 A 
ATOM     60  C   UNL A   1      45.132  31.097  28.483  1.00  0.00     0.049 A 
ATOM     61  H   UNL A   1      43.874  29.412  28.362  1.00  0.00     0.167 HD
ATOM     62  C   UNL A   1      43.094  31.829  29.738  1.00  0.00     0.074 A 
ATOM     63  C   UNL A   1      42.335  32.824  30.473  1.00  0.00     0.031 C 
ATOM     64  C   UNL A   1      44.331  32.050  29.219  1.00  0.00     0.034 A 
BRANCH  51  65
ATOM     65  C   UNL A   1      46.805  27.236  26.129  1.00  0.00     0.023 A 
ATOM     66  C   UNL A   1      47.834  26.541  26.794  1.00  0.00     0.031 A 
ATOM     67  C   UNL A   1      46.933  27.434  24.745  1.00  0.00     0.131 A 
ATOM     68  C   UNL A   1      48.980  26.144  26.088  1.00  0.00     0.055 A 
ATOM     69  C   UNL A   1      48.037  26.961  24.034  1.00  0.00     0.041 A 
ATOM     70  F   UNL A   1      46.007  28.129  24.064  1.00  0.00    -0.206 F 
ATOM     71  C   UNL A   1      49.077  26.326  24.708  1.00  0.00     0.022 A 
BRANCH  68  72
ATOM     72  S   UNL A   1      50.413  25.539  27.024  1.00  0.00     0.124 S 
ATOM     73  O   UNL A   1      51.387  25.312  25.960  1.00  0.00    -0.237 OA
ATOM     74  O   UNL A   1      50.697  26.651  27.923  1.00  0.00    -0.237 OA
ATOM     75  O   UNL A   1      49.913  24.327  27.670  1.00  0.00    -0.744 OA
ENDBRANCH  68  72
ENDBRANCH  51  65
BRANCH  52  76
ATOM     76  C   UNL A   1      38.807  30.653  31.368  1.00  0.00     0.023 A 
ATOM     77  C   UNL A   1      37.864  31.522  30.798  1.00  0.00     0.031 A 
ATOM     78  C   UNL A   1      38.650  30.315  32.725  1.00  0.00     0.131 A 
ATOM     79  C   UNL A   1      36.841  32.067  31.589  1.00  0.00     0.055 A 
ATOM     80  C   UNL A   1      37.598  30.817  33.496  1.00  0.00     0.041 A 
ATOM     81  F   UNL A   1      39.517  29.484  33.324  1.00  0.00    -0.206 F 
ATOM     82  C   UNL A   1      36.695  31.712  32.932  1.00  0.00     0.022 A 
BRANCH  79  83
ATOM     83  S   UNL A   1      35.757  33.327  30.861  1.00  0.00     0.124 S 
ATOM     84  O   UNL A   1      36.335  33.482  29.531  1.00  0.00    -0.237 OA
ATOM     85  O   UNL A   1      34.453  32.675  30.923  1.00  0.00    -0.237 OA
ATOM     86  O   UNL A   1      35.922  34.473  31.752  1.00  0.00    -0.744 OA
ENDBRANCH  79  83
ENDBRANCH  52  76
BRANCH  64  87
ATOM     87  C   UNL A   1      44.890  33.441  29.375  1.00  0.00     0.023 A 
ATOM     88  C   UNL A   1      44.610  34.460  28.451  1.00  0.00     0.031 A 
ATOM     89  C   UNL A   1      45.730  33.739  30.463  1.00  0.00     0.131 A 
ATOM     90  C   UNL A   1      45.230  35.709  28.589  1.00  0.00     0.055 A 
ATOM     91  C   UNL A   1      46.279  35.007  30.638  1.00  0.00     0.041 A 
ATOM     92  F   UNL A   1      46.028  32.799  31.375  1.00  0.00    -0.206 F 
ATOM     93  C   UNL A   1      46.046  35.996  29.687  1.00  0.00     0.022 A 
BRANCH  90  94
ATOM     94  S   UNL A   1      45.063  36.908  27.239  1.00  0.00     0.124 S 
ATOM     95  O   UNL A   1      45.295  38.173  27.928  1.00  0.00    -0.237 OA
ATOM     96  O   UNL A   1      46.110  36.484  26.315  1.00  0.00    -0.237 OA
ATOM     97  O   UNL A   1      43.696  36.701  26.765  1.00  0.00    -0.744 OA
ENDBRANCH  90  94
ENDBRANCH  64  87
ENDBRANCH  38  39
ENDBRANCH  31  33
ENDBRANCH  30  31
ENDBRANCH  29  30
ENDBRANCH   1  29
TORSDOF 19
ENDMDL
MODEL 2
REMARK VINA RESULT:     -13.0      1.530      7.476
REMARK SMILES O=C(OCCOCCOC(=O)c1ccc(-c2c3nc(c(-c4cc(S(=O)(=O)[O-])ccc4F)c4ccc([nH]4)c(-c4cc(S(=O)(=O)[O-])ccc4F)c4nc(c(-c5cc(S(=O)(=O)[O-])ccc5F)c5ccc2[nH]5)C=C4)C=C3)cc1)C1=Cc2c(ccc(Cl)c2-c2ccccc2)O[C@H]1C(F)(F)F
REMARK SMILES IDX 7 1 6 2 5 3 4 4 3 5 2 6 1 7 75 8 76 9 91 10 77 11 90 12
REMARK SMILES IDX 78 13 83 14 79 15 81 16 80 17 82 18 92 19 93 20 94 21 95 22
REMARK SMILES IDX 84 23 85 24 89 25 86 26 88 27 87 28 8 29 9 30 10 31 11 32
REMARK SMILES IDX 12 33 13 34 74 35 14 36 73 37 15 38 16 39 17 40 67 41 18 42
REMARK SMILES IDX 72 43 66 44 68 45 19 46 71 47 65 48 64 49 20 51 52 52 32 53
REMARK SMILES IDX 51 54 33 55 36 56 50 57 69 58 34 59 35 60 49 62 70 63 37 64
REMARK SMILES IDX 21 65 22 66 30 67 23 68 29 69 31 70 28 71 24 72 25 73 26 74
REMARK SMILES IDX 27 75 53 76 54 77 62 78 55 79 61 80 63 81 60 82 56 83 57 84
REMARK SMILES IDX 58 85 59 86 38 87 39 88 47 89 40 90 46 91 48 92 45 93 41 94
REMARK SMILES IDX 42 95 43 96 44 97
REMARK H PARENT 68 50 36 61
REMARK Flexibility Score: inf
ROOT
ATOM      1  C   UNL A   1      35.268  20.948  25.295  1.00  0.00     0.202 C 
ENDROOT
BRANCH   1   2
ATOM      2  O   UNL A   1      34.805  21.924  26.240  1.00  0.00    -0.374 OA
BRANCH   2   3
ATOM      3  C   UNL A   1      33.965  21.493  27.286  1.00  0.00     0.202 C 
BRANCH   3   4
ATOM      4  C   UNL A   1      32.806  22.439  27.662  1.00  0.00     0.261 C 
BRANCH   4   5
ATOM      5  O   UNL A   1      32.901  23.693  26.960  1.00  0.00    -0.460 OA
BRANCH   5   6
ATOM      6  C   UNL A   1      31.854  24.407  26.489  1.00  0.00     0.338 C 
ATOM      7  O   UNL A   1      30.785  24.392  27.094  1.00  0.00    -0.246 OA
BRANCH   6   8
ATOM      8  C   UNL A   1      31.950  25.204  25.243  1.00  0.00     0.087 C 
ATOM      9  C   UNL A   1      32.661  26.323  25.045  1.00  0.00     0.028 C 
ATOM     10  C   UNL A   1      31.560  24.473  23.984  1.00  0.00     0.316 C 
ATOM     11  C   UNL A   1      31.905  27.311  24.280  1.00  0.00     0.027 A 
ATOM     12  O   UNL A   1      31.150  25.400  22.921  1.00  0.00    -0.475 OA
ATOM     13  C   UNL A   1      31.113  26.742  23.246  1.00  0.00     0.128 A 
ATOM     14  C   UNL A   1      31.860  28.677  24.681  1.00  0.00     0.011 A 
ATOM     15  C   UNL A   1      30.232  27.538  22.548  1.00  0.00     0.049 A 
ATOM     16  C   UNL A   1      30.793  29.373  24.078  1.00  0.00     0.049 A 
ATOM     17  C   UNL A   1      30.042  28.839  23.000  1.00  0.00     0.025 A 
ATOM     18  Cl  UNL A   1      30.158  30.837  24.714  1.00  0.00    -0.084 Cl
BRANCH  10  19
ATOM     19  C   UNL A   1      32.753  23.587  23.550  1.00  0.00     0.430 C 
ATOM     20  F   UNL A   1      33.937  24.044  24.042  1.00  0.00    -0.167 F 
ATOM     21  F   UNL A   1      32.626  22.309  23.964  1.00  0.00    -0.167 F 
ATOM     22  F   UNL A   1      32.900  23.573  22.203  1.00  0.00    -0.167 F 
ENDBRANCH  10  19
BRANCH  14  23
ATOM     23  C   UNL A   1      32.872  29.300  25.659  1.00  0.00    -0.016 A 
ATOM     24  C   UNL A   1      34.488  28.555  25.998  1.00  0.00     0.009 A 
ATOM     25  C   UNL A   1      32.440  30.820  26.548  1.00  0.00     0.009 A 
ATOM     26  C   UNL A   1      35.615  29.239  27.250  1.00  0.00     0.001 A 
ATOM     27  C   UNL A   1      33.554  31.540  27.793  1.00  0.00     0.001 A 
ATOM     28  C   UNL A   1      35.156  30.747  28.140  1.00  0.00     0.000 A 
ENDBRANCH  14  23
ENDBRANCH   6   8
ENDBRANCH   5   6
ENDBRANCH   4   5
ENDBRANCH   3   4
ENDBRANCH   2   3
ENDBRANCH   1   2
BRANCH   1  29
ATOM     29  C   UNL A   1      36.842  20.940  24.782  1.00  0.00     0.261 C 
BRANCH  29  30
ATOM     30  O   UNL A   1      38.585  21.357  25.706  1.00  0.00    -0.460 OA
BRANCH  30  31
ATOM     31  C   UNL A   1      39.777  21.231  26.452  1.00  0.00     0.338 C 
ATOM     32  O   UNL A   1      40.419  20.224  26.733  1.00  0.00    -0.246 OA
BRANCH  31  33
ATOM     33  C   UNL A   1      40.231  22.541  26.909  1.00  0.00     0.060 A 
ATOM     34  C   UNL A   1      39.651  23.672  26.339  1.00  0.00     0.016 A 
ATOM     35  C   UNL A   1      41.238  22.631  27.879  1.00  0.00     0.016 A 
ATOM     36  C   UNL A   1      40.067  24.921  26.771  1.00  0.00     0.010 A 
ATOM     37  C   UNL A   1      41.606  23.870  28.362  1.00  0.00     0.010 A 
ATOM     38  C   UNL A   1      41.049  25.012  27.771  1.00  0.00    -0.014 A 
BRANCH  38  39
ATOM     39  C   UNL A   1      41.784  26.273  27.908  1.00  0.00     0.031 A 
ATOM     40  C   UNL A   1      41.086  27.335  28.702  1.00  0.00     0.074 A 
ATOM     41  C   UNL A   1      42.989  26.437  27.347  1.00  0.00     0.049 A 
ATOM     42  N   UNL A   1      41.473  28.543  28.991  1.00  0.00    -0.248 NA
ATOM     43  C   UNL A   1      39.753  26.984  29.232  1.00  0.00     0.031 C 
ATOM     44  C   UNL A   1      43.709  25.431  26.569  1.00  0.00     0.029 A 
ATOM     45  N   UNL A   1      43.822  27.519  27.349  1.00  0.00    -0.354 N 
ATOM     46  C   UNL A   1      40.438  29.087  29.743  1.00  0.00     0.074 A 
ATOM     47  C   UNL A   1      39.384  28.108  29.816  1.00  0.00     0.031 C 
ATOM     48  C   UNL A   1      44.890  25.940  26.178  1.00  0.00     0.029 A 
ATOM     49  C   UNL A   1      44.985  27.318  26.647  1.00  0.00     0.049 A 
ATOM     50  H   UNL A   1      43.608  28.363  27.811  1.00  0.00     0.167 HD
ATOM     51  C   UNL A   1      40.386  30.304  30.327  1.00  0.00     0.034 A 
ATOM     52  C   UNL A   1      45.995  28.178  26.413  1.00  0.00     0.034 A 
ATOM     53  C   UNL A   1      41.440  31.268  30.173  1.00  0.00     0.049 A 
ATOM     54  C   UNL A   1      45.881  29.559  27.014  1.00  0.00     0.074 A 
ATOM     55  C   UNL A   1      41.517  32.555  30.667  1.00  0.00     0.029 A 
ATOM     56  N   UNL A   1      42.602  31.047  29.439  1.00  0.00    -0.354 N 
ATOM     57  N   UNL A   1      44.912  30.069  27.746  1.00  0.00    -0.248 NA
ATOM     58  C   UNL A   1      46.999  30.474  26.775  1.00  0.00     0.031 C 
ATOM     59  C   UNL A   1      42.691  33.134  30.172  1.00  0.00     0.029 A 
ATOM     60  C   UNL A   1      43.393  32.180  29.446  1.00  0.00     0.049 A 
ATOM     61  H   UNL A   1      42.828  30.205  28.981  1.00  0.00     0.167 HD
ATOM     62  C   UNL A   1      45.327  31.350  28.091  1.00  0.00     0.074 A 
ATOM     63  C   UNL A   1      46.638  31.525  27.495  1.00  0.00     0.031 C 
ATOM     64  C   UNL A   1      44.697  32.300  28.833  1.00  0.00     0.034 A 
BRANCH  51  65
ATOM     65  C   UNL A   1      39.127  30.641  31.084  1.00  0.00     0.023 A 
ATOM     66  C   UNL A   1      38.168  31.535  30.567  1.00  0.00     0.031 A 
ATOM     67  C   UNL A   1      38.935  30.151  32.386  1.00  0.00     0.131 A 
ATOM     68  C   UNL A   1      37.110  31.972  31.378  1.00  0.00     0.055 A 
ATOM     69  C   UNL A   1      37.832  30.524  33.156  1.00  0.00     0.041 A 
ATOM     70  F   UNL A   1      39.838  29.333  32.949  1.00  0.00    -0.206 F 
ATOM     71  C   UNL A   1      36.920  31.452  32.660  1.00  0.00     0.022 A 
BRANCH  68  72
ATOM     72  S   UNL A   1      36.081  33.351  30.799  1.00  0.00     0.124 S 
ATOM     73  O   UNL A   1      36.651  33.612  29.480  1.00  0.00    -0.237 OA
ATOM     74  O   UNL A   1      34.742  32.775  30.813  1.00  0.00    -0.237 OA
ATOM     75  O   UNL A   1      36.320  34.397  31.792  1.00  0.00    -0.744 OA
ENDBRANCH  68  72
ENDBRANCH  51  65
BRANCH  52  76
ATOM     76  C   UNL A   1      47.170  27.778  25.589  1.00  0.00     0.023 A 
ATOM     77  C   UNL A   1      47.227  28.069  24.217  1.00  0.00     0.031 A 
ATOM     78  C   UNL A   1      48.238  27.054  26.150  1.00  0.00     0.131 A 
ATOM     79  C   UNL A   1      48.294  27.592  23.440  1.00  0.00     0.055 A 
ATOM     80  C   UNL A   1      49.327  26.628  25.384  1.00  0.00     0.041 A 
ATOM     81  F   UNL A   1      48.243  26.752  27.457  1.00  0.00    -0.206 F 
ATOM     82  C   UNL A   1      49.351  26.883  24.016  1.00  0.00     0.022 A 
BRANCH  79  83
ATOM     83  S   UNL A   1      48.235  27.829  21.643  1.00  0.00     0.124 S 
ATOM     84  O   UNL A   1      48.458  26.473  21.157  1.00  0.00    -0.237 OA
ATOM     85  O   UNL A   1      46.892  28.367  21.453  1.00  0.00    -0.237 OA
ATOM     86  O   UNL A   1      49.322  28.771  21.388  1.00  0.00    -0.744 OA
ENDBRANCH  79  83
ENDBRANCH  52  76
BRANCH  64  87
ATOM     87  C   UNL A   1      45.462  33.574  29.087  1.00  0.00     0.023 A 
ATOM     88  C   UNL A   1      45.397  34.666  28.208  1.00  0.00     0.031 A 
ATOM     89  C   UNL A   1      46.280  33.683  30.226  1.00  0.00     0.131 A 
ATOM     90  C   UNL A   1      46.200  35.790  28.438  1.00  0.00     0.055 A 
ATOM     91  C   UNL A   1      47.014  34.836  30.492  1.00  0.00     0.041 A 
ATOM     92  F   UNL A   1      46.376  32.666  31.099  1.00  0.00    -0.206 F 
ATOM     93  C   UNL A   1      46.992  35.892  29.585  1.00  0.00     0.022 A 
BRANCH  90  94
ATOM     94  S   UNL A   1      46.297  37.060  27.149  1.00  0.00     0.124 S 
ATOM     95  O   UNL A   1      47.228  38.017  27.736  1.00  0.00    -0.237 OA
ATOM     96  O   UNL A   1      46.797  36.305  26.005  1.00  0.00    -0.237 OA
ATOM     97  O   UNL A   1      44.918  37.530  27.027  1.00  0.00    -0.744 OA
ENDBRANCH  90  94
ENDBRANCH  64  87
ENDBRANCH  38  39
ENDBRANCH  31  33
ENDBRANCH  30  31
ENDBRANCH  29  30
ENDBRANCH   1  29
TORSDOF 19
ENDMDL
MODEL 3
REMARK VINA RESULT:     -12.8      1.939      7.843
REMARK SMILES O=C(OCCOCCOC(=O)c1ccc(-c2c3nc(c(-c4cc(S(=O)(=O)[O-])ccc4F)c4ccc([nH]4)c(-c4cc(S(=O)(=O)[O-])ccc4F)c4nc(c(-c5cc(S(=O)(=O)[O-])ccc5F)c5ccc2[nH]5)C=C4)C=C3)cc1)C1=Cc2c(ccc(Cl)c2-c2ccccc2)O[C@H]1C(F)(F)F
REMARK SMILES IDX 7 1 6 2 5 3 4 4 3 5 2 6 1 7 75 8 76 9 91 10 77 11 90 12
REMARK SMILES IDX 78 13 83 14 79 15 81 16 80 17 82 18 92 19 93 20 94 21 95 22
REMARK SMILES IDX 84 23 85 24 89 25 86 26 88 27 87 28 8 29 9 30 10 31 11 32
REMARK SMILES IDX 12 33 13 34 74 35 14 36 73 37 15 38 16 39 17 40 67 41 18 42
REMARK SMILES IDX 72 43 66 44 68 45 19 46 71 47 65 48 64 49 20 51 52 52 32 53
REMARK SMILES IDX 51 54 33 55 36 56 50 57 69 58 34 59 35 60 49 62 70 63 37 64
REMARK SMILES IDX 21 65 22 66 30 67 23 68 29 69 31 70 28 71 24 72 25 73 26 74
REMARK SMILES IDX 27 75 53 76 54 77 62 78 55 79 61 80 63 81 60 82 56 83 57 84
REMARK SMILES IDX 58 85 59 86 38 87 39 88 47 89 40 90 46 91 48 92 45 93 41 94
REMARK SMILES IDX 42 95 43 96 44 97
REMARK H PARENT 68 50 36 61
REMARK Flexibility Score: inf
ROOT
ATOM      1  C   UNL A   1      36.852  22.938  23.350  1.00  0.00     0.202 C 
ENDROOT
BRANCH   1   2
ATOM      2  O   UNL A   1      35.753  23.053  22.434  1.00  0.00    -0.374 OA
BRANCH   2   3
ATOM      3  C   UNL A   1      34.444  23.005  22.953  1.00  0.00     0.202 C 
BRANCH   3   4
ATOM      4  C   UNL A   1      33.312  23.404  21.983  1.00  0.00     0.261 C 
BRANCH   4   5
ATOM      5  O   UNL A   1      32.262  24.116  22.664  1.00  0.00    -0.460 OA
BRANCH   5   6
ATOM      6  C   UNL A   1      32.270  25.437  22.950  1.00  0.00     0.338 C 
ATOM      7  O   UNL A   1      32.731  26.232  22.135  1.00  0.00    -0.246 OA
BRANCH   6   8
ATOM      8  C   UNL A   1      31.750  25.962  24.234  1.00  0.00     0.087 C 
ATOM      9  C   UNL A   1      30.891  26.977  24.411  1.00  0.00     0.028 C 
ATOM     10  C   UNL A   1      31.862  25.019  25.404  1.00  0.00     0.316 C 
ATOM     11  C   UNL A   1      31.295  27.834  25.522  1.00  0.00     0.027 A 
ATOM     12  O   UNL A   1      31.860  25.737  26.685  1.00  0.00    -0.475 OA
ATOM     13  C   UNL A   1      31.833  27.117  26.625  1.00  0.00     0.128 A 
ATOM     14  C   UNL A   1      31.294  29.253  25.397  1.00  0.00     0.011 A 
ATOM     15  C   UNL A   1      32.396  27.807  27.675  1.00  0.00     0.049 A 
ATOM     16  C   UNL A   1      32.071  29.875  26.394  1.00  0.00     0.049 A 
ATOM     17  C   UNL A   1      32.555  29.181  27.533  1.00  0.00     0.025 A 
ATOM     18  Cl  UNL A   1      32.688  31.471  26.235  1.00  0.00    -0.084 Cl
BRANCH  10  19
ATOM     19  C   UNL A   1      30.702  23.996  25.313  1.00  0.00     0.430 C 
ATOM     20  F   UNL A   1      29.887  24.240  24.250  1.00  0.00    -0.167 F 
ATOM     21  F   UNL A   1      31.140  22.727  25.186  1.00  0.00    -0.167 F 
ATOM     22  F   UNL A   1      29.902  24.051  26.405  1.00  0.00    -0.167 F 
ENDBRANCH  10  19
BRANCH  14  23
ATOM     23  C   UNL A   1      30.524  29.999  24.293  1.00  0.00    -0.016 A 
ATOM     24  C   UNL A   1      29.556  31.496  24.618  1.00  0.00     0.009 A 
ATOM     25  C   UNL A   1      30.539  29.355  22.598  1.00  0.00     0.009 A 
ATOM     26  C   UNL A   1      28.552  32.287  23.326  1.00  0.00     0.001 A 
ATOM     27  C   UNL A   1      29.560  30.135  21.278  1.00  0.00     0.001 A 
ATOM     28  C   UNL A   1      28.566  31.617  21.645  1.00  0.00     0.000 A 
ENDBRANCH  14  23
ENDBRANCH   6   8
ENDBRANCH   5   6
ENDBRANCH   4   5
ENDBRANCH   3   4
ENDBRANCH   2   3
ENDBRANCH   1   2
BRANCH   1  29
ATOM     29  C   UNL A   1      36.996  21.623  24.345  1.00  0.00     0.261 C 
BRANCH  29  30
ATOM     30  O   UNL A   1      38.442  21.020  25.615  1.00  0.00    -0.460 OA
BRANCH  30  31
ATOM     31  C   UNL A   1      39.672  20.908  26.299  1.00  0.00     0.338 C 
ATOM     32  O   UNL A   1      40.357  19.913  26.514  1.00  0.00    -0.246 OA
BRANCH  31  33
ATOM     33  C   UNL A   1      40.109  22.216  26.777  1.00  0.00     0.060 A 
ATOM     34  C   UNL A   1      39.493  23.348  26.248  1.00  0.00     0.016 A 
ATOM     35  C   UNL A   1      41.135  22.304  27.726  1.00  0.00     0.016 A 
ATOM     36  C   UNL A   1      39.892  24.594  26.701  1.00  0.00     0.010 A 
ATOM     37  C   UNL A   1      41.489  23.540  28.232  1.00  0.00     0.010 A 
ATOM     38  C   UNL A   1      40.895  24.683  27.680  1.00  0.00    -0.014 A 
BRANCH  38  39
ATOM     39  C   UNL A   1      41.607  25.955  27.832  1.00  0.00     0.031 A 
ATOM     40  C   UNL A   1      40.870  27.011  28.599  1.00  0.00     0.074 A 
ATOM     41  C   UNL A   1      42.825  26.135  27.305  1.00  0.00     0.049 A 
ATOM     42  N   UNL A   1      41.230  28.226  28.893  1.00  0.00    -0.248 NA
ATOM     43  C   UNL A   1      39.527  26.642  29.092  1.00  0.00     0.031 C 
ATOM     44  C   UNL A   1      43.582  25.136  26.553  1.00  0.00     0.029 A 
ATOM     45  N   UNL A   1      43.641  27.230  27.326  1.00  0.00    -0.354 N 
ATOM     46  C   UNL A   1      40.166  28.758  29.611  1.00  0.00     0.074 A 
ATOM     47  C   UNL A   1      39.124  27.763  29.659  1.00  0.00     0.031 C 
ATOM     48  C   UNL A   1      44.767  25.661  26.195  1.00  0.00     0.029 A 
ATOM     49  C   UNL A   1      44.827  27.043  26.659  1.00  0.00     0.049 A 
ATOM     50  H   UNL A   1      43.401  28.072  27.776  1.00  0.00     0.167 HD
ATOM     51  C   UNL A   1      40.078  29.977  30.187  1.00  0.00     0.034 A 
ATOM     52  C   UNL A   1      45.830  27.917  26.449  1.00  0.00     0.034 A 
ATOM     53  C   UNL A   1      41.122  30.957  30.058  1.00  0.00     0.049 A 
ATOM     54  C   UNL A   1      45.677  29.299  27.039  1.00  0.00     0.074 A 
ATOM     55  C   UNL A   1      41.165  32.246  30.547  1.00  0.00     0.029 A 
ATOM     56  N   UNL A   1      42.308  30.749  29.359  1.00  0.00    -0.354 N 
ATOM     57  N   UNL A   1      44.680  29.797  27.739  1.00  0.00    -0.248 NA
ATOM     58  C   UNL A   1      46.788  30.229  26.827  1.00  0.00     0.031 C 
ATOM     59  C   UNL A   1      42.344  32.841  30.083  1.00  0.00     0.029 A 
ATOM     60  C   UNL A   1      43.080  31.894  29.383  1.00  0.00     0.049 A 
ATOM     61  H   UNL A   1      42.560  29.908  28.913  1.00  0.00     0.167 HD
ATOM     62  C   UNL A   1      45.065  31.087  28.090  1.00  0.00     0.074 A 
ATOM     63  C   UNL A   1      46.390  31.279  27.530  1.00  0.00     0.031 C 
ATOM     64  C   UNL A   1      44.400  32.031  28.807  1.00  0.00     0.034 A 
BRANCH  51  65
ATOM     65  C   UNL A   1      38.793  30.299  30.905  1.00  0.00     0.023 A 
ATOM     66  C   UNL A   1      37.746  31.000  30.274  1.00  0.00     0.031 A 
ATOM     67  C   UNL A   1      38.654  30.000  32.270  1.00  0.00     0.131 A 
ATOM     68  C   UNL A   1      36.650  31.448  31.026  1.00  0.00     0.055 A 
ATOM     69  C   UNL A   1      37.521  30.375  32.993  1.00  0.00     0.041 A 
ATOM     70  F   UNL A   1      39.638  29.375  32.937  1.00  0.00    -0.206 F 
ATOM     71  C   UNL A   1      36.518  31.118  32.376  1.00  0.00     0.022 A 
BRANCH  68  72
ATOM     72  S   UNL A   1      35.484  32.609  30.259  1.00  0.00     0.124 S 
ATOM     73  O   UNL A   1      35.310  32.022  28.933  1.00  0.00    -0.237 OA
ATOM     74  O   UNL A   1      34.330  32.532  31.148  1.00  0.00    -0.237 OA
ATOM     75  O   UNL A   1      36.203  33.881  30.280  1.00  0.00    -0.744 OA
ENDBRANCH  68  72
ENDBRANCH  51  65
BRANCH  52  76
ATOM     76  C   UNL A   1      47.035  27.531  25.662  1.00  0.00     0.023 A 
ATOM     77  C   UNL A   1      47.167  27.894  24.312  1.00  0.00     0.031 A 
ATOM     78  C   UNL A   1      48.055  26.748  26.232  1.00  0.00     0.131 A 
ATOM     79  C   UNL A   1      48.260  27.432  23.562  1.00  0.00     0.055 A 
ATOM     80  C   UNL A   1      49.170  26.335  25.497  1.00  0.00     0.041 A 
ATOM     81  F   UNL A   1      47.988  26.374  27.519  1.00  0.00    -0.206 F 
ATOM     82  C   UNL A   1      49.268  26.664  24.149  1.00  0.00     0.022 A 
BRANCH  79  83
ATOM     83  S   UNL A   1      48.296  27.769  21.781  1.00  0.00     0.124 S 
ATOM     84  O   UNL A   1      48.541  26.440  21.233  1.00  0.00    -0.237 OA
ATOM     85  O   UNL A   1      46.966  28.323  21.551  1.00  0.00    -0.237 OA
ATOM     86  O   UNL A   1      49.397  28.718  21.636  1.00  0.00    -0.744 OA
ENDBRANCH  79  83
ENDBRANCH  52  76
BRANCH  64  87
ATOM     87  C   UNL A   1      45.138  33.317  29.077  1.00  0.00     0.023 A 
ATOM     88  C   UNL A   1      45.047  34.419  28.212  1.00  0.00     0.031 A 
ATOM     89  C   UNL A   1      45.957  33.429  30.214  1.00  0.00     0.131 A 
ATOM     90  C   UNL A   1      45.826  35.558  28.456  1.00  0.00     0.055 A 
ATOM     91  C   UNL A   1      46.667  34.594  30.494  1.00  0.00     0.041 A 
ATOM     92  F   UNL A   1      46.077  32.403  31.074  1.00  0.00    -0.206 F 
ATOM     93  C   UNL A   1      46.619  35.661  29.602  1.00  0.00     0.022 A 
BRANCH  90  94
ATOM     94  S   UNL A   1      45.892  36.847  27.183  1.00  0.00     0.124 S 
ATOM     95  O   UNL A   1      46.414  36.113  26.035  1.00  0.00    -0.237 OA
ATOM     96  O   UNL A   1      44.497  37.264  27.090  1.00  0.00    -0.237 OA
ATOM     97  O   UNL A   1      46.800  37.841  27.751  1.00  0.00    -0.744 OA
ENDBRANCH  90  94
ENDBRANCH  64  87
ENDBRANCH  38  39
ENDBRANCH  31  33
ENDBRANCH  30  31
ENDBRANCH  29  30
ENDBRANCH   1  29
TORSDOF 19
ENDMDL
