MODEL 1
REMARK VINA RESULT:     -12.1      0.000      0.000
REMARK SMILES O=C(OCCOCCOC(=O)c1ccccc1NC(=O)c1cc2cc(Cl)cc(Cl)c2oc1=O)c1ccc(-c2c3nc(c(-c4cc(S(=O)(=O)[O-])ccc4F)c4ccc([nH]4)c(-c4cc(S(=O)(=O)[O-])ccc4F)c4nc(c(-c5cc(S(=O)(=O)[O-])ccc5F)c5ccc2[nH]5)C=C4)C=C3)cc1
REMARK SMILES IDX 5 1 4 2 3 3 2 4 1 5 34 6 35 7 96 8 36 9 95 10 37 11 38 12
REMARK SMILES IDX 39 13 89 14 40 15 94 16 88 17 90 18 41 19 93 20 87 21 86 22
REMARK SMILES IDX 42 24 74 25 54 26 73 27 55 28 58 29 72 30 91 31 56 32 57 33
REMARK SMILES IDX 71 35 92 36 59 37 43 38 44 39 52 40 45 41 51 42 53 43 50 44
REMARK SMILES IDX 46 45 47 46 48 47 49 48 75 49 76 50 84 51 77 52 83 53 85 54
REMARK SMILES IDX 82 55 78 56 79 57 80 58 81 59 60 60 61 61 69 62 62 63 68 64
REMARK SMILES IDX 70 65 67 66 63 67 64 68 65 69 66 70 6 71 7 72 8 73 9 74
REMARK SMILES IDX 10 75 11 76 12 77 13 78 17 79 14 80 16 81 15 82 18 83 19 84
REMARK SMILES IDX 20 86 21 87 22 88 32 89 23 90 31 91 33 92 24 93 30 94 25 95
REMARK SMILES IDX 28 96 26 97 27 98 29 99
REMARK H PARENT 90 23 58 34 18 85
REMARK Flexibility Score: inf
ROOT
ATOM      1  C   UNL A   1      30.655  31.505  25.370  1.00  0.00     0.202 C 
ENDROOT
BRANCH   1   2
ATOM      2  C   UNL A   1      31.477  31.622  26.658  1.00  0.00     0.261 C 
BRANCH   2   3
ATOM      3  O   UNL A   1      32.340  32.773  26.605  1.00  0.00    -0.460 OA
BRANCH   3   4
ATOM      4  C   UNL A   1      32.991  33.378  27.629  1.00  0.00     0.338 C 
ATOM      5  O   UNL A   1      32.551  34.443  28.059  1.00  0.00    -0.246 OA
BRANCH   4   6
ATOM      6  C   UNL A   1      34.241  32.833  28.242  1.00  0.00     0.060 A 
ATOM      7  C   UNL A   1      34.335  31.569  28.818  1.00  0.00     0.016 A 
ATOM      8  C   UNL A   1      35.414  33.601  28.154  1.00  0.00     0.016 A 
ATOM      9  C   UNL A   1      35.514  31.090  29.344  1.00  0.00     0.010 A 
ATOM     10  C   UNL A   1      36.632  33.104  28.638  1.00  0.00     0.010 A 
ATOM     11  C   UNL A   1      36.675  31.843  29.239  1.00  0.00    -0.014 A 
BRANCH  11  12
ATOM     12  C   UNL A   1      37.863  31.265  29.887  1.00  0.00     0.031 A 
ATOM     13  C   UNL A   1      38.120  31.620  31.317  1.00  0.00     0.074 A 
ATOM     14  C   UNL A   1      38.509  30.259  29.268  1.00  0.00     0.049 A 
ATOM     15  N   UNL A   1      39.064  31.202  32.113  1.00  0.00    -0.248 NA
ATOM     16  C   UNL A   1      37.166  32.552  31.942  1.00  0.00     0.031 C 
ATOM     17  C   UNL A   1      38.176  29.745  27.932  1.00  0.00     0.029 A 
ATOM     18  N   UNL A   1      39.523  29.444  29.689  1.00  0.00    -0.354 N 
ATOM     19  C   UNL A   1      38.825  31.825  33.332  1.00  0.00     0.074 A 
ATOM     20  C   UNL A   1      37.662  32.667  33.163  1.00  0.00     0.031 C 
ATOM     21  C   UNL A   1      38.949  28.683  27.663  1.00  0.00     0.029 A 
ATOM     22  C   UNL A   1      39.891  28.499  28.758  1.00  0.00     0.049 A 
ATOM     23  H   UNL A   1      39.948  29.526  30.573  1.00  0.00     0.167 HD
ATOM     24  C   UNL A   1      39.525  31.694  34.482  1.00  0.00     0.034 A 
ATOM     25  C   UNL A   1      40.913  27.621  28.781  1.00  0.00     0.034 A 
ATOM     26  C   UNL A   1      40.693  30.857  34.584  1.00  0.00     0.049 A 
ATOM     27  C   UNL A   1      41.772  27.611  30.021  1.00  0.00     0.074 A 
ATOM     28  C   UNL A   1      41.583  30.729  35.632  1.00  0.00     0.029 A 
ATOM     29  N   UNL A   1      41.129  29.996  33.579  1.00  0.00    -0.354 N 
ATOM     30  N   UNL A   1      41.622  28.299  31.133  1.00  0.00    -0.248 NA
ATOM     31  C   UNL A   1      42.934  26.719  30.013  1.00  0.00     0.031 C 
ATOM     32  C   UNL A   1      42.590  29.839  35.237  1.00  0.00     0.029 A 
ATOM     33  C   UNL A   1      42.286  29.347  33.975  1.00  0.00     0.049 A 
ATOM     34  H   UNL A   1      40.680  29.867  32.714  1.00  0.00     0.167 HD
ATOM     35  C   UNL A   1      42.666  27.911  31.964  1.00  0.00     0.074 A 
ATOM     36  C   UNL A   1      43.410  26.900  31.236  1.00  0.00     0.031 C 
ATOM     37  C   UNL A   1      42.996  28.351  33.207  1.00  0.00     0.034 A 
BRANCH  24  38
ATOM     38  C   UNL A   1      39.092  32.555  35.641  1.00  0.00     0.023 A 
ATOM     39  C   UNL A   1      39.539  33.882  35.787  1.00  0.00     0.031 A 
ATOM     40  C   UNL A   1      38.311  32.007  36.673  1.00  0.00     0.131 A 
ATOM     41  C   UNL A   1      39.270  34.583  36.974  1.00  0.00     0.055 A 
ATOM     42  C   UNL A   1      37.979  32.738  37.814  1.00  0.00     0.041 A 
ATOM     43  F   UNL A   1      37.890  30.733  36.606  1.00  0.00    -0.206 F 
ATOM     44  C   UNL A   1      38.473  34.028  37.977  1.00  0.00     0.022 A 
BRANCH  41  45
ATOM     45  S   UNL A   1      40.112  36.166  37.259  1.00  0.00     0.124 S 
ATOM     46  O   UNL A   1      39.273  36.764  38.294  1.00  0.00    -0.237 OA
ATOM     47  O   UNL A   1      41.444  35.745  37.682  1.00  0.00    -0.237 OA
ATOM     48  O   UNL A   1      40.051  36.827  35.958  1.00  0.00    -0.744 OA
ENDBRANCH  41  45
ENDBRANCH  24  38
BRANCH  25  49
ATOM     49  C   UNL A   1      41.244  26.786  27.585  1.00  0.00     0.023 A 
ATOM     50  C   UNL A   1      40.965  25.411  27.539  1.00  0.00     0.031 A 
ATOM     51  C   UNL A   1      41.934  27.346  26.489  1.00  0.00     0.131 A 
ATOM     52  C   UNL A   1      41.425  24.637  26.459  1.00  0.00     0.055 A 
ATOM     53  C   UNL A   1      42.325  26.586  25.387  1.00  0.00     0.041 A 
ATOM     54  F   UNL A   1      42.247  28.651  26.476  1.00  0.00    -0.206 F 
ATOM     55  C   UNL A   1      42.088  25.217  25.376  1.00  0.00     0.022 A 
BRANCH  52  56
ATOM     56  S   UNL A   1      41.265  22.830  26.550  1.00  0.00     0.124 S 
ATOM     57  O   UNL A   1      39.858  22.639  26.218  1.00  0.00    -0.237 OA
ATOM     58  O   UNL A   1      42.227  22.390  25.547  1.00  0.00    -0.237 OA
ATOM     59  O   UNL A   1      41.625  22.527  27.934  1.00  0.00    -0.744 OA
ENDBRANCH  52  56
ENDBRANCH  25  49
BRANCH  37  60
ATOM     60  C   UNL A   1      44.194  27.697  33.847  1.00  0.00     0.023 A 
ATOM     61  C   UNL A   1      44.057  26.583  34.691  1.00  0.00     0.031 A 
ATOM     62  C   UNL A   1      45.481  28.214  33.626  1.00  0.00     0.131 A 
ATOM     63  C   UNL A   1      45.181  26.067  35.346  1.00  0.00     0.055 A 
ATOM     64  C   UNL A   1      46.607  27.648  34.222  1.00  0.00     0.041 A 
ATOM     65  F   UNL A   1      45.664  29.279  32.829  1.00  0.00    -0.206 F 
ATOM     66  C   UNL A   1      46.459  26.579  35.102  1.00  0.00     0.022 A 
BRANCH  63  67
ATOM     67  S   UNL A   1      44.934  24.799  36.617  1.00  0.00     0.124 S 
ATOM     68  O   UNL A   1      43.746  25.289  37.306  1.00  0.00    -0.237 OA
ATOM     69  O   UNL A   1      44.756  23.589  35.820  1.00  0.00    -0.237 OA
ATOM     70  O   UNL A   1      46.170  24.851  37.397  1.00  0.00    -0.744 OA
ENDBRANCH  63  67
ENDBRANCH  37  60
ENDBRANCH  11  12
ENDBRANCH   4   6
ENDBRANCH   3   4
ENDBRANCH   2   3
ENDBRANCH   1   2
BRANCH   1  71
ATOM     71  O   UNL A   1      30.880  30.319  24.611  1.00  0.00    -0.374 OA
BRANCH  71  72
ATOM     72  C   UNL A   1      29.879  29.963  23.653  1.00  0.00     0.202 C 
BRANCH  72  73
ATOM     73  C   UNL A   1      30.206  28.572  23.106  1.00  0.00     0.261 C 
BRANCH  73  74
ATOM     74  O   UNL A   1      29.726  27.616  24.066  1.00  0.00    -0.460 OA
BRANCH  74  75
ATOM     75  C   UNL A   1      30.622  26.646  24.411  1.00  0.00     0.340 C 
ATOM     76  O   UNL A   1      30.698  25.536  23.939  1.00  0.00    -0.246 OA
BRANCH  75  77
ATOM     77  C   UNL A   1      31.637  27.235  25.336  1.00  0.00     0.083 A 
ATOM     78  C   UNL A   1      31.156  27.626  26.599  1.00  0.00     0.018 A 
ATOM     79  C   UNL A   1      33.011  27.361  25.034  1.00  0.00     0.056 A 
ATOM     80  C   UNL A   1      32.025  28.136  27.560  1.00  0.00     0.001 A 
ATOM     81  C   UNL A   1      33.862  27.923  25.995  1.00  0.00     0.027 A 
ATOM     82  C   UNL A   1      33.371  28.301  27.250  1.00  0.00     0.002 A 
BRANCH  79  83
ATOM     83  N   UNL A   1      33.521  26.792  23.848  1.00  0.00    -0.321 N 
ATOM     84  C   UNL A   1      34.047  25.572  23.556  1.00  0.00     0.263 C 
ATOM     85  H   UNL A   1      33.488  27.401  23.074  1.00  0.00     0.170 HD
ATOM     86  O   UNL A   1      34.002  25.153  22.400  1.00  0.00    -0.269 OA
BRANCH  84  87
ATOM     87  C   UNL A   1      34.807  24.857  24.632  1.00  0.00     0.126 A 
ATOM     88  C   UNL A   1      34.175  24.640  25.807  1.00  0.00     0.033 A 
ATOM     89  C   UNL A   1      35.381  23.561  24.171  1.00  0.00     0.349 A 
ATOM     90  C   UNL A   1      33.074  23.657  25.679  1.00  0.00     0.021 A 
ATOM     91  O   UNL A   1      34.408  22.579  23.955  1.00  0.00    -0.421 OA
ATOM     92  O   UNL A   1      36.578  23.380  24.004  1.00  0.00    -0.245 OA
ATOM     93  C   UNL A   1      31.943  23.691  26.488  1.00  0.00     0.032 A 
ATOM     94  C   UNL A   1      33.191  22.679  24.676  1.00  0.00     0.157 A 
ATOM     95  C   UNL A   1      30.919  22.769  26.259  1.00  0.00     0.043 A 
ATOM     96  C   UNL A   1      32.152  21.786  24.426  1.00  0.00     0.085 A 
ATOM     97  Cl  UNL A   1      29.528  22.782  27.275  1.00  0.00    -0.084 Cl
ATOM     98  C   UNL A   1      31.007  21.834  25.223  1.00  0.00     0.045 A 
ATOM     99  Cl  UNL A   1      32.244  20.628  23.157  1.00  0.00    -0.080 Cl
ENDBRANCH  84  87
ENDBRANCH  79  83
ENDBRANCH  75  77
ENDBRANCH  74  75
ENDBRANCH  73  74
ENDBRANCH  72  73
ENDBRANCH  71  72
ENDBRANCH   1  71
TORSDOF 19
ENDMDL
MODEL 2
REMARK VINA RESULT:     -11.5      1.362      2.354
REMARK SMILES O=C(OCCOCCOC(=O)c1ccccc1NC(=O)c1cc2cc(Cl)cc(Cl)c2oc1=O)c1ccc(-c2c3nc(c(-c4cc(S(=O)(=O)[O-])ccc4F)c4ccc([nH]4)c(-c4cc(S(=O)(=O)[O-])ccc4F)c4nc(c(-c5cc(S(=O)(=O)[O-])ccc5F)c5ccc2[nH]5)C=C4)C=C3)cc1
REMARK SMILES IDX 5 1 4 2 3 3 2 4 1 5 34 6 35 7 96 8 36 9 95 10 37 11 38 12
REMARK SMILES IDX 39 13 89 14 40 15 94 16 88 17 90 18 41 19 93 20 87 21 86 22
REMARK SMILES IDX 42 24 74 25 54 26 73 27 55 28 58 29 72 30 91 31 56 32 57 33
REMARK SMILES IDX 71 35 92 36 59 37 43 38 44 39 52 40 45 41 51 42 53 43 50 44
REMARK SMILES IDX 46 45 47 46 48 47 49 48 75 49 76 50 84 51 77 52 83 53 85 54
REMARK SMILES IDX 82 55 78 56 79 57 80 58 81 59 60 60 61 61 69 62 62 63 68 64
REMARK SMILES IDX 70 65 67 66 63 67 64 68 65 69 66 70 6 71 7 72 8 73 9 74
REMARK SMILES IDX 10 75 11 76 12 77 13 78 17 79 14 80 16 81 15 82 18 83 19 84
REMARK SMILES IDX 20 86 21 87 22 88 32 89 23 90 31 91 33 92 24 93 30 94 25 95
REMARK SMILES IDX 28 96 26 97 27 98 29 99
REMARK H PARENT 90 23 58 34 18 85
REMARK Flexibility Score: inf
ROOT
ATOM      1  C   UNL A   1      31.819  30.409  26.274  1.00  0.00     0.202 C 
ENDROOT
BRANCH   1   2
ATOM      2  C   UNL A   1      31.367  31.777  26.796  1.00  0.00     0.261 C 
BRANCH   2   3
ATOM      3  O   UNL A   1      32.438  32.735  26.694  1.00  0.00    -0.460 OA
BRANCH   3   4
ATOM      4  C   UNL A   1      33.100  33.358  27.699  1.00  0.00     0.338 C 
ATOM      5  O   UNL A   1      32.661  34.427  28.120  1.00  0.00    -0.246 OA
BRANCH   4   6
ATOM      6  C   UNL A   1      34.361  32.829  28.303  1.00  0.00     0.060 A 
ATOM      7  C   UNL A   1      34.467  31.580  28.910  1.00  0.00     0.016 A 
ATOM      8  C   UNL A   1      35.533  33.593  28.173  1.00  0.00     0.016 A 
ATOM      9  C   UNL A   1      35.655  31.115  29.426  1.00  0.00     0.010 A 
ATOM     10  C   UNL A   1      36.760  33.109  28.645  1.00  0.00     0.010 A 
ATOM     11  C   UNL A   1      36.814  31.863  29.278  1.00  0.00    -0.014 A 
BRANCH  11  12
ATOM     12  C   UNL A   1      38.014  31.302  29.919  1.00  0.00     0.031 A 
ATOM     13  C   UNL A   1      38.270  31.651  31.350  1.00  0.00     0.074 A 
ATOM     14  C   UNL A   1      38.675  30.312  29.290  1.00  0.00     0.049 A 
ATOM     15  N   UNL A   1      39.223  31.244  32.140  1.00  0.00    -0.248 NA
ATOM     16  C   UNL A   1      37.301  32.561  31.985  1.00  0.00     0.031 C 
ATOM     17  C   UNL A   1      38.347  29.802  27.951  1.00  0.00     0.029 A 
ATOM     18  N   UNL A   1      39.705  29.512  29.702  1.00  0.00    -0.354 N 
ATOM     19  C   UNL A   1      38.977  31.854  33.364  1.00  0.00     0.074 A 
ATOM     20  C   UNL A   1      37.799  32.677  33.205  1.00  0.00     0.031 C 
ATOM     21  C   UNL A   1      39.139  28.755  27.672  1.00  0.00     0.029 A 
ATOM     22  C   UNL A   1      40.087  28.581  28.763  1.00  0.00     0.049 A 
ATOM     23  H   UNL A   1      40.132  29.595  30.585  1.00  0.00     0.167 HD
ATOM     24  C   UNL A   1      39.683  31.727  34.512  1.00  0.00     0.034 A 
ATOM     25  C   UNL A   1      41.125  27.721  28.776  1.00  0.00     0.034 A 
ATOM     26  C   UNL A   1      40.866  30.910  34.604  1.00  0.00     0.049 A 
ATOM     27  C   UNL A   1      41.988  27.717  30.014  1.00  0.00     0.074 A 
ATOM     28  C   UNL A   1      41.762  30.790  35.648  1.00  0.00     0.029 A 
ATOM     29  N   UNL A   1      41.314  30.064  33.591  1.00  0.00    -0.354 N 
ATOM     30  N   UNL A   1      41.829  28.394  31.131  1.00  0.00    -0.248 NA
ATOM     31  C   UNL A   1      43.165  26.845  29.996  1.00  0.00     0.031 C 
ATOM     32  C   UNL A   1      42.783  29.921  35.243  1.00  0.00     0.029 A 
ATOM     33  C   UNL A   1      42.483  29.433  33.979  1.00  0.00     0.049 A 
ATOM     34  H   UNL A   1      40.865  29.933  32.726  1.00  0.00     0.167 HD
ATOM     35  C   UNL A   1      42.882  28.019  31.956  1.00  0.00     0.074 A 
ATOM     36  C   UNL A   1      43.642  27.026  31.218  1.00  0.00     0.031 C 
ATOM     37  C   UNL A   1      43.209  28.455  33.201  1.00  0.00     0.034 A 
BRANCH  24  38
ATOM     38  C   UNL A   1      39.239  32.572  35.678  1.00  0.00     0.023 A 
ATOM     39  C   UNL A   1      39.635  33.916  35.814  1.00  0.00     0.031 A 
ATOM     40  C   UNL A   1      38.501  31.994  36.726  1.00  0.00     0.131 A 
ATOM     41  C   UNL A   1      39.361  34.608  37.005  1.00  0.00     0.055 A 
ATOM     42  C   UNL A   1      38.162  32.713  37.873  1.00  0.00     0.041 A 
ATOM     43  F   UNL A   1      38.131  30.704  36.669  1.00  0.00    -0.206 F 
ATOM     44  C   UNL A   1      38.607  34.022  38.025  1.00  0.00     0.022 A 
BRANCH  41  45
ATOM     45  S   UNL A   1      40.144  36.223  37.272  1.00  0.00     0.124 S 
ATOM     46  O   UNL A   1      41.495  35.834  37.667  1.00  0.00    -0.237 OA
ATOM     47  O   UNL A   1      40.019  36.857  35.964  1.00  0.00    -0.237 OA
ATOM     48  O   UNL A   1      39.341  36.822  38.335  1.00  0.00    -0.744 OA
ENDBRANCH  41  45
ENDBRANCH  24  38
BRANCH  25  49
ATOM     49  C   UNL A   1      41.467  26.901  27.573  1.00  0.00     0.023 A 
ATOM     50  C   UNL A   1      41.195  25.524  27.511  1.00  0.00     0.031 A 
ATOM     51  C   UNL A   1      42.159  27.475  26.488  1.00  0.00     0.131 A 
ATOM     52  C   UNL A   1      41.665  24.764  26.425  1.00  0.00     0.055 A 
ATOM     53  C   UNL A   1      42.560  26.730  25.379  1.00  0.00     0.041 A 
ATOM     54  F   UNL A   1      42.465  28.783  26.490  1.00  0.00    -0.206 F 
ATOM     55  C   UNL A   1      42.331  25.360  25.352  1.00  0.00     0.022 A 
BRANCH  52  56
ATOM     56  S   UNL A   1      41.514  22.956  26.496  1.00  0.00     0.124 S 
ATOM     57  O   UNL A   1      42.317  22.545  25.351  1.00  0.00    -0.237 OA
ATOM     58  O   UNL A   1      42.071  22.658  27.811  1.00  0.00    -0.237 OA
ATOM     59  O   UNL A   1      40.076  22.730  26.363  1.00  0.00    -0.744 OA
ENDBRANCH  52  56
ENDBRANCH  25  49
BRANCH  37  60
ATOM     60  C   UNL A   1      44.419  27.818  33.832  1.00  0.00     0.023 A 
ATOM     61  C   UNL A   1      44.314  26.651  34.607  1.00  0.00     0.031 A 
ATOM     62  C   UNL A   1      45.687  28.402  33.675  1.00  0.00     0.131 A 
ATOM     63  C   UNL A   1      45.445  26.148  35.260  1.00  0.00     0.055 A 
ATOM     64  C   UNL A   1      46.824  27.852  34.266  1.00  0.00     0.041 A 
ATOM     65  F   UNL A   1      45.840  29.519  32.946  1.00  0.00    -0.206 F 
ATOM     66  C   UNL A   1      46.703  26.729  35.079  1.00  0.00     0.022 A 
BRANCH  63  67
ATOM     67  S   UNL A   1      45.227  24.798  36.450  1.00  0.00     0.124 S 
ATOM     68  O   UNL A   1      45.838  23.675  35.747  1.00  0.00    -0.237 OA
ATOM     69  O   UNL A   1      45.952  25.290  37.617  1.00  0.00    -0.237 OA
ATOM     70  O   UNL A   1      43.776  24.714  36.610  1.00  0.00    -0.744 OA
ENDBRANCH  63  67
ENDBRANCH  37  60
ENDBRANCH  11  12
ENDBRANCH   4   6
ENDBRANCH   3   4
ENDBRANCH   2   3
ENDBRANCH   1   2
BRANCH   1  71
ATOM     71  O   UNL A   1      32.565  29.622  27.200  1.00  0.00    -0.374 OA
BRANCH  71  72
ATOM     72  C   UNL A   1      33.170  28.427  26.695  1.00  0.00     0.202 C 
BRANCH  72  73
ATOM     73  C   UNL A   1      33.766  28.731  25.320  1.00  0.00     0.261 C 
BRANCH  73  74
ATOM     74  O   UNL A   1      33.243  27.752  24.407  1.00  0.00    -0.460 OA
BRANCH  74  75
ATOM     75  C   UNL A   1      32.500  28.259  23.381  1.00  0.00     0.340 C 
ATOM     76  O   UNL A   1      32.910  28.900  22.442  1.00  0.00    -0.246 OA
BRANCH  75  77
ATOM     77  C   UNL A   1      31.106  27.729  23.489  1.00  0.00     0.083 A 
ATOM     78  C   UNL A   1      30.094  28.698  23.608  1.00  0.00     0.018 A 
ATOM     79  C   UNL A   1      30.768  26.359  23.425  1.00  0.00     0.056 A 
ATOM     80  C   UNL A   1      28.755  28.319  23.660  1.00  0.00     0.001 A 
ATOM     81  C   UNL A   1      29.420  25.994  23.530  1.00  0.00     0.027 A 
ATOM     82  C   UNL A   1      28.422  26.969  23.639  1.00  0.00     0.002 A 
BRANCH  79  83
ATOM     83  N   UNL A   1      31.763  25.408  23.112  1.00  0.00    -0.321 N 
ATOM     84  C   UNL A   1      31.944  24.106  23.462  1.00  0.00     0.263 C 
ATOM     85  H   UNL A   1      32.467  25.756  22.518  1.00  0.00     0.170 HD
ATOM     86  O   UNL A   1      32.603  23.367  22.732  1.00  0.00    -0.269 OA
BRANCH  84  87
ATOM     87  C   UNL A   1      31.463  23.667  24.813  1.00  0.00     0.126 A 
ATOM     88  C   UNL A   1      31.459  22.340  25.076  1.00  0.00     0.033 A 
ATOM     89  C   UNL A   1      32.167  24.357  25.930  1.00  0.00     0.349 A 
ATOM     90  C   UNL A   1      32.828  21.786  25.183  1.00  0.00     0.021 A 
ATOM     91  O   UNL A   1      33.498  23.948  26.072  1.00  0.00    -0.421 OA
ATOM     92  O   UNL A   1      31.633  25.190  26.647  1.00  0.00    -0.245 OA
ATOM     93  C   UNL A   1      33.130  20.468  24.852  1.00  0.00     0.032 A 
ATOM     94  C   UNL A   1      33.848  22.653  25.613  1.00  0.00     0.157 A 
ATOM     95  C   UNL A   1      34.458  20.042  24.917  1.00  0.00     0.043 A 
ATOM     96  C   UNL A   1      35.176  22.234  25.640  1.00  0.00     0.085 A 
ATOM     97  Cl  UNL A   1      34.838  18.405  24.540  1.00  0.00    -0.084 Cl
ATOM     98  C   UNL A   1      35.482  20.920  25.286  1.00  0.00     0.045 A 
ATOM     99  Cl  UNL A   1      36.449  23.300  26.093  1.00  0.00    -0.080 Cl
ENDBRANCH  84  87
ENDBRANCH  79  83
ENDBRANCH  75  77
ENDBRANCH  74  75
ENDBRANCH  73  74
ENDBRANCH  72  73
ENDBRANCH  71  72
ENDBRANCH   1  71
TORSDOF 19
ENDMDL
MODEL 3
REMARK VINA RESULT:     -11.3      2.145      2.971
REMARK SMILES O=C(OCCOCCOC(=O)c1ccccc1NC(=O)c1cc2cc(Cl)cc(Cl)c2oc1=O)c1ccc(-c2c3nc(c(-c4cc(S(=O)(=O)[O-])ccc4F)c4ccc([nH]4)c(-c4cc(S(=O)(=O)[O-])ccc4F)c4nc(c(-c5cc(S(=O)(=O)[O-])ccc5F)c5ccc2[nH]5)C=C4)C=C3)cc1
REMARK SMILES IDX 5 1 4 2 3 3 2 4 1 5 34 6 35 7 96 8 36 9 95 10 37 11 38 12
REMARK SMILES IDX 39 13 89 14 40 15 94 16 88 17 90 18 41 19 93 20 87 21 86 22
REMARK SMILES IDX 42 24 74 25 54 26 73 27 55 28 58 29 72 30 91 31 56 32 57 33
REMARK SMILES IDX 71 35 92 36 59 37 43 38 44 39 52 40 45 41 51 42 53 43 50 44
REMARK SMILES IDX 46 45 47 46 48 47 49 48 75 49 76 50 84 51 77 52 83 53 85 54
REMARK SMILES IDX 82 55 78 56 79 57 80 58 81 59 60 60 61 61 69 62 62 63 68 64
REMARK SMILES IDX 70 65 67 66 63 67 64 68 65 69 66 70 6 71 7 72 8 73 9 74
REMARK SMILES IDX 10 75 11 76 12 77 13 78 17 79 14 80 16 81 15 82 18 83 19 84
REMARK SMILES IDX 20 86 21 87 22 88 32 89 23 90 31 91 33 92 24 93 30 94 25 95
REMARK SMILES IDX 28 96 26 97 27 98 29 99
REMARK H PARENT 90 23 58 34 18 85
REMARK Flexibility Score: inf
ROOT
ATOM      1  C   UNL A   1      31.768  29.109  27.395  1.00  0.00     0.202 C 
ENDROOT
BRANCH   1   2
ATOM      2  C   UNL A   1      31.799  30.547  26.863  1.00  0.00     0.261 C 
BRANCH   2   3
ATOM      3  O   UNL A   1      33.158  31.001  26.715  1.00  0.00    -0.460 OA
BRANCH   3   4
ATOM      4  C   UNL A   1      33.885  31.756  27.575  1.00  0.00     0.338 C 
ATOM      5  O   UNL A   1      33.458  32.867  27.889  1.00  0.00    -0.246 OA
BRANCH   4   6
ATOM      6  C   UNL A   1      35.200  31.323  28.139  1.00  0.00     0.060 A 
ATOM      7  C   UNL A   1      35.477  30.022  28.551  1.00  0.00     0.016 A 
ATOM      8  C   UNL A   1      36.249  32.257  28.172  1.00  0.00     0.016 A 
ATOM      9  C   UNL A   1      36.712  29.655  29.035  1.00  0.00     0.010 A 
ATOM     10  C   UNL A   1      37.526  31.883  28.612  1.00  0.00     0.010 A 
ATOM     11  C   UNL A   1      37.752  30.574  29.048  1.00  0.00    -0.014 A 
BRANCH  11  12
ATOM     12  C   UNL A   1      39.010  30.095  29.641  1.00  0.00     0.031 A 
ATOM     13  C   UNL A   1      39.352  30.556  31.022  1.00  0.00     0.074 A 
ATOM     14  C   UNL A   1      39.659  29.081  29.039  1.00  0.00     0.049 A 
ATOM     15  N   UNL A   1      40.370  30.235  31.770  1.00  0.00    -0.248 NA
ATOM     16  C   UNL A   1      38.400  31.483  31.657  1.00  0.00     0.031 C 
ATOM     17  C   UNL A   1      39.257  28.465  27.767  1.00  0.00     0.029 A 
ATOM     18  N   UNL A   1      40.741  28.343  29.433  1.00  0.00    -0.354 N 
ATOM     19  C   UNL A   1      40.188  30.926  32.961  1.00  0.00     0.074 A 
ATOM     20  C   UNL A   1      38.976  31.701  32.828  1.00  0.00     0.031 C 
ATOM     21  C   UNL A   1      40.062  27.423  27.508  1.00  0.00     0.029 A 
ATOM     22  C   UNL A   1      41.088  27.355  28.539  1.00  0.00     0.049 A 
ATOM     23  H   UNL A   1      41.224  28.502  30.276  1.00  0.00     0.167 HD
ATOM     24  C   UNL A   1      40.975  30.903  34.062  1.00  0.00     0.034 A 
ATOM     25  C   UNL A   1      42.152  26.528  28.540  1.00  0.00     0.034 A 
ATOM     26  C   UNL A   1      42.188  30.129  34.128  1.00  0.00     0.049 A 
ATOM     27  C   UNL A   1      43.097  26.639  29.710  1.00  0.00     0.074 A 
ATOM     28  C   UNL A   1      43.157  30.111  35.113  1.00  0.00     0.029 A 
ATOM     29  N   UNL A   1      42.593  29.223  33.150  1.00  0.00    -0.354 N 
ATOM     30  N   UNL A   1      42.994  27.392  30.785  1.00  0.00    -0.248 NA
ATOM     31  C   UNL A   1      44.299  25.802  29.672  1.00  0.00     0.031 C 
ATOM     32  C   UNL A   1      44.175  29.243  34.700  1.00  0.00     0.029 A 
ATOM     33  C   UNL A   1      43.806  28.655  33.497  1.00  0.00     0.049 A 
ATOM     34  H   UNL A   1      42.090  29.017  32.330  1.00  0.00     0.167 HD
ATOM     35  C   UNL A   1      44.112  27.108  31.558  1.00  0.00     0.074 A 
ATOM     36  C   UNL A   1      44.852  26.085  30.841  1.00  0.00     0.031 C 
ATOM     37  C   UNL A   1      44.509  27.643  32.743  1.00  0.00     0.034 A 
BRANCH  24  38
ATOM     38  C   UNL A   1      40.584  31.819  35.193  1.00  0.00     0.023 A 
ATOM     39  C   UNL A   1      39.621  31.448  36.150  1.00  0.00     0.031 A 
ATOM     40  C   UNL A   1      41.100  33.126  35.251  1.00  0.00     0.131 A 
ATOM     41  C   UNL A   1      39.146  32.398  37.069  1.00  0.00     0.055 A 
ATOM     42  C   UNL A   1      40.683  34.041  36.219  1.00  0.00     0.041 A 
ATOM     43  F   UNL A   1      41.991  33.548  34.340  1.00  0.00    -0.206 F 
ATOM     44  C   UNL A   1      39.689  33.684  37.125  1.00  0.00     0.022 A 
BRANCH  41  45
ATOM     45  S   UNL A   1      37.697  31.983  38.080  1.00  0.00     0.124 S 
ATOM     46  O   UNL A   1      36.751  33.020  37.678  1.00  0.00    -0.237 OA
ATOM     47  O   UNL A   1      37.383  30.627  37.643  1.00  0.00    -0.237 OA
ATOM     48  O   UNL A   1      38.191  32.097  39.450  1.00  0.00    -0.744 OA
ENDBRANCH  41  45
ENDBRANCH  24  38
BRANCH  25  49
ATOM     49  C   UNL A   1      42.438  25.632  27.377  1.00  0.00     0.023 A 
ATOM     50  C   UNL A   1      41.953  24.315  27.318  1.00  0.00     0.031 A 
ATOM     51  C   UNL A   1      43.284  26.059  26.334  1.00  0.00     0.131 A 
ATOM     52  C   UNL A   1      42.366  23.460  26.281  1.00  0.00     0.055 A 
ATOM     53  C   UNL A   1      43.634  25.229  25.269  1.00  0.00     0.041 A 
ATOM     54  F   UNL A   1      43.795  27.301  26.337  1.00  0.00    -0.206 F 
ATOM     55  C   UNL A   1      43.190  23.913  25.248  1.00  0.00     0.022 A 
BRANCH  52  56
ATOM     56  S   UNL A   1      41.923  21.702  26.370  1.00  0.00     0.124 S 
ATOM     57  O   UNL A   1      42.225  21.389  27.762  1.00  0.00    -0.237 OA
ATOM     58  O   UNL A   1      40.509  21.728  26.010  1.00  0.00    -0.237 OA
ATOM     59  O   UNL A   1      42.805  21.078  25.385  1.00  0.00    -0.744 OA
ENDBRANCH  52  56
ENDBRANCH  25  49
BRANCH  37  60
ATOM     60  C   UNL A   1      45.780  27.088  33.330  1.00  0.00     0.023 A 
ATOM     61  C   UNL A   1      45.766  25.982  34.196  1.00  0.00     0.031 A 
ATOM     62  C   UNL A   1      47.015  27.692  33.038  1.00  0.00     0.131 A 
ATOM     63  C   UNL A   1      46.955  25.561  34.802  1.00  0.00     0.055 A 
ATOM     64  C   UNL A   1      48.207  27.219  33.585  1.00  0.00     0.041 A 
ATOM     65  F   UNL A   1      47.081  28.753  32.218  1.00  0.00    -0.206 F 
ATOM     66  C   UNL A   1      48.179  26.158  34.486  1.00  0.00     0.022 A 
BRANCH  63  67
ATOM     67  S   UNL A   1      46.864  24.301  36.102  1.00  0.00     0.124 S 
ATOM     68  O   UNL A   1      46.085  24.984  37.129  1.00  0.00    -0.237 OA
ATOM     69  O   UNL A   1      46.193  23.198  35.421  1.00  0.00    -0.237 OA
ATOM     70  O   UNL A   1      48.265  24.059  36.443  1.00  0.00    -0.744 OA
ENDBRANCH  63  67
ENDBRANCH  37  60
ENDBRANCH  11  12
ENDBRANCH   4   6
ENDBRANCH   3   4
ENDBRANCH   2   3
ENDBRANCH   1   2
BRANCH   1  71
ATOM     71  O   UNL A   1      32.020  28.097  26.423  1.00  0.00    -0.374 OA
BRANCH  71  72
ATOM     72  C   UNL A   1      33.361  27.608  26.329  1.00  0.00     0.202 C 
BRANCH  72  73
ATOM     73  C   UNL A   1      33.990  28.165  25.051  1.00  0.00     0.261 C 
BRANCH  73  74
ATOM     74  O   UNL A   1      34.101  27.073  24.124  1.00  0.00    -0.460 OA
BRANCH  74  75
ATOM     75  C   UNL A   1      33.197  27.090  23.102  1.00  0.00     0.340 C 
ATOM     76  O   UNL A   1      33.152  27.885  22.193  1.00  0.00    -0.246 OA
BRANCH  75  77
ATOM     77  C   UNL A   1      32.374  25.844  23.167  1.00  0.00     0.083 A 
ATOM     78  C   UNL A   1      30.982  26.035  23.229  1.00  0.00     0.018 A 
ATOM     79  C   UNL A   1      32.905  24.536  23.115  1.00  0.00     0.056 A 
ATOM     80  C   UNL A   1      30.117  24.944  23.238  1.00  0.00     0.001 A 
ATOM     81  C   UNL A   1      32.022  23.450  23.175  1.00  0.00     0.027 A 
ATOM     82  C   UNL A   1      30.639  23.655  23.229  1.00  0.00     0.002 A 
BRANCH  79  83
ATOM     83  N   UNL A   1      34.280  24.349  22.858  1.00  0.00    -0.321 N 
ATOM     84  C   UNL A   1      35.269  23.699  23.528  1.00  0.00     0.263 C 
ATOM     85  H   UNL A   1      34.585  24.775  22.024  1.00  0.00     0.170 HD
ATOM     86  O   UNL A   1      36.252  23.291  22.912  1.00  0.00    -0.269 OA
BRANCH  84  87
ATOM     87  C   UNL A   1      35.191  23.649  25.024  1.00  0.00     0.126 A 
ATOM     88  C   UNL A   1      34.237  22.867  25.577  1.00  0.00     0.033 A 
ATOM     89  C   UNL A   1      36.495  23.306  25.660  1.00  0.00     0.349 A 
ATOM     90  C   UNL A   1      34.500  21.425  25.361  1.00  0.00     0.021 A 
ATOM     91  O   UNL A   1      36.867  21.973  25.456  1.00  0.00    -0.421 OA
ATOM     92  O   UNL A   1      37.162  24.108  26.296  1.00  0.00    -0.245 OA
ATOM     93  C   UNL A   1      33.479  20.484  25.268  1.00  0.00     0.032 A 
ATOM     94  C   UNL A   1      35.840  21.023  25.223  1.00  0.00     0.157 A 
ATOM     95  C   UNL A   1      33.808  19.154  24.997  1.00  0.00     0.043 A 
ATOM     96  C   UNL A   1      36.161  19.703  24.916  1.00  0.00     0.085 A 
ATOM     97  Cl  UNL A   1      32.555  17.976  24.911  1.00  0.00    -0.084 Cl
ATOM     98  C   UNL A   1      35.136  18.764  24.800  1.00  0.00     0.045 A 
ATOM     99  Cl  UNL A   1      37.790  19.204  24.672  1.00  0.00    -0.080 Cl
ENDBRANCH  84  87
ENDBRANCH  79  83
ENDBRANCH  75  77
ENDBRANCH  74  75
ENDBRANCH  73  74
ENDBRANCH  72  73
ENDBRANCH  71  72
ENDBRANCH   1  71
TORSDOF 19
ENDMDL
