MODEL 1
REMARK VINA RESULT:     -12.2      0.000      0.000
REMARK SMILES O=C(OCCOCCOC(=O)C1(C/C=C/c2ccccc2)Cc2ccccc2C1)c1ccc(-c2c3nc(c(-c4cc(S(=O)(=O)[O-])ccc4F)c4ccc([nH]4)c(-c4cc(S(=O)(=O)[O-])ccc4F)c4nc(c(-c5cc(S(=O)(=O)[O-])ccc5F)c5ccc2[nH]5)C=C4)C=C3)cc1
REMARK SMILES IDX 6 1 5 2 4 3 3 4 2 5 1 6 30 7 31 8 92 9 32 10 91 11 33 12
REMARK SMILES IDX 34 13 35 14 85 15 36 16 90 17 84 18 86 19 37 20 89 21 83 22
REMARK SMILES IDX 82 23 38 25 70 26 50 27 69 28 51 29 54 30 68 31 87 32 52 33
REMARK SMILES IDX 53 34 67 36 88 37 55 38 39 39 40 40 48 41 41 42 47 43 49 44
REMARK SMILES IDX 46 45 42 46 43 47 44 48 45 49 71 50 72 51 80 52 73 53 79 54
REMARK SMILES IDX 81 55 78 56 74 57 75 58 76 59 77 60 56 61 57 62 65 63 58 64
REMARK SMILES IDX 64 65 66 66 63 67 59 68 60 69 61 70 62 71 7 72 8 73 9 74
REMARK SMILES IDX 10 75 11 76 12 77 22 78 29 79 23 80 28 81 24 82 27 83 25 84
REMARK SMILES IDX 26 85 13 86 14 87 15 88 16 89 17 90 21 91 18 92 20 93 19 94
REMARK H PARENT 86 24 54 35
REMARK Flexibility Score: inf
ROOT
ATOM      1  O   UNL A   1      30.864  28.364  24.497  1.00  0.00    -0.374 OA
ENDROOT
BRANCH   1   2
ATOM      2  C   UNL A   1      31.344  29.683  24.753  1.00  0.00     0.202 C 
BRANCH   2   3
ATOM      3  C   UNL A   1      32.601  29.808  25.619  1.00  0.00     0.261 C 
BRANCH   3   4
ATOM      4  O   UNL A   1      32.367  30.700  26.716  1.00  0.00    -0.460 OA
BRANCH   4   5
ATOM      5  C   UNL A   1      33.245  31.569  27.265  1.00  0.00     0.338 C 
ATOM      6  O   UNL A   1      32.964  32.767  27.256  1.00  0.00    -0.246 OA
BRANCH   5   7
ATOM      7  C   UNL A   1      34.536  31.154  27.893  1.00  0.00     0.060 A 
ATOM      8  C   UNL A   1      34.850  29.862  28.327  1.00  0.00     0.016 A 
ATOM      9  C   UNL A   1      35.534  32.136  27.985  1.00  0.00     0.016 A 
ATOM     10  C   UNL A   1      36.082  29.545  28.861  1.00  0.00     0.010 A 
ATOM     11  C   UNL A   1      36.785  31.832  28.523  1.00  0.00     0.010 A 
ATOM     12  C   UNL A   1      37.043  30.535  28.974  1.00  0.00    -0.014 A 
BRANCH  12  13
ATOM     13  C   UNL A   1      38.238  30.205  29.752  1.00  0.00     0.031 A 
ATOM     14  C   UNL A   1      39.238  29.299  29.115  1.00  0.00     0.074 A 
ATOM     15  C   UNL A   1      38.459  30.831  30.917  1.00  0.00     0.049 A 
ATOM     16  N   UNL A   1      40.305  28.755  29.622  1.00  0.00    -0.248 NA
ATOM     17  C   UNL A   1      38.998  28.971  27.699  1.00  0.00     0.031 C 
ATOM     18  C   UNL A   1      37.601  31.873  31.490  1.00  0.00     0.029 A 
ATOM     19  N   UNL A   1      39.474  30.695  31.820  1.00  0.00    -0.354 N 
ATOM     20  C   UNL A   1      40.846  27.983  28.602  1.00  0.00     0.074 A 
ATOM     21  C   UNL A   1      39.990  28.135  27.447  1.00  0.00     0.031 C 
ATOM     22  C   UNL A   1      38.122  32.268  32.662  1.00  0.00     0.029 A 
ATOM     23  C   UNL A   1      39.294  31.452  32.952  1.00  0.00     0.049 A 
ATOM     24  H   UNL A   1      40.255  30.115  31.673  1.00  0.00     0.167 HD
ATOM     25  C   UNL A   1      41.951  27.204  28.655  1.00  0.00     0.034 A 
ATOM     26  C   UNL A   1      39.972  31.418  34.114  1.00  0.00     0.034 A 
ATOM     27  C   UNL A   1      42.731  27.076  29.860  1.00  0.00     0.049 A 
ATOM     28  C   UNL A   1      41.121  30.446  34.207  1.00  0.00     0.074 A 
ATOM     29  C   UNL A   1      43.808  26.253  30.121  1.00  0.00     0.029 A 
ATOM     30  N   UNL A   1      42.493  27.805  31.026  1.00  0.00    -0.354 N 
ATOM     31  N   UNL A   1      41.573  29.618  33.290  1.00  0.00    -0.248 NA
ATOM     32  C   UNL A   1      41.842  30.391  35.481  1.00  0.00     0.031 C 
ATOM     33  C   UNL A   1      44.176  26.436  31.460  1.00  0.00     0.029 A 
ATOM     34  C   UNL A   1      43.385  27.434  32.014  1.00  0.00     0.049 A 
ATOM     35  H   UNL A   1      41.789  28.485  31.129  1.00  0.00     0.167 HD
ATOM     36  C   UNL A   1      42.650  28.957  33.867  1.00  0.00     0.074 A 
ATOM     37  C   UNL A   1      42.778  29.490  35.213  1.00  0.00     0.031 C 
ATOM     38  C   UNL A   1      43.465  28.004  33.342  1.00  0.00     0.034 A 
BRANCH  25  39
ATOM     39  C   UNL A   1      42.243  26.363  27.436  1.00  0.00     0.023 A 
ATOM     40  C   UNL A   1      41.815  25.025  27.333  1.00  0.00     0.031 A 
ATOM     41  C   UNL A   1      43.096  26.856  26.432  1.00  0.00     0.131 A 
ATOM     42  C   UNL A   1      42.332  24.201  26.320  1.00  0.00     0.055 A 
ATOM     43  C   UNL A   1      43.529  26.056  25.373  1.00  0.00     0.041 A 
ATOM     44  F   UNL A   1      43.568  28.111  26.493  1.00  0.00    -0.206 F 
ATOM     45  C   UNL A   1      43.167  24.714  25.325  1.00  0.00     0.022 A 
BRANCH  42  46
ATOM     46  S   UNL A   1      42.075  22.407  26.446  1.00  0.00     0.124 S 
ATOM     47  O   UNL A   1      40.619  22.321  26.527  1.00  0.00    -0.237 OA
ATOM     48  O   UNL A   1      42.676  21.914  25.212  1.00  0.00    -0.237 OA
ATOM     49  O   UNL A   1      42.781  22.043  27.673  1.00  0.00    -0.744 OA
ENDBRANCH  42  46
ENDBRANCH  25  39
BRANCH  26  50
ATOM     50  C   UNL A   1      39.521  32.246  35.268  1.00  0.00     0.023 A 
ATOM     51  C   UNL A   1      38.749  31.706  36.306  1.00  0.00     0.031 A 
ATOM     52  C   UNL A   1      39.874  33.608  35.352  1.00  0.00     0.131 A 
ATOM     53  C   UNL A   1      38.341  32.524  37.374  1.00  0.00     0.055 A 
ATOM     54  C   UNL A   1      39.507  34.405  36.438  1.00  0.00     0.041 A 
ATOM     55  F   UNL A   1      40.610  34.181  34.387  1.00  0.00    -0.206 F 
ATOM     56  C   UNL A   1      38.729  33.864  37.454  1.00  0.00     0.022 A 
BRANCH  53  57
ATOM     57  S   UNL A   1      37.247  31.826  38.641  1.00  0.00     0.124 S 
ATOM     58  O   UNL A   1      37.028  30.475  38.135  1.00  0.00    -0.237 OA
ATOM     59  O   UNL A   1      38.064  31.937  39.844  1.00  0.00    -0.237 OA
ATOM     60  O   UNL A   1      36.077  32.702  38.603  1.00  0.00    -0.744 OA
ENDBRANCH  53  57
ENDBRANCH  26  50
BRANCH  38  61
ATOM     61  C   UNL A   1      44.598  27.536  34.212  1.00  0.00     0.023 A 
ATOM     62  C   UNL A   1      44.454  26.460  35.101  1.00  0.00     0.031 A 
ATOM     63  C   UNL A   1      45.852  28.164  34.115  1.00  0.00     0.131 A 
ATOM     64  C   UNL A   1      45.542  26.066  35.891  1.00  0.00     0.055 A 
ATOM     65  C   UNL A   1      46.946  27.732  34.862  1.00  0.00     0.041 A 
ATOM     66  F   UNL A   1      46.035  29.198  33.277  1.00  0.00    -0.206 F 
ATOM     67  C   UNL A   1      46.791  26.681  35.762  1.00  0.00     0.022 A 
BRANCH  64  68
ATOM     68  S   UNL A   1      45.289  24.773  37.136  1.00  0.00     0.124 S 
ATOM     69  O   UNL A   1      43.850  24.852  37.364  1.00  0.00    -0.237 OA
ATOM     70  O   UNL A   1      45.761  23.577  36.447  1.00  0.00    -0.237 OA
ATOM     71  O   UNL A   1      46.120  25.210  38.256  1.00  0.00    -0.744 OA
ENDBRANCH  64  68
ENDBRANCH  38  61
ENDBRANCH  12  13
ENDBRANCH   5   7
ENDBRANCH   4   5
ENDBRANCH   3   4
ENDBRANCH   2   3
ENDBRANCH   1   2
BRANCH   1  72
ATOM     72  C   UNL A   1      30.243  28.149  23.225  1.00  0.00     0.202 C 
BRANCH  72  73
ATOM     73  C   UNL A   1      30.794  26.877  22.591  1.00  0.00     0.261 C 
BRANCH  73  74
ATOM     74  O   UNL A   1      31.554  26.201  23.605  1.00  0.00    -0.463 OA
BRANCH  74  75
ATOM     75  C   UNL A   1      32.856  25.962  23.303  1.00  0.00     0.313 C 
ATOM     76  O   UNL A   1      33.527  26.702  22.580  1.00  0.00    -0.252 OA
BRANCH  75  77
ATOM     77  C   UNL A   1      33.341  24.627  23.873  1.00  0.00     0.079 C 
ATOM     78  C   UNL A   1      34.316  23.872  22.908  1.00  0.00     0.055 C 
ATOM     79  C   UNL A   1      34.184  24.970  25.130  1.00  0.00     0.055 C 
ATOM     80  C   UNL A   1      35.388  23.379  23.814  1.00  0.00    -0.044 A 
ATOM     81  C   UNL A   1      35.318  23.995  25.060  1.00  0.00    -0.044 A 
ATOM     82  C   UNL A   1      36.379  22.464  23.502  1.00  0.00     0.004 A 
ATOM     83  C   UNL A   1      36.256  23.710  26.034  1.00  0.00     0.004 A 
ATOM     84  C   UNL A   1      37.320  22.160  24.482  1.00  0.00     0.000 A 
ATOM     85  C   UNL A   1      37.259  22.781  25.739  1.00  0.00     0.000 A 
BRANCH  77  86
ATOM     86  C   UNL A   1      32.164  23.648  24.205  1.00  0.00     0.047 C 
BRANCH  86  87
ATOM     87  C   UNL A   1      32.330  22.212  23.790  1.00  0.00    -0.025 C 
ATOM     88  C   UNL A   1      32.602  21.215  24.651  1.00  0.00     0.004 C 
BRANCH  88  89
ATOM     89  C   UNL A   1      32.939  19.857  24.205  1.00  0.00    -0.026 A 
ATOM     90  C   UNL A   1      34.073  19.208  24.705  1.00  0.00     0.008 A 
ATOM     91  C   UNL A   1      32.182  19.228  23.206  1.00  0.00     0.008 A 
ATOM     92  C   UNL A   1      34.419  17.934  24.241  1.00  0.00     0.001 A 
ATOM     93  C   UNL A   1      32.527  17.959  22.743  1.00  0.00     0.001 A 
ATOM     94  C   UNL A   1      33.643  17.310  23.264  1.00  0.00     0.000 A 
ENDBRANCH  88  89
ENDBRANCH  86  87
ENDBRANCH  77  86
ENDBRANCH  75  77
ENDBRANCH  74  75
ENDBRANCH  73  74
ENDBRANCH  72  73
ENDBRANCH   1  72
TORSDOF 20
ENDMDL
MODEL 2
REMARK VINA RESULT:     -12.0      4.974     10.314
REMARK SMILES O=C(OCCOCCOC(=O)C1(C/C=C/c2ccccc2)Cc2ccccc2C1)c1ccc(-c2c3nc(c(-c4cc(S(=O)(=O)[O-])ccc4F)c4ccc([nH]4)c(-c4cc(S(=O)(=O)[O-])ccc4F)c4nc(c(-c5cc(S(=O)(=O)[O-])ccc5F)c5ccc2[nH]5)C=C4)C=C3)cc1
REMARK SMILES IDX 6 1 5 2 4 3 3 4 2 5 1 6 30 7 31 8 92 9 32 10 91 11 33 12
REMARK SMILES IDX 34 13 35 14 85 15 36 16 90 17 84 18 86 19 37 20 89 21 83 22
REMARK SMILES IDX 82 23 38 25 70 26 50 27 69 28 51 29 54 30 68 31 87 32 52 33
REMARK SMILES IDX 53 34 67 36 88 37 55 38 39 39 40 40 48 41 41 42 47 43 49 44
REMARK SMILES IDX 46 45 42 46 43 47 44 48 45 49 71 50 72 51 80 52 73 53 79 54
REMARK SMILES IDX 81 55 78 56 74 57 75 58 76 59 77 60 56 61 57 62 65 63 58 64
REMARK SMILES IDX 64 65 66 66 63 67 59 68 60 69 61 70 62 71 7 72 8 73 9 74
REMARK SMILES IDX 10 75 11 76 12 77 22 78 29 79 23 80 28 81 24 82 27 83 25 84
REMARK SMILES IDX 26 85 13 86 14 87 15 88 16 89 17 90 21 91 18 92 20 93 19 94
REMARK H PARENT 86 24 54 35
REMARK Flexibility Score: inf
ROOT
ATOM      1  O   UNL A   1      34.590  20.811  24.871  1.00  0.00    -0.374 OA
ENDROOT
BRANCH   1   2
ATOM      2  C   UNL A   1      35.679  21.695  24.607  1.00  0.00     0.202 C 
BRANCH   2   3
ATOM      3  C   UNL A   1      36.724  21.858  25.715  1.00  0.00     0.261 C 
BRANCH   3   4
ATOM      4  O   UNL A   1      37.859  21.023  25.459  1.00  0.00    -0.460 OA
BRANCH   4   5
ATOM      5  C   UNL A   1      39.095  21.135  25.996  1.00  0.00     0.338 C 
ATOM      6  O   UNL A   1      39.784  20.121  26.095  1.00  0.00    -0.246 OA
BRANCH   5   7
ATOM      7  C   UNL A   1      39.677  22.430  26.467  1.00  0.00     0.060 A 
ATOM      8  C   UNL A   1      39.337  23.697  25.983  1.00  0.00     0.016 A 
ATOM      9  C   UNL A   1      40.587  22.357  27.533  1.00  0.00     0.016 A 
ATOM     10  C   UNL A   1      39.888  24.851  26.498  1.00  0.00     0.010 A 
ATOM     11  C   UNL A   1      41.153  23.515  28.065  1.00  0.00     0.010 A 
ATOM     12  C   UNL A   1      40.809  24.759  27.528  1.00  0.00    -0.014 A 
BRANCH  12  13
ATOM     13  C   UNL A   1      41.530  25.983  27.877  1.00  0.00     0.031 A 
ATOM     14  C   UNL A   1      40.802  26.992  28.702  1.00  0.00     0.074 A 
ATOM     15  C   UNL A   1      42.834  26.088  27.581  1.00  0.00     0.049 A 
ATOM     16  N   UNL A   1      41.156  28.197  29.040  1.00  0.00    -0.248 NA
ATOM     17  C   UNL A   1      39.490  26.570  29.224  1.00  0.00     0.031 C 
ATOM     18  C   UNL A   1      43.639  25.042  26.944  1.00  0.00     0.029 A 
ATOM     19  N   UNL A   1      43.711  27.113  27.786  1.00  0.00    -0.354 N 
ATOM     20  C   UNL A   1      40.093  28.699  29.782  1.00  0.00     0.074 A 
ATOM     21  C   UNL A   1      39.086  27.664  29.846  1.00  0.00     0.031 C 
ATOM     22  C   UNL A   1      44.895  25.492  26.795  1.00  0.00     0.029 A 
ATOM     23  C   UNL A   1      44.953  26.876  27.248  1.00  0.00     0.049 A 
ATOM     24  H   UNL A   1      43.479  27.937  28.271  1.00  0.00     0.167 HD
ATOM     25  C   UNL A   1      39.980  29.930  30.332  1.00  0.00     0.034 A 
ATOM     26  C   UNL A   1      45.986  27.724  27.085  1.00  0.00     0.034 A 
ATOM     27  C   UNL A   1      41.016  30.921  30.190  1.00  0.00     0.049 A 
ATOM     28  C   UNL A   1      45.797  29.134  27.583  1.00  0.00     0.074 A 
ATOM     29  C   UNL A   1      41.021  32.244  30.586  1.00  0.00     0.029 A 
ATOM     30  N   UNL A   1      42.248  30.682  29.580  1.00  0.00    -0.354 N 
ATOM     31  N   UNL A   1      44.750  29.662  28.179  1.00  0.00    -0.248 NA
ATOM     32  C   UNL A   1      46.910  30.064  27.380  1.00  0.00     0.031 C 
ATOM     33  C   UNL A   1      42.225  32.818  30.157  1.00  0.00     0.029 A 
ATOM     34  C   UNL A   1      43.010  31.836  29.568  1.00  0.00     0.049 A 
ATOM     35  H   UNL A   1      42.533  29.815  29.211  1.00  0.00     0.167 HD
ATOM     36  C   UNL A   1      45.086  30.983  28.448  1.00  0.00     0.074 A 
ATOM     37  C   UNL A   1      46.438  31.166  27.948  1.00  0.00     0.031 C 
ATOM     38  C   UNL A   1      44.357  31.957  29.054  1.00  0.00     0.034 A 
BRANCH  25  39
ATOM     39  C   UNL A   1      38.656  30.262  30.977  1.00  0.00     0.023 A 
ATOM     40  C   UNL A   1      37.642  30.953  30.285  1.00  0.00     0.031 A 
ATOM     41  C   UNL A   1      38.466  30.024  32.350  1.00  0.00     0.131 A 
ATOM     42  C   UNL A   1      36.547  31.479  30.990  1.00  0.00     0.055 A 
ATOM     43  C   UNL A   1      37.327  30.467  33.025  1.00  0.00     0.041 A 
ATOM     44  F   UNL A   1      39.411  29.404  33.073  1.00  0.00    -0.206 F 
ATOM     45  C   UNL A   1      36.371  31.220  32.351  1.00  0.00     0.022 A 
BRANCH  42  46
ATOM     46  S   UNL A   1      35.477  32.685  30.154  1.00  0.00     0.124 S 
ATOM     47  O   UNL A   1      34.282  32.653  30.994  1.00  0.00    -0.237 OA
ATOM     48  O   UNL A   1      36.269  33.908  30.217  1.00  0.00    -0.237 OA
ATOM     49  O   UNL A   1      35.303  32.122  28.816  1.00  0.00    -0.744 OA
ENDBRANCH  42  46
ENDBRANCH  25  39
BRANCH  26  50
ATOM     50  C   UNL A   1      47.207  27.284  26.353  1.00  0.00     0.023 A 
ATOM     51  C   UNL A   1      48.226  26.559  26.986  1.00  0.00     0.031 A 
ATOM     52  C   UNL A   1      47.366  27.581  24.984  1.00  0.00     0.131 A 
ATOM     53  C   UNL A   1      49.364  26.169  26.259  1.00  0.00     0.055 A 
ATOM     54  C   UNL A   1      48.475  27.149  24.254  1.00  0.00     0.041 A 
ATOM     55  F   UNL A   1      46.424  28.273  24.324  1.00  0.00    -0.206 F 
ATOM     56  C   UNL A   1      49.486  26.446  24.895  1.00  0.00     0.022 A 
BRANCH  53  57
ATOM     57  S   UNL A   1      50.716  25.335  27.134  1.00  0.00     0.124 S 
ATOM     58  O   UNL A   1      49.999  24.304  27.877  1.00  0.00    -0.237 OA
ATOM     59  O   UNL A   1      51.550  24.869  26.031  1.00  0.00    -0.237 OA
ATOM     60  O   UNL A   1      51.302  26.397  27.949  1.00  0.00    -0.744 OA
ENDBRANCH  53  57
ENDBRANCH  26  50
BRANCH  38  61
ATOM     61  C   UNL A   1      45.043  33.279  29.259  1.00  0.00     0.023 A 
ATOM     62  C   UNL A   1      45.058  34.268  28.264  1.00  0.00     0.031 A 
ATOM     63  C   UNL A   1      45.659  33.556  30.492  1.00  0.00     0.131 A 
ATOM     64  C   UNL A   1      45.713  35.482  28.507  1.00  0.00     0.055 A 
ATOM     65  C   UNL A   1      46.261  34.786  30.747  1.00  0.00     0.041 A 
ATOM     66  F   UNL A   1      45.668  32.638  31.472  1.00  0.00    -0.206 F 
ATOM     67  C   UNL A   1      46.297  35.755  29.748  1.00  0.00     0.022 A 
BRANCH  64  68
ATOM     68  S   UNL A   1      45.847  36.683  27.156  1.00  0.00     0.124 S 
ATOM     69  O   UNL A   1      44.572  37.387  27.252  1.00  0.00    -0.237 OA
ATOM     70  O   UNL A   1      47.028  37.451  27.535  1.00  0.00    -0.237 OA
ATOM     71  O   UNL A   1      46.007  35.847  25.968  1.00  0.00    -0.744 OA
ENDBRANCH  64  68
ENDBRANCH  38  61
ENDBRANCH  12  13
ENDBRANCH   5   7
ENDBRANCH   4   5
ENDBRANCH   3   4
ENDBRANCH   2   3
ENDBRANCH   1   2
BRANCH   1  72
ATOM     72  C   UNL A   1      33.715  21.184  25.942  1.00  0.00     0.202 C 
BRANCH  72  73
ATOM     73  C   UNL A   1      32.685  22.190  25.439  1.00  0.00     0.261 C 
BRANCH  73  74
ATOM     74  O   UNL A   1      33.039  23.464  25.996  1.00  0.00    -0.463 OA
BRANCH  74  75
ATOM     75  C   UNL A   1      32.015  24.181  26.524  1.00  0.00     0.313 C 
ATOM     76  O   UNL A   1      31.201  23.707  27.319  1.00  0.00    -0.252 OA
BRANCH  75  77
ATOM     77  C   UNL A   1      31.938  25.592  25.935  1.00  0.00     0.079 C 
ATOM     78  C   UNL A   1      31.182  26.599  26.866  1.00  0.00     0.055 C 
ATOM     79  C   UNL A   1      33.397  26.113  25.857  1.00  0.00     0.055 C 
ATOM     80  C   UNL A   1      32.025  27.823  26.808  1.00  0.00    -0.044 A 
ATOM     81  C   UNL A   1      33.269  27.553  26.245  1.00  0.00    -0.044 A 
ATOM     82  C   UNL A   1      31.689  29.082  27.277  1.00  0.00     0.004 A 
ATOM     83  C   UNL A   1      34.221  28.549  26.144  1.00  0.00     0.004 A 
ATOM     84  C   UNL A   1      32.637  30.095  27.166  1.00  0.00     0.000 A 
ATOM     85  C   UNL A   1      33.896  29.830  26.604  1.00  0.00     0.000 A 
BRANCH  77  86
ATOM     86  C   UNL A   1      31.227  25.625  24.539  1.00  0.00     0.047 C 
BRANCH  86  87
ATOM     87  C   UNL A   1      30.232  26.727  24.303  1.00  0.00    -0.025 C 
ATOM     88  C   UNL A   1      30.432  27.739  23.440  1.00  0.00     0.004 C 
BRANCH  88  89
ATOM     89  C   UNL A   1      29.533  28.896  23.358  1.00  0.00    -0.026 A 
ATOM     90  C   UNL A   1      29.944  30.148  23.828  1.00  0.00     0.008 A 
ATOM     91  C   UNL A   1      28.218  28.744  22.893  1.00  0.00     0.008 A 
ATOM     92  C   UNL A   1      29.067  31.237  23.795  1.00  0.00     0.001 A 
ATOM     93  C   UNL A   1      27.343  29.830  22.862  1.00  0.00     0.001 A 
ATOM     94  C   UNL A   1      27.770  31.078  23.308  1.00  0.00     0.000 A 
ENDBRANCH  88  89
ENDBRANCH  86  87
ENDBRANCH  77  86
ENDBRANCH  75  77
ENDBRANCH  74  75
ENDBRANCH  73  74
ENDBRANCH  72  73
ENDBRANCH   1  72
TORSDOF 20
ENDMDL
MODEL 3
REMARK VINA RESULT:     -11.9      1.801      2.083
REMARK SMILES O=C(OCCOCCOC(=O)C1(C/C=C/c2ccccc2)Cc2ccccc2C1)c1ccc(-c2c3nc(c(-c4cc(S(=O)(=O)[O-])ccc4F)c4ccc([nH]4)c(-c4cc(S(=O)(=O)[O-])ccc4F)c4nc(c(-c5cc(S(=O)(=O)[O-])ccc5F)c5ccc2[nH]5)C=C4)C=C3)cc1
REMARK SMILES IDX 6 1 5 2 4 3 3 4 2 5 1 6 30 7 31 8 92 9 32 10 91 11 33 12
REMARK SMILES IDX 34 13 35 14 85 15 36 16 90 17 84 18 86 19 37 20 89 21 83 22
REMARK SMILES IDX 82 23 38 25 70 26 50 27 69 28 51 29 54 30 68 31 87 32 52 33
REMARK SMILES IDX 53 34 67 36 88 37 55 38 39 39 40 40 48 41 41 42 47 43 49 44
REMARK SMILES IDX 46 45 42 46 43 47 44 48 45 49 71 50 72 51 80 52 73 53 79 54
REMARK SMILES IDX 81 55 78 56 74 57 75 58 76 59 77 60 56 61 57 62 65 63 58 64
REMARK SMILES IDX 64 65 66 66 63 67 59 68 60 69 61 70 62 71 7 72 8 73 9 74
REMARK SMILES IDX 10 75 11 76 12 77 22 78 29 79 23 80 28 81 24 82 27 83 25 84
REMARK SMILES IDX 26 85 13 86 14 87 15 88 16 89 17 90 21 91 18 92 20 93 19 94
REMARK H PARENT 86 24 54 35
REMARK Flexibility Score: inf
ROOT
ATOM      1  O   UNL A   1      30.861  28.271  24.467  1.00  0.00    -0.374 OA
ENDROOT
BRANCH   1   2
ATOM      2  C   UNL A   1      31.662  29.450  24.545  1.00  0.00     0.202 C 
BRANCH   2   3
ATOM      3  C   UNL A   1      32.706  29.505  25.664  1.00  0.00     0.261 C 
BRANCH   3   4
ATOM      4  O   UNL A   1      32.359  30.511  26.624  1.00  0.00    -0.460 OA
BRANCH   4   5
ATOM      5  C   UNL A   1      33.192  31.392  27.223  1.00  0.00     0.338 C 
ATOM      6  O   UNL A   1      32.860  32.576  27.262  1.00  0.00    -0.246 OA
BRANCH   5   7
ATOM      7  C   UNL A   1      34.491  31.004  27.853  1.00  0.00     0.060 A 
ATOM      8  C   UNL A   1      34.855  29.708  28.232  1.00  0.00     0.016 A 
ATOM      9  C   UNL A   1      35.443  32.024  28.006  1.00  0.00     0.016 A 
ATOM     10  C   UNL A   1      36.092  29.421  28.771  1.00  0.00     0.010 A 
ATOM     11  C   UNL A   1      36.698  31.750  28.549  1.00  0.00     0.010 A 
ATOM     12  C   UNL A   1      37.007  30.446  28.944  1.00  0.00    -0.014 A 
BRANCH  12  13
ATOM     13  C   UNL A   1      38.204  30.133  29.726  1.00  0.00     0.031 A 
ATOM     14  C   UNL A   1      39.231  29.263  29.081  1.00  0.00     0.074 A 
ATOM     15  C   UNL A   1      38.401  30.744  30.904  1.00  0.00     0.049 A 
ATOM     16  N   UNL A   1      40.307  28.737  29.588  1.00  0.00    -0.248 NA
ATOM     17  C   UNL A   1      39.009  28.952  27.658  1.00  0.00     0.031 C 
ATOM     18  C   UNL A   1      37.513  31.755  31.486  1.00  0.00     0.029 A 
ATOM     19  N   UNL A   1      39.413  30.618  31.811  1.00  0.00    -0.354 N 
ATOM     20  C   UNL A   1      40.875  27.996  28.559  1.00  0.00     0.074 A 
ATOM     21  C   UNL A   1      40.024  28.145  27.400  1.00  0.00     0.031 C 
ATOM     22  C   UNL A   1      38.017  32.143  32.669  1.00  0.00     0.029 A 
ATOM     23  C   UNL A   1      39.206  31.351  32.955  1.00  0.00     0.049 A 
ATOM     24  H   UNL A   1      40.209  30.060  31.660  1.00  0.00     0.167 HD
ATOM     25  C   UNL A   1      41.999  27.243  28.607  1.00  0.00     0.034 A 
ATOM     26  C   UNL A   1      39.877  31.315  34.121  1.00  0.00     0.034 A 
ATOM     27  C   UNL A   1      42.773  27.114  29.816  1.00  0.00     0.049 A 
ATOM     28  C   UNL A   1      41.048  30.370  34.207  1.00  0.00     0.074 A 
ATOM     29  C   UNL A   1      43.868  26.314  30.071  1.00  0.00     0.029 A 
ATOM     30  N   UNL A   1      42.509  27.817  30.992  1.00  0.00    -0.354 N 
ATOM     31  N   UNL A   1      41.527  29.569  33.279  1.00  0.00    -0.248 NA
ATOM     32  C   UNL A   1      41.761  30.311  35.484  1.00  0.00     0.031 C 
ATOM     33  C   UNL A   1      44.222  26.483  31.417  1.00  0.00     0.029 A 
ATOM     34  C   UNL A   1      43.403  27.452  31.981  1.00  0.00     0.049 A 
ATOM     35  H   UNL A   1      41.787  28.479  31.101  1.00  0.00     0.167 HD
ATOM     36  C   UNL A   1      42.617  28.926  33.853  1.00  0.00     0.074 A 
ATOM     37  C   UNL A   1      42.722  29.439  35.208  1.00  0.00     0.031 C 
ATOM     38  C   UNL A   1      43.458  28.002  33.318  1.00  0.00     0.034 A 
BRANCH  25  39
ATOM     39  C   UNL A   1      42.320  26.430  27.377  1.00  0.00     0.023 A 
ATOM     40  C   UNL A   1      41.883  25.100  27.226  1.00  0.00     0.031 A 
ATOM     41  C   UNL A   1      43.208  26.940  26.413  1.00  0.00     0.131 A 
ATOM     42  C   UNL A   1      42.423  24.296  26.209  1.00  0.00     0.055 A 
ATOM     43  C   UNL A   1      43.666  26.163  25.347  1.00  0.00     0.041 A 
ATOM     44  F   UNL A   1      43.690  28.188  26.519  1.00  0.00    -0.206 F 
ATOM     45  C   UNL A   1      43.294  24.826  25.254  1.00  0.00     0.022 A 
BRANCH  42  46
ATOM     46  S   UNL A   1      42.146  22.502  26.282  1.00  0.00     0.124 S 
ATOM     47  O   UNL A   1      42.945  22.125  27.444  1.00  0.00    -0.237 OA
ATOM     48  O   UNL A   1      40.699  22.413  26.445  1.00  0.00    -0.237 OA
ATOM     49  O   UNL A   1      42.660  22.023  25.000  1.00  0.00    -0.744 OA
ENDBRANCH  42  46
ENDBRANCH  25  39
BRANCH  26  50
ATOM     50  C   UNL A   1      39.397  32.111  35.285  1.00  0.00     0.023 A 
ATOM     51  C   UNL A   1      39.865  33.409  35.535  1.00  0.00     0.031 A 
ATOM     52  C   UNL A   1      38.440  31.577  36.171  1.00  0.00     0.131 A 
ATOM     53  C   UNL A   1      39.390  34.123  36.649  1.00  0.00     0.055 A 
ATOM     54  C   UNL A   1      37.934  32.308  37.248  1.00  0.00     0.041 A 
ATOM     55  F   UNL A   1      37.956  30.339  35.984  1.00  0.00    -0.206 F 
ATOM     56  C   UNL A   1      38.416  33.587  37.496  1.00  0.00     0.022 A 
BRANCH  53  57
ATOM     57  S   UNL A   1      40.100  35.752  37.010  1.00  0.00     0.124 S 
ATOM     58  O   UNL A   1      39.478  36.071  38.291  1.00  0.00    -0.237 OA
ATOM     59  O   UNL A   1      41.529  35.460  37.045  1.00  0.00    -0.237 OA
ATOM     60  O   UNL A   1      39.662  36.574  35.884  1.00  0.00    -0.744 OA
ENDBRANCH  53  57
ENDBRANCH  26  50
BRANCH  38  61
ATOM     61  C   UNL A   1      44.597  27.547  34.190  1.00  0.00     0.023 A 
ATOM     62  C   UNL A   1      45.828  28.219  34.209  1.00  0.00     0.031 A 
ATOM     63  C   UNL A   1      44.420  26.441  35.039  1.00  0.00     0.131 A 
ATOM     64  C   UNL A   1      46.856  27.753  35.039  1.00  0.00     0.055 A 
ATOM     65  C   UNL A   1      45.427  26.016  35.903  1.00  0.00     0.041 A 
ATOM     66  F   UNL A   1      43.258  25.769  35.053  1.00  0.00    -0.206 F 
ATOM     67  C   UNL A   1      46.657  26.668  35.899  1.00  0.00     0.022 A 
BRANCH  64  68
ATOM     68  S   UNL A   1      48.483  28.544  34.936  1.00  0.00     0.124 S 
ATOM     69  O   UNL A   1      48.437  29.473  36.061  1.00  0.00    -0.237 OA
ATOM     70  O   UNL A   1      49.393  27.413  35.081  1.00  0.00    -0.237 OA
ATOM     71  O   UNL A   1      48.478  29.169  33.615  1.00  0.00    -0.744 OA
ENDBRANCH  64  68
ENDBRANCH  38  61
ENDBRANCH  12  13
ENDBRANCH   5   7
ENDBRANCH   4   5
ENDBRANCH   3   4
ENDBRANCH   2   3
ENDBRANCH   1   2
BRANCH   1  72
ATOM     72  C   UNL A   1      30.453  27.866  23.156  1.00  0.00     0.202 C 
BRANCH  72  73
ATOM     73  C   UNL A   1      30.931  26.444  22.884  1.00  0.00     0.261 C 
BRANCH  73  74
ATOM     74  O   UNL A   1      32.331  26.406  23.202  1.00  0.00    -0.463 OA
BRANCH  74  75
ATOM     75  C   UNL A   1      33.066  25.495  22.516  1.00  0.00     0.313 C 
ATOM     76  O   UNL A   1      33.256  25.560  21.299  1.00  0.00    -0.252 OA
BRANCH  75  77
ATOM     77  C   UNL A   1      33.526  24.340  23.408  1.00  0.00     0.079 C 
ATOM     78  C   UNL A   1      34.625  23.450  22.734  1.00  0.00     0.055 C 
ATOM     79  C   UNL A   1      34.214  24.987  24.639  1.00  0.00     0.055 C 
ATOM     80  C   UNL A   1      35.604  23.220  23.829  1.00  0.00    -0.044 A 
ATOM     81  C   UNL A   1      35.378  24.082  24.898  1.00  0.00    -0.044 A 
ATOM     82  C   UNL A   1      36.652  22.315  23.826  1.00  0.00     0.004 A 
ATOM     83  C   UNL A   1      36.211  24.062  26.000  1.00  0.00     0.004 A 
ATOM     84  C   UNL A   1      37.487  22.278  24.938  1.00  0.00     0.000 A 
ATOM     85  C   UNL A   1      37.269  23.147  26.018  1.00  0.00     0.000 A 
BRANCH  77  86
ATOM     86  C   UNL A   1      32.350  23.391  23.824  1.00  0.00     0.047 C 
BRANCH  86  87
ATOM     87  C   UNL A   1      32.511  21.928  23.519  1.00  0.00    -0.025 C 
ATOM     88  C   UNL A   1      32.816  21.003  24.447  1.00  0.00     0.004 C 
BRANCH  88  89
ATOM     89  C   UNL A   1      33.146  19.615  24.100  1.00  0.00    -0.026 A 
ATOM     90  C   UNL A   1      34.291  19.006  24.625  1.00  0.00     0.008 A 
ATOM     91  C   UNL A   1      32.369  18.911  23.169  1.00  0.00     0.008 A 
ATOM     92  C   UNL A   1      34.629  17.701  24.253  1.00  0.00     0.001 A 
ATOM     93  C   UNL A   1      32.707  17.610  22.797  1.00  0.00     0.001 A 
ATOM     94  C   UNL A   1      33.835  17.003  23.343  1.00  0.00     0.000 A 
ENDBRANCH  88  89
ENDBRANCH  86  87
ENDBRANCH  77  86
ENDBRANCH  75  77
ENDBRANCH  74  75
ENDBRANCH  73  74
ENDBRANCH  72  73
ENDBRANCH   1  72
TORSDOF 20
ENDMDL
