MODEL 1
REMARK VINA RESULT:      -9.9      0.000      0.000
REMARK SMILES C[C@@]1(C(=O)N[C@@H](CO)C(=O)OCCOCCOC(=O)c2ccc(-c3c4nc(c(-c5cc(S(=O)(=O)[O-])ccc5F)c5ccc([nH]5)c(-c5cc(S(=O)(=O)[O-])ccc5F)c5nc(c(-c6cc(S(=O)(=O)[O-])ccc6F)c6ccc3[nH]6)C=C5)C=C4)cc2)CCCO1
REMARK SMILES IDX 15 1 14 2 13 3 12 4 11 5 9 6 10 7 6 8 5 9 3 10 4 11 2 13
REMARK SMILES IDX 1 14 83 15 86 16 84 17 85 18 7 19 8 20 16 22 17 23 18 24
REMARK SMILES IDX 19 25 20 26 21 27 82 28 22 29 81 30 23 31 24 32 25 33 75 34
REMARK SMILES IDX 26 35 80 36 74 37 76 38 27 39 79 40 73 41 72 42 28 44 60 45
REMARK SMILES IDX 40 46 59 47 41 48 44 49 58 50 77 51 42 52 43 53 57 55 78 56
REMARK SMILES IDX 45 57 29 58 30 59 38 60 31 61 37 62 39 63 36 64 32 65 33 66
REMARK SMILES IDX 34 67 35 68 61 69 62 70 70 71 63 72 69 73 71 74 68 75 64 76
REMARK SMILES IDX 65 77 66 78 67 79 46 80 47 81 55 82 48 83 54 84 56 85 53 86
REMARK SMILES IDX 49 87 50 88 51 89 52 90
REMARK H PARENT 5 12 8 21 76 43 44 54
REMARK Flexibility Score: inf
ROOT
ATOM      1  C   UNL A   1      31.444  29.851  25.408  1.00  0.00     0.202 C 
ENDROOT
BRANCH   1   2
ATOM      2  O   UNL A   1      32.414  28.812  25.508  1.00  0.00    -0.374 OA
BRANCH   2   3
ATOM      3  C   UNL A   1      33.691  29.039  24.911  1.00  0.00     0.202 C 
BRANCH   3   4
ATOM      4  C   UNL A   1      34.019  28.217  23.661  1.00  0.00     0.261 C 
BRANCH   4   5
ATOM      5  O   UNL A   1      33.938  26.807  23.921  1.00  0.00    -0.462 OA
BRANCH   5   6
ATOM      6  C   UNL A   1      33.384  26.059  22.928  1.00  0.00     0.331 C 
ATOM      7  O   UNL A   1      33.997  25.588  21.975  1.00  0.00    -0.250 OA
BRANCH   6   8
ATOM      8  C   UNL A   1      31.875  25.860  23.112  1.00  0.00     0.218 C 
BRANCH   8   9
ATOM      9  N   UNL A   1      31.357  26.218  24.440  1.00  0.00    -0.338 N 
ATOM     10  C   UNL A   1      31.174  25.478  25.571  1.00  0.00     0.252 C 
ATOM     11  O   UNL A   1      30.705  26.080  26.544  1.00  0.00    -0.272 OA
ATOM     12  H   UNL A   1      31.096  27.163  24.529  1.00  0.00     0.164 HD
BRANCH  10  13
ATOM     13  C   UNL A   1      31.616  23.981  25.699  1.00  0.00     0.143 C 
ATOM     14  C   UNL A   1      30.651  23.274  26.666  1.00  0.00     0.053 C 
ATOM     15  C   UNL A   1      33.039  23.879  26.267  1.00  0.00     0.048 C 
ATOM     16  O   UNL A   1      31.607  23.233  24.474  1.00  0.00    -0.365 OA
ATOM     17  C   UNL A   1      33.873  23.436  25.093  1.00  0.00     0.032 C 
ATOM     18  C   UNL A   1      32.887  22.601  24.311  1.00  0.00     0.162 C 
ENDBRANCH  10  13
ENDBRANCH   8   9
BRANCH   8  19
ATOM     19  C   UNL A   1      31.151  26.626  22.003  1.00  0.00     0.193 C 
BRANCH  19  20
ATOM     20  O   UNL A   1      31.436  26.082  20.716  1.00  0.00    -0.394 OA
ATOM     21  H   UNL A   1      31.286  25.123  20.731  1.00  0.00     0.210 HD
ENDBRANCH  19  20
ENDBRANCH   8  19
ENDBRANCH   6   8
ENDBRANCH   5   6
ENDBRANCH   4   5
ENDBRANCH   3   4
ENDBRANCH   2   3
ENDBRANCH   1   2
BRANCH   1  22
ATOM     22  C   UNL A   1      31.748  31.195  26.086  1.00  0.00     0.261 C 
BRANCH  22  23
ATOM     23  O   UNL A   1      32.466  31.062  27.322  1.00  0.00    -0.460 OA
BRANCH  23  24
ATOM     24  C   UNL A   1      33.307  32.090  27.593  1.00  0.00     0.338 C 
ATOM     25  O   UNL A   1      33.022  33.279  27.657  1.00  0.00    -0.246 OA
BRANCH  24  26
ATOM     26  C   UNL A   1      34.620  31.570  28.007  1.00  0.00     0.060 A 
ATOM     27  C   UNL A   1      34.720  30.199  28.275  1.00  0.00     0.016 A 
ATOM     28  C   UNL A   1      35.713  32.417  28.204  1.00  0.00     0.016 A 
ATOM     29  C   UNL A   1      35.907  29.671  28.776  1.00  0.00     0.010 A 
ATOM     30  C   UNL A   1      36.900  31.887  28.720  1.00  0.00     0.010 A 
ATOM     31  C   UNL A   1      36.993  30.518  29.035  1.00  0.00    -0.014 A 
BRANCH  31  32
ATOM     32  C   UNL A   1      38.165  29.993  29.776  1.00  0.00     0.031 A 
ATOM     33  C   UNL A   1      38.421  30.490  31.173  1.00  0.00     0.074 A 
ATOM     34  C   UNL A   1      38.972  29.072  29.221  1.00  0.00     0.049 A 
ATOM     35  N   UNL A   1      39.409  30.217  31.984  1.00  0.00    -0.248 NA
ATOM     36  C   UNL A   1      37.426  31.423  31.725  1.00  0.00     0.031 C 
ATOM     37  C   UNL A   1      38.789  28.483  27.894  1.00  0.00     0.029 A 
ATOM     38  N   UNL A   1      40.110  28.475  29.699  1.00  0.00    -0.354 N 
ATOM     39  C   UNL A   1      39.162  30.949  33.140  1.00  0.00     0.074 A 
ATOM     40  C   UNL A   1      37.947  31.701  32.910  1.00  0.00     0.031 C 
ATOM     41  C   UNL A   1      39.793  27.620  27.659  1.00  0.00     0.029 A 
ATOM     42  C   UNL A   1      40.709  27.627  28.797  1.00  0.00     0.049 A 
ATOM     43  H   UNL A   1      40.466  28.640  30.602  1.00  0.00     0.167 HD
ATOM     44  C   UNL A   1      39.883  30.985  34.288  1.00  0.00     0.034 A 
ATOM     45  C   UNL A   1      41.879  26.960  28.870  1.00  0.00     0.034 A 
ATOM     46  C   UNL A   1      41.098  30.235  34.493  1.00  0.00     0.049 A 
ATOM     47  C   UNL A   1      42.710  27.084  30.126  1.00  0.00     0.074 A 
ATOM     48  C   UNL A   1      41.900  30.182  35.619  1.00  0.00     0.029 A 
ATOM     49  N   UNL A   1      41.697  29.418  33.542  1.00  0.00    -0.354 N 
ATOM     50  N   UNL A   1      42.463  27.772  31.217  1.00  0.00    -0.248 NA
ATOM     51  C   UNL A   1      43.975  26.337  30.162  1.00  0.00     0.031 C 
ATOM     52  C   UNL A   1      43.018  29.395  35.326  1.00  0.00     0.029 A 
ATOM     53  C   UNL A   1      42.876  28.888  34.044  1.00  0.00     0.049 A 
ATOM     54  H   UNL A   1      41.338  29.242  32.643  1.00  0.00     0.167 HD
ATOM     55  C   UNL A   1      43.525  27.514  32.080  1.00  0.00     0.074 A 
ATOM     56  C   UNL A   1      44.408  26.597  31.386  1.00  0.00     0.031 C 
ATOM     57  C   UNL A   1      43.750  27.982  33.335  1.00  0.00     0.034 A 
BRANCH  44  58
ATOM     58  C   UNL A   1      39.403  31.910  35.381  1.00  0.00     0.023 A 
ATOM     59  C   UNL A   1      39.865  33.233  35.490  1.00  0.00     0.031 A 
ATOM     60  C   UNL A   1      38.485  31.451  36.343  1.00  0.00     0.131 A 
ATOM     61  C   UNL A   1      39.459  34.028  36.574  1.00  0.00     0.055 A 
ATOM     62  C   UNL A   1      38.027  32.271  37.375  1.00  0.00     0.041 A 
ATOM     63  F   UNL A   1      38.028  30.190  36.302  1.00  0.00    -0.206 F 
ATOM     64  C   UNL A   1      38.524  33.564  37.503  1.00  0.00     0.022 A 
BRANCH  61  65
ATOM     65  S   UNL A   1      40.271  35.631  36.829  1.00  0.00     0.124 S 
ATOM     66  O   UNL A   1      39.639  36.450  35.797  1.00  0.00    -0.237 OA
ATOM     67  O   UNL A   1      39.912  35.950  38.206  1.00  0.00    -0.237 OA
ATOM     68  O   UNL A   1      41.685  35.339  36.605  1.00  0.00    -0.744 OA
ENDBRANCH  61  65
ENDBRANCH  44  58
BRANCH  45  69
ATOM     69  C   UNL A   1      42.368  26.160  27.711  1.00  0.00     0.023 A 
ATOM     70  C   UNL A   1      41.971  24.826  27.525  1.00  0.00     0.031 A 
ATOM     71  C   UNL A   1      43.290  26.704  26.799  1.00  0.00     0.131 A 
ATOM     72  C   UNL A   1      42.530  24.068  26.483  1.00  0.00     0.055 A 
ATOM     73  C   UNL A   1      43.801  25.964  25.732  1.00  0.00     0.041 A 
ATOM     74  F   UNL A   1      43.707  27.974  26.931  1.00  0.00    -0.206 F 
ATOM     75  C   UNL A   1      43.431  24.632  25.577  1.00  0.00     0.022 A 
BRANCH  72  76
ATOM     76  S   UNL A   1      42.131  22.301  26.383  1.00  0.00     0.124 S 
ATOM     77  O   UNL A   1      40.688  22.333  26.176  1.00  0.00    -0.237 OA
ATOM     78  O   UNL A   1      42.935  21.874  25.243  1.00  0.00    -0.237 OA
ATOM     79  O   UNL A   1      42.565  21.781  27.678  1.00  0.00    -0.744 OA
ENDBRANCH  72  76
ENDBRANCH  45  69
BRANCH  57  80
ATOM     80  C   UNL A   1      44.975  27.471  34.053  1.00  0.00     0.023 A 
ATOM     81  C   UNL A   1      44.937  26.326  34.867  1.00  0.00     0.031 A 
ATOM     82  C   UNL A   1      46.203  28.145  33.916  1.00  0.00     0.131 A 
ATOM     83  C   UNL A   1      46.091  25.917  35.552  1.00  0.00     0.055 A 
ATOM     84  C   UNL A   1      47.361  27.700  34.553  1.00  0.00     0.041 A 
ATOM     85  F   UNL A   1      46.297  29.245  33.153  1.00  0.00    -0.206 F 
ATOM     86  C   UNL A   1      47.307  26.587  35.387  1.00  0.00     0.022 A 
BRANCH  83  87
ATOM     87  S   UNL A   1      45.965  24.546  36.733  1.00  0.00     0.124 S 
ATOM     88  O   UNL A   1      45.025  23.654  36.064  1.00  0.00    -0.237 OA
ATOM     89  O   UNL A   1      47.344  24.075  36.814  1.00  0.00    -0.237 OA
ATOM     90  O   UNL A   1      45.458  25.184  37.948  1.00  0.00    -0.744 OA
ENDBRANCH  83  87
ENDBRANCH  57  80
ENDBRANCH  31  32
ENDBRANCH  24  26
ENDBRANCH  23  24
ENDBRANCH  22  23
ENDBRANCH   1  22
TORSDOF 21
ENDMDL
MODEL 2
REMARK VINA RESULT:      -9.8      4.961      7.839
REMARK SMILES C[C@@]1(C(=O)N[C@@H](CO)C(=O)OCCOCCOC(=O)c2ccc(-c3c4nc(c(-c5cc(S(=O)(=O)[O-])ccc5F)c5ccc([nH]5)c(-c5cc(S(=O)(=O)[O-])ccc5F)c5nc(c(-c6cc(S(=O)(=O)[O-])ccc6F)c6ccc3[nH]6)C=C5)C=C4)cc2)CCCO1
REMARK SMILES IDX 15 1 14 2 13 3 12 4 11 5 9 6 10 7 6 8 5 9 3 10 4 11 2 13
REMARK SMILES IDX 1 14 83 15 86 16 84 17 85 18 7 19 8 20 16 22 17 23 18 24
REMARK SMILES IDX 19 25 20 26 21 27 82 28 22 29 81 30 23 31 24 32 25 33 75 34
REMARK SMILES IDX 26 35 80 36 74 37 76 38 27 39 79 40 73 41 72 42 28 44 60 45
REMARK SMILES IDX 40 46 59 47 41 48 44 49 58 50 77 51 42 52 43 53 57 55 78 56
REMARK SMILES IDX 45 57 29 58 30 59 38 60 31 61 37 62 39 63 36 64 32 65 33 66
REMARK SMILES IDX 34 67 35 68 61 69 62 70 70 71 63 72 69 73 71 74 68 75 64 76
REMARK SMILES IDX 65 77 66 78 67 79 46 80 47 81 55 82 48 83 54 84 56 85 53 86
REMARK SMILES IDX 49 87 50 88 51 89 52 90
REMARK H PARENT 5 12 8 21 76 43 44 54
REMARK Flexibility Score: inf
ROOT
ATOM      1  C   UNL A   1      36.385  19.869  24.940  1.00  0.00     0.202 C 
ENDROOT
BRANCH   1   2
ATOM      2  O   UNL A   1      35.619  20.904  25.550  1.00  0.00    -0.374 OA
BRANCH   2   3
ATOM      3  C   UNL A   1      34.198  20.772  25.536  1.00  0.00     0.202 C 
BRANCH   3   4
ATOM      4  C   UNL A   1      33.474  21.288  24.289  1.00  0.00     0.261 C 
BRANCH   4   5
ATOM      5  O   UNL A   1      33.208  22.697  24.380  1.00  0.00    -0.462 OA
BRANCH   5   6
ATOM      6  C   UNL A   1      31.931  23.072  24.094  1.00  0.00     0.331 C 
ATOM      7  O   UNL A   1      31.293  22.707  23.112  1.00  0.00    -0.250 OA
BRANCH   6   8
ATOM      8  C   UNL A   1      31.350  24.028  25.142  1.00  0.00     0.218 C 
BRANCH   8   9
ATOM      9  N   UNL A   1      30.122  24.726  24.734  1.00  0.00    -0.338 N 
ATOM     10  C   UNL A   1      29.918  25.971  24.215  1.00  0.00     0.252 C 
ATOM     11  O   UNL A   1      28.743  26.275  23.976  1.00  0.00    -0.272 OA
ATOM     12  H   UNL A   1      29.300  24.200  24.856  1.00  0.00     0.164 HD
BRANCH  10  13
ATOM     13  C   UNL A   1      31.084  26.946  23.836  1.00  0.00     0.143 C 
ATOM     14  C   UNL A   1      30.554  28.388  23.919  1.00  0.00     0.053 C 
ATOM     15  C   UNL A   1      31.566  26.686  22.400  1.00  0.00     0.048 C 
ATOM     16  O   UNL A   1      32.242  26.873  24.679  1.00  0.00    -0.365 OA
ATOM     17  C   UNL A   1      32.917  26.042  22.579  1.00  0.00     0.032 C 
ATOM     18  C   UNL A   1      33.403  26.691  23.852  1.00  0.00     0.162 C 
ENDBRANCH  10  13
ENDBRANCH   8   9
BRANCH   8  19
ATOM     19  C   UNL A   1      31.144  23.249  26.442  1.00  0.00     0.193 C 
BRANCH  19  20
ATOM     20  O   UNL A   1      29.962  22.454  26.396  1.00  0.00    -0.394 OA
ATOM     21  H   UNL A   1      29.226  22.945  26.794  1.00  0.00     0.210 HD
ENDBRANCH  19  20
ENDBRANCH   8  19
ENDBRANCH   6   8
ENDBRANCH   5   6
ENDBRANCH   4   5
ENDBRANCH   3   4
ENDBRANCH   2   3
ENDBRANCH   1   2
BRANCH   1  22
ATOM     22  C   UNL A   1      37.916  19.975  24.985  1.00  0.00     0.261 C 
BRANCH  22  23
ATOM     23  O   UNL A   1      38.387  21.143  25.675  1.00  0.00    -0.460 OA
BRANCH  23  24
ATOM     24  C   UNL A   1      39.582  20.983  26.293  1.00  0.00     0.338 C 
ATOM     25  O   UNL A   1      40.300  19.990  26.266  1.00  0.00    -0.246 OA
BRANCH  24  26
ATOM     26  C   UNL A   1      40.029  22.263  26.867  1.00  0.00     0.060 A 
ATOM     27  C   UNL A   1      39.486  23.438  26.331  1.00  0.00     0.016 A 
ATOM     28  C   UNL A   1      41.013  22.318  27.855  1.00  0.00     0.016 A 
ATOM     29  C   UNL A   1      39.951  24.679  26.758  1.00  0.00     0.010 A 
ATOM     30  C   UNL A   1      41.489  23.565  28.272  1.00  0.00     0.010 A 
ATOM     31  C   UNL A   1      40.981  24.749  27.705  1.00  0.00    -0.014 A 
BRANCH  31  32
ATOM     32  C   UNL A   1      41.625  26.055  27.985  1.00  0.00     0.031 A 
ATOM     33  C   UNL A   1      40.830  27.118  28.693  1.00  0.00     0.074 A 
ATOM     34  C   UNL A   1      42.905  26.279  27.637  1.00  0.00     0.049 A 
ATOM     35  N   UNL A   1      41.164  28.346  28.991  1.00  0.00    -0.248 NA
ATOM     36  C   UNL A   1      39.473  26.740  29.119  1.00  0.00     0.031 C 
ATOM     37  C   UNL A   1      43.785  25.303  26.993  1.00  0.00     0.029 A 
ATOM     38  N   UNL A   1      43.684  27.399  27.767  1.00  0.00    -0.354 N 
ATOM     39  C   UNL A   1      40.058  28.894  29.632  1.00  0.00     0.074 A 
ATOM     40  C   UNL A   1      39.034  27.871  29.650  1.00  0.00     0.031 C 
ATOM     41  C   UNL A   1      44.980  25.876  26.771  1.00  0.00     0.029 A 
ATOM     42  C   UNL A   1      44.938  27.267  27.215  1.00  0.00     0.049 A 
ATOM     43  H   UNL A   1      43.376  28.221  28.213  1.00  0.00     0.167 HD
ATOM     44  C   UNL A   1      39.915  30.134  30.159  1.00  0.00     0.034 A 
ATOM     45  C   UNL A   1      45.922  28.175  27.059  1.00  0.00     0.034 A 
ATOM     46  C   UNL A   1      40.946  31.143  30.120  1.00  0.00     0.049 A 
ATOM     47  C   UNL A   1      45.707  29.578  27.576  1.00  0.00     0.074 A 
ATOM     48  C   UNL A   1      40.917  32.426  30.637  1.00  0.00     0.029 A 
ATOM     49  N   UNL A   1      42.187  30.988  29.516  1.00  0.00    -0.354 N 
ATOM     50  N   UNL A   1      44.661  30.083  28.188  1.00  0.00    -0.248 NA
ATOM     51  C   UNL A   1      46.809  30.531  27.386  1.00  0.00     0.031 C 
ATOM     52  C   UNL A   1      42.107  33.069  30.282  1.00  0.00     0.029 A 
ATOM     53  C   UNL A   1      42.916  32.163  29.615  1.00  0.00     0.049 A 
ATOM     54  H   UNL A   1      42.504  30.163  29.081  1.00  0.00     0.167 HD
ATOM     55  C   UNL A   1      44.993  31.403  28.485  1.00  0.00     0.074 A 
ATOM     56  C   UNL A   1      46.341  31.611  27.995  1.00  0.00     0.031 C 
ATOM     57  C   UNL A   1      44.256  32.356  29.113  1.00  0.00     0.034 A 
BRANCH  44  58
ATOM     58  C   UNL A   1      38.576  30.482  30.765  1.00  0.00     0.023 A 
ATOM     59  C   UNL A   1      37.571  31.128  30.025  1.00  0.00     0.031 A 
ATOM     60  C   UNL A   1      38.312  30.181  32.113  1.00  0.00     0.131 A 
ATOM     61  C   UNL A   1      36.375  31.510  30.656  1.00  0.00     0.055 A 
ATOM     62  C   UNL A   1      37.093  30.496  32.714  1.00  0.00     0.041 A 
ATOM     63  F   UNL A   1      39.244  29.586  32.875  1.00  0.00    -0.206 F 
ATOM     64  C   UNL A   1      36.120  31.177  31.988  1.00  0.00     0.022 A 
BRANCH  61  65
ATOM     65  S   UNL A   1      35.214  32.568  29.748  1.00  0.00     0.124 S 
ATOM     66  O   UNL A   1      36.095  33.629  29.266  1.00  0.00    -0.237 OA
ATOM     67  O   UNL A   1      34.691  31.662  28.732  1.00  0.00    -0.237 OA
ATOM     68  O   UNL A   1      34.254  32.980  30.770  1.00  0.00    -0.744 OA
ENDBRANCH  61  65
ENDBRANCH  44  58
BRANCH  45  69
ATOM     69  C   UNL A   1      47.177  27.813  26.339  1.00  0.00     0.023 A 
ATOM     70  C   UNL A   1      47.293  27.971  24.949  1.00  0.00     0.031 A 
ATOM     71  C   UNL A   1      48.263  27.244  27.029  1.00  0.00     0.131 A 
ATOM     72  C   UNL A   1      48.449  27.525  24.288  1.00  0.00     0.055 A 
ATOM     73  C   UNL A   1      49.432  26.852  26.375  1.00  0.00     0.041 A 
ATOM     74  F   UNL A   1      48.204  27.066  28.359  1.00  0.00    -0.206 F 
ATOM     75  C   UNL A   1      49.524  26.979  24.993  1.00  0.00     0.022 A 
BRANCH  72  76
ATOM     76  S   UNL A   1      48.490  27.581  22.475  1.00  0.00     0.124 S 
ATOM     77  O   UNL A   1      49.751  28.271  22.228  1.00  0.00    -0.237 OA
ATOM     78  O   UNL A   1      48.455  26.165  22.128  1.00  0.00    -0.237 OA
ATOM     79  O   UNL A   1      47.286  28.335  22.131  1.00  0.00    -0.744 OA
ENDBRANCH  72  76
ENDBRANCH  45  69
BRANCH  57  80
ATOM     80  C   UNL A   1      44.916  33.694  29.346  1.00  0.00     0.023 A 
ATOM     81  C   UNL A   1      44.820  34.743  28.415  1.00  0.00     0.031 A 
ATOM     82  C   UNL A   1      45.652  33.919  30.523  1.00  0.00     0.131 A 
ATOM     83  C   UNL A   1      45.490  35.952  28.654  1.00  0.00     0.055 A 
ATOM     84  C   UNL A   1      46.268  35.144  30.783  1.00  0.00     0.041 A 
ATOM     85  F   UNL A   1      45.779  32.952  31.445  1.00  0.00    -0.206 F 
ATOM     86  C   UNL A   1      46.199  36.165  29.840  1.00  0.00     0.022 A 
BRANCH  83  87
ATOM     87  S   UNL A   1      45.496  37.219  27.355  1.00  0.00     0.124 S 
ATOM     88  O   UNL A   1      46.186  38.324  28.012  1.00  0.00    -0.237 OA
ATOM     89  O   UNL A   1      46.228  36.558  26.279  1.00  0.00    -0.237 OA
ATOM     90  O   UNL A   1      44.076  37.444  27.089  1.00  0.00    -0.744 OA
ENDBRANCH  83  87
ENDBRANCH  57  80
ENDBRANCH  31  32
ENDBRANCH  24  26
ENDBRANCH  23  24
ENDBRANCH  22  23
ENDBRANCH   1  22
TORSDOF 21
ENDMDL
MODEL 3
REMARK VINA RESULT:      -9.8      4.960     10.084
REMARK SMILES C[C@@]1(C(=O)N[C@@H](CO)C(=O)OCCOCCOC(=O)c2ccc(-c3c4nc(c(-c5cc(S(=O)(=O)[O-])ccc5F)c5ccc([nH]5)c(-c5cc(S(=O)(=O)[O-])ccc5F)c5nc(c(-c6cc(S(=O)(=O)[O-])ccc6F)c6ccc3[nH]6)C=C5)C=C4)cc2)CCCO1
REMARK SMILES IDX 15 1 14 2 13 3 12 4 11 5 9 6 10 7 6 8 5 9 3 10 4 11 2 13
REMARK SMILES IDX 1 14 83 15 86 16 84 17 85 18 7 19 8 20 16 22 17 23 18 24
REMARK SMILES IDX 19 25 20 26 21 27 82 28 22 29 81 30 23 31 24 32 25 33 75 34
REMARK SMILES IDX 26 35 80 36 74 37 76 38 27 39 79 40 73 41 72 42 28 44 60 45
REMARK SMILES IDX 40 46 59 47 41 48 44 49 58 50 77 51 42 52 43 53 57 55 78 56
REMARK SMILES IDX 45 57 29 58 30 59 38 60 31 61 37 62 39 63 36 64 32 65 33 66
REMARK SMILES IDX 34 67 35 68 61 69 62 70 70 71 63 72 69 73 71 74 68 75 64 76
REMARK SMILES IDX 65 77 66 78 67 79 46 80 47 81 55 82 48 83 54 84 56 85 53 86
REMARK SMILES IDX 49 87 50 88 51 89 52 90
REMARK H PARENT 5 12 8 21 76 43 44 54
REMARK Flexibility Score: inf
ROOT
ATOM      1  C   UNL A   1      35.766  21.006  25.053  1.00  0.00     0.202 C 
ENDROOT
BRANCH   1   2
ATOM      2  O   UNL A   1      34.744  20.049  24.787  1.00  0.00    -0.374 OA
BRANCH   2   3
ATOM      3  C   UNL A   1      33.413  20.534  24.608  1.00  0.00     0.202 C 
BRANCH   3   4
ATOM      4  C   UNL A   1      33.228  22.054  24.634  1.00  0.00     0.261 C 
BRANCH   4   5
ATOM      5  O   UNL A   1      33.025  22.582  23.313  1.00  0.00    -0.462 OA
BRANCH   5   6
ATOM      6  C   UNL A   1      33.716  23.719  23.024  1.00  0.00     0.331 C 
ATOM      7  O   UNL A   1      34.866  23.756  22.598  1.00  0.00    -0.250 OA
BRANCH   6   8
ATOM      8  C   UNL A   1      32.902  24.989  23.296  1.00  0.00     0.218 C 
BRANCH   8   9
ATOM      9  N   UNL A   1      33.638  26.069  23.969  1.00  0.00    -0.338 N 
ATOM     10  C   UNL A   1      33.239  27.017  24.865  1.00  0.00     0.252 C 
ATOM     11  O   UNL A   1      34.112  27.804  25.249  1.00  0.00    -0.272 OA
ATOM     12  H   UNL A   1      34.592  26.115  23.730  1.00  0.00     0.164 HD
BRANCH  10  13
ATOM     13  C   UNL A   1      31.795  27.072  25.471  1.00  0.00     0.143 C 
ATOM     14  C   UNL A   1      31.702  28.306  26.384  1.00  0.00     0.053 C 
ATOM     15  C   UNL A   1      31.509  25.819  26.312  1.00  0.00     0.048 C 
ATOM     16  O   UNL A   1      30.733  27.176  24.512  1.00  0.00    -0.365 OA
ATOM     17  C   UNL A   1      30.521  25.038  25.484  1.00  0.00     0.032 C 
ATOM     18  C   UNL A   1      29.771  26.141  24.776  1.00  0.00     0.162 C 
ENDBRANCH  10  13
ENDBRANCH   8   9
BRANCH   8  19
ATOM     19  C   UNL A   1      32.296  25.464  21.974  1.00  0.00     0.193 C 
BRANCH  19  20
ATOM     20  O   UNL A   1      33.299  25.672  20.983  1.00  0.00    -0.394 OA
ATOM     21  H   UNL A   1      33.457  24.843  20.504  1.00  0.00     0.210 HD
ENDBRANCH  19  20
ENDBRANCH   8  19
ENDBRANCH   6   8
ENDBRANCH   5   6
ENDBRANCH   4   5
ENDBRANCH   3   4
ENDBRANCH   2   3
ENDBRANCH   1   2
BRANCH   1  22
ATOM     22  C   UNL A   1      37.184  20.493  25.340  1.00  0.00     0.261 C 
BRANCH  22  23
ATOM     23  O   UNL A   1      38.188  21.516  25.254  1.00  0.00    -0.460 OA
BRANCH  23  24
ATOM     24  C   UNL A   1      39.226  21.352  26.111  1.00  0.00     0.338 C 
ATOM     25  O   UNL A   1      39.866  20.326  26.307  1.00  0.00    -0.246 OA
BRANCH  24  26
ATOM     26  C   UNL A   1      39.637  22.655  26.659  1.00  0.00     0.060 A 
ATOM     27  C   UNL A   1      39.020  23.800  26.141  1.00  0.00     0.016 A 
ATOM     28  C   UNL A   1      40.658  22.760  27.606  1.00  0.00     0.016 A 
ATOM     29  C   UNL A   1      39.445  25.063  26.543  1.00  0.00     0.010 A 
ATOM     30  C   UNL A   1      41.093  24.031  27.998  1.00  0.00     0.010 A 
ATOM     31  C   UNL A   1      40.509  25.187  27.446  1.00  0.00    -0.014 A 
BRANCH  31  32
ATOM     32  C   UNL A   1      41.104  26.522  27.693  1.00  0.00     0.031 A 
ATOM     33  C   UNL A   1      42.506  26.789  27.219  1.00  0.00     0.074 A 
ATOM     34  C   UNL A   1      40.396  27.486  28.308  1.00  0.00     0.049 A 
ATOM     35  N   UNL A   1      43.247  27.855  27.372  1.00  0.00    -0.248 NA
ATOM     36  C   UNL A   1      43.159  25.702  26.472  1.00  0.00     0.031 C 
ATOM     37  C   UNL A   1      39.012  27.354  28.763  1.00  0.00     0.029 A 
ATOM     38  N   UNL A   1      40.745  28.764  28.661  1.00  0.00    -0.354 N 
ATOM     39  C   UNL A   1      44.456  27.569  26.750  1.00  0.00     0.074 A 
ATOM     40  C   UNL A   1      44.359  26.216  26.244  1.00  0.00     0.031 C 
ATOM     41  C   UNL A   1      38.636  28.502  29.352  1.00  0.00     0.029 A 
ATOM     42  C   UNL A   1      39.762  29.434  29.353  1.00  0.00     0.049 A 
ATOM     43  H   UNL A   1      41.617  29.165  28.442  1.00  0.00     0.167 HD
ATOM     44  C   UNL A   1      45.545  28.364  26.610  1.00  0.00     0.034 A 
ATOM     45  C   UNL A   1      39.783  30.644  29.946  1.00  0.00     0.034 A 
ATOM     46  C   UNL A   1      45.626  29.707  27.131  1.00  0.00     0.049 A 
ATOM     47  C   UNL A   1      41.039  31.479  29.853  1.00  0.00     0.074 A 
ATOM     48  C   UNL A   1      46.671  30.609  27.034  1.00  0.00     0.029 A 
ATOM     49  N   UNL A   1      44.627  30.337  27.863  1.00  0.00    -0.354 N 
ATOM     50  N   UNL A   1      42.174  31.202  29.254  1.00  0.00    -0.248 NA
ATOM     51  C   UNL A   1      41.013  32.793  30.511  1.00  0.00     0.031 C 
ATOM     52  C   UNL A   1      46.335  31.752  27.767  1.00  0.00     0.029 A 
ATOM     53  C   UNL A   1      45.046  31.599  28.254  1.00  0.00     0.049 A 
ATOM     54  H   UNL A   1      43.749  29.945  28.073  1.00  0.00     0.167 HD
ATOM     55  C   UNL A   1      42.984  32.320  29.436  1.00  0.00     0.074 A 
ATOM     56  C   UNL A   1      42.202  33.279  30.190  1.00  0.00     0.031 C 
ATOM     57  C   UNL A   1      44.256  32.541  29.014  1.00  0.00     0.034 A 
BRANCH  44  58
ATOM     58  C   UNL A   1      46.752  27.776  25.919  1.00  0.00     0.023 A 
ATOM     59  C   UNL A   1      47.065  28.079  24.582  1.00  0.00     0.031 A 
ATOM     60  C   UNL A   1      47.591  26.879  26.605  1.00  0.00     0.131 A 
ATOM     61  C   UNL A   1      48.146  27.440  23.955  1.00  0.00     0.055 A 
ATOM     62  C   UNL A   1      48.709  26.305  25.999  1.00  0.00     0.041 A 
ATOM     63  F   UNL A   1      47.328  26.535  27.876  1.00  0.00    -0.206 F 
ATOM     64  C   UNL A   1      48.985  26.574  24.661  1.00  0.00     0.022 A 
BRANCH  61  65
ATOM     65  S   UNL A   1      48.363  27.652  22.167  1.00  0.00     0.124 S 
ATOM     66  O   UNL A   1      48.633  26.281  21.737  1.00  0.00    -0.237 OA
ATOM     67  O   UNL A   1      47.078  28.207  21.757  1.00  0.00    -0.237 OA
ATOM     68  O   UNL A   1      49.498  28.565  22.064  1.00  0.00    -0.744 OA
ENDBRANCH  61  65
ENDBRANCH  44  58
BRANCH  45  69
ATOM     69  C   UNL A   1      38.605  31.125  30.725  1.00  0.00     0.023 A 
ATOM     70  C   UNL A   1      37.469  31.645  30.085  1.00  0.00     0.031 A 
ATOM     71  C   UNL A   1      38.626  31.125  32.132  1.00  0.00     0.131 A 
ATOM     72  C   UNL A   1      36.421  32.184  30.849  1.00  0.00     0.055 A 
ATOM     73  C   UNL A   1      37.558  31.612  32.887  1.00  0.00     0.041 A 
ATOM     74  F   UNL A   1      39.689  30.644  32.796  1.00  0.00    -0.206 F 
ATOM     75  C   UNL A   1      36.452  32.160  32.245  1.00  0.00     0.022 A 
BRANCH  72  76
ATOM     76  S   UNL A   1      35.053  33.008  29.988  1.00  0.00     0.124 S 
ATOM     77  O   UNL A   1      34.200  33.408  31.101  1.00  0.00    -0.237 OA
ATOM     78  O   UNL A   1      35.742  34.086  29.287  1.00  0.00    -0.237 OA
ATOM     79  O   UNL A   1      34.510  31.957  29.129  1.00  0.00    -0.744 OA
ENDBRANCH  72  76
ENDBRANCH  45  69
BRANCH  57  80
ATOM     80  C   UNL A   1      44.859  33.891  29.317  1.00  0.00     0.023 A 
ATOM     81  C   UNL A   1      44.677  34.995  28.467  1.00  0.00     0.031 A 
ATOM     82  C   UNL A   1      45.629  34.071  30.481  1.00  0.00     0.131 A 
ATOM     83  C   UNL A   1      45.298  36.217  28.767  1.00  0.00     0.055 A 
ATOM     84  C   UNL A   1      46.195  35.304  30.805  1.00  0.00     0.041 A 
ATOM     85  F   UNL A   1      45.837  33.051  31.327  1.00  0.00    -0.206 F 
ATOM     86  C   UNL A   1      46.041  36.383  29.939  1.00  0.00     0.022 A 
BRANCH  83  87
ATOM     87  S   UNL A   1      45.193  37.569  27.561  1.00  0.00     0.124 S 
ATOM     88  O   UNL A   1      45.410  38.742  28.400  1.00  0.00    -0.237 OA
ATOM     89  O   UNL A   1      46.269  37.241  26.631  1.00  0.00    -0.237 OA
ATOM     90  O   UNL A   1      43.843  37.437  27.015  1.00  0.00    -0.744 OA
ENDBRANCH  83  87
ENDBRANCH  57  80
ENDBRANCH  31  32
ENDBRANCH  24  26
ENDBRANCH  23  24
ENDBRANCH  22  23
ENDBRANCH   1  22
TORSDOF 21
ENDMDL
