MODEL 1
REMARK VINA RESULT:     -12.3      0.000      0.000
REMARK SMILES O=C(Cc1c(C(=O)c2cc3c(cn2)CCCC3)[nH]c2cc(Cl)ccc12)OCCOCCOC(=O)c1ccc(-c2c3nc(c(-c4cc(S(=O)(=O)[O-])ccc4F)c4ccc([nH]4)c(-c4cc(S(=O)(=O)[O-])ccc4F)c4nc(c(-c5cc(S(=O)(=O)[O-])ccc5F)c5ccc2[nH]5)C=C4)C=C3)cc1
REMARK SMILES IDX 29 1 28 2 27 3 26 4 2 5 1 6 3 7 4 8 5 9 25 10 18 11 19 12
REMARK SMILES IDX 24 13 20 15 23 16 21 17 22 18 6 19 7 20 8 21 9 22 13 23
REMARK SMILES IDX 10 24 12 25 11 26 17 27 14 28 16 29 15 30 30 31 31 32 32 33
REMARK SMILES IDX 33 34 34 35 35 36 36 37 97 38 37 39 96 40 38 41 39 42 40 43
REMARK SMILES IDX 90 44 41 45 95 46 89 47 91 48 42 49 94 50 88 51 87 52 43 54
REMARK SMILES IDX 75 55 55 56 74 57 56 58 59 59 73 60 92 61 57 62 58 63 72 65
REMARK SMILES IDX 93 66 60 67 44 68 45 69 53 70 46 71 52 72 54 73 51 74 47 75
REMARK SMILES IDX 48 76 49 77 50 78 76 79 77 80 85 81 78 82 84 83 86 84 83 85
REMARK SMILES IDX 79 86 80 87 81 88 82 89 61 90 62 91 70 92 63 93 69 94 71 95
REMARK SMILES IDX 68 96 64 97 65 98 66 99 67 100
REMARK H PARENT 18 14 91 53 59 64
REMARK Flexibility Score: inf
ROOT
ATOM      1  O   UNL A   1      31.446  30.611  25.564  1.00  0.00    -0.374 OA
ENDROOT
BRANCH   1   2
ATOM      2  C   UNL A   1      31.977  29.295  25.409  1.00  0.00     0.202 C 
BRANCH   2   3
ATOM      3  C   UNL A   1      32.518  28.612  26.657  1.00  0.00     0.261 C 
BRANCH   3   4
ATOM      4  O   UNL A   1      33.519  27.640  26.365  1.00  0.00    -0.463 OA
BRANCH   4   5
ATOM      5  C   UNL A   1      33.127  26.386  26.018  1.00  0.00     0.310 C 
ATOM      6  O   UNL A   1      32.059  25.948  26.440  1.00  0.00    -0.252 OA
BRANCH   5   7
ATOM      7  C   UNL A   1      34.095  25.540  25.197  1.00  0.00     0.161 C 
BRANCH   7   8
ATOM      8  C   UNL A   1      33.398  24.677  24.200  1.00  0.00     0.000 A 
ATOM      9  C   UNL A   1      32.900  25.096  22.975  1.00  0.00     0.093 A 
ATOM     10  C   UNL A   1      33.027  23.300  24.344  1.00  0.00     0.004 A 
ATOM     11  N   UNL A   1      32.656  23.946  22.253  1.00  0.00    -0.351 N 
ATOM     12  C   UNL A   1      32.688  22.842  23.074  1.00  0.00     0.048 A 
ATOM     13  C   UNL A   1      32.981  22.383  25.418  1.00  0.00     0.012 A 
ATOM     14  H   UNL A   1      32.484  23.918  21.284  1.00  0.00     0.167 HD
ATOM     15  C   UNL A   1      32.439  21.490  22.800  1.00  0.00     0.047 A 
ATOM     16  C   UNL A   1      32.729  21.030  25.171  1.00  0.00     0.021 A 
ATOM     17  C   UNL A   1      32.489  20.594  23.873  1.00  0.00     0.043 A 
ATOM     18  Cl  UNL A   1      32.217  18.918  23.584  1.00  0.00    -0.084 Cl
BRANCH   9  19
ATOM     19  C   UNL A   1      32.689  26.467  22.531  1.00  0.00     0.227 C 
ATOM     20  O   UNL A   1      33.579  27.221  22.139  1.00  0.00    -0.285 OA
BRANCH  19  21
ATOM     21  C   UNL A   1      31.349  27.049  22.702  1.00  0.00     0.113 A 
ATOM     22  C   UNL A   1      31.093  28.311  22.181  1.00  0.00     0.036 A 
ATOM     23  N   UNL A   1      30.454  26.294  23.377  1.00  0.00    -0.252 NA
ATOM     24  C   UNL A   1      29.827  28.853  22.378  1.00  0.00    -0.041 A 
ATOM     25  C   UNL A   1      29.233  26.829  23.536  1.00  0.00     0.115 A 
ATOM     26  C   UNL A   1      28.876  28.097  23.083  1.00  0.00    -0.026 A 
ATOM     27  C   UNL A   1      29.536  30.249  21.895  1.00  0.00     0.036 C 
ATOM     28  C   UNL A   1      27.477  28.593  23.304  1.00  0.00     0.037 C 
ATOM     29  C   UNL A   1      28.043  30.573  21.876  1.00  0.00     0.005 C 
ATOM     30  C   UNL A   1      27.375  30.111  23.166  1.00  0.00     0.005 C 
ENDBRANCH  19  21
ENDBRANCH   9  19
ENDBRANCH   7   8
ENDBRANCH   5   7
ENDBRANCH   4   5
ENDBRANCH   3   4
ENDBRANCH   2   3
ENDBRANCH   1   2
BRANCH   1  31
ATOM     31  C   UNL A   1      31.666  31.199  26.852  1.00  0.00     0.202 C 
BRANCH  31  32
ATOM     32  C   UNL A   1      31.509  32.726  26.862  1.00  0.00     0.261 C 
BRANCH  32  33
ATOM     33  O   UNL A   1      32.791  33.370  26.813  1.00  0.00    -0.460 OA
BRANCH  33  34
ATOM     34  C   UNL A   1      33.238  33.852  28.005  1.00  0.00     0.338 C 
ATOM     35  O   UNL A   1      32.645  34.623  28.742  1.00  0.00    -0.246 OA
BRANCH  34  36
ATOM     36  C   UNL A   1      34.450  33.090  28.411  1.00  0.00     0.060 A 
ATOM     37  C   UNL A   1      35.700  33.704  28.551  1.00  0.00     0.016 A 
ATOM     38  C   UNL A   1      34.341  31.696  28.532  1.00  0.00     0.016 A 
ATOM     39  C   UNL A   1      36.820  32.929  28.863  1.00  0.00     0.010 A 
ATOM     40  C   UNL A   1      35.460  30.922  28.855  1.00  0.00     0.010 A 
ATOM     41  C   UNL A   1      36.698  31.541  29.069  1.00  0.00    -0.014 A 
BRANCH  41  42
ATOM     42  C   UNL A   1      37.765  30.835  29.823  1.00  0.00     0.031 A 
ATOM     43  C   UNL A   1      38.643  29.778  29.236  1.00  0.00     0.074 A 
ATOM     44  C   UNL A   1      37.908  31.196  31.113  1.00  0.00     0.049 A 
ATOM     45  N   UNL A   1      39.705  29.223  29.760  1.00  0.00    -0.248 NA
ATOM     46  C   UNL A   1      38.282  29.260  27.910  1.00  0.00     0.031 C 
ATOM     47  C   UNL A   1      37.041  32.155  31.802  1.00  0.00     0.029 A 
ATOM     48  N   UNL A   1      38.824  30.830  32.064  1.00  0.00    -0.354 N 
ATOM     49  C   UNL A   1      40.168  28.311  28.820  1.00  0.00     0.074 A 
ATOM     50  C   UNL A   1      39.228  28.345  27.717  1.00  0.00     0.031 C 
ATOM     51  C   UNL A   1      37.494  32.340  33.047  1.00  0.00     0.029 A 
ATOM     52  C   UNL A   1      38.663  31.492  33.257  1.00  0.00     0.049 A 
ATOM     53  H   UNL A   1      39.527  30.158  31.907  1.00  0.00     0.167 HD
ATOM     54  C   UNL A   1      41.285  27.542  28.876  1.00  0.00     0.034 A 
ATOM     55  C   UNL A   1      39.383  31.445  34.395  1.00  0.00     0.034 A 
ATOM     56  C   UNL A   1      42.182  27.507  30.010  1.00  0.00     0.049 A 
ATOM     57  C   UNL A   1      40.627  30.603  34.424  1.00  0.00     0.074 A 
ATOM     58  C   UNL A   1      43.368  26.802  30.143  1.00  0.00     0.029 A 
ATOM     59  N   UNL A   1      41.996  28.188  31.207  1.00  0.00    -0.354 N 
ATOM     60  N   UNL A   1      41.134  29.853  33.473  1.00  0.00    -0.248 NA
ATOM     61  C   UNL A   1      41.411  30.616  35.663  1.00  0.00     0.031 C 
ATOM     62  C   UNL A   1      43.856  26.999  31.437  1.00  0.00     0.029 A 
ATOM     63  C   UNL A   1      43.024  27.892  32.093  1.00  0.00     0.049 A 
ATOM     64  H   UNL A   1      41.244  28.793  31.401  1.00  0.00     0.167 HD
ATOM     65  C   UNL A   1      42.300  29.307  33.997  1.00  0.00     0.074 A 
ATOM     66  C   UNL A   1      42.446  29.857  35.330  1.00  0.00     0.031 C 
ATOM     67  C   UNL A   1      43.161  28.423  33.430  1.00  0.00     0.034 A 
BRANCH  54  68
ATOM     68  C   UNL A   1      41.647  26.699  27.673  1.00  0.00     0.023 A 
ATOM     69  C   UNL A   1      41.315  25.330  27.627  1.00  0.00     0.031 A 
ATOM     70  C   UNL A   1      42.457  27.216  26.645  1.00  0.00     0.131 A 
ATOM     71  C   UNL A   1      41.822  24.523  26.599  1.00  0.00     0.055 A 
ATOM     72  C   UNL A   1      42.924  26.416  25.600  1.00  0.00     0.041 A 
ATOM     73  F   UNL A   1      42.815  28.511  26.645  1.00  0.00    -0.206 F 
ATOM     74  C   UNL A   1      42.617  25.060  25.582  1.00  0.00     0.022 A 
BRANCH  71  75
ATOM     75  S   UNL A   1      41.536  22.731  26.578  1.00  0.00     0.124 S 
ATOM     76  O   UNL A   1      42.266  22.325  25.379  1.00  0.00    -0.237 OA
ATOM     77  O   UNL A   1      42.133  22.311  27.843  1.00  0.00    -0.237 OA
ATOM     78  O   UNL A   1      40.085  22.608  26.492  1.00  0.00    -0.744 OA
ENDBRANCH  71  75
ENDBRANCH  54  68
BRANCH  55  79
ATOM     79  C   UNL A   1      38.963  32.305  35.538  1.00  0.00     0.023 A 
ATOM     80  C   UNL A   1      39.411  33.636  35.633  1.00  0.00     0.031 A 
ATOM     81  C   UNL A   1      38.247  31.769  36.620  1.00  0.00     0.131 A 
ATOM     82  C   UNL A   1      39.209  34.355  36.818  1.00  0.00     0.055 A 
ATOM     83  C   UNL A   1      37.977  32.517  37.766  1.00  0.00     0.041 A 
ATOM     84  F   UNL A   1      37.821  30.497  36.585  1.00  0.00    -0.206 F 
ATOM     85  C   UNL A   1      38.478  33.810  37.877  1.00  0.00     0.022 A 
BRANCH  82  86
ATOM     86  S   UNL A   1      40.030  35.952  37.083  1.00  0.00     0.124 S 
ATOM     87  O   UNL A   1      39.291  36.488  38.222  1.00  0.00    -0.237 OA
ATOM     88  O   UNL A   1      41.403  35.537  37.360  1.00  0.00    -0.237 OA
ATOM     89  O   UNL A   1      39.838  36.653  35.818  1.00  0.00    -0.744 OA
ENDBRANCH  82  86
ENDBRANCH  55  79
BRANCH  67  90
ATOM     90  C   UNL A   1      44.336  27.949  34.257  1.00  0.00     0.023 A 
ATOM     91  C   UNL A   1      44.197  26.853  35.132  1.00  0.00     0.031 A 
ATOM     92  C   UNL A   1      45.555  28.649  34.264  1.00  0.00     0.131 A 
ATOM     93  C   UNL A   1      45.249  26.510  35.993  1.00  0.00     0.055 A 
ATOM     94  C   UNL A   1      46.619  28.270  35.084  1.00  0.00     0.041 A 
ATOM     95  F   UNL A   1      45.737  29.710  33.460  1.00  0.00    -0.206 F 
ATOM     96  C   UNL A   1      46.463  27.203  35.963  1.00  0.00     0.022 A 
BRANCH  93  97
ATOM     97  S   UNL A   1      45.053  25.208  37.242  1.00  0.00     0.124 S 
ATOM     98  O   UNL A   1      45.377  25.923  38.475  1.00  0.00    -0.237 OA
ATOM     99  O   UNL A   1      43.648  24.841  37.085  1.00  0.00    -0.237 OA
ATOM    100  O   UNL A   1      46.017  24.188  36.842  1.00  0.00    -0.744 OA
ENDBRANCH  93  97
ENDBRANCH  67  90
ENDBRANCH  41  42
ENDBRANCH  34  36
ENDBRANCH  33  34
ENDBRANCH  32  33
ENDBRANCH  31  32
ENDBRANCH   1  31
TORSDOF 20
ENDMDL
MODEL 2
REMARK VINA RESULT:     -12.1      4.874     10.395
REMARK SMILES O=C(Cc1c(C(=O)c2cc3c(cn2)CCCC3)[nH]c2cc(Cl)ccc12)OCCOCCOC(=O)c1ccc(-c2c3nc(c(-c4cc(S(=O)(=O)[O-])ccc4F)c4ccc([nH]4)c(-c4cc(S(=O)(=O)[O-])ccc4F)c4nc(c(-c5cc(S(=O)(=O)[O-])ccc5F)c5ccc2[nH]5)C=C4)C=C3)cc1
REMARK SMILES IDX 29 1 28 2 27 3 26 4 2 5 1 6 3 7 4 8 5 9 25 10 18 11 19 12
REMARK SMILES IDX 24 13 20 15 23 16 21 17 22 18 6 19 7 20 8 21 9 22 13 23
REMARK SMILES IDX 10 24 12 25 11 26 17 27 14 28 16 29 15 30 30 31 31 32 32 33
REMARK SMILES IDX 33 34 34 35 35 36 36 37 97 38 37 39 96 40 38 41 39 42 40 43
REMARK SMILES IDX 90 44 41 45 95 46 89 47 91 48 42 49 94 50 88 51 87 52 43 54
REMARK SMILES IDX 75 55 55 56 74 57 56 58 59 59 73 60 92 61 57 62 58 63 72 65
REMARK SMILES IDX 93 66 60 67 44 68 45 69 53 70 46 71 52 72 54 73 51 74 47 75
REMARK SMILES IDX 48 76 49 77 50 78 76 79 77 80 85 81 78 82 84 83 86 84 83 85
REMARK SMILES IDX 79 86 80 87 81 88 82 89 61 90 62 91 70 92 63 93 69 94 71 95
REMARK SMILES IDX 68 96 64 97 65 98 66 99 67 100
REMARK H PARENT 18 14 91 53 59 64
REMARK Flexibility Score: inf
ROOT
ATOM      1  O   UNL A   1      37.670  20.863  24.613  1.00  0.00    -0.374 OA
ENDROOT
BRANCH   1   2
ATOM      2  C   UNL A   1      36.475  21.401  25.179  1.00  0.00     0.202 C 
BRANCH   2   3
ATOM      3  C   UNL A   1      36.586  22.740  25.895  1.00  0.00     0.261 C 
BRANCH   3   4
ATOM      4  O   UNL A   1      36.498  23.851  25.005  1.00  0.00    -0.463 OA
BRANCH   4   5
ATOM      5  C   UNL A   1      35.268  24.281  24.620  1.00  0.00     0.310 C 
ATOM      6  O   UNL A   1      34.858  24.009  23.494  1.00  0.00    -0.252 OA
BRANCH   5   7
ATOM      7  C   UNL A   1      34.495  25.177  25.583  1.00  0.00     0.161 C 
BRANCH   7   8
ATOM      8  C   UNL A   1      33.100  25.441  25.124  1.00  0.00     0.000 A 
ATOM      9  C   UNL A   1      31.981  24.700  25.470  1.00  0.00     0.093 A 
ATOM     10  C   UNL A   1      32.663  26.430  24.183  1.00  0.00     0.004 A 
ATOM     11  N   UNL A   1      30.893  25.473  25.118  1.00  0.00    -0.351 N 
ATOM     12  C   UNL A   1      31.279  26.510  24.301  1.00  0.00     0.048 A 
ATOM     13  C   UNL A   1      33.306  27.295  23.269  1.00  0.00     0.012 A 
ATOM     14  H   UNL A   1      29.968  25.306  25.412  1.00  0.00     0.167 HD
ATOM     15  C   UNL A   1      30.522  27.498  23.656  1.00  0.00     0.047 A 
ATOM     16  C   UNL A   1      32.571  28.285  22.609  1.00  0.00     0.021 A 
ATOM     17  C   UNL A   1      31.203  28.395  22.826  1.00  0.00     0.043 A 
ATOM     18  Cl  UNL A   1      30.321  29.644  22.033  1.00  0.00    -0.084 Cl
BRANCH   9  19
ATOM     19  C   UNL A   1      31.952  23.382  26.089  1.00  0.00     0.227 C 
ATOM     20  O   UNL A   1      31.961  23.178  27.301  1.00  0.00    -0.285 OA
BRANCH  19  21
ATOM     21  C   UNL A   1      32.074  22.206  25.213  1.00  0.00     0.113 A 
ATOM     22  C   UNL A   1      32.347  20.969  25.785  1.00  0.00     0.036 A 
ATOM     23  N   UNL A   1      31.917  22.429  23.890  1.00  0.00    -0.252 NA
ATOM     24  C   UNL A   1      32.485  19.876  24.936  1.00  0.00    -0.041 A 
ATOM     25  C   UNL A   1      32.034  21.355  23.093  1.00  0.00     0.115 A 
ATOM     26  C   UNL A   1      32.335  20.076  23.554  1.00  0.00    -0.026 A 
ATOM     27  C   UNL A   1      32.855  18.534  25.511  1.00  0.00     0.036 C 
ATOM     28  C   UNL A   1      32.430  18.943  22.575  1.00  0.00     0.037 C 
ATOM     29  C   UNL A   1      32.641  17.385  24.527  1.00  0.00     0.005 C 
ATOM     30  C   UNL A   1      33.186  17.747  23.149  1.00  0.00     0.005 C 
ENDBRANCH  19  21
ENDBRANCH   9  19
ENDBRANCH   7   8
ENDBRANCH   5   7
ENDBRANCH   4   5
ENDBRANCH   3   4
ENDBRANCH   2   3
ENDBRANCH   1   2
BRANCH   1  31
ATOM     31  C   UNL A   1      37.983  19.528  25.029  1.00  0.00     0.202 C 
BRANCH  31  32
ATOM     32  C   UNL A   1      39.360  19.402  25.696  1.00  0.00     0.261 C 
BRANCH  32  33
ATOM     33  O   UNL A   1      39.942  20.696  25.910  1.00  0.00    -0.460 OA
BRANCH  33  34
ATOM     34  C   UNL A   1      40.868  20.751  26.907  1.00  0.00     0.338 C 
ATOM     35  O   UNL A   1      41.616  19.850  27.250  1.00  0.00    -0.246 OA
BRANCH  34  36
ATOM     36  C   UNL A   1      41.022  22.164  27.347  1.00  0.00     0.060 A 
ATOM     37  C   UNL A   1      41.924  22.535  28.351  1.00  0.00     0.016 A 
ATOM     38  C   UNL A   1      40.141  23.119  26.816  1.00  0.00     0.016 A 
ATOM     39  C   UNL A   1      41.977  23.865  28.777  1.00  0.00     0.010 A 
ATOM     40  C   UNL A   1      40.201  24.452  27.234  1.00  0.00     0.010 A 
ATOM     41  C   UNL A   1      41.152  24.841  28.185  1.00  0.00    -0.014 A 
BRANCH  41  42
ATOM     42  C   UNL A   1      41.532  26.271  28.317  1.00  0.00     0.031 A 
ATOM     43  C   UNL A   1      40.631  27.326  28.872  1.00  0.00     0.074 A 
ATOM     44  C   UNL A   1      42.769  26.592  27.892  1.00  0.00     0.049 A 
ATOM     45  N   UNL A   1      40.925  28.563  29.181  1.00  0.00    -0.248 NA
ATOM     46  C   UNL A   1      39.224  26.967  29.091  1.00  0.00     0.031 C 
ATOM     47  C   UNL A   1      43.691  25.649  27.253  1.00  0.00     0.029 A 
ATOM     48  N   UNL A   1      43.473  27.766  27.941  1.00  0.00    -0.354 N 
ATOM     49  C   UNL A   1      39.753  29.130  29.665  1.00  0.00     0.074 A 
ATOM     50  C   UNL A   1      38.726  28.113  29.546  1.00  0.00     0.031 C 
ATOM     51  C   UNL A   1      44.854  26.265  27.016  1.00  0.00     0.029 A 
ATOM     52  C   UNL A   1      44.753  27.653  27.454  1.00  0.00     0.049 A 
ATOM     53  H   UNL A   1      43.097  28.607  28.289  1.00  0.00     0.167 HD
ATOM     54  C   UNL A   1      39.570  30.373  30.176  1.00  0.00     0.034 A 
ATOM     55  C   UNL A   1      45.751  28.556  27.383  1.00  0.00     0.034 A 
ATOM     56  C   UNL A   1      40.610  31.375  30.246  1.00  0.00     0.049 A 
ATOM     57  C   UNL A   1      45.531  29.919  27.976  1.00  0.00     0.074 A 
ATOM     58  C   UNL A   1      40.540  32.646  30.794  1.00  0.00     0.029 A 
ATOM     59  N   UNL A   1      41.900  31.236  29.746  1.00  0.00    -0.354 N 
ATOM     60  N   UNL A   1      44.457  30.396  28.562  1.00  0.00    -0.248 NA
ATOM     61  C   UNL A   1      46.657  30.857  27.924  1.00  0.00     0.031 C 
ATOM     62  C   UNL A   1      41.756  33.295  30.563  1.00  0.00     0.029 A 
ATOM     63  C   UNL A   1      42.620  32.407  29.941  1.00  0.00     0.049 A 
ATOM     64  H   UNL A   1      42.252  30.425  29.314  1.00  0.00     0.167 HD
ATOM     65  C   UNL A   1      44.780  31.691  28.954  1.00  0.00     0.074 A 
ATOM     66  C   UNL A   1      46.165  31.899  28.582  1.00  0.00     0.031 C 
ATOM     67  C   UNL A   1      43.995  32.623  29.553  1.00  0.00     0.034 A 
BRANCH  54  68
ATOM     68  C   UNL A   1      38.216  30.731  30.748  1.00  0.00     0.023 A 
ATOM     69  C   UNL A   1      37.264  31.419  29.969  1.00  0.00     0.031 A 
ATOM     70  C   UNL A   1      37.931  30.530  32.112  1.00  0.00     0.131 A 
ATOM     71  C   UNL A   1      36.096  31.911  30.567  1.00  0.00     0.055 A 
ATOM     72  C   UNL A   1      36.745  30.984  32.693  1.00  0.00     0.041 A 
ATOM     73  F   UNL A   1      38.808  29.892  32.904  1.00  0.00    -0.206 F 
ATOM     74  C   UNL A   1      35.828  31.690  31.922  1.00  0.00     0.022 A 
BRANCH  71  75
ATOM     75  S   UNL A   1      34.911  32.921  29.635  1.00  0.00     0.124 S 
ATOM     76  O   UNL A   1      34.048  33.429  30.699  1.00  0.00    -0.237 OA
ATOM     77  O   UNL A   1      35.781  33.914  29.010  1.00  0.00    -0.237 OA
ATOM     78  O   UNL A   1      34.280  31.971  28.725  1.00  0.00    -0.744 OA
ENDBRANCH  71  75
ENDBRANCH  54  68
BRANCH  55  79
ATOM     79  C   UNL A   1      47.058  28.128  26.806  1.00  0.00     0.023 A 
ATOM     80  C   UNL A   1      47.247  28.093  25.412  1.00  0.00     0.031 A 
ATOM     81  C   UNL A   1      48.071  27.604  27.625  1.00  0.00     0.131 A 
ATOM     82  C   UNL A   1      48.382  27.470  24.880  1.00  0.00     0.055 A 
ATOM     83  C   UNL A   1      49.238  27.058  27.091  1.00  0.00     0.041 A 
ATOM     84  F   UNL A   1      47.924  27.593  28.959  1.00  0.00    -0.206 F 
ATOM     85  C   UNL A   1      49.388  26.969  25.711  1.00  0.00     0.022 A 
BRANCH  82  86
ATOM     86  S   UNL A   1      48.509  27.142  23.098  1.00  0.00     0.124 S 
ATOM     87  O   UNL A   1      47.547  28.090  22.546  1.00  0.00    -0.237 OA
ATOM     88  O   UNL A   1      49.915  27.445  22.840  1.00  0.00    -0.237 OA
ATOM     89  O   UNL A   1      48.148  25.733  22.981  1.00  0.00    -0.744 OA
ENDBRANCH  82  86
ENDBRANCH  55  79
BRANCH  67  90
ATOM     90  C   UNL A   1      44.594  33.987  29.820  1.00  0.00     0.023 A 
ATOM     91  C   UNL A   1      44.541  34.995  28.838  1.00  0.00     0.031 A 
ATOM     92  C   UNL A   1      45.315  34.250  30.999  1.00  0.00     0.131 A 
ATOM     93  C   UNL A   1      45.218  36.206  29.043  1.00  0.00     0.055 A 
ATOM     94  C   UNL A   1      45.941  35.477  31.222  1.00  0.00     0.041 A 
ATOM     95  F   UNL A   1      45.409  33.320  31.963  1.00  0.00    -0.206 F 
ATOM     96  C   UNL A   1      45.906  36.457  30.234  1.00  0.00     0.022 A 
BRANCH  93  97
ATOM     97  S   UNL A   1      45.306  37.464  27.739  1.00  0.00     0.124 S 
ATOM     98  O   UNL A   1      46.067  36.771  26.702  1.00  0.00    -0.237 OA
ATOM     99  O   UNL A   1      43.895  37.687  27.431  1.00  0.00    -0.237 OA
ATOM    100  O   UNL A   1      45.994  38.583  28.374  1.00  0.00    -0.744 OA
ENDBRANCH  93  97
ENDBRANCH  67  90
ENDBRANCH  41  42
ENDBRANCH  34  36
ENDBRANCH  33  34
ENDBRANCH  32  33
ENDBRANCH  31  32
ENDBRANCH   1  31
TORSDOF 20
ENDMDL
MODEL 3
REMARK VINA RESULT:     -12.1      4.635      8.451
REMARK SMILES O=C(Cc1c(C(=O)c2cc3c(cn2)CCCC3)[nH]c2cc(Cl)ccc12)OCCOCCOC(=O)c1ccc(-c2c3nc(c(-c4cc(S(=O)(=O)[O-])ccc4F)c4ccc([nH]4)c(-c4cc(S(=O)(=O)[O-])ccc4F)c4nc(c(-c5cc(S(=O)(=O)[O-])ccc5F)c5ccc2[nH]5)C=C4)C=C3)cc1
REMARK SMILES IDX 29 1 28 2 27 3 26 4 2 5 1 6 3 7 4 8 5 9 25 10 18 11 19 12
REMARK SMILES IDX 24 13 20 15 23 16 21 17 22 18 6 19 7 20 8 21 9 22 13 23
REMARK SMILES IDX 10 24 12 25 11 26 17 27 14 28 16 29 15 30 30 31 31 32 32 33
REMARK SMILES IDX 33 34 34 35 35 36 36 37 97 38 37 39 96 40 38 41 39 42 40 43
REMARK SMILES IDX 90 44 41 45 95 46 89 47 91 48 42 49 94 50 88 51 87 52 43 54
REMARK SMILES IDX 75 55 55 56 74 57 56 58 59 59 73 60 92 61 57 62 58 63 72 65
REMARK SMILES IDX 93 66 60 67 44 68 45 69 53 70 46 71 52 72 54 73 51 74 47 75
REMARK SMILES IDX 48 76 49 77 50 78 76 79 77 80 85 81 78 82 84 83 86 84 83 85
REMARK SMILES IDX 79 86 80 87 81 88 82 89 61 90 62 91 70 92 63 93 69 94 71 95
REMARK SMILES IDX 68 96 64 97 65 98 66 99 67 100
REMARK H PARENT 18 14 91 53 59 64
REMARK Flexibility Score: inf
ROOT
ATOM      1  O   UNL A   1      37.063  21.036  24.306  1.00  0.00    -0.374 OA
ENDROOT
BRANCH   1   2
ATOM      2  C   UNL A   1      35.828  21.676  24.629  1.00  0.00     0.202 C 
BRANCH   2   3
ATOM      3  C   UNL A   1      35.872  22.785  25.669  1.00  0.00     0.261 C 
BRANCH   3   4
ATOM      4  O   UNL A   1      35.898  24.087  25.088  1.00  0.00    -0.463 OA
BRANCH   4   5
ATOM      5  C   UNL A   1      34.740  24.607  24.602  1.00  0.00     0.310 C 
ATOM      6  O   UNL A   1      34.464  24.458  23.413  1.00  0.00    -0.252 OA
BRANCH   5   7
ATOM      7  C   UNL A   1      33.886  25.445  25.547  1.00  0.00     0.161 C 
BRANCH   7   8
ATOM      8  C   UNL A   1      32.437  25.407  25.194  1.00  0.00     0.000 A 
ATOM      9  C   UNL A   1      31.530  24.441  25.603  1.00  0.00     0.093 A 
ATOM     10  C   UNL A   1      31.730  26.285  24.308  1.00  0.00     0.004 A 
ATOM     11  N   UNL A   1      30.279  24.965  25.346  1.00  0.00    -0.351 N 
ATOM     12  C   UNL A   1      30.373  26.065  24.526  1.00  0.00     0.048 A 
ATOM     13  C   UNL A   1      32.104  27.273  23.369  1.00  0.00     0.012 A 
ATOM     14  H   UNL A   1      29.436  24.602  25.702  1.00  0.00     0.167 HD
ATOM     15  C   UNL A   1      29.378  26.872  23.958  1.00  0.00     0.047 A 
ATOM     16  C   UNL A   1      31.128  28.086  22.784  1.00  0.00     0.021 A 
ATOM     17  C   UNL A   1      29.788  27.899  23.101  1.00  0.00     0.043 A 
ATOM     18  Cl  UNL A   1      28.604  28.934  22.399  1.00  0.00    -0.084 Cl
BRANCH   9  19
ATOM     19  C   UNL A   1      31.829  23.145  26.194  1.00  0.00     0.227 C 
ATOM     20  O   UNL A   1      32.070  22.957  27.385  1.00  0.00    -0.285 OA
BRANCH  19  21
ATOM     21  C   UNL A   1      32.007  21.998  25.289  1.00  0.00     0.113 A 
ATOM     22  C   UNL A   1      32.336  20.762  25.829  1.00  0.00     0.036 A 
ATOM     23  N   UNL A   1      31.840  22.248  23.971  1.00  0.00    -0.252 NA
ATOM     24  C   UNL A   1      32.526  19.698  24.952  1.00  0.00    -0.041 A 
ATOM     25  C   UNL A   1      32.007  21.202  23.148  1.00  0.00     0.115 A 
ATOM     26  C   UNL A   1      32.368  19.926  23.576  1.00  0.00    -0.026 A 
ATOM     27  C   UNL A   1      32.957  18.360  25.494  1.00  0.00     0.036 C 
ATOM     28  C   UNL A   1      32.516  18.824  22.568  1.00  0.00     0.037 C 
ATOM     29  C   UNL A   1      32.798  17.228  24.480  1.00  0.00     0.005 C 
ATOM     30  C   UNL A   1      33.327  17.650  23.114  1.00  0.00     0.005 C 
ENDBRANCH  19  21
ENDBRANCH   9  19
ENDBRANCH   7   8
ENDBRANCH   5   7
ENDBRANCH   4   5
ENDBRANCH   3   4
ENDBRANCH   2   3
ENDBRANCH   1   2
BRANCH   1  31
ATOM     31  C   UNL A   1      37.263  19.764  24.936  1.00  0.00     0.202 C 
BRANCH  31  32
ATOM     32  C   UNL A   1      38.716  19.514  25.360  1.00  0.00     0.261 C 
BRANCH  32  33
ATOM     33  O   UNL A   1      39.374  20.750  25.677  1.00  0.00    -0.460 OA
BRANCH  33  34
ATOM     34  C   UNL A   1      40.394  20.644  26.573  1.00  0.00     0.338 C 
ATOM     35  O   UNL A   1      41.078  19.654  26.776  1.00  0.00    -0.246 OA
BRANCH  34  36
ATOM     36  C   UNL A   1      40.730  21.999  27.087  1.00  0.00     0.060 A 
ATOM     37  C   UNL A   1      41.534  22.187  28.217  1.00  0.00     0.016 A 
ATOM     38  C   UNL A   1      40.112  23.104  26.480  1.00  0.00     0.016 A 
ATOM     39  C   UNL A   1      41.758  23.479  28.700  1.00  0.00     0.010 A 
ATOM     40  C   UNL A   1      40.346  24.398  26.956  1.00  0.00     0.010 A 
ATOM     41  C   UNL A   1      41.208  24.596  28.041  1.00  0.00    -0.014 A 
BRANCH  41  42
ATOM     42  C   UNL A   1      41.810  25.933  28.282  1.00  0.00     0.031 A 
ATOM     43  C   UNL A   1      43.177  26.327  27.825  1.00  0.00     0.074 A 
ATOM     44  C   UNL A   1      41.046  26.807  28.964  1.00  0.00     0.049 A 
ATOM     45  N   UNL A   1      43.726  27.514  27.840  1.00  0.00    -0.248 NA
ATOM     46  C   UNL A   1      44.049  25.265  27.306  1.00  0.00     0.031 C 
ATOM     47  C   UNL A   1      39.732  26.488  29.529  1.00  0.00     0.029 A 
ATOM     48  N   UNL A   1      41.235  28.126  29.283  1.00  0.00    -0.354 N 
ATOM     49  C   UNL A   1      44.998  27.358  27.302  1.00  0.00     0.074 A 
ATOM     50  C   UNL A   1      45.158  25.943  27.030  1.00  0.00     0.031 C 
ATOM     51  C   UNL A   1      39.212  27.590  30.080  1.00  0.00     0.029 A 
ATOM     52  C   UNL A   1      40.164  28.685  29.938  1.00  0.00     0.049 A 
ATOM     53  H   UNL A   1      42.057  28.622  29.065  1.00  0.00     0.167 HD
ATOM     54  C   UNL A   1      45.923  28.317  27.045  1.00  0.00     0.034 A 
ATOM     55  C   UNL A   1      39.954  29.947  30.364  1.00  0.00     0.034 A 
ATOM     56  C   UNL A   1      45.743  29.716  27.363  1.00  0.00     0.049 A 
ATOM     57  C   UNL A   1      40.984  30.993  30.047  1.00  0.00     0.074 A 
ATOM     58  C   UNL A   1      46.598  30.773  27.095  1.00  0.00     0.029 A 
ATOM     59  N   UNL A   1      44.649  30.257  28.027  1.00  0.00    -0.354 N 
ATOM     60  N   UNL A   1      42.123  30.859  29.408  1.00  0.00    -0.248 NA
ATOM     61  C   UNL A   1      40.696  32.364  30.483  1.00  0.00     0.031 C 
ATOM     62  C   UNL A   1      46.058  31.932  27.657  1.00  0.00     0.029 A 
ATOM     63  C   UNL A   1      44.824  31.623  28.207  1.00  0.00     0.049 A 
ATOM     64  H   UNL A   1      43.862  29.747  28.327  1.00  0.00     0.167 HD
ATOM     65  C   UNL A   1      42.687  32.129  29.361  1.00  0.00     0.074 A 
ATOM     66  C   UNL A   1      41.736  33.023  29.991  1.00  0.00     0.031 C 
ATOM     67  C   UNL A   1      43.887  32.513  28.854  1.00  0.00     0.034 A 
BRANCH  54  68
ATOM     68  C   UNL A   1      47.206  27.919  26.348  1.00  0.00     0.023 A 
ATOM     69  C   UNL A   1      47.341  28.059  24.952  1.00  0.00     0.031 A 
ATOM     70  C   UNL A   1      48.233  27.255  27.046  1.00  0.00     0.131 A 
ATOM     71  C   UNL A   1      48.454  27.511  24.300  1.00  0.00     0.055 A 
ATOM     72  C   UNL A   1      49.360  26.750  26.397  1.00  0.00     0.041 A 
ATOM     73  F   UNL A   1      48.150  27.083  28.376  1.00  0.00    -0.206 F 
ATOM     74  C   UNL A   1      49.467  26.866  25.015  1.00  0.00     0.022 A 
BRANCH  71  75
ATOM     75  S   UNL A   1      48.600  27.546  22.491  1.00  0.00     0.124 S 
ATOM     76  O   UNL A   1      48.666  26.122  22.169  1.00  0.00    -0.237 OA
ATOM     77  O   UNL A   1      47.364  28.217  22.098  1.00  0.00    -0.237 OA
ATOM     78  O   UNL A   1      49.829  28.294  22.252  1.00  0.00    -0.744 OA
ENDBRANCH  71  75
ENDBRANCH  54  68
BRANCH  55  79
ATOM     79  C   UNL A   1      38.665  30.262  31.043  1.00  0.00     0.023 A 
ATOM     80  C   UNL A   1      37.611  30.867  30.332  1.00  0.00     0.031 A 
ATOM     81  C   UNL A   1      38.525  30.109  32.432  1.00  0.00     0.131 A 
ATOM     82  C   UNL A   1      36.504  31.371  31.026  1.00  0.00     0.055 A 
ATOM     83  C   UNL A   1      37.383  30.539  33.107  1.00  0.00     0.041 A 
ATOM     84  F   UNL A   1      39.513  29.560  33.155  1.00  0.00    -0.206 F 
ATOM     85  C   UNL A   1      36.374  31.194  32.406  1.00  0.00     0.022 A 
BRANCH  82  86
ATOM     86  S   UNL A   1      35.281  32.416  30.184  1.00  0.00     0.124 S 
ATOM     87  O   UNL A   1      34.839  31.549  29.096  1.00  0.00    -0.237 OA
ATOM     88  O   UNL A   1      34.305  32.645  31.247  1.00  0.00    -0.237 OA
ATOM     89  O   UNL A   1      36.048  33.590  29.784  1.00  0.00    -0.744 OA
ENDBRANCH  82  86
ENDBRANCH  55  79
BRANCH  67  90
ATOM     90  C   UNL A   1      44.277  33.969  28.986  1.00  0.00     0.023 A 
ATOM     91  C   UNL A   1      44.886  34.441  30.166  1.00  0.00     0.031 A 
ATOM     92  C   UNL A   1      43.946  34.908  27.994  1.00  0.00     0.131 A 
ATOM     93  C   UNL A   1      45.118  35.814  30.332  1.00  0.00     0.055 A 
ATOM     94  C   UNL A   1      44.228  36.267  28.140  1.00  0.00     0.041 A 
ATOM     95  F   UNL A   1      43.352  34.516  26.855  1.00  0.00    -0.206 F 
ATOM     96  C   UNL A   1      44.805  36.727  29.320  1.00  0.00     0.022 A 
BRANCH  93  97
ATOM     97  S   UNL A   1      45.752  36.476  31.897  1.00  0.00     0.124 S 
ATOM     98  O   UNL A   1      44.651  37.334  32.330  1.00  0.00    -0.237 OA
ATOM     99  O   UNL A   1      45.945  35.263  32.689  1.00  0.00    -0.237 OA
ATOM    100  O   UNL A   1      46.973  37.177  31.514  1.00  0.00    -0.744 OA
ENDBRANCH  93  97
ENDBRANCH  67  90
ENDBRANCH  41  42
ENDBRANCH  34  36
ENDBRANCH  33  34
ENDBRANCH  32  33
ENDBRANCH  31  32
ENDBRANCH   1  31
TORSDOF 20
ENDMDL
