MODEL 1
REMARK VINA RESULT:      -8.7      0.000      0.000
REMARK SMILES C[C@H]([NH2+][C@@H](C)Cc1cccs1)[C@@H](C)C(=O)OCCOCCOC(=O)c1ccc(-c2c3nc(c(-c4cc(S(=O)(=O)[O-])ccc4F)c4ccc([nH]4)c(-c4cc(S(=O)(=O)[O-])ccc4F)c4nc(c(-c5cc(S(=O)(=O)[O-])ccc5F)c5ccc2[nH]5)C=C4)C=C3)cc1
REMARK SMILES IDX 18 1 17 2 16 3 14 4 15 5 12 6 13 7 2 8 1 9 3 10 4 13 5 14
REMARK SMILES IDX 6 15 7 16 8 17 11 18 9 19 10 20 19 21 20 22 21 23 22 24
REMARK SMILES IDX 23 25 24 26 25 27 26 28 87 29 27 30 86 31 28 32 29 33 30 34
REMARK SMILES IDX 80 35 31 36 85 37 79 38 81 39 32 40 84 41 78 42 77 43 33 45
REMARK SMILES IDX 65 46 45 47 64 48 46 49 49 50 63 51 82 52 47 53 48 54 62 56
REMARK SMILES IDX 83 57 50 58 34 59 35 60 43 61 36 62 42 63 44 64 41 65 37 66
REMARK SMILES IDX 38 67 39 68 40 69 66 70 67 71 75 72 68 73 74 74 76 75 73 76
REMARK SMILES IDX 69 77 70 78 71 79 72 80 51 81 52 82 60 83 53 84 59 85 61 86
REMARK SMILES IDX 58 87 54 88 55 89 56 90 57 91
REMARK H PARENT 3 11 3 12 81 44 49 55
REMARK Flexibility Score: inf
ROOT
ATOM      1  C   UNL A   1      38.255  22.135  25.373  1.00  0.00     0.202 C 
ENDROOT
BRANCH   1   2
ATOM      2  C   UNL A   1      37.726  23.441  25.983  1.00  0.00     0.261 C 
BRANCH   2   3
ATOM      3  O   UNL A   1      36.397  23.360  26.541  1.00  0.00    -0.463 OA
BRANCH   3   4
ATOM      4  C   UNL A   1      35.379  23.654  25.684  1.00  0.00     0.314 C 
ATOM      5  O   UNL A   1      35.520  24.201  24.595  1.00  0.00    -0.252 OA
BRANCH   4   6
ATOM      6  C   UNL A   1      34.000  23.317  26.237  1.00  0.00     0.154 C 
ATOM      7  C   UNL A   1      34.178  22.210  27.279  1.00  0.00     0.026 C 
BRANCH   6   8
ATOM      8  C   UNL A   1      32.921  23.008  25.163  1.00  0.00     0.193 C 
ATOM      9  C   UNL A   1      33.365  21.834  24.279  1.00  0.00     0.076 C 
BRANCH   8  10
ATOM     10  N   UNL A   1      32.740  24.200  24.315  1.00  0.00    -0.341 N 
ATOM     11  H   UNL A   1      32.998  23.943  23.363  1.00  0.00     0.346 HD
ATOM     12  H   UNL A   1      33.326  24.919  24.738  1.00  0.00     0.346 HD
BRANCH  10  13
ATOM     13  C   UNL A   1      31.387  24.782  24.267  1.00  0.00     0.184 C 
ATOM     14  C   UNL A   1      31.025  25.034  25.744  1.00  0.00     0.075 C 
BRANCH  13  15
ATOM     15  C   UNL A   1      31.227  26.133  23.518  1.00  0.00     0.111 C 
BRANCH  15  16
ATOM     16  C   UNL A   1      32.027  27.303  24.029  1.00  0.00     0.010 A 
ATOM     17  C   UNL A   1      33.380  27.334  24.319  1.00  0.00     0.015 A 
ATOM     18  S   UNL A   1      31.271  28.776  24.471  1.00  0.00    -0.149 S 
ATOM     19  C   UNL A   1      33.797  28.580  24.864  1.00  0.00     0.012 A 
ATOM     20  C   UNL A   1      32.744  29.454  25.008  1.00  0.00     0.065 A 
ENDBRANCH  15  16
ENDBRANCH  13  15
ENDBRANCH  10  13
ENDBRANCH   8  10
ENDBRANCH   6   8
ENDBRANCH   4   6
ENDBRANCH   3   4
ENDBRANCH   2   3
ENDBRANCH   1   2
BRANCH   1  21
ATOM     21  O   UNL A   1      39.134  21.361  26.190  1.00  0.00    -0.374 OA
BRANCH  21  22
ATOM     22  C   UNL A   1      39.404  20.034  25.744  1.00  0.00     0.202 C 
BRANCH  22  23
ATOM     23  C   UNL A   1      40.704  19.416  26.259  1.00  0.00     0.261 C 
BRANCH  23  24
ATOM     24  O   UNL A   1      41.765  19.595  25.305  1.00  0.00    -0.460 OA
BRANCH  24  25
ATOM     25  C   UNL A   1      42.907  20.075  25.846  1.00  0.00     0.338 C 
ATOM     26  O   UNL A   1      44.010  19.545  25.817  1.00  0.00    -0.246 OA
BRANCH  25  27
ATOM     27  C   UNL A   1      42.693  21.440  26.352  1.00  0.00     0.060 A 
ATOM     28  C   UNL A   1      42.576  22.474  25.417  1.00  0.00     0.016 A 
ATOM     29  C   UNL A   1      42.744  21.720  27.718  1.00  0.00     0.016 A 
ATOM     30  C   UNL A   1      42.580  23.801  25.847  1.00  0.00     0.010 A 
ATOM     31  C   UNL A   1      42.754  23.052  28.147  1.00  0.00     0.010 A 
ATOM     32  C   UNL A   1      42.718  24.099  27.210  1.00  0.00    -0.014 A 
BRANCH  32  33
ATOM     33  C   UNL A   1      42.971  25.499  27.633  1.00  0.00     0.031 A 
ATOM     34  C   UNL A   1      44.362  26.063  27.508  1.00  0.00     0.074 A 
ATOM     35  C   UNL A   1      41.967  26.266  28.093  1.00  0.00     0.049 A 
ATOM     36  N   UNL A   1      44.803  27.260  27.796  1.00  0.00    -0.248 NA
ATOM     37  C   UNL A   1      45.394  25.150  26.990  1.00  0.00     0.031 C 
ATOM     38  C   UNL A   1      40.577  25.835  28.238  1.00  0.00     0.029 A 
ATOM     39  N   UNL A   1      41.963  27.568  28.525  1.00  0.00    -0.354 N 
ATOM     40  C   UNL A   1      46.159  27.252  27.486  1.00  0.00     0.074 A 
ATOM     41  C   UNL A   1      46.475  25.914  27.029  1.00  0.00     0.031 C 
ATOM     42  C   UNL A   1      39.855  26.855  28.732  1.00  0.00     0.029 A 
ATOM     43  C   UNL A   1      40.733  28.000  28.963  1.00  0.00     0.049 A 
ATOM     44  H   UNL A   1      42.764  28.140  28.522  1.00  0.00     0.167 HD
ATOM     45  C   UNL A   1      47.054  28.267  27.563  1.00  0.00     0.034 A 
ATOM     46  C   UNL A   1      40.364  29.179  29.503  1.00  0.00     0.034 A 
ATOM     47  C   UNL A   1      46.729  29.590  28.039  1.00  0.00     0.049 A 
ATOM     48  C   UNL A   1      41.393  30.272  29.650  1.00  0.00     0.074 A 
ATOM     49  C   UNL A   1      47.551  30.700  28.139  1.00  0.00     0.029 A 
ATOM     50  N   UNL A   1      45.483  29.978  28.515  1.00  0.00    -0.354 N 
ATOM     51  N   UNL A   1      42.665  30.260  29.321  1.00  0.00    -0.248 NA
ATOM     52  C   UNL A   1      40.935  31.542  30.229  1.00  0.00     0.031 C 
ATOM     53  C   UNL A   1      46.822  31.736  28.736  1.00  0.00     0.029 A 
ATOM     54  C   UNL A   1      45.524  31.297  28.942  1.00  0.00     0.049 A 
ATOM     55  H   UNL A   1      44.685  29.401  28.545  1.00  0.00     0.167 HD
ATOM     56  C   UNL A   1      43.149  31.529  29.629  1.00  0.00     0.074 A 
ATOM     57  C   UNL A   1      42.030  32.283  30.155  1.00  0.00     0.031 C 
ATOM     58  C   UNL A   1      44.403  32.030  29.483  1.00  0.00     0.034 A 
BRANCH  45  59
ATOM     59  C   UNL A   1      48.480  27.968  27.162  1.00  0.00     0.023 A 
ATOM     60  C   UNL A   1      48.920  28.104  25.834  1.00  0.00     0.031 A 
ATOM     61  C   UNL A   1      49.408  27.522  28.120  1.00  0.00     0.131 A 
ATOM     62  C   UNL A   1      50.230  27.736  25.487  1.00  0.00     0.055 A 
ATOM     63  C   UNL A   1      50.731  27.226  27.783  1.00  0.00     0.041 A 
ATOM     64  F   UNL A   1      49.041  27.354  29.400  1.00  0.00    -0.206 F 
ATOM     65  C   UNL A   1      51.145  27.319  26.457  1.00  0.00     0.022 A 
BRANCH  62  66
ATOM     66  S   UNL A   1      50.685  27.686  23.733  1.00  0.00     0.124 S 
ATOM     67  O   UNL A   1      49.453  27.193  23.122  1.00  0.00    -0.237 OA
ATOM     68  O   UNL A   1      51.023  29.077  23.455  1.00  0.00    -0.237 OA
ATOM     69  O   UNL A   1      51.807  26.752  23.695  1.00  0.00    -0.744 OA
ENDBRANCH  62  66
ENDBRANCH  45  59
BRANCH  46  70
ATOM     70  C   UNL A   1      38.965  29.385  29.976  1.00  0.00     0.023 A 
ATOM     71  C   UNL A   1      38.014  30.035  29.176  1.00  0.00     0.031 A 
ATOM     72  C   UNL A   1      38.576  28.970  31.262  1.00  0.00     0.131 A 
ATOM     73  C   UNL A   1      36.730  30.290  29.684  1.00  0.00     0.055 A 
ATOM     74  C   UNL A   1      37.284  29.182  31.745  1.00  0.00     0.041 A 
ATOM     75  F   UNL A   1      39.448  28.342  32.067  1.00  0.00    -0.206 F 
ATOM     76  C   UNL A   1      36.355  29.857  30.959  1.00  0.00     0.022 A 
BRANCH  73  77
ATOM     77  S   UNL A   1      35.576  31.266  28.684  1.00  0.00     0.124 S 
ATOM     78  O   UNL A   1      34.891  32.055  29.701  1.00  0.00    -0.237 OA
ATOM     79  O   UNL A   1      36.483  31.998  27.806  1.00  0.00    -0.237 OA
ATOM     80  O   UNL A   1      34.756  30.253  28.022  1.00  0.00    -0.744 OA
ENDBRANCH  73  77
ENDBRANCH  46  70
BRANCH  58  81
ATOM     81  C   UNL A   1      44.611  33.474  29.868  1.00  0.00     0.023 A 
ATOM     82  C   UNL A   1      44.442  34.518  28.942  1.00  0.00     0.031 A 
ATOM     83  C   UNL A   1      45.002  33.808  31.177  1.00  0.00     0.131 A 
ATOM     84  C   UNL A   1      44.715  35.841  29.323  1.00  0.00     0.055 A 
ATOM     85  C   UNL A   1      45.217  35.130  31.566  1.00  0.00     0.041 A 
ATOM     86  F   UNL A   1      45.179  32.850  32.102  1.00  0.00    -0.206 F 
ATOM     87  C   UNL A   1      45.087  36.155  30.632  1.00  0.00     0.022 A 
BRANCH  84  88
ATOM     88  S   UNL A   1      44.663  37.142  28.058  1.00  0.00     0.124 S 
ATOM     89  O   UNL A   1      45.513  36.582  27.012  1.00  0.00    -0.237 OA
ATOM     90  O   UNL A   1      43.239  37.219  27.749  1.00  0.00    -0.237 OA
ATOM     91  O   UNL A   1      45.212  38.309  28.744  1.00  0.00    -0.744 OA
ENDBRANCH  84  88
ENDBRANCH  58  81
ENDBRANCH  32  33
ENDBRANCH  25  27
ENDBRANCH  24  25
ENDBRANCH  23  24
ENDBRANCH  22  23
ENDBRANCH  21  22
ENDBRANCH   1  21
TORSDOF 22
ENDMDL
MODEL 2
REMARK VINA RESULT:      -8.7      6.454     11.396
REMARK SMILES C[C@H]([NH2+][C@@H](C)Cc1cccs1)[C@@H](C)C(=O)OCCOCCOC(=O)c1ccc(-c2c3nc(c(-c4cc(S(=O)(=O)[O-])ccc4F)c4ccc([nH]4)c(-c4cc(S(=O)(=O)[O-])ccc4F)c4nc(c(-c5cc(S(=O)(=O)[O-])ccc5F)c5ccc2[nH]5)C=C4)C=C3)cc1
REMARK SMILES IDX 18 1 17 2 16 3 14 4 15 5 12 6 13 7 2 8 1 9 3 10 4 13 5 14
REMARK SMILES IDX 6 15 7 16 8 17 11 18 9 19 10 20 19 21 20 22 21 23 22 24
REMARK SMILES IDX 23 25 24 26 25 27 26 28 87 29 27 30 86 31 28 32 29 33 30 34
REMARK SMILES IDX 80 35 31 36 85 37 79 38 81 39 32 40 84 41 78 42 77 43 33 45
REMARK SMILES IDX 65 46 45 47 64 48 46 49 49 50 63 51 82 52 47 53 48 54 62 56
REMARK SMILES IDX 83 57 50 58 34 59 35 60 43 61 36 62 42 63 44 64 41 65 37 66
REMARK SMILES IDX 38 67 39 68 40 69 66 70 67 71 75 72 68 73 74 74 76 75 73 76
REMARK SMILES IDX 69 77 70 78 71 79 72 80 51 81 52 82 60 83 53 84 59 85 61 86
REMARK SMILES IDX 58 87 54 88 55 89 56 90 57 91
REMARK H PARENT 3 11 3 12 81 44 49 55
REMARK Flexibility Score: inf
ROOT
ATOM      1  C   UNL A   1      34.047  31.289  27.925  1.00  0.00     0.202 C 
ENDROOT
BRANCH   1   2
ATOM      2  C   UNL A   1      33.212  30.138  27.348  1.00  0.00     0.261 C 
BRANCH   2   3
ATOM      3  O   UNL A   1      33.543  29.762  25.994  1.00  0.00    -0.463 OA
BRANCH   3   4
ATOM      4  C   UNL A   1      32.499  29.331  25.230  1.00  0.00     0.314 C 
ATOM      5  O   UNL A   1      31.323  29.620  25.429  1.00  0.00    -0.252 OA
BRANCH   4   6
ATOM      6  C   UNL A   1      32.910  28.364  24.127  1.00  0.00     0.154 C 
ATOM      7  C   UNL A   1      33.619  29.176  23.041  1.00  0.00     0.026 C 
BRANCH   6   8
ATOM      8  C   UNL A   1      31.767  27.455  23.594  1.00  0.00     0.193 C 
ATOM      9  C   UNL A   1      32.287  26.539  22.477  1.00  0.00     0.076 C 
BRANCH   8  10
ATOM     10  N   UNL A   1      30.697  28.309  23.050  1.00  0.00    -0.341 N 
ATOM     11  H   UNL A   1      30.958  28.562  22.097  1.00  0.00     0.346 HD
ATOM     12  H   UNL A   1      30.626  29.093  23.697  1.00  0.00     0.346 HD
BRANCH  10  13
ATOM     13  C   UNL A   1      29.344  27.727  23.000  1.00  0.00     0.184 C 
ATOM     14  C   UNL A   1      29.303  26.747  24.189  1.00  0.00     0.075 C 
BRANCH  13  15
ATOM     15  C   UNL A   1      28.149  28.705  23.167  1.00  0.00     0.111 C 
BRANCH  15  16
ATOM     16  C   UNL A   1      28.388  30.150  22.816  1.00  0.00     0.010 A 
ATOM     17  C   UNL A   1      28.673  31.190  23.683  1.00  0.00     0.015 A 
ATOM     18  S   UNL A   1      28.177  30.726  21.215  1.00  0.00    -0.149 S 
ATOM     19  C   UNL A   1      28.758  32.449  23.024  1.00  0.00     0.012 A 
ATOM     20  C   UNL A   1      28.500  32.339  21.677  1.00  0.00     0.065 A 
ENDBRANCH  15  16
ENDBRANCH  13  15
ENDBRANCH  10  13
ENDBRANCH   8  10
ENDBRANCH   6   8
ENDBRANCH   4   6
ENDBRANCH   3   4
ENDBRANCH   2   3
ENDBRANCH   1   2
BRANCH   1  21
ATOM     21  O   UNL A   1      33.601  32.612  27.625  1.00  0.00    -0.374 OA
BRANCH  21  22
ATOM     22  C   UNL A   1      34.435  33.676  28.077  1.00  0.00     0.202 C 
BRANCH  22  23
ATOM     23  C   UNL A   1      33.704  34.883  28.667  1.00  0.00     0.261 C 
BRANCH  23  24
ATOM     24  O   UNL A   1      32.901  34.490  29.794  1.00  0.00    -0.460 OA
BRANCH  24  25
ATOM     25  C   UNL A   1      33.143  35.215  30.910  1.00  0.00     0.338 C 
ATOM     26  O   UNL A   1      32.501  36.179  31.309  1.00  0.00    -0.246 OA
BRANCH  25  27
ATOM     27  C   UNL A   1      34.208  34.583  31.704  1.00  0.00     0.060 A 
ATOM     28  C   UNL A   1      35.352  35.338  31.984  1.00  0.00     0.016 A 
ATOM     29  C   UNL A   1      34.146  33.232  32.050  1.00  0.00     0.016 A 
ATOM     30  C   UNL A   1      36.468  34.722  32.549  1.00  0.00     0.010 A 
ATOM     31  C   UNL A   1      35.268  32.615  32.612  1.00  0.00     0.010 A 
ATOM     32  C   UNL A   1      36.450  33.347  32.822  1.00  0.00    -0.014 A 
BRANCH  32  33
ATOM     33  C   UNL A   1      37.711  32.655  33.188  1.00  0.00     0.031 A 
ATOM     34  C   UNL A   1      38.374  32.985  34.499  1.00  0.00     0.074 A 
ATOM     35  C   UNL A   1      38.241  31.724  32.375  1.00  0.00     0.049 A 
ATOM     36  N   UNL A   1      39.464  32.490  35.028  1.00  0.00    -0.248 NA
ATOM     37  C   UNL A   1      37.719  34.013  35.324  1.00  0.00     0.031 C 
ATOM     38  C   UNL A   1      37.676  31.308  31.092  1.00  0.00     0.029 A 
ATOM     39  N   UNL A   1      39.373  30.961  32.509  1.00  0.00    -0.354 N 
ATOM     40  C   UNL A   1      39.622  33.136  36.250  1.00  0.00     0.074 A 
ATOM     41  C   UNL A   1      38.538  34.090  36.362  1.00  0.00     0.031 C 
ATOM     42  C   UNL A   1      38.470  30.367  30.552  1.00  0.00     0.029 A 
ATOM     43  C   UNL A   1      39.611  30.135  31.436  1.00  0.00     0.049 A 
ATOM     44  H   UNL A   1      39.961  31.002  33.297  1.00  0.00     0.167 HD
ATOM     45  C   UNL A   1      40.574  32.943  37.196  1.00  0.00     0.034 A 
ATOM     46  C   UNL A   1      40.639  29.298  31.190  1.00  0.00     0.034 A 
ATOM     47  C   UNL A   1      41.660  32.002  37.062  1.00  0.00     0.049 A 
ATOM     48  C   UNL A   1      41.729  29.153  32.223  1.00  0.00     0.074 A 
ATOM     49  C   UNL A   1      42.667  31.709  37.965  1.00  0.00     0.029 A 
ATOM     50  N   UNL A   1      41.893  31.213  35.942  1.00  0.00    -0.354 N 
ATOM     51  N   UNL A   1      41.848  29.746  33.390  1.00  0.00    -0.248 NA
ATOM     52  C   UNL A   1      42.818  28.217  31.912  1.00  0.00     0.031 C 
ATOM     53  C   UNL A   1      43.544  30.796  37.367  1.00  0.00     0.029 A 
ATOM     54  C   UNL A   1      43.045  30.462  36.118  1.00  0.00     0.049 A 
ATOM     55  H   UNL A   1      41.322  31.189  35.140  1.00  0.00     0.167 HD
ATOM     56  C   UNL A   1      43.009  29.232  33.961  1.00  0.00     0.074 A 
ATOM     57  C   UNL A   1      43.545  28.273  33.018  1.00  0.00     0.031 C 
ATOM     58  C   UNL A   1      43.578  29.522  35.160  1.00  0.00     0.034 A 
BRANCH  45  59
ATOM     59  C   UNL A   1      40.503  33.801  38.438  1.00  0.00     0.023 A 
ATOM     60  C   UNL A   1      41.261  34.978  38.567  1.00  0.00     0.031 A 
ATOM     61  C   UNL A   1      39.683  33.424  39.516  1.00  0.00     0.131 A 
ATOM     62  C   UNL A   1      41.230  35.703  39.770  1.00  0.00     0.055 A 
ATOM     63  C   UNL A   1      39.602  34.187  40.682  1.00  0.00     0.041 A 
ATOM     64  F   UNL A   1      38.953  32.299  39.458  1.00  0.00    -0.206 F 
ATOM     65  C   UNL A   1      40.389  35.327  40.820  1.00  0.00     0.022 A 
BRANCH  62  66
ATOM     66  S   UNL A   1      42.402  37.069  39.992  1.00  0.00     0.124 S 
ATOM     67  O   UNL A   1      43.303  36.524  41.004  1.00  0.00    -0.237 OA
ATOM     68  O   UNL A   1      42.962  37.224  38.655  1.00  0.00    -0.237 OA
ATOM     69  O   UNL A   1      41.560  38.172  40.448  1.00  0.00    -0.744 OA
ENDBRANCH  62  66
ENDBRANCH  45  59
BRANCH  46  70
ATOM     70  C   UNL A   1      40.711  28.552  29.901  1.00  0.00     0.023 A 
ATOM     71  C   UNL A   1      41.635  28.905  28.907  1.00  0.00     0.031 A 
ATOM     72  C   UNL A   1      39.817  27.501  29.631  1.00  0.00     0.131 A 
ATOM     73  C   UNL A   1      41.620  28.238  27.671  1.00  0.00     0.055 A 
ATOM     74  C   UNL A   1      39.837  26.809  28.419  1.00  0.00     0.041 A 
ATOM     75  F   UNL A   1      38.913  27.124  30.549  1.00  0.00    -0.206 F 
ATOM     76  C   UNL A   1      40.735  27.185  27.425  1.00  0.00     0.022 A 
BRANCH  73  77
ATOM     77  S   UNL A   1      42.724  28.820  26.355  1.00  0.00     0.124 S 
ATOM     78  O   UNL A   1      43.093  30.145  26.839  1.00  0.00    -0.237 OA
ATOM     79  O   UNL A   1      43.778  27.811  26.378  1.00  0.00    -0.237 OA
ATOM     80  O   UNL A   1      41.875  28.804  25.166  1.00  0.00    -0.744 OA
ENDBRANCH  73  77
ENDBRANCH  46  70
BRANCH  58  81
ATOM     81  C   UNL A   1      44.827  28.758  35.525  1.00  0.00     0.023 A 
ATOM     82  C   UNL A   1      44.769  27.516  36.183  1.00  0.00     0.031 A 
ATOM     83  C   UNL A   1      46.094  29.289  35.225  1.00  0.00     0.131 A 
ATOM     84  C   UNL A   1      45.955  26.874  36.568  1.00  0.00     0.055 A 
ATOM     85  C   UNL A   1      47.271  28.619  35.561  1.00  0.00     0.041 A 
ATOM     86  F   UNL A   1      46.208  30.472  34.600  1.00  0.00    -0.206 F 
ATOM     87  C   UNL A   1      47.206  27.410  36.248  1.00  0.00     0.022 A 
BRANCH  84  88
ATOM     88  S   UNL A   1      45.845  25.367  37.573  1.00  0.00     0.124 S 
ATOM     89  O   UNL A   1      45.862  24.322  36.555  1.00  0.00    -0.237 OA
ATOM     90  O   UNL A   1      47.037  25.461  38.410  1.00  0.00    -0.237 OA
ATOM     91  O   UNL A   1      44.577  25.520  38.283  1.00  0.00    -0.744 OA
ENDBRANCH  84  88
ENDBRANCH  58  81
ENDBRANCH  32  33
ENDBRANCH  25  27
ENDBRANCH  24  25
ENDBRANCH  23  24
ENDBRANCH  22  23
ENDBRANCH  21  22
ENDBRANCH   1  21
TORSDOF 22
ENDMDL
MODEL 3
REMARK VINA RESULT:      -8.6      6.591     10.745
REMARK SMILES C[C@H]([NH2+][C@@H](C)Cc1cccs1)[C@@H](C)C(=O)OCCOCCOC(=O)c1ccc(-c2c3nc(c(-c4cc(S(=O)(=O)[O-])ccc4F)c4ccc([nH]4)c(-c4cc(S(=O)(=O)[O-])ccc4F)c4nc(c(-c5cc(S(=O)(=O)[O-])ccc5F)c5ccc2[nH]5)C=C4)C=C3)cc1
REMARK SMILES IDX 18 1 17 2 16 3 14 4 15 5 12 6 13 7 2 8 1 9 3 10 4 13 5 14
REMARK SMILES IDX 6 15 7 16 8 17 11 18 9 19 10 20 19 21 20 22 21 23 22 24
REMARK SMILES IDX 23 25 24 26 25 27 26 28 87 29 27 30 86 31 28 32 29 33 30 34
REMARK SMILES IDX 80 35 31 36 85 37 79 38 81 39 32 40 84 41 78 42 77 43 33 45
REMARK SMILES IDX 65 46 45 47 64 48 46 49 49 50 63 51 82 52 47 53 48 54 62 56
REMARK SMILES IDX 83 57 50 58 34 59 35 60 43 61 36 62 42 63 44 64 41 65 37 66
REMARK SMILES IDX 38 67 39 68 40 69 66 70 67 71 75 72 68 73 74 74 76 75 73 76
REMARK SMILES IDX 69 77 70 78 71 79 72 80 51 81 52 82 60 83 53 84 59 85 61 86
REMARK SMILES IDX 58 87 54 88 55 89 56 90 57 91
REMARK H PARENT 3 11 3 12 81 44 49 55
REMARK Flexibility Score: inf
ROOT
ATOM      1  C   UNL A   1      34.361  32.021  28.197  1.00  0.00     0.202 C 
ENDROOT
BRANCH   1   2
ATOM      2  C   UNL A   1      33.330  31.139  27.479  1.00  0.00     0.261 C 
BRANCH   2   3
ATOM      3  O   UNL A   1      33.882  30.211  26.520  1.00  0.00    -0.463 OA
BRANCH   3   4
ATOM      4  C   UNL A   1      33.021  29.262  26.055  1.00  0.00     0.314 C 
ATOM      5  O   UNL A   1      31.810  29.264  26.250  1.00  0.00    -0.252 OA
BRANCH   4   6
ATOM      6  C   UNL A   1      33.713  28.118  25.324  1.00  0.00     0.154 C 
ATOM      7  C   UNL A   1      34.022  28.596  23.904  1.00  0.00     0.026 C 
BRANCH   6   8
ATOM      8  C   UNL A   1      32.967  26.756  25.386  1.00  0.00     0.193 C 
ATOM      9  C   UNL A   1      33.971  25.598  25.460  1.00  0.00     0.076 C 
BRANCH   8  10
ATOM     10  N   UNL A   1      32.155  26.604  24.166  1.00  0.00    -0.341 N 
ATOM     11  H   UNL A   1      32.572  25.860  23.608  1.00  0.00     0.346 HD
ATOM     12  H   UNL A   1      32.160  27.524  23.726  1.00  0.00     0.346 HD
BRANCH  10  13
ATOM     13  C   UNL A   1      30.731  26.275  24.352  1.00  0.00     0.184 C 
ATOM     14  C   UNL A   1      29.977  27.396  23.611  1.00  0.00     0.075 C 
BRANCH  13  15
ATOM     15  C   UNL A   1      30.237  24.923  23.768  1.00  0.00     0.111 C 
BRANCH  15  16
ATOM     16  C   UNL A   1      31.054  23.698  24.083  1.00  0.00     0.010 A 
ATOM     17  C   UNL A   1      31.833  22.959  23.209  1.00  0.00     0.015 A 
ATOM     18  S   UNL A   1      30.989  22.953  25.626  1.00  0.00    -0.149 S 
ATOM     19  C   UNL A   1      32.406  21.809  23.821  1.00  0.00     0.012 A 
ATOM     20  C   UNL A   1      32.020  21.683  25.135  1.00  0.00     0.065 A 
ENDBRANCH  15  16
ENDBRANCH  13  15
ENDBRANCH  10  13
ENDBRANCH   8  10
ENDBRANCH   6   8
ENDBRANCH   4   6
ENDBRANCH   3   4
ENDBRANCH   2   3
ENDBRANCH   1   2
BRANCH   1  21
ATOM     21  O   UNL A   1      34.562  33.330  27.663  1.00  0.00    -0.374 OA
BRANCH  21  22
ATOM     22  C   UNL A   1      34.735  34.379  28.613  1.00  0.00     0.202 C 
BRANCH  22  23
ATOM     23  C   UNL A   1      33.454  35.088  29.053  1.00  0.00     0.261 C 
BRANCH  23  24
ATOM     24  O   UNL A   1      32.958  34.526  30.280  1.00  0.00    -0.460 OA
BRANCH  24  25
ATOM     25  C   UNL A   1      33.111  35.340  31.350  1.00  0.00     0.338 C 
ATOM     26  O   UNL A   1      32.398  36.287  31.655  1.00  0.00    -0.246 OA
BRANCH  25  27
ATOM     27  C   UNL A   1      34.179  34.832  32.225  1.00  0.00     0.060 A 
ATOM     28  C   UNL A   1      35.423  35.470  32.178  1.00  0.00     0.016 A 
ATOM     29  C   UNL A   1      34.005  33.667  32.974  1.00  0.00     0.016 A 
ATOM     30  C   UNL A   1      36.518  34.902  32.829  1.00  0.00     0.010 A 
ATOM     31  C   UNL A   1      35.107  33.096  33.620  1.00  0.00     0.010 A 
ATOM     32  C   UNL A   1      36.378  33.687  33.513  1.00  0.00    -0.014 A 
BRANCH  32  33
ATOM     33  C   UNL A   1      37.587  32.968  33.986  1.00  0.00     0.031 A 
ATOM     34  C   UNL A   1      38.132  31.830  33.163  1.00  0.00     0.074 A 
ATOM     35  C   UNL A   1      38.207  33.344  35.118  1.00  0.00     0.049 A 
ATOM     36  N   UNL A   1      39.183  31.080  33.374  1.00  0.00    -0.248 NA
ATOM     37  C   UNL A   1      37.390  31.494  31.938  1.00  0.00     0.031 C 
ATOM     38  C   UNL A   1      37.782  34.443  35.984  1.00  0.00     0.029 A 
ATOM     39  N   UNL A   1      39.325  32.841  35.734  1.00  0.00    -0.354 N 
ATOM     40  C   UNL A   1      39.237  30.190  32.306  1.00  0.00     0.074 A 
ATOM     41  C   UNL A   1      38.085  30.467  31.473  1.00  0.00     0.031 C 
ATOM     42  C   UNL A   1      38.628  34.528  37.026  1.00  0.00     0.029 A 
ATOM     43  C   UNL A   1      39.636  33.475  36.914  1.00  0.00     0.049 A 
ATOM     44  H   UNL A   1      39.855  32.098  35.366  1.00  0.00     0.167 HD
ATOM     45  C   UNL A   1      40.166  29.239  32.039  1.00  0.00     0.034 A 
ATOM     46  C   UNL A   1      40.613  33.223  37.808  1.00  0.00     0.034 A 
ATOM     47  C   UNL A   1      41.298  28.961  32.890  1.00  0.00     0.049 A 
ATOM     48  C   UNL A   1      41.593  32.110  37.530  1.00  0.00     0.074 A 
ATOM     49  C   UNL A   1      42.312  28.036  32.706  1.00  0.00     0.029 A 
ATOM     50  N   UNL A   1      41.556  29.593  34.099  1.00  0.00    -0.354 N 
ATOM     51  N   UNL A   1      41.650  31.298  36.498  1.00  0.00    -0.248 NA
ATOM     52  C   UNL A   1      42.646  31.887  38.529  1.00  0.00     0.031 C 
ATOM     53  C   UNL A   1      43.142  28.063  33.832  1.00  0.00     0.029 A 
ATOM     54  C   UNL A   1      42.691  29.055  34.687  1.00  0.00     0.049 A 
ATOM     55  H   UNL A   1      41.013  30.319  34.484  1.00  0.00     0.167 HD
ATOM     56  C   UNL A   1      42.763  30.489  36.714  1.00  0.00     0.074 A 
ATOM     57  C   UNL A   1      43.353  30.919  37.964  1.00  0.00     0.031 C 
ATOM     58  C   UNL A   1      43.257  29.484  35.945  1.00  0.00     0.034 A 
BRANCH  45  59
ATOM     59  C   UNL A   1      39.966  28.403  30.796  1.00  0.00     0.023 A 
ATOM     60  C   UNL A   1      40.625  28.701  29.590  1.00  0.00     0.031 A 
ATOM     61  C   UNL A   1      39.089  27.304  30.813  1.00  0.00     0.131 A 
ATOM     62  C   UNL A   1      40.349  27.950  28.436  1.00  0.00     0.055 A 
ATOM     63  C   UNL A   1      38.873  26.517  29.680  1.00  0.00     0.041 A 
ATOM     64  F   UNL A   1      38.417  26.984  31.929  1.00  0.00    -0.206 F 
ATOM     65  C   UNL A   1      39.494  26.846  28.479  1.00  0.00     0.022 A 
BRANCH  62  66
ATOM     66  S   UNL A   1      41.022  28.514  26.850  1.00  0.00     0.124 S 
ATOM     67  O   UNL A   1      39.909  29.296  26.318  1.00  0.00    -0.237 OA
ATOM     68  O   UNL A   1      42.199  29.274  27.258  1.00  0.00    -0.237 OA
ATOM     69  O   UNL A   1      41.300  27.272  26.133  1.00  0.00    -0.744 OA
ENDBRANCH  62  66
ENDBRANCH  45  59
BRANCH  46  70
ATOM     70  C   UNL A   1      40.701  34.014  39.070  1.00  0.00     0.023 A 
ATOM     71  C   UNL A   1      39.873  33.730  40.166  1.00  0.00     0.031 A 
ATOM     72  C   UNL A   1      41.589  35.099  39.174  1.00  0.00     0.131 A 
ATOM     73  C   UNL A   1      39.921  34.547  41.307  1.00  0.00     0.055 A 
ATOM     74  C   UNL A   1      41.667  35.879  40.328  1.00  0.00     0.041 A 
ATOM     75  F   UNL A   1      42.403  35.412  38.153  1.00  0.00    -0.206 F 
ATOM     76  C   UNL A   1      40.821  35.612  41.400  1.00  0.00     0.022 A 
BRANCH  73  77
ATOM     77  S   UNL A   1      38.733  34.246  42.643  1.00  0.00     0.124 S 
ATOM     78  O   UNL A   1      39.614  34.059  43.790  1.00  0.00    -0.237 OA
ATOM     79  O   UNL A   1      37.948  35.476  42.631  1.00  0.00    -0.237 OA
ATOM     80  O   UNL A   1      38.019  33.050  42.201  1.00  0.00    -0.744 OA
ENDBRANCH  73  77
ENDBRANCH  46  70
BRANCH  58  81
ATOM     81  C   UNL A   1      44.520  28.813  36.427  1.00  0.00     0.023 A 
ATOM     82  C   UNL A   1      45.792  29.337  36.138  1.00  0.00     0.031 A 
ATOM     83  C   UNL A   1      44.449  27.622  37.171  1.00  0.00     0.131 A 
ATOM     84  C   UNL A   1      46.942  28.643  36.543  1.00  0.00     0.055 A 
ATOM     85  C   UNL A   1      45.595  26.966  37.621  1.00  0.00     0.041 A 
ATOM     86  F   UNL A   1      43.260  27.077  37.475  1.00  0.00    -0.206 F 
ATOM     87  C   UNL A   1      46.852  27.470  37.296  1.00  0.00     0.022 A 
BRANCH  84  88
ATOM     88  S   UNL A   1      48.564  29.249  35.999  1.00  0.00     0.124 S 
ATOM     89  O   UNL A   1      49.335  29.206  37.237  1.00  0.00    -0.237 OA
ATOM     90  O   UNL A   1      48.937  28.272  34.981  1.00  0.00    -0.237 OA
ATOM     91  O   UNL A   1      48.278  30.590  35.494  1.00  0.00    -0.744 OA
ENDBRANCH  84  88
ENDBRANCH  58  81
ENDBRANCH  32  33
ENDBRANCH  25  27
ENDBRANCH  24  25
ENDBRANCH  23  24
ENDBRANCH  22  23
ENDBRANCH  21  22
ENDBRANCH   1  21
TORSDOF 22
ENDMDL
