MODEL 1
REMARK VINA RESULT:     -10.5      0.000      0.000
REMARK SMILES CCc1ccsc1-c1nnnn1C[C@H](CC(C)C)C(=O)OCCOCCOC(=O)c1ccc(-c2c3nc(c(-c4cc(S(=O)(=O)[O-])ccc4F)c4ccc([nH]4)c(-c4cc(S(=O)(=O)[O-])ccc4F)c4nc(c(-c5cc(S(=O)(=O)[O-])ccc5F)c5ccc2[nH]5)C=C4)C=C3)cc1
REMARK SMILES IDX 23 1 22 2 21 3 19 4 20 5 14 6 13 7 12 8 8 9 9 10 10 11 11 12
REMARK SMILES IDX 7 13 3 14 4 15 5 16 6 17 2 18 1 19 15 20 16 21 17 22 18 23
REMARK SMILES IDX 24 24 25 25 26 26 27 27 28 28 29 29 30 30 31 31 92 32 32 33
REMARK SMILES IDX 91 34 33 35 34 36 35 37 85 38 36 39 90 40 84 41 86 42 37 43
REMARK SMILES IDX 89 44 83 45 82 46 38 48 70 49 50 50 69 51 51 52 54 53 68 54
REMARK SMILES IDX 87 55 52 56 53 57 67 59 88 60 55 61 39 62 40 63 48 64 41 65
REMARK SMILES IDX 47 66 49 67 46 68 42 69 43 70 44 71 45 72 71 73 72 74 80 75
REMARK SMILES IDX 73 76 79 77 81 78 78 79 74 80 75 81 76 82 77 83 56 84 57 85
REMARK SMILES IDX 65 86 58 87 64 88 66 89 63 90 59 91 60 92 61 93 62 94
REMARK H PARENT 86 47 54 58
REMARK Flexibility Score: inf
ROOT
ATOM      1  C   UNL A   1      33.873  30.691  27.063  1.00  0.00     0.202 C 
ENDROOT
BRANCH   1   2
ATOM      2  C   UNL A   1      32.459  30.372  26.579  1.00  0.00     0.261 C 
BRANCH   2   3
ATOM      3  O   UNL A   1      32.438  29.829  25.249  1.00  0.00    -0.463 OA
BRANCH   3   4
ATOM      4  C   UNL A   1      32.297  28.487  25.196  1.00  0.00     0.310 C 
ATOM      5  O   UNL A   1      32.375  27.729  26.160  1.00  0.00    -0.252 OA
BRANCH   4   6
ATOM      6  C   UNL A   1      32.038  27.943  23.807  1.00  0.00     0.121 C 
BRANCH   6   7
ATOM      7  C   UNL A   1      33.362  27.368  23.299  1.00  0.00     0.164 C 
BRANCH   7   8
ATOM      8  N   UNL A   1      33.297  26.135  22.564  1.00  0.00    -0.224 N 
ATOM      9  C   UNL A   1      33.276  24.831  22.978  1.00  0.00     0.192 A 
ATOM     10  N   UNL A   1      33.276  24.072  21.900  1.00  0.00    -0.108 NA
ATOM     11  N   UNL A   1      33.235  24.922  20.824  1.00  0.00    -0.023 NA
ATOM     12  N   UNL A   1      33.211  26.184  21.222  1.00  0.00    -0.045 NA
BRANCH   9  13
ATOM     13  C   UNL A   1      33.238  24.329  24.317  1.00  0.00     0.077 A 
ATOM     14  C   UNL A   1      34.296  24.008  25.164  1.00  0.00    -0.026 A 
ATOM     15  C   UNL A   1      33.803  23.578  26.448  1.00  0.00     0.016 A 
ATOM     16  C   UNL A   1      32.432  23.632  26.545  1.00  0.00     0.066 A 
ATOM     17  S   UNL A   1      31.717  24.165  25.095  1.00  0.00    -0.140 S 
BRANCH  14  18
ATOM     18  C   UNL A   1      35.768  24.103  24.861  1.00  0.00     0.034 C 
ATOM     19  C   UNL A   1      36.658  23.665  26.011  1.00  0.00     0.009 C 
ENDBRANCH  14  18
ENDBRANCH   9  13
ENDBRANCH   7   8
ENDBRANCH   6   7
BRANCH   6  20
ATOM     20  C   UNL A   1      31.240  28.836  22.834  1.00  0.00     0.020 C 
BRANCH  20  21
ATOM     21  C   UNL A   1      29.796  28.322  22.619  1.00  0.00    -0.017 C 
ATOM     22  C   UNL A   1      29.477  27.125  23.523  1.00  0.00     0.007 C 
ATOM     23  C   UNL A   1      28.780  29.433  22.891  1.00  0.00     0.007 C 
ENDBRANCH  20  21
ENDBRANCH   6  20
ENDBRANCH   4   6
ENDBRANCH   3   4
ENDBRANCH   2   3
ENDBRANCH   1   2
BRANCH   1  24
ATOM     24  O   UNL A   1      34.036  31.191  28.389  1.00  0.00    -0.374 OA
BRANCH  24  25
ATOM     25  C   UNL A   1      34.943  32.259  28.645  1.00  0.00     0.202 C 
BRANCH  25  26
ATOM     26  C   UNL A   1      36.252  31.952  29.360  1.00  0.00     0.261 C 
BRANCH  26  27
ATOM     27  O   UNL A   1      36.975  30.924  28.703  1.00  0.00    -0.460 OA
BRANCH  27  28
ATOM     28  C   UNL A   1      36.968  29.734  29.357  1.00  0.00     0.338 C 
ATOM     29  O   UNL A   1      36.329  29.447  30.344  1.00  0.00    -0.246 OA
BRANCH  28  30
ATOM     30  C   UNL A   1      38.010  28.890  28.761  1.00  0.00     0.060 A 
ATOM     31  C   UNL A   1      38.522  27.911  29.612  1.00  0.00     0.016 A 
ATOM     32  C   UNL A   1      38.692  29.326  27.616  1.00  0.00     0.016 A 
ATOM     33  C   UNL A   1      39.851  27.596  29.486  1.00  0.00     0.010 A 
ATOM     34  C   UNL A   1      40.023  29.021  27.502  1.00  0.00     0.010 A 
ATOM     35  C   UNL A   1      40.604  28.246  28.500  1.00  0.00    -0.014 A 
BRANCH  35  36
ATOM     36  C   UNL A   1      42.013  27.949  28.428  1.00  0.00     0.031 A 
ATOM     37  C   UNL A   1      42.249  26.729  27.637  1.00  0.00     0.074 A 
ATOM     38  C   UNL A   1      42.975  28.714  28.973  1.00  0.00     0.049 A 
ATOM     39  N   UNL A   1      42.458  25.551  28.117  1.00  0.00    -0.248 NA
ATOM     40  C   UNL A   1      41.929  26.747  26.201  1.00  0.00     0.031 C 
ATOM     41  C   UNL A   1      42.872  30.025  29.611  1.00  0.00     0.029 A 
ATOM     42  N   UNL A   1      44.311  28.473  28.999  1.00  0.00    -0.354 N 
ATOM     43  C   UNL A   1      42.566  24.723  27.013  1.00  0.00     0.074 A 
ATOM     44  C   UNL A   1      41.976  25.444  25.919  1.00  0.00     0.031 C 
ATOM     45  C   UNL A   1      44.115  30.554  29.741  1.00  0.00     0.029 A 
ATOM     46  C   UNL A   1      45.101  29.574  29.308  1.00  0.00     0.049 A 
ATOM     47  H   UNL A   1      44.691  27.584  28.813  1.00  0.00     0.167 HD
ATOM     48  C   UNL A   1      43.389  23.643  27.043  1.00  0.00     0.034 A 
ATOM     49  C   UNL A   1      46.451  29.668  29.136  1.00  0.00     0.034 A 
ATOM     50  C   UNL A   1      43.792  23.341  28.401  1.00  0.00     0.049 A 
ATOM     51  C   UNL A   1      46.968  28.269  29.139  1.00  0.00     0.074 A 
ATOM     52  C   UNL A   1      43.106  23.014  29.555  1.00  0.00     0.029 A 
ATOM     53  N   UNL A   1      45.033  23.782  28.813  1.00  0.00    -0.354 N 
ATOM     54  N   UNL A   1      46.922  27.506  30.201  1.00  0.00    -0.248 NA
ATOM     55  C   UNL A   1      47.008  27.544  27.872  1.00  0.00     0.031 C 
ATOM     56  C   UNL A   1      43.768  23.734  30.592  1.00  0.00     0.029 A 
ATOM     57  C   UNL A   1      44.881  24.378  30.044  1.00  0.00     0.049 A 
ATOM     58  H   UNL A   1      45.877  23.687  28.315  1.00  0.00     0.167 HD
ATOM     59  C   UNL A   1      46.472  26.275  29.746  1.00  0.00     0.074 A 
ATOM     60  C   UNL A   1      46.628  26.330  28.291  1.00  0.00     0.031 C 
ATOM     61  C   UNL A   1      45.727  25.449  30.543  1.00  0.00     0.034 A 
BRANCH  48  62
ATOM     62  C   UNL A   1      44.137  23.113  25.848  1.00  0.00     0.023 A 
ATOM     63  C   UNL A   1      43.890  21.778  25.489  1.00  0.00     0.031 A 
ATOM     64  C   UNL A   1      45.255  23.725  25.236  1.00  0.00     0.131 A 
ATOM     65  C   UNL A   1      44.781  21.084  24.656  1.00  0.00     0.055 A 
ATOM     66  C   UNL A   1      46.096  23.051  24.349  1.00  0.00     0.041 A 
ATOM     67  F   UNL A   1      45.664  24.963  25.531  1.00  0.00    -0.206 F 
ATOM     68  C   UNL A   1      45.881  21.713  24.080  1.00  0.00     0.022 A 
BRANCH  65  69
ATOM     69  S   UNL A   1      44.569  19.297  24.486  1.00  0.00     0.124 S 
ATOM     70  O   UNL A   1      45.634  18.791  25.343  1.00  0.00    -0.237 OA
ATOM     71  O   UNL A   1      43.206  19.109  24.972  1.00  0.00    -0.237 OA
ATOM     72  O   UNL A   1      44.757  19.070  23.055  1.00  0.00    -0.744 OA
ENDBRANCH  65  69
ENDBRANCH  48  62
BRANCH  49  73
ATOM     73  C   UNL A   1      47.214  30.848  28.619  1.00  0.00     0.023 A 
ATOM     74  C   UNL A   1      48.345  31.402  29.267  1.00  0.00     0.031 A 
ATOM     75  C   UNL A   1      46.959  31.319  27.309  1.00  0.00     0.131 A 
ATOM     76  C   UNL A   1      49.148  32.374  28.609  1.00  0.00     0.055 A 
ATOM     77  C   UNL A   1      47.751  32.273  26.668  1.00  0.00     0.041 A 
ATOM     78  F   UNL A   1      45.971  30.803  26.562  1.00  0.00    -0.206 F 
ATOM     79  C   UNL A   1      48.856  32.799  27.312  1.00  0.00     0.022 A 
BRANCH  76  80
ATOM     80  S   UNL A   1      50.650  33.054  29.397  1.00  0.00     0.124 S 
ATOM     81  O   UNL A   1      51.711  32.275  28.771  1.00  0.00    -0.237 OA
ATOM     82  O   UNL A   1      50.583  34.467  29.043  1.00  0.00    -0.237 OA
ATOM     83  O   UNL A   1      50.447  32.775  30.820  1.00  0.00    -0.744 OA
ENDBRANCH  76  80
ENDBRANCH  49  73
BRANCH  61  84
ATOM     84  C   UNL A   1      45.606  25.778  32.021  1.00  0.00     0.023 A 
ATOM     85  C   UNL A   1      44.428  26.233  32.661  1.00  0.00     0.031 A 
ATOM     86  C   UNL A   1      46.711  25.479  32.838  1.00  0.00     0.131 A 
ATOM     87  C   UNL A   1      44.398  26.382  34.063  1.00  0.00     0.055 A 
ATOM     88  C   UNL A   1      46.668  25.601  34.225  1.00  0.00     0.041 A 
ATOM     89  F   UNL A   1      47.852  25.020  32.296  1.00  0.00    -0.206 F 
ATOM     90  C   UNL A   1      45.512  26.059  34.844  1.00  0.00     0.022 A 
BRANCH  87  91
ATOM     91  S   UNL A   1      42.912  27.023  34.903  1.00  0.00     0.124 S 
ATOM     92  O   UNL A   1      43.455  27.875  35.954  1.00  0.00    -0.237 OA
ATOM     93  O   UNL A   1      42.207  27.710  33.823  1.00  0.00    -0.237 OA
ATOM     94  O   UNL A   1      42.245  25.812  35.386  1.00  0.00    -0.744 OA
ENDBRANCH  87  91
ENDBRANCH  61  84
ENDBRANCH  35  36
ENDBRANCH  28  30
ENDBRANCH  27  28
ENDBRANCH  26  27
ENDBRANCH  25  26
ENDBRANCH  24  25
ENDBRANCH   1  24
TORSDOF 23
ENDMDL
MODEL 2
REMARK VINA RESULT:     -10.0      2.592      7.463
REMARK SMILES CCc1ccsc1-c1nnnn1C[C@H](CC(C)C)C(=O)OCCOCCOC(=O)c1ccc(-c2c3nc(c(-c4cc(S(=O)(=O)[O-])ccc4F)c4ccc([nH]4)c(-c4cc(S(=O)(=O)[O-])ccc4F)c4nc(c(-c5cc(S(=O)(=O)[O-])ccc5F)c5ccc2[nH]5)C=C4)C=C3)cc1
REMARK SMILES IDX 23 1 22 2 21 3 19 4 20 5 14 6 13 7 12 8 8 9 9 10 10 11 11 12
REMARK SMILES IDX 7 13 3 14 4 15 5 16 6 17 2 18 1 19 15 20 16 21 17 22 18 23
REMARK SMILES IDX 24 24 25 25 26 26 27 27 28 28 29 29 30 30 31 31 92 32 32 33
REMARK SMILES IDX 91 34 33 35 34 36 35 37 85 38 36 39 90 40 84 41 86 42 37 43
REMARK SMILES IDX 89 44 83 45 82 46 38 48 70 49 50 50 69 51 51 52 54 53 68 54
REMARK SMILES IDX 87 55 52 56 53 57 67 59 88 60 55 61 39 62 40 63 48 64 41 65
REMARK SMILES IDX 47 66 49 67 46 68 42 69 43 70 44 71 45 72 71 73 72 74 80 75
REMARK SMILES IDX 73 76 79 77 81 78 78 79 74 80 75 81 76 82 77 83 56 84 57 85
REMARK SMILES IDX 65 86 58 87 64 88 66 89 63 90 59 91 60 92 61 93 62 94
REMARK H PARENT 86 47 54 58
REMARK Flexibility Score: inf
ROOT
ATOM      1  C   UNL A   1      33.129  30.344  27.076  1.00  0.00     0.202 C 
ENDROOT
BRANCH   1   2
ATOM      2  C   UNL A   1      34.281  29.344  26.968  1.00  0.00     0.261 C 
BRANCH   2   3
ATOM      3  O   UNL A   1      34.203  28.538  25.782  1.00  0.00    -0.463 OA
BRANCH   3   4
ATOM      4  C   UNL A   1      33.354  27.492  25.873  1.00  0.00     0.310 C 
ATOM      5  O   UNL A   1      33.315  26.692  26.804  1.00  0.00    -0.252 OA
BRANCH   4   6
ATOM      6  C   UNL A   1      32.415  27.349  24.694  1.00  0.00     0.121 C 
BRANCH   6   7
ATOM      7  C   UNL A   1      33.276  27.405  23.429  1.00  0.00     0.164 C 
BRANCH   7   8
ATOM      8  N   UNL A   1      33.211  26.273  22.546  1.00  0.00    -0.224 N 
ATOM      9  C   UNL A   1      33.162  24.929  22.795  1.00  0.00     0.192 A 
ATOM     10  N   UNL A   1      33.177  24.308  21.632  1.00  0.00    -0.108 NA
ATOM     11  N   UNL A   1      33.174  25.285  20.669  1.00  0.00    -0.023 NA
ATOM     12  N   UNL A   1      33.158  26.489  21.218  1.00  0.00    -0.045 NA
BRANCH   9  13
ATOM     13  C   UNL A   1      33.084  24.266  24.061  1.00  0.00     0.077 A 
ATOM     14  C   UNL A   1      34.112  23.915  24.932  1.00  0.00    -0.026 A 
ATOM     15  C   UNL A   1      33.580  23.302  26.121  1.00  0.00     0.016 A 
ATOM     16  C   UNL A   1      32.206  23.254  26.135  1.00  0.00     0.066 A 
ATOM     17  S   UNL A   1      31.537  23.911  24.714  1.00  0.00    -0.140 S 
BRANCH  14  18
ATOM     18  C   UNL A   1      35.589  24.142  24.738  1.00  0.00     0.034 C 
ATOM     19  C   UNL A   1      36.451  23.499  25.811  1.00  0.00     0.009 C 
ENDBRANCH  14  18
ENDBRANCH   9  13
ENDBRANCH   7   8
ENDBRANCH   6   7
BRANCH   6  20
ATOM     20  C   UNL A   1      31.127  28.197  24.706  1.00  0.00     0.020 C 
BRANCH  20  21
ATOM     21  C   UNL A   1      30.421  28.211  23.329  1.00  0.00    -0.017 C 
ATOM     22  C   UNL A   1      29.211  27.269  23.301  1.00  0.00     0.007 C 
ATOM     23  C   UNL A   1      29.959  29.625  22.972  1.00  0.00     0.007 C 
ENDBRANCH  20  21
ENDBRANCH   6  20
ENDBRANCH   4   6
ENDBRANCH   3   4
ENDBRANCH   2   3
ENDBRANCH   1   2
BRANCH   1  24
ATOM     24  O   UNL A   1      33.400  31.628  27.636  1.00  0.00    -0.374 OA
BRANCH  24  25
ATOM     25  C   UNL A   1      34.745  32.047  27.849  1.00  0.00     0.202 C 
BRANCH  25  26
ATOM     26  C   UNL A   1      35.085  32.793  29.132  1.00  0.00     0.261 C 
BRANCH  26  27
ATOM     27  O   UNL A   1      35.222  31.904  30.230  1.00  0.00    -0.460 OA
BRANCH  27  28
ATOM     28  C   UNL A   1      36.370  32.065  30.936  1.00  0.00     0.338 C 
ATOM     29  O   UNL A   1      36.530  32.745  31.925  1.00  0.00    -0.246 OA
BRANCH  28  30
ATOM     30  C   UNL A   1      37.449  31.404  30.192  1.00  0.00     0.060 A 
ATOM     31  C   UNL A   1      37.248  30.044  29.963  1.00  0.00     0.016 A 
ATOM     32  C   UNL A   1      38.714  32.004  30.118  1.00  0.00     0.016 A 
ATOM     33  C   UNL A   1      38.354  29.233  29.967  1.00  0.00     0.010 A 
ATOM     34  C   UNL A   1      39.816  31.190  30.138  1.00  0.00     0.010 A 
ATOM     35  C   UNL A   1      39.613  29.814  30.169  1.00  0.00    -0.014 A 
BRANCH  35  36
ATOM     36  C   UNL A   1      40.755  28.937  30.236  1.00  0.00     0.031 A 
ATOM     37  C   UNL A   1      41.109  28.650  31.637  1.00  0.00     0.074 A 
ATOM     38  C   UNL A   1      41.376  28.421  29.161  1.00  0.00     0.049 A 
ATOM     39  N   UNL A   1      42.046  29.227  32.308  1.00  0.00    -0.248 NA
ATOM     40  C   UNL A   1      40.162  27.883  32.461  1.00  0.00     0.031 C 
ATOM     41  C   UNL A   1      41.002  28.487  27.750  1.00  0.00     0.029 A 
ATOM     42  N   UNL A   1      42.486  27.639  29.141  1.00  0.00    -0.354 N 
ATOM     43  C   UNL A   1      41.970  28.682  33.579  1.00  0.00     0.074 A 
ATOM     44  C   UNL A   1      40.665  28.091  33.679  1.00  0.00     0.031 C 
ATOM     45  C   UNL A   1      41.736  27.583  27.054  1.00  0.00     0.029 A 
ATOM     46  C   UNL A   1      42.707  26.965  27.945  1.00  0.00     0.049 A 
ATOM     47  H   UNL A   1      43.089  27.557  29.914  1.00  0.00     0.167 HD
ATOM     48  C   UNL A   1      43.095  28.518  34.324  1.00  0.00     0.034 A 
ATOM     49  C   UNL A   1      43.575  25.930  27.756  1.00  0.00     0.034 A 
ATOM     50  C   UNL A   1      44.197  29.272  33.763  1.00  0.00     0.049 A 
ATOM     51  C   UNL A   1      44.609  26.054  28.824  1.00  0.00     0.074 A 
ATOM     52  C   UNL A   1      44.408  30.612  33.502  1.00  0.00     0.029 A 
ATOM     53  N   UNL A   1      45.109  28.589  32.985  1.00  0.00    -0.354 N 
ATOM     54  N   UNL A   1      45.449  27.055  28.874  1.00  0.00    -0.248 NA
ATOM     55  C   UNL A   1      44.355  25.410  30.110  1.00  0.00     0.031 C 
ATOM     56  C   UNL A   1      45.069  30.641  32.239  1.00  0.00     0.029 A 
ATOM     57  C   UNL A   1      45.322  29.325  31.842  1.00  0.00     0.049 A 
ATOM     58  H   UNL A   1      45.532  27.728  33.207  1.00  0.00     0.167 HD
ATOM     59  C   UNL A   1      45.468  27.450  30.204  1.00  0.00     0.074 A 
ATOM     60  C   UNL A   1      44.845  26.344  30.935  1.00  0.00     0.031 C 
ATOM     61  C   UNL A   1      45.693  28.752  30.558  1.00  0.00     0.034 A 
BRANCH  48  62
ATOM     62  C   UNL A   1      43.307  27.392  35.301  1.00  0.00     0.023 A 
ATOM     63  C   UNL A   1      43.720  27.749  36.595  1.00  0.00     0.031 A 
ATOM     64  C   UNL A   1      43.411  26.021  34.972  1.00  0.00     0.131 A 
ATOM     65  C   UNL A   1      44.297  26.798  37.451  1.00  0.00     0.055 A 
ATOM     66  C   UNL A   1      43.917  25.066  35.854  1.00  0.00     0.041 A 
ATOM     67  F   UNL A   1      43.131  25.537  33.757  1.00  0.00    -0.206 F 
ATOM     68  C   UNL A   1      44.396  25.457  37.090  1.00  0.00     0.022 A 
BRANCH  65  69
ATOM     69  S   UNL A   1      45.078  27.385  38.971  1.00  0.00     0.124 S 
ATOM     70  O   UNL A   1      46.431  26.861  38.829  1.00  0.00    -0.237 OA
ATOM     71  O   UNL A   1      44.930  28.831  38.845  1.00  0.00    -0.237 OA
ATOM     72  O   UNL A   1      44.275  26.767  40.023  1.00  0.00    -0.744 OA
ENDBRANCH  65  69
ENDBRANCH  48  62
BRANCH  49  73
ATOM     73  C   UNL A   1      43.336  24.688  26.954  1.00  0.00     0.023 A 
ATOM     74  C   UNL A   1      44.279  24.137  26.053  1.00  0.00     0.031 A 
ATOM     75  C   UNL A   1      42.216  23.875  27.252  1.00  0.00     0.131 A 
ATOM     76  C   UNL A   1      44.074  22.844  25.498  1.00  0.00     0.055 A 
ATOM     77  C   UNL A   1      42.022  22.605  26.706  1.00  0.00     0.041 A 
ATOM     78  F   UNL A   1      41.303  24.250  28.161  1.00  0.00    -0.206 F 
ATOM     79  C   UNL A   1      42.955  22.079  25.831  1.00  0.00     0.022 A 
BRANCH  76  80
ATOM     80  S   UNL A   1      45.309  22.084  24.384  1.00  0.00     0.124 S 
ATOM     81  O   UNL A   1      46.163  21.357  25.314  1.00  0.00    -0.237 OA
ATOM     82  O   UNL A   1      44.480  21.278  23.494  1.00  0.00    -0.237 OA
ATOM     83  O   UNL A   1      45.946  23.235  23.743  1.00  0.00    -0.744 OA
ENDBRANCH  76  80
ENDBRANCH  49  73
BRANCH  61  84
ATOM     84  C   UNL A   1      46.173  29.724  29.494  1.00  0.00     0.023 A 
ATOM     85  C   UNL A   1      45.334  30.486  28.647  1.00  0.00     0.031 A 
ATOM     86  C   UNL A   1      47.555  29.985  29.441  1.00  0.00     0.131 A 
ATOM     87  C   UNL A   1      45.891  31.453  27.784  1.00  0.00     0.055 A 
ATOM     88  C   UNL A   1      48.098  30.962  28.608  1.00  0.00     0.041 A 
ATOM     89  F   UNL A   1      48.404  29.314  30.237  1.00  0.00    -0.206 F 
ATOM     90  C   UNL A   1      47.268  31.697  27.771  1.00  0.00     0.022 A 
BRANCH  87  91
ATOM     91  S   UNL A   1      44.835  32.404  26.641  1.00  0.00     0.124 S 
ATOM     92  O   UNL A   1      45.744  32.769  25.561  1.00  0.00    -0.237 OA
ATOM     93  O   UNL A   1      43.790  31.442  26.299  1.00  0.00    -0.237 OA
ATOM     94  O   UNL A   1      44.377  33.531  27.457  1.00  0.00    -0.744 OA
ENDBRANCH  87  91
ENDBRANCH  61  84
ENDBRANCH  35  36
ENDBRANCH  28  30
ENDBRANCH  27  28
ENDBRANCH  26  27
ENDBRANCH  25  26
ENDBRANCH  24  25
ENDBRANCH   1  24
TORSDOF 23
ENDMDL
MODEL 3
REMARK VINA RESULT:     -10.0      3.732      8.499
REMARK SMILES CCc1ccsc1-c1nnnn1C[C@H](CC(C)C)C(=O)OCCOCCOC(=O)c1ccc(-c2c3nc(c(-c4cc(S(=O)(=O)[O-])ccc4F)c4ccc([nH]4)c(-c4cc(S(=O)(=O)[O-])ccc4F)c4nc(c(-c5cc(S(=O)(=O)[O-])ccc5F)c5ccc2[nH]5)C=C4)C=C3)cc1
REMARK SMILES IDX 23 1 22 2 21 3 19 4 20 5 14 6 13 7 12 8 8 9 9 10 10 11 11 12
REMARK SMILES IDX 7 13 3 14 4 15 5 16 6 17 2 18 1 19 15 20 16 21 17 22 18 23
REMARK SMILES IDX 24 24 25 25 26 26 27 27 28 28 29 29 30 30 31 31 92 32 32 33
REMARK SMILES IDX 91 34 33 35 34 36 35 37 85 38 36 39 90 40 84 41 86 42 37 43
REMARK SMILES IDX 89 44 83 45 82 46 38 48 70 49 50 50 69 51 51 52 54 53 68 54
REMARK SMILES IDX 87 55 52 56 53 57 67 59 88 60 55 61 39 62 40 63 48 64 41 65
REMARK SMILES IDX 47 66 49 67 46 68 42 69 43 70 44 71 45 72 71 73 72 74 80 75
REMARK SMILES IDX 73 76 79 77 81 78 78 79 74 80 75 81 76 82 77 83 56 84 57 85
REMARK SMILES IDX 65 86 58 87 64 88 66 89 63 90 59 91 60 92 61 93 62 94
REMARK H PARENT 86 47 54 58
REMARK Flexibility Score: inf
ROOT
ATOM      1  C   UNL A   1      36.901  22.691  24.303  1.00  0.00     0.202 C 
ENDROOT
BRANCH   1   2
ATOM      2  C   UNL A   1      36.026  23.264  23.188  1.00  0.00     0.261 C 
BRANCH   2   3
ATOM      3  O   UNL A   1      34.628  23.245  23.517  1.00  0.00    -0.463 OA
BRANCH   3   4
ATOM      4  C   UNL A   1      34.009  24.439  23.397  1.00  0.00     0.310 C 
ATOM      5  O   UNL A   1      33.912  25.083  22.355  1.00  0.00    -0.252 OA
BRANCH   4   6
ATOM      6  C   UNL A   1      33.427  24.971  24.688  1.00  0.00     0.121 C 
BRANCH   6   7
ATOM      7  C   UNL A   1      31.905  24.860  24.570  1.00  0.00     0.164 C 
BRANCH   7   8
ATOM      8  N   UNL A   1      31.222  24.138  25.608  1.00  0.00    -0.224 N 
ATOM      9  C   UNL A   1      31.291  22.829  26.000  1.00  0.00     0.192 A 
ATOM     10  N   UNL A   1      30.409  22.656  26.965  1.00  0.00    -0.108 NA
ATOM     11  N   UNL A   1      29.843  23.883  27.202  1.00  0.00    -0.023 NA
ATOM     12  N   UNL A   1      30.360  24.802  26.402  1.00  0.00    -0.045 NA
BRANCH   9  13
ATOM     13  C   UNL A   1      32.156  21.803  25.505  1.00  0.00     0.077 A 
ATOM     14  C   UNL A   1      33.245  21.198  26.127  1.00  0.00    -0.026 A 
ATOM     15  C   UNL A   1      33.805  20.174  25.282  1.00  0.00     0.016 A 
ATOM     16  C   UNL A   1      33.115  20.009  24.105  1.00  0.00     0.066 A 
ATOM     17  S   UNL A   1      31.810  21.095  23.980  1.00  0.00    -0.140 S 
BRANCH  14  18
ATOM     18  C   UNL A   1      33.794  21.496  27.498  1.00  0.00     0.034 C 
ATOM     19  C   UNL A   1      34.421  22.875  27.617  1.00  0.00     0.009 C 
ENDBRANCH  14  18
ENDBRANCH   9  13
ENDBRANCH   7   8
ENDBRANCH   6   7
BRANCH   6  20
ATOM     20  C   UNL A   1      33.996  26.299  25.229  1.00  0.00     0.020 C 
BRANCH  20  21
ATOM     21  C   UNL A   1      33.007  27.476  25.048  1.00  0.00    -0.017 C 
ATOM     22  C   UNL A   1      32.499  28.005  26.394  1.00  0.00     0.007 C 
ATOM     23  C   UNL A   1      33.668  28.624  24.282  1.00  0.00     0.007 C 
ENDBRANCH  20  21
ENDBRANCH   6  20
ENDBRANCH   4   6
ENDBRANCH   3   4
ENDBRANCH   2   3
ENDBRANCH   1   2
BRANCH   1  24
ATOM     24  O   UNL A   1      37.281  23.554  25.373  1.00  0.00    -0.374 OA
BRANCH  24  25
ATOM     25  C   UNL A   1      38.096  23.062  26.434  1.00  0.00     0.202 C 
BRANCH  25  26
ATOM     26  C   UNL A   1      39.362  22.291  26.087  1.00  0.00     0.261 C 
BRANCH  26  27
ATOM     27  O   UNL A   1      40.359  22.453  27.084  1.00  0.00    -0.460 OA
BRANCH  27  28
ATOM     28  C   UNL A   1      41.219  23.476  26.850  1.00  0.00     0.338 C 
ATOM     29  O   UNL A   1      42.021  23.564  25.947  1.00  0.00    -0.246 OA
BRANCH  28  30
ATOM     30  C   UNL A   1      41.139  24.398  27.990  1.00  0.00     0.060 A 
ATOM     31  C   UNL A   1      39.908  25.034  28.137  1.00  0.00     0.016 A 
ATOM     32  C   UNL A   1      42.316  24.884  28.577  1.00  0.00     0.016 A 
ATOM     33  C   UNL A   1      39.915  26.321  28.611  1.00  0.00     0.010 A 
ATOM     34  C   UNL A   1      42.322  26.175  29.036  1.00  0.00     0.010 A 
ATOM     35  C   UNL A   1      41.142  26.907  28.947  1.00  0.00    -0.014 A 
BRANCH  35  36
ATOM     36  C   UNL A   1      41.134  28.282  29.380  1.00  0.00     0.031 A 
ATOM     37  C   UNL A   1      42.178  29.053  28.684  1.00  0.00     0.074 A 
ATOM     38  C   UNL A   1      40.259  28.789  30.265  1.00  0.00     0.049 A 
ATOM     39  N   UNL A   1      43.336  29.352  29.164  1.00  0.00    -0.248 NA
ATOM     40  C   UNL A   1      42.056  29.254  27.232  1.00  0.00     0.031 C 
ATOM     41  C   UNL A   1      39.081  28.169  30.870  1.00  0.00     0.029 A 
ATOM     42  N   UNL A   1      40.223  30.051  30.765  1.00  0.00    -0.354 N 
ATOM     43  C   UNL A   1      43.988  30.025  28.145  1.00  0.00     0.074 A 
ATOM     44  C   UNL A   1      43.279  29.698  26.938  1.00  0.00     0.031 C 
ATOM     45  C   UNL A   1      38.328  29.131  31.461  1.00  0.00     0.029 A 
ATOM     46  C   UNL A   1      39.027  30.405  31.380  1.00  0.00     0.049 A 
ATOM     47  H   UNL A   1      40.986  30.668  30.698  1.00  0.00     0.167 HD
ATOM     48  C   UNL A   1      44.874  31.015  28.432  1.00  0.00     0.034 A 
ATOM     49  C   UNL A   1      38.639  31.670  31.714  1.00  0.00     0.034 A 
ATOM     50  C   UNL A   1      45.245  30.983  29.831  1.00  0.00     0.049 A 
ATOM     51  C   UNL A   1      39.894  32.466  31.853  1.00  0.00     0.074 A 
ATOM     52  C   UNL A   1      45.839  30.037  30.645  1.00  0.00     0.029 A 
ATOM     53  N   UNL A   1      44.611  31.866  30.682  1.00  0.00    -0.354 N 
ATOM     54  N   UNL A   1      40.770  32.235  32.797  1.00  0.00    -0.248 NA
ATOM     55  C   UNL A   1      40.440  33.108  30.661  1.00  0.00     0.031 C 
ATOM     56  C   UNL A   1      45.126  30.113  31.877  1.00  0.00     0.029 A 
ATOM     57  C   UNL A   1      44.209  31.164  31.794  1.00  0.00     0.049 A 
ATOM     58  H   UNL A   1      44.472  32.827  30.521  1.00  0.00     0.167 HD
ATOM     59  C   UNL A   1      42.005  32.271  32.164  1.00  0.00     0.074 A 
ATOM     60  C   UNL A   1      41.748  32.902  30.868  1.00  0.00     0.031 C 
ATOM     61  C   UNL A   1      43.054  31.511  32.606  1.00  0.00     0.034 A 
BRANCH  48  62
ATOM     62  C   UNL A   1      45.094  32.231  27.571  1.00  0.00     0.023 A 
ATOM     63  C   UNL A   1      46.396  32.433  27.084  1.00  0.00     0.031 A 
ATOM     64  C   UNL A   1      44.206  33.324  27.442  1.00  0.00     0.131 A 
ATOM     65  C   UNL A   1      46.794  33.690  26.604  1.00  0.00     0.055 A 
ATOM     66  C   UNL A   1      44.587  34.550  26.895  1.00  0.00     0.041 A 
ATOM     67  F   UNL A   1      42.959  33.314  27.925  1.00  0.00    -0.206 F 
ATOM     68  C   UNL A   1      45.897  34.750  26.503  1.00  0.00     0.022 A 
BRANCH  65  69
ATOM     69  S   UNL A   1      48.552  33.959  26.283  1.00  0.00     0.124 S 
ATOM     70  O   UNL A   1      48.530  34.453  24.912  1.00  0.00    -0.237 OA
ATOM     71  O   UNL A   1      48.899  34.932  27.314  1.00  0.00    -0.237 OA
ATOM     72  O   UNL A   1      49.134  32.631  26.460  1.00  0.00    -0.744 OA
ENDBRANCH  65  69
ENDBRANCH  48  62
BRANCH  49  73
ATOM     73  C   UNL A   1      37.276  32.267  31.553  1.00  0.00     0.023 A 
ATOM     74  C   UNL A   1      36.667  32.516  30.298  1.00  0.00     0.031 A 
ATOM     75  C   UNL A   1      36.436  32.394  32.684  1.00  0.00     0.131 A 
ATOM     76  C   UNL A   1      35.293  32.875  30.223  1.00  0.00     0.055 A 
ATOM     77  C   UNL A   1      35.087  32.745  32.604  1.00  0.00     0.041 A 
ATOM     78  F   UNL A   1      36.874  32.095  33.916  1.00  0.00    -0.206 F 
ATOM     79  C   UNL A   1      34.506  32.979  31.371  1.00  0.00     0.022 A 
BRANCH  76  80
ATOM     80  S   UNL A   1      34.469  33.137  28.613  1.00  0.00     0.124 S 
ATOM     81  O   UNL A   1      34.021  31.793  28.269  1.00  0.00    -0.237 OA
ATOM     82  O   UNL A   1      33.429  34.106  28.942  1.00  0.00    -0.237 OA
ATOM     83  O   UNL A   1      35.539  33.660  27.760  1.00  0.00    -0.744 OA
ENDBRANCH  76  80
ENDBRANCH  49  73
BRANCH  61  84
ATOM     84  C   UNL A   1      42.933  30.813  33.950  1.00  0.00     0.023 A 
ATOM     85  C   UNL A   1      42.445  29.500  34.146  1.00  0.00     0.031 A 
ATOM     86  C   UNL A   1      43.474  31.476  35.067  1.00  0.00     0.131 A 
ATOM     87  C   UNL A   1      42.501  28.908  35.425  1.00  0.00     0.055 A 
ATOM     88  C   UNL A   1      43.554  30.877  36.322  1.00  0.00     0.041 A 
ATOM     89  F   UNL A   1      43.977  32.716  34.944  1.00  0.00    -0.206 F 
ATOM     90  C   UNL A   1      43.061  29.592  36.509  1.00  0.00     0.022 A 
BRANCH  87  91
ATOM     91  S   UNL A   1      41.823  27.240  35.714  1.00  0.00     0.124 S 
ATOM     92  O   UNL A   1      41.030  27.399  36.926  1.00  0.00    -0.237 OA
ATOM     93  O   UNL A   1      41.071  26.986  34.487  1.00  0.00    -0.237 OA
ATOM     94  O   UNL A   1      43.019  26.410  35.873  1.00  0.00    -0.744 OA
ENDBRANCH  87  91
ENDBRANCH  61  84
ENDBRANCH  35  36
ENDBRANCH  28  30
ENDBRANCH  27  28
ENDBRANCH  26  27
ENDBRANCH  25  26
ENDBRANCH  24  25
ENDBRANCH   1  24
TORSDOF 23
ENDMDL
