MODEL 1
REMARK VINA RESULT:     -11.0      0.000      0.000
REMARK SMILES O=CN1CCN(S(=O)(=O)c2ccc(C(=O)OCCOCCOC(=O)c3ccc(-c4c5nc(c(-c6cc(S(=O)(=O)[O-])ccc6F)c6ccc([nH]6)c(-c6cc(S(=O)(=O)[O-])ccc6F)c6nc(c(-c7cc(S(=O)(=O)[O-])ccc7F)c7ccc4[nH]7)C=C6)C=C5)cc3)cc2)CC1
REMARK SMILES IDX 20 1 19 2 18 3 17 4 16 5 14 6 15 7 13 8 10 9 11 10 89 11
REMARK SMILES IDX 12 12 88 13 7 14 8 15 9 16 6 17 1 18 2 19 3 20 4 21 91 22
REMARK SMILES IDX 5 23 90 24 21 25 22 26 23 27 24 28 25 29 26 30 87 31 27 32
REMARK SMILES IDX 86 33 28 34 29 35 30 36 80 37 31 38 85 39 79 40 81 41 32 42
REMARK SMILES IDX 84 43 78 44 77 45 33 47 65 48 45 49 64 50 46 51 49 52 63 53
REMARK SMILES IDX 82 54 47 55 48 56 62 58 83 59 50 60 34 61 35 62 43 63 36 64
REMARK SMILES IDX 42 65 44 66 41 67 37 68 38 69 39 70 40 71 66 72 67 73 75 74
REMARK SMILES IDX 68 75 74 76 76 77 73 78 69 79 70 80 71 81 72 82 51 83 52 84
REMARK SMILES IDX 60 85 53 86 59 87 61 88 58 89 54 90 55 91 56 92 57 93
REMARK H PARENT 81 46 49 57
REMARK Flexibility Score: inf
ROOT
ATOM      1  C   UNL A   1      31.393  31.376  26.563  1.00  0.00     0.202 C 
ENDROOT
BRANCH   1   2
ATOM      2  O   UNL A   1      32.553  30.651  26.149  1.00  0.00    -0.374 OA
BRANCH   2   3
ATOM      3  C   UNL A   1      32.352  29.591  25.213  1.00  0.00     0.202 C 
BRANCH   3   4
ATOM      4  C   UNL A   1      30.959  29.518  24.582  1.00  0.00     0.261 C 
BRANCH   4   5
ATOM      5  O   UNL A   1      31.048  29.436  23.151  1.00  0.00    -0.460 OA
BRANCH   5   6
ATOM      6  C   UNL A   1      30.276  28.481  22.579  1.00  0.00     0.338 C 
ATOM      7  O   UNL A   1      29.260  28.654  21.925  1.00  0.00    -0.246 OA
BRANCH   6   8
ATOM      8  C   UNL A   1      30.896  27.142  22.751  1.00  0.00     0.060 A 
ATOM      9  C   UNL A   1      32.151  24.656  22.936  1.00  0.00     0.082 A 
ATOM     10  C   UNL A   1      32.804  25.710  22.296  1.00  0.00     0.022 A 
ATOM     11  C   UNL A   1      30.916  24.861  23.565  1.00  0.00     0.022 A 
ATOM     12  C   UNL A   1      32.176  26.952  22.209  1.00  0.00     0.017 A 
ATOM     13  C   UNL A   1      30.275  26.098  23.449  1.00  0.00     0.017 A 
BRANCH   9  14
ATOM     14  S   UNL A   1      32.918  23.055  22.991  1.00  0.00     0.243 S 
ATOM     15  O   UNL A   1      34.047  23.074  22.089  1.00  0.00    -0.207 OA
ATOM     16  O   UNL A   1      31.876  22.059  22.835  1.00  0.00    -0.207 OA
BRANCH  14  17
ATOM     17  N   UNL A   1      33.490  22.930  24.599  1.00  0.00    -0.194 NA
ATOM     18  O   UNL A   1      38.027  20.725  25.100  1.00  0.00    -0.279 OA
ATOM     19  C   UNL A   1      36.862  20.356  25.072  1.00  0.00     0.340 C 
ATOM     20  N   UNL A   1      35.774  21.154  24.796  1.00  0.00    -0.343 N 
ATOM     21  C   UNL A   1      34.428  20.598  24.661  1.00  0.00     0.136 C 
ATOM     22  C   UNL A   1      35.973  22.544  24.385  1.00  0.00     0.136 C 
ATOM     23  C   UNL A   1      33.349  21.557  25.189  1.00  0.00     0.124 C 
ATOM     24  C   UNL A   1      34.860  23.459  24.909  1.00  0.00     0.124 C 
ENDBRANCH  14  17
ENDBRANCH   9  14
ENDBRANCH   6   8
ENDBRANCH   5   6
ENDBRANCH   4   5
ENDBRANCH   3   4
ENDBRANCH   2   3
ENDBRANCH   1   2
BRANCH   1  25
ATOM     25  C   UNL A   1      31.576  32.879  26.805  1.00  0.00     0.261 C 
BRANCH  25  26
ATOM     26  O   UNL A   1      32.962  33.264  26.774  1.00  0.00    -0.460 OA
BRANCH  26  27
ATOM     27  C   UNL A   1      33.436  33.763  27.943  1.00  0.00     0.338 C 
ATOM     28  O   UNL A   1      32.888  34.574  28.669  1.00  0.00    -0.246 OA
BRANCH  27  29
ATOM     29  C   UNL A   1      34.659  33.035  28.341  1.00  0.00     0.060 A 
ATOM     30  C   UNL A   1      34.503  31.731  28.830  1.00  0.00     0.016 A 
ATOM     31  C   UNL A   1      35.923  33.628  28.296  1.00  0.00     0.016 A 
ATOM     32  C   UNL A   1      35.604  31.032  29.321  1.00  0.00     0.010 A 
ATOM     33  C   UNL A   1      37.026  32.925  28.798  1.00  0.00     0.010 A 
ATOM     34  C   UNL A   1      36.866  31.637  29.342  1.00  0.00    -0.014 A 
BRANCH  34  35
ATOM     35  C   UNL A   1      37.982  30.981  30.070  1.00  0.00     0.031 A 
ATOM     36  C   UNL A   1      38.254  31.381  31.495  1.00  0.00     0.074 A 
ATOM     37  C   UNL A   1      38.718  30.021  29.482  1.00  0.00     0.049 A 
ATOM     38  N   UNL A   1      39.199  30.978  32.306  1.00  0.00    -0.248 NA
ATOM     39  C   UNL A   1      37.338  32.369  32.083  1.00  0.00     0.031 C 
ATOM     40  C   UNL A   1      38.515  29.513  28.125  1.00  0.00     0.029 A 
ATOM     41  N   UNL A   1      39.791  29.303  29.951  1.00  0.00    -0.354 N 
ATOM     42  C   UNL A   1      38.993  31.663  33.499  1.00  0.00     0.074 A 
ATOM     43  C   UNL A   1      37.856  32.535  33.290  1.00  0.00     0.031 C 
ATOM     44  C   UNL A   1      39.440  28.572  27.869  1.00  0.00     0.029 A 
ATOM     45  C   UNL A   1      40.325  28.439  29.025  1.00  0.00     0.049 A 
ATOM     46  H   UNL A   1      40.144  29.398  30.866  1.00  0.00     0.167 HD
ATOM     47  C   UNL A   1      39.682  31.566  34.662  1.00  0.00     0.034 A 
ATOM     48  C   UNL A   1      41.419  27.652  29.093  1.00  0.00     0.034 A 
ATOM     49  C   UNL A   1      40.821  30.701  34.852  1.00  0.00     0.049 A 
ATOM     50  C   UNL A   1      42.228  27.632  30.369  1.00  0.00     0.074 A 
ATOM     51  C   UNL A   1      41.590  30.524  35.989  1.00  0.00     0.029 A 
ATOM     52  N   UNL A   1      41.363  29.874  33.875  1.00  0.00    -0.354 N 
ATOM     53  N   UNL A   1      42.021  28.285  31.490  1.00  0.00    -0.248 NA
ATOM     54  C   UNL A   1      43.413  26.763  30.391  1.00  0.00     0.031 C 
ATOM     55  C   UNL A   1      42.634  29.646  35.680  1.00  0.00     0.029 A 
ATOM     56  C   UNL A   1      42.473  29.211  34.375  1.00  0.00     0.049 A 
ATOM     57  H   UNL A   1      41.011  29.775  32.961  1.00  0.00     0.167 HD
ATOM     58  C   UNL A   1      43.031  27.876  32.360  1.00  0.00     0.074 A 
ATOM     59  C   UNL A   1      43.836  26.913  31.638  1.00  0.00     0.031 C 
ATOM     60  C   UNL A   1      43.270  28.256  33.641  1.00  0.00     0.034 A 
BRANCH  47  61
ATOM     61  C   UNL A   1      39.249  32.456  35.801  1.00  0.00     0.023 A 
ATOM     62  C   UNL A   1      39.684  33.789  35.907  1.00  0.00     0.031 A 
ATOM     63  C   UNL A   1      38.402  31.958  36.809  1.00  0.00     0.131 A 
ATOM     64  C   UNL A   1      39.321  34.558  37.024  1.00  0.00     0.055 A 
ATOM     65  C   UNL A   1      37.984  32.751  37.879  1.00  0.00     0.041 A 
ATOM     66  F   UNL A   1      37.974  30.686  36.773  1.00  0.00    -0.206 F 
ATOM     67  C   UNL A   1      38.454  34.055  37.997  1.00  0.00     0.022 A 
BRANCH  64  68
ATOM     68  S   UNL A   1      40.102  36.179  37.252  1.00  0.00     0.124 S 
ATOM     69  O   UNL A   1      39.289  36.749  38.324  1.00  0.00    -0.237 OA
ATOM     70  O   UNL A   1      41.471  35.822  37.607  1.00  0.00    -0.237 OA
ATOM     71  O   UNL A   1      39.942  36.822  35.949  1.00  0.00    -0.744 OA
ENDBRANCH  64  68
ENDBRANCH  47  61
BRANCH  48  72
ATOM     72  C   UNL A   1      41.853  26.848  27.912  1.00  0.00     0.023 A 
ATOM     73  C   UNL A   1      41.705  25.453  27.889  1.00  0.00     0.031 A 
ATOM     74  C   UNL A   1      42.491  27.461  26.819  1.00  0.00     0.131 A 
ATOM     75  C   UNL A   1      42.237  24.710  26.822  1.00  0.00     0.055 A 
ATOM     76  C   UNL A   1      42.967  26.724  25.734  1.00  0.00     0.041 A 
ATOM     77  F   UNL A   1      42.661  28.793  26.790  1.00  0.00    -0.206 F 
ATOM     78  C   UNL A   1      42.856  25.339  25.739  1.00  0.00     0.022 A 
BRANCH  75  79
ATOM     79  S   UNL A   1      42.200  22.899  26.921  1.00  0.00     0.124 S 
ATOM     80  O   UNL A   1      43.599  22.561  26.681  1.00  0.00    -0.237 OA
ATOM     81  O   UNL A   1      41.709  22.681  28.277  1.00  0.00    -0.237 OA
ATOM     82  O   UNL A   1      41.274  22.520  25.856  1.00  0.00    -0.744 OA
ENDBRANCH  75  79
ENDBRANCH  48  72
BRANCH  60  83
ATOM     83  C   UNL A   1      44.416  27.585  34.357  1.00  0.00     0.023 A 
ATOM     84  C   UNL A   1      44.263  26.355  35.019  1.00  0.00     0.031 A 
ATOM     85  C   UNL A   1      45.684  28.196  34.383  1.00  0.00     0.131 A 
ATOM     86  C   UNL A   1      45.342  25.801  35.725  1.00  0.00     0.055 A 
ATOM     87  C   UNL A   1      46.770  27.609  35.035  1.00  0.00     0.041 A 
ATOM     88  F   UNL A   1      45.888  29.372  33.769  1.00  0.00    -0.206 F 
ATOM     89  C   UNL A   1      46.599  26.412  35.722  1.00  0.00     0.022 A 
BRANCH  86  90
ATOM     90  S   UNL A   1      45.060  24.312  36.722  1.00  0.00     0.124 S 
ATOM     91  O   UNL A   1      44.141  23.553  35.880  1.00  0.00    -0.237 OA
ATOM     92  O   UNL A   1      46.406  23.763  36.852  1.00  0.00    -0.237 OA
ATOM     93  O   UNL A   1      44.482  24.831  37.960  1.00  0.00    -0.744 OA
ENDBRANCH  86  90
ENDBRANCH  60  83
ENDBRANCH  34  35
ENDBRANCH  27  29
ENDBRANCH  26  27
ENDBRANCH  25  26
ENDBRANCH   1  25
TORSDOF 19
ENDMDL
MODEL 2
REMARK VINA RESULT:     -10.8      4.699     10.679
REMARK SMILES O=CN1CCN(S(=O)(=O)c2ccc(C(=O)OCCOCCOC(=O)c3ccc(-c4c5nc(c(-c6cc(S(=O)(=O)[O-])ccc6F)c6ccc([nH]6)c(-c6cc(S(=O)(=O)[O-])ccc6F)c6nc(c(-c7cc(S(=O)(=O)[O-])ccc7F)c7ccc4[nH]7)C=C6)C=C5)cc3)cc2)CC1
REMARK SMILES IDX 20 1 19 2 18 3 17 4 16 5 14 6 15 7 13 8 10 9 11 10 89 11
REMARK SMILES IDX 12 12 88 13 7 14 8 15 9 16 6 17 1 18 2 19 3 20 4 21 91 22
REMARK SMILES IDX 5 23 90 24 21 25 22 26 23 27 24 28 25 29 26 30 87 31 27 32
REMARK SMILES IDX 86 33 28 34 29 35 30 36 80 37 31 38 85 39 79 40 81 41 32 42
REMARK SMILES IDX 84 43 78 44 77 45 33 47 65 48 45 49 64 50 46 51 49 52 63 53
REMARK SMILES IDX 82 54 47 55 48 56 62 58 83 59 50 60 34 61 35 62 43 63 36 64
REMARK SMILES IDX 42 65 44 66 41 67 37 68 38 69 39 70 40 71 66 72 67 73 75 74
REMARK SMILES IDX 68 75 74 76 76 77 73 78 69 79 70 80 71 81 72 82 51 83 52 84
REMARK SMILES IDX 60 85 53 86 59 87 61 88 58 89 54 90 55 91 56 92 57 93
REMARK H PARENT 81 46 49 57
REMARK Flexibility Score: inf
ROOT
ATOM      1  C   UNL A   1      37.826  19.388  24.943  1.00  0.00     0.202 C 
ENDROOT
BRANCH   1   2
ATOM      2  O   UNL A   1      37.472  20.725  24.584  1.00  0.00    -0.374 OA
BRANCH   2   3
ATOM      3  C   UNL A   1      36.345  21.295  25.253  1.00  0.00     0.202 C 
BRANCH   3   4
ATOM      4  C   UNL A   1      35.037  20.508  25.138  1.00  0.00     0.261 C 
BRANCH   4   5
ATOM      5  O   UNL A   1      33.977  21.169  25.846  1.00  0.00    -0.460 OA
BRANCH   5   6
ATOM      6  C   UNL A   1      32.808  21.269  25.171  1.00  0.00     0.338 C 
ATOM      7  O   UNL A   1      31.902  20.451  25.147  1.00  0.00    -0.246 OA
BRANCH   6   8
ATOM      8  C   UNL A   1      32.696  22.601  24.520  1.00  0.00     0.060 A 
ATOM      9  C   UNL A   1      32.400  25.027  23.174  1.00  0.00     0.082 A 
ATOM     10  C   UNL A   1      31.457  24.015  22.983  1.00  0.00     0.022 A 
ATOM     11  C   UNL A   1      33.437  24.868  24.102  1.00  0.00     0.022 A 
ATOM     12  C   UNL A   1      31.606  22.806  23.661  1.00  0.00     0.017 A 
ATOM     13  C   UNL A   1      33.602  23.643  24.756  1.00  0.00     0.017 A 
BRANCH   9  14
ATOM     14  S   UNL A   1      32.251  26.544  22.262  1.00  0.00     0.243 S 
ATOM     15  O   UNL A   1      31.182  26.383  21.305  1.00  0.00    -0.207 OA
ATOM     16  O   UNL A   1      33.578  26.924  21.817  1.00  0.00    -0.207 OA
BRANCH  14  17
ATOM     17  N   UNL A   1      31.777  27.687  23.444  1.00  0.00    -0.194 NA
ATOM     18  O   UNL A   1      26.947  29.199  23.155  1.00  0.00    -0.279 OA
ATOM     19  C   UNL A   1      28.016  29.553  22.678  1.00  0.00     0.340 C 
ATOM     20  N   UNL A   1      29.214  28.889  22.814  1.00  0.00    -0.343 N 
ATOM     21  C   UNL A   1      30.417  29.323  22.103  1.00  0.00     0.136 C 
ATOM     22  C   UNL A   1      29.257  27.587  23.480  1.00  0.00     0.136 C 
ATOM     23  C   UNL A   1      31.692  29.095  22.930  1.00  0.00     0.124 C 
ATOM     24  C   UNL A   1      30.558  27.392  24.269  1.00  0.00     0.124 C 
ENDBRANCH  14  17
ENDBRANCH   9  14
ENDBRANCH   6   8
ENDBRANCH   5   6
ENDBRANCH   4   5
ENDBRANCH   3   4
ENDBRANCH   2   3
ENDBRANCH   1   2
BRANCH   1  25
ATOM     25  C   UNL A   1      39.169  19.205  25.661  1.00  0.00     0.261 C 
BRANCH  25  26
ATOM     26  O   UNL A   1      39.815  20.464  25.921  1.00  0.00    -0.460 OA
BRANCH  26  27
ATOM     27  C   UNL A   1      40.627  20.469  27.008  1.00  0.00     0.338 C 
ATOM     28  O   UNL A   1      41.198  19.511  27.500  1.00  0.00    -0.246 OA
BRANCH  27  29
ATOM     29  C   UNL A   1      40.896  21.860  27.427  1.00  0.00     0.060 A 
ATOM     30  C   UNL A   1      40.231  22.882  26.738  1.00  0.00     0.016 A 
ATOM     31  C   UNL A   1      41.821  22.167  28.428  1.00  0.00     0.016 A 
ATOM     32  C   UNL A   1      40.523  24.217  27.013  1.00  0.00     0.010 A 
ATOM     33  C   UNL A   1      42.118  23.510  28.696  1.00  0.00     0.010 A 
ATOM     34  C   UNL A   1      41.494  24.540  27.968  1.00  0.00    -0.014 A 
BRANCH  34  35
ATOM     35  C   UNL A   1      41.962  25.943  28.094  1.00  0.00     0.031 A 
ATOM     36  C   UNL A   1      43.309  26.313  27.535  1.00  0.00     0.074 A 
ATOM     37  C   UNL A   1      41.184  26.880  28.666  1.00  0.00     0.049 A 
ATOM     38  N   UNL A   1      43.938  27.460  27.571  1.00  0.00    -0.248 NA
ATOM     39  C   UNL A   1      44.045  25.244  26.844  1.00  0.00     0.031 C 
ATOM     40  C   UNL A   1      39.839  26.653  29.195  1.00  0.00     0.029 A 
ATOM     41  N   UNL A   1      41.416  28.213  28.901  1.00  0.00    -0.354 N 
ATOM     42  C   UNL A   1      45.144  27.252  26.910  1.00  0.00     0.074 A 
ATOM     43  C   UNL A   1      45.173  25.858  26.518  1.00  0.00     0.031 C 
ATOM     44  C   UNL A   1      39.370  27.806  29.702  1.00  0.00     0.029 A 
ATOM     45  C   UNL A   1      40.392  28.842  29.570  1.00  0.00     0.049 A 
ATOM     46  H   UNL A   1      42.237  28.676  28.616  1.00  0.00     0.167 HD
ATOM     47  C   UNL A   1      46.131  28.143  26.646  1.00  0.00     0.034 A 
ATOM     48  C   UNL A   1      40.304  30.101  30.046  1.00  0.00     0.034 A 
ATOM     49  C   UNL A   1      46.094  29.527  27.053  1.00  0.00     0.049 A 
ATOM     50  C   UNL A   1      41.458  31.051  29.823  1.00  0.00     0.074 A 
ATOM     51  C   UNL A   1      47.039  30.515  26.836  1.00  0.00     0.029 A 
ATOM     52  N   UNL A   1      45.062  30.117  27.772  1.00  0.00    -0.354 N 
ATOM     53  N   UNL A   1      42.593  30.841  29.196  1.00  0.00    -0.248 NA
ATOM     54  C   UNL A   1      41.316  32.409  30.366  1.00  0.00     0.031 C 
ATOM     55  C   UNL A   1      46.611  31.680  27.480  1.00  0.00     0.029 A 
ATOM     56  C   UNL A   1      45.362  31.445  28.032  1.00  0.00     0.049 A 
ATOM     57  H   UNL A   1      44.239  29.658  28.055  1.00  0.00     0.167 HD
ATOM     58  C   UNL A   1      43.281  32.052  29.240  1.00  0.00     0.074 A 
ATOM     59  C   UNL A   1      42.429  32.988  29.942  1.00  0.00     0.031 C 
ATOM     60  C   UNL A   1      44.504  32.366  28.739  1.00  0.00     0.034 A 
BRANCH  47  61
ATOM     61  C   UNL A   1      47.354  27.630  25.925  1.00  0.00     0.023 A 
ATOM     62  C   UNL A   1      48.440  27.067  26.616  1.00  0.00     0.031 A 
ATOM     63  C   UNL A   1      47.442  27.724  24.523  1.00  0.00     0.131 A 
ATOM     64  C   UNL A   1      49.591  26.676  25.914  1.00  0.00     0.055 A 
ATOM     65  C   UNL A   1      48.559  27.265  23.823  1.00  0.00     0.041 A 
ATOM     66  F   UNL A   1      46.446  28.275  23.812  1.00  0.00    -0.206 F 
ATOM     67  C   UNL A   1      49.647  26.748  24.520  1.00  0.00     0.022 A 
BRANCH  64  68
ATOM     68  S   UNL A   1      51.062  26.192  26.858  1.00  0.00     0.124 S 
ATOM     69  O   UNL A   1      50.685  24.862  27.330  1.00  0.00    -0.237 OA
ATOM     70  O   UNL A   1      52.114  26.239  25.849  1.00  0.00    -0.237 OA
ATOM     71  O   UNL A   1      51.151  27.214  27.899  1.00  0.00    -0.744 OA
ENDBRANCH  64  68
ENDBRANCH  47  61
BRANCH  48  72
ATOM     72  C   UNL A   1      39.107  30.539  30.822  1.00  0.00     0.023 A 
ATOM     73  C   UNL A   1      37.993  31.106  30.183  1.00  0.00     0.031 A 
ATOM     74  C   UNL A   1      39.092  30.464  32.227  1.00  0.00     0.131 A 
ATOM     75  C   UNL A   1      36.936  31.625  30.948  1.00  0.00     0.055 A 
ATOM     76  C   UNL A   1      38.013  30.929  32.980  1.00  0.00     0.041 A 
ATOM     77  F   UNL A   1      40.132  29.933  32.890  1.00  0.00    -0.206 F 
ATOM     78  C   UNL A   1      36.933  31.528  32.342  1.00  0.00     0.022 A 
BRANCH  75  79
ATOM     79  S   UNL A   1      35.608  32.523  30.098  1.00  0.00     0.124 S 
ATOM     80  O   UNL A   1      34.513  32.406  31.054  1.00  0.00    -0.237 OA
ATOM     81  O   UNL A   1      36.192  33.851  29.948  1.00  0.00    -0.237 OA
ATOM     82  O   UNL A   1      35.434  31.776  28.854  1.00  0.00    -0.744 OA
ENDBRANCH  75  79
ENDBRANCH  48  72
BRANCH  60  83
ATOM     83  C   UNL A   1      44.964  33.796  28.889  1.00  0.00     0.023 A 
ATOM     84  C   UNL A   1      45.781  34.206  29.956  1.00  0.00     0.031 A 
ATOM     85  C   UNL A   1      44.567  34.766  27.950  1.00  0.00     0.131 A 
ATOM     86  C   UNL A   1      46.131  35.560  30.089  1.00  0.00     0.055 A 
ATOM     87  C   UNL A   1      44.969  36.098  28.054  1.00  0.00     0.041 A 
ATOM     88  F   UNL A   1      43.784  34.431  26.912  1.00  0.00    -0.206 F 
ATOM     89  C   UNL A   1      45.744  36.504  29.135  1.00  0.00     0.022 A 
BRANCH  86  90
ATOM     90  S   UNL A   1      47.029  36.087  31.575  1.00  0.00     0.124 S 
ATOM     91  O   UNL A   1      48.117  36.876  31.008  1.00  0.00    -0.237 OA
ATOM     92  O   UNL A   1      46.012  36.836  32.305  1.00  0.00    -0.237 OA
ATOM     93  O   UNL A   1      47.434  34.827  32.196  1.00  0.00    -0.744 OA
ENDBRANCH  86  90
ENDBRANCH  60  83
ENDBRANCH  34  35
ENDBRANCH  27  29
ENDBRANCH  26  27
ENDBRANCH  25  26
ENDBRANCH   1  25
TORSDOF 19
ENDMDL
MODEL 3
REMARK VINA RESULT:     -10.7      4.780     10.798
REMARK SMILES O=CN1CCN(S(=O)(=O)c2ccc(C(=O)OCCOCCOC(=O)c3ccc(-c4c5nc(c(-c6cc(S(=O)(=O)[O-])ccc6F)c6ccc([nH]6)c(-c6cc(S(=O)(=O)[O-])ccc6F)c6nc(c(-c7cc(S(=O)(=O)[O-])ccc7F)c7ccc4[nH]7)C=C6)C=C5)cc3)cc2)CC1
REMARK SMILES IDX 20 1 19 2 18 3 17 4 16 5 14 6 15 7 13 8 10 9 11 10 89 11
REMARK SMILES IDX 12 12 88 13 7 14 8 15 9 16 6 17 1 18 2 19 3 20 4 21 91 22
REMARK SMILES IDX 5 23 90 24 21 25 22 26 23 27 24 28 25 29 26 30 87 31 27 32
REMARK SMILES IDX 86 33 28 34 29 35 30 36 80 37 31 38 85 39 79 40 81 41 32 42
REMARK SMILES IDX 84 43 78 44 77 45 33 47 65 48 45 49 64 50 46 51 49 52 63 53
REMARK SMILES IDX 82 54 47 55 48 56 62 58 83 59 50 60 34 61 35 62 43 63 36 64
REMARK SMILES IDX 42 65 44 66 41 67 37 68 38 69 39 70 40 71 66 72 67 73 75 74
REMARK SMILES IDX 68 75 74 76 76 77 73 78 69 79 70 80 71 81 72 82 51 83 52 84
REMARK SMILES IDX 60 85 53 86 59 87 61 88 58 89 54 90 55 91 56 92 57 93
REMARK H PARENT 81 46 49 57
REMARK Flexibility Score: inf
ROOT
ATOM      1  C   UNL A   1      38.063  19.601  24.935  1.00  0.00     0.202 C 
ENDROOT
BRANCH   1   2
ATOM      2  O   UNL A   1      37.593  20.930  24.700  1.00  0.00    -0.374 OA
BRANCH   2   3
ATOM      3  C   UNL A   1      36.352  21.292  25.308  1.00  0.00     0.202 C 
BRANCH   3   4
ATOM      4  C   UNL A   1      35.171  20.365  25.010  1.00  0.00     0.261 C 
BRANCH   4   5
ATOM      5  O   UNL A   1      34.027  20.722  25.802  1.00  0.00    -0.460 OA
BRANCH   5   6
ATOM      6  C   UNL A   1      32.863  20.829  25.118  1.00  0.00     0.338 C 
ATOM      7  O   UNL A   1      31.994  19.978  25.013  1.00  0.00    -0.246 OA
BRANCH   6   8
ATOM      8  C   UNL A   1      32.703  22.203  24.576  1.00  0.00     0.060 A 
ATOM      9  C   UNL A   1      32.424  24.719  23.403  1.00  0.00     0.082 A 
ATOM     10  C   UNL A   1      32.096  23.579  22.668  1.00  0.00     0.022 A 
ATOM     11  C   UNL A   1      32.800  24.617  24.748  1.00  0.00     0.022 A 
ATOM     12  C   UNL A   1      32.233  22.323  23.259  1.00  0.00     0.017 A 
ATOM     13  C   UNL A   1      32.967  23.355  25.327  1.00  0.00     0.017 A 
BRANCH   9  14
ATOM     14  S   UNL A   1      32.315  26.317  22.633  1.00  0.00     0.243 S 
ATOM     15  O   UNL A   1      31.351  26.227  21.560  1.00  0.00    -0.207 OA
ATOM     16  O   UNL A   1      33.665  26.771  22.364  1.00  0.00    -0.207 OA
BRANCH  14  17
ATOM     17  N   UNL A   1      31.687  27.323  23.866  1.00  0.00    -0.194 NA
ATOM     18  O   UNL A   1      26.968  29.001  23.075  1.00  0.00    -0.279 OA
ATOM     19  C   UNL A   1      28.100  29.378  22.803  1.00  0.00     0.340 C 
ATOM     20  N   UNL A   1      29.258  28.668  23.028  1.00  0.00    -0.343 N 
ATOM     21  C   UNL A   1      30.556  29.147  22.554  1.00  0.00     0.136 C 
ATOM     22  C   UNL A   1      29.187  27.295  23.528  1.00  0.00     0.136 C 
ATOM     23  C   UNL A   1      31.695  28.785  23.521  1.00  0.00     0.124 C 
ATOM     24  C   UNL A   1      30.357  26.968  24.465  1.00  0.00     0.124 C 
ENDBRANCH  14  17
ENDBRANCH   9  14
ENDBRANCH   6   8
ENDBRANCH   5   6
ENDBRANCH   4   5
ENDBRANCH   3   4
ENDBRANCH   2   3
ENDBRANCH   1   2
BRANCH   1  25
ATOM     25  C   UNL A   1      39.351  19.467  25.757  1.00  0.00     0.261 C 
BRANCH  25  26
ATOM     26  O   UNL A   1      39.947  20.746  26.035  1.00  0.00    -0.460 OA
BRANCH  26  27
ATOM     27  C   UNL A   1      40.729  20.777  27.143  1.00  0.00     0.338 C 
ATOM     28  O   UNL A   1      41.281  19.830  27.677  1.00  0.00    -0.246 OA
BRANCH  27  29
ATOM     29  C   UNL A   1      40.995  22.178  27.531  1.00  0.00     0.060 A 
ATOM     30  C   UNL A   1      40.360  23.184  26.792  1.00  0.00     0.016 A 
ATOM     31  C   UNL A   1      41.890  22.508  28.553  1.00  0.00     0.016 A 
ATOM     32  C   UNL A   1      40.652  24.524  27.038  1.00  0.00     0.010 A 
ATOM     33  C   UNL A   1      42.188  23.855  28.792  1.00  0.00     0.010 A 
ATOM     34  C   UNL A   1      41.595  24.868  28.015  1.00  0.00    -0.014 A 
BRANCH  34  35
ATOM     35  C   UNL A   1      42.069  26.271  28.115  1.00  0.00     0.031 A 
ATOM     36  C   UNL A   1      43.390  26.638  27.496  1.00  0.00     0.074 A 
ATOM     37  C   UNL A   1      41.318  27.211  28.719  1.00  0.00     0.049 A 
ATOM     38  N   UNL A   1      44.021  27.785  27.500  1.00  0.00    -0.248 NA
ATOM     39  C   UNL A   1      44.094  25.566  26.776  1.00  0.00     0.031 C 
ATOM     40  C   UNL A   1      39.998  26.986  29.309  1.00  0.00     0.029 A 
ATOM     41  N   UNL A   1      41.561  28.544  28.940  1.00  0.00    -0.354 N 
ATOM     42  C   UNL A   1      45.196  27.574  26.786  1.00  0.00     0.074 A 
ATOM     43  C   UNL A   1      45.206  26.179  26.397  1.00  0.00     0.031 C 
ATOM     44  C   UNL A   1      39.553  28.141  29.833  1.00  0.00     0.029 A 
ATOM     45  C   UNL A   1      40.570  29.176  29.653  1.00  0.00     0.049 A 
ATOM     46  H   UNL A   1      42.370  29.005  28.617  1.00  0.00     0.167 HD
ATOM     47  C   UNL A   1      46.170  28.463  26.476  1.00  0.00     0.034 A 
ATOM     48  C   UNL A   1      40.504  30.436  30.129  1.00  0.00     0.034 A 
ATOM     49  C   UNL A   1      46.153  29.848  26.880  1.00  0.00     0.049 A 
ATOM     50  C   UNL A   1      41.647  31.384  29.851  1.00  0.00     0.074 A 
ATOM     51  C   UNL A   1      47.088  30.835  26.618  1.00  0.00     0.029 A 
ATOM     52  N   UNL A   1      45.155  30.441  27.643  1.00  0.00    -0.354 N 
ATOM     53  N   UNL A   1      42.753  31.171  29.175  1.00  0.00    -0.248 NA
ATOM     54  C   UNL A   1      41.530  32.744  30.396  1.00  0.00     0.031 C 
ATOM     55  C   UNL A   1      46.690  32.003  27.278  1.00  0.00     0.029 A 
ATOM     56  C   UNL A   1      45.467  31.770  27.886  1.00  0.00     0.049 A 
ATOM     57  H   UNL A   1      44.344  29.984  27.965  1.00  0.00     0.167 HD
ATOM     58  C   UNL A   1      43.443  32.382  29.184  1.00  0.00     0.074 A 
ATOM     59  C   UNL A   1      42.624  33.321  29.921  1.00  0.00     0.031 C 
ATOM     60  C   UNL A   1      44.642  32.694  28.628  1.00  0.00     0.034 A 
BRANCH  47  61
ATOM     61  C   UNL A   1      47.360  27.948  25.702  1.00  0.00     0.023 A 
ATOM     62  C   UNL A   1      47.471  28.124  24.311  1.00  0.00     0.031 A 
ATOM     63  C   UNL A   1      48.389  27.253  26.363  1.00  0.00     0.131 A 
ATOM     64  C   UNL A   1      48.555  27.560  23.619  1.00  0.00     0.055 A 
ATOM     65  C   UNL A   1      49.501  26.759  25.679  1.00  0.00     0.041 A 
ATOM     66  F   UNL A   1      48.325  27.034  27.686  1.00  0.00    -0.206 F 
ATOM     67  C   UNL A   1      49.582  26.901  24.297  1.00  0.00     0.022 A 
BRANCH  64  68
ATOM     68  S   UNL A   1      48.535  27.589  21.806  1.00  0.00     0.124 S 
ATOM     69  O   UNL A   1      47.225  28.174  21.534  1.00  0.00    -0.237 OA
ATOM     70  O   UNL A   1      49.688  28.426  21.491  1.00  0.00    -0.237 OA
ATOM     71  O   UNL A   1      48.670  26.180  21.440  1.00  0.00    -0.744 OA
ENDBRANCH  64  68
ENDBRANCH  47  61
BRANCH  48  72
ATOM     72  C   UNL A   1      39.343  30.877  30.956  1.00  0.00     0.023 A 
ATOM     73  C   UNL A   1      39.458  31.035  32.346  1.00  0.00     0.031 A 
ATOM     74  C   UNL A   1      38.078  31.076  30.374  1.00  0.00     0.131 A 
ATOM     75  C   UNL A   1      38.320  31.326  33.115  1.00  0.00     0.055 A 
ATOM     76  C   UNL A   1      36.961  31.423  31.135  1.00  0.00     0.041 A 
ATOM     77  F   UNL A   1      37.909  30.937  29.049  1.00  0.00    -0.206 F 
ATOM     78  C   UNL A   1      37.074  31.534  32.517  1.00  0.00     0.022 A 
BRANCH  75  79
ATOM     79  S   UNL A   1      38.469  31.329  34.923  1.00  0.00     0.124 S 
ATOM     80  O   UNL A   1      39.707  32.077  35.116  1.00  0.00    -0.237 OA
ATOM     81  O   UNL A   1      37.241  32.004  35.326  1.00  0.00    -0.237 OA
ATOM     82  O   UNL A   1      38.538  29.909  35.260  1.00  0.00    -0.744 OA
ENDBRANCH  75  79
ENDBRANCH  48  72
BRANCH  60  83
ATOM     83  C   UNL A   1      45.109  34.124  28.754  1.00  0.00     0.023 A 
ATOM     84  C   UNL A   1      45.923  34.550  29.817  1.00  0.00     0.031 A 
ATOM     85  C   UNL A   1      44.724  35.077  27.793  1.00  0.00     0.131 A 
ATOM     86  C   UNL A   1      46.280  35.903  29.926  1.00  0.00     0.055 A 
ATOM     87  C   UNL A   1      45.133  36.409  27.874  1.00  0.00     0.041 A 
ATOM     88  F   UNL A   1      43.946  34.727  26.757  1.00  0.00    -0.206 F 
ATOM     89  C   UNL A   1      45.904  36.832  28.952  1.00  0.00     0.022 A 
BRANCH  86  90
ATOM     90  S   UNL A   1      47.171  36.454  31.408  1.00  0.00     0.124 S 
ATOM     91  O   UNL A   1      47.921  35.257  31.772  1.00  0.00    -0.237 OA
ATOM     92  O   UNL A   1      47.962  37.570  30.900  1.00  0.00    -0.237 OA
ATOM     93  O   UNL A   1      46.103  36.823  32.334  1.00  0.00    -0.744 OA
ENDBRANCH  86  90
ENDBRANCH  60  83
ENDBRANCH  34  35
ENDBRANCH  27  29
ENDBRANCH  26  27
ENDBRANCH  25  26
ENDBRANCH   1  25
TORSDOF 19
ENDMDL
