MODEL 1
REMARK VINA RESULT:     -12.1      0.000      0.000
REMARK SMILES CS(=O)(=O)c1ccc(C2=NN(c3ccc(C(=O)OCCOCCOC(=O)c4ccc(-c5c6nc(c(-c7cc(S(=O)(=O)[O-])ccc7F)c7ccc([nH]7)c(-c7cc(S(=O)(=O)[O-])ccc7F)c7nc(c(-c8cc(S(=O)(=O)[O-])ccc8F)c8ccc5[nH]8)C=C7)C=C6)cc4)cc3)[C@H](c3ccc(F)cc3)C2)cc1
REMARK SMILES IDX 21 1 20 2 19 3 18 4 16 5 17 6 15 7 12 8 13 9 91 10 14 11
REMARK SMILES IDX 90 12 11 13 9 14 10 15 100 16 92 17 8 18 5 19 6 20 102 21
REMARK SMILES IDX 7 22 101 23 2 24 1 25 3 26 4 27 93 28 94 29 99 30 95 31
REMARK SMILES IDX 98 32 96 33 97 34 22 35 23 36 24 37 25 38 26 39 27 40 28 41
REMARK SMILES IDX 89 42 29 43 88 44 30 45 31 46 32 47 82 48 33 49 87 50 81 51
REMARK SMILES IDX 83 52 34 53 86 54 80 55 79 56 35 58 67 59 47 60 66 61 48 62
REMARK SMILES IDX 51 63 65 64 84 65 49 66 50 67 64 69 85 70 52 71 36 72 37 73
REMARK SMILES IDX 45 74 38 75 44 76 46 77 43 78 39 79 40 80 41 81 42 82 68 83
REMARK SMILES IDX 69 84 77 85 70 86 76 87 78 88 75 89 71 90 72 91 73 92 74 93
REMARK SMILES IDX 53 94 54 95 62 96 55 97 61 98 63 99 60 100 56 101 57 102
REMARK SMILES IDX 58 103 59 104
REMARK H PARENT 83 57 51 68
REMARK Flexibility Score: inf
ROOT
ATOM      1  O   UNL A   1      35.313  34.226  29.148  1.00  0.00    -0.374 OA
ENDROOT
BRANCH   1   2
ATOM      2  C   UNL A   1      35.943  33.143  28.459  1.00  0.00     0.202 C 
BRANCH   2   3
ATOM      3  C   UNL A   1      35.337  31.756  28.691  1.00  0.00     0.261 C 
BRANCH   3   4
ATOM      4  O   UNL A   1      34.819  31.216  27.465  1.00  0.00    -0.460 OA
BRANCH   4   5
ATOM      5  C   UNL A   1      33.472  31.110  27.398  1.00  0.00     0.338 C 
ATOM      6  O   UNL A   1      32.658  32.009  27.556  1.00  0.00    -0.246 OA
BRANCH   5   7
ATOM      7  C   UNL A   1      33.077  29.736  26.998  1.00  0.00     0.060 A 
ATOM      8  C   UNL A   1      32.363  27.225  25.970  1.00  0.00     0.060 A 
ATOM      9  C   UNL A   1      33.649  27.729  25.761  1.00  0.00     0.029 A 
ATOM     10  C   UNL A   1      31.486  27.929  26.808  1.00  0.00     0.029 A 
ATOM     11  C   UNL A   1      34.003  28.982  26.266  1.00  0.00     0.018 A 
ATOM     12  C   UNL A   1      31.831  29.184  27.316  1.00  0.00     0.018 A 
BRANCH   8  13
ATOM     13  N   UNL A   1      31.875  26.156  25.212  1.00  0.00    -0.257 N 
ATOM     14  C   UNL A   1      32.143  24.188  24.443  1.00  0.00     0.071 C 
ATOM     15  N   UNL A   1      32.188  24.876  25.542  1.00  0.00    -0.176 NA
ATOM     16  C   UNL A   1      31.957  24.986  23.180  1.00  0.00     0.091 C 
ATOM     17  C   UNL A   1      31.686  26.374  23.770  1.00  0.00     0.144 C 
BRANCH  14  18
ATOM     18  C   UNL A   1      32.250  22.717  24.410  1.00  0.00    -0.002 A 
ATOM     19  C   UNL A   1      32.603  19.955  24.244  1.00  0.00     0.067 A 
ATOM     20  C   UNL A   1      32.438  20.703  23.075  1.00  0.00     0.021 A 
ATOM     21  C   UNL A   1      32.580  20.577  25.497  1.00  0.00     0.021 A 
ATOM     22  C   UNL A   1      32.255  22.084  23.160  1.00  0.00     0.011 A 
ATOM     23  C   UNL A   1      32.405  21.963  25.579  1.00  0.00     0.011 A 
BRANCH  19  24
ATOM     24  S   UNL A   1      32.886  18.204  24.121  1.00  0.00     0.175 S 
ATOM     25  C   UNL A   1      32.446  17.770  22.461  1.00  0.00     0.163 C 
ATOM     26  O   UNL A   1      31.942  17.568  25.020  1.00  0.00    -0.224 OA
ATOM     27  O   UNL A   1      34.313  17.980  24.252  1.00  0.00    -0.224 OA
ENDBRANCH  19  24
ENDBRANCH  14  18
BRANCH  17  28
ATOM     28  C   UNL A   1      30.327  27.011  23.510  1.00  0.00    -0.023 A 
ATOM     29  C   UNL A   1      29.113  26.448  23.933  1.00  0.00     0.009 A 
ATOM     30  C   UNL A   1      30.292  28.283  22.895  1.00  0.00     0.009 A 
ATOM     31  C   UNL A   1      27.909  27.134  23.749  1.00  0.00     0.039 A 
ATOM     32  C   UNL A   1      29.094  28.982  22.747  1.00  0.00     0.039 A 
ATOM     33  C   UNL A   1      27.912  28.398  23.171  1.00  0.00     0.123 A 
ATOM     34  F   UNL A   1      26.758  29.064  23.033  1.00  0.00    -0.207 F 
ENDBRANCH  17  28
ENDBRANCH   8  13
ENDBRANCH   5   7
ENDBRANCH   4   5
ENDBRANCH   3   4
ENDBRANCH   2   3
ENDBRANCH   1   2
BRANCH   1  35
ATOM     35  C   UNL A   1      34.213  34.865  28.499  1.00  0.00     0.202 C 
BRANCH  35  36
ATOM     36  C   UNL A   1      33.242  35.655  29.385  1.00  0.00     0.261 C 
BRANCH  36  37
ATOM     37  O   UNL A   1      32.765  34.886  30.501  1.00  0.00    -0.460 OA
BRANCH  37  38
ATOM     38  C   UNL A   1      32.944  35.485  31.703  1.00  0.00     0.338 C 
ATOM     39  O   UNL A   1      32.206  36.309  32.225  1.00  0.00    -0.246 OA
BRANCH  38  40
ATOM     40  C   UNL A   1      34.078  34.877  32.424  1.00  0.00     0.060 A 
ATOM     41  C   UNL A   1      35.310  35.537  32.337  1.00  0.00     0.016 A 
ATOM     42  C   UNL A   1      33.974  33.654  33.092  1.00  0.00     0.016 A 
ATOM     43  C   UNL A   1      36.457  34.942  32.852  1.00  0.00     0.010 A 
ATOM     44  C   UNL A   1      35.132  33.055  33.607  1.00  0.00     0.010 A 
ATOM     45  C   UNL A   1      36.386  33.674  33.446  1.00  0.00    -0.014 A 
BRANCH  45  46
ATOM     46  C   UNL A   1      37.652  32.948  33.718  1.00  0.00     0.031 A 
ATOM     47  C   UNL A   1      38.456  33.321  34.937  1.00  0.00     0.074 A 
ATOM     48  C   UNL A   1      38.034  31.914  32.946  1.00  0.00     0.049 A 
ATOM     49  N   UNL A   1      39.548  32.781  35.412  1.00  0.00    -0.248 NA
ATOM     50  C   UNL A   1      37.956  34.458  35.725  1.00  0.00     0.031 C 
ATOM     51  C   UNL A   1      37.319  31.438  31.762  1.00  0.00     0.029 A 
ATOM     52  N   UNL A   1      39.111  31.070  33.052  1.00  0.00    -0.354 N 
ATOM     53  C   UNL A   1      39.865  33.506  36.556  1.00  0.00     0.074 A 
ATOM     54  C   UNL A   1      38.875  34.556  36.672  1.00  0.00     0.031 C 
ATOM     55  C   UNL A   1      37.976  30.380  31.254  1.00  0.00     0.029 A 
ATOM     56  C   UNL A   1      39.167  30.120  32.059  1.00  0.00     0.049 A 
ATOM     57  H   UNL A   1      39.780  31.139  33.770  1.00  0.00     0.167 HD
ATOM     58  C   UNL A   1      40.876  33.306  37.439  1.00  0.00     0.034 A 
ATOM     59  C   UNL A   1      40.080  29.156  31.826  1.00  0.00     0.034 A 
ATOM     60  C   UNL A   1      41.864  32.263  37.303  1.00  0.00     0.049 A 
ATOM     61  C   UNL A   1      41.234  28.991  32.786  1.00  0.00     0.074 A 
ATOM     62  C   UNL A   1      42.930  31.970  38.136  1.00  0.00     0.029 A 
ATOM     63  N   UNL A   1      41.916  31.346  36.260  1.00  0.00    -0.354 N 
ATOM     64  N   UNL A   1      41.512  29.674  33.874  1.00  0.00    -0.248 NA
ATOM     65  C   UNL A   1      42.185  27.911  32.496  1.00  0.00     0.031 C 
ATOM     66  C   UNL A   1      43.663  30.924  37.562  1.00  0.00     0.029 A 
ATOM     67  C   UNL A   1      43.010  30.507  36.414  1.00  0.00     0.049 A 
ATOM     68  H   UNL A   1      41.270  31.300  35.518  1.00  0.00     0.167 HD
ATOM     69  C   UNL A   1      42.651  29.081  34.414  1.00  0.00     0.074 A 
ATOM     70  C   UNL A   1      42.993  27.975  33.542  1.00  0.00     0.031 C 
ATOM     71  C   UNL A   1      43.349  29.415  35.530  1.00  0.00     0.034 A 
BRANCH  58  72
ATOM     72  C   UNL A   1      40.984  34.272  38.595  1.00  0.00     0.023 A 
ATOM     73  C   UNL A   1      40.261  34.087  39.787  1.00  0.00     0.031 A 
ATOM     74  C   UNL A   1      41.792  35.419  38.489  1.00  0.00     0.131 A 
ATOM     75  C   UNL A   1      40.301  35.066  40.792  1.00  0.00     0.055 A 
ATOM     76  C   UNL A   1      41.890  36.350  39.526  1.00  0.00     0.041 A 
ATOM     77  F   UNL A   1      42.487  35.664  37.368  1.00  0.00    -0.206 F 
ATOM     78  C   UNL A   1      41.132  36.184  40.680  1.00  0.00     0.022 A 
BRANCH  75  79
ATOM     79  S   UNL A   1      39.144  34.933  42.183  1.00  0.00     0.124 S 
ATOM     80  O   UNL A   1      38.030  34.213  41.571  1.00  0.00    -0.237 OA
ATOM     81  O   UNL A   1      39.920  34.192  43.170  1.00  0.00    -0.237 OA
ATOM     82  O   UNL A   1      38.862  36.325  42.529  1.00  0.00    -0.744 OA
ENDBRANCH  75  79
ENDBRANCH  58  72
BRANCH  59  83
ATOM     83  C   UNL A   1      39.963  28.280  30.624  1.00  0.00     0.023 A 
ATOM     84  C   UNL A   1      40.669  28.560  29.442  1.00  0.00     0.031 A 
ATOM     85  C   UNL A   1      39.087  27.179  30.623  1.00  0.00     0.131 A 
ATOM     86  C   UNL A   1      40.449  27.781  28.295  1.00  0.00     0.055 A 
ATOM     87  C   UNL A   1      38.913  26.375  29.496  1.00  0.00     0.041 A 
ATOM     88  F   UNL A   1      38.389  26.866  31.726  1.00  0.00    -0.206 F 
ATOM     89  C   UNL A   1      39.585  26.683  28.317  1.00  0.00     0.022 A 
BRANCH  86  90
ATOM     90  S   UNL A   1      41.245  28.276  26.742  1.00  0.00     0.124 S 
ATOM     91  O   UNL A   1      40.336  29.308  26.257  1.00  0.00    -0.237 OA
ATOM     92  O   UNL A   1      42.551  28.734  27.205  1.00  0.00    -0.237 OA
ATOM     93  O   UNL A   1      41.262  27.041  25.960  1.00  0.00    -0.744 OA
ENDBRANCH  86  90
ENDBRANCH  59  83
BRANCH  71  94
ATOM     94  C   UNL A   1      44.525  28.535  35.891  1.00  0.00     0.023 A 
ATOM     95  C   UNL A   1      44.377  27.391  36.694  1.00  0.00     0.031 A 
ATOM     96  C   UNL A   1      45.819  28.870  35.453  1.00  0.00     0.131 A 
ATOM     97  C   UNL A   1      45.510  26.667  37.098  1.00  0.00     0.055 A 
ATOM     98  C   UNL A   1      46.934  28.107  35.801  1.00  0.00     0.041 A 
ATOM     99  F   UNL A   1      46.022  29.952  34.685  1.00  0.00    -0.206 F 
ATOM    100  C   UNL A   1      46.786  27.009  36.643  1.00  0.00     0.022 A 
BRANCH  97 101
ATOM    101  S   UNL A   1      45.308  25.349  38.329  1.00  0.00     0.124 S 
ATOM    102  O   UNL A   1      44.355  25.944  39.260  1.00  0.00    -0.237 OA
ATOM    103  O   UNL A   1      44.805  24.244  37.520  1.00  0.00    -0.237 OA
ATOM    104  O   UNL A   1      46.659  25.165  38.858  1.00  0.00    -0.744 OA
ENDBRANCH  97 101
ENDBRANCH  71  94
ENDBRANCH  45  46
ENDBRANCH  38  40
ENDBRANCH  37  38
ENDBRANCH  36  37
ENDBRANCH  35  36
ENDBRANCH   1  35
TORSDOF 21
ENDMDL
MODEL 2
REMARK VINA RESULT:     -11.9      0.694      7.275
REMARK SMILES CS(=O)(=O)c1ccc(C2=NN(c3ccc(C(=O)OCCOCCOC(=O)c4ccc(-c5c6nc(c(-c7cc(S(=O)(=O)[O-])ccc7F)c7ccc([nH]7)c(-c7cc(S(=O)(=O)[O-])ccc7F)c7nc(c(-c8cc(S(=O)(=O)[O-])ccc8F)c8ccc5[nH]8)C=C7)C=C6)cc4)cc3)[C@H](c3ccc(F)cc3)C2)cc1
REMARK SMILES IDX 21 1 20 2 19 3 18 4 16 5 17 6 15 7 12 8 13 9 91 10 14 11
REMARK SMILES IDX 90 12 11 13 9 14 10 15 100 16 92 17 8 18 5 19 6 20 102 21
REMARK SMILES IDX 7 22 101 23 2 24 1 25 3 26 4 27 93 28 94 29 99 30 95 31
REMARK SMILES IDX 98 32 96 33 97 34 22 35 23 36 24 37 25 38 26 39 27 40 28 41
REMARK SMILES IDX 89 42 29 43 88 44 30 45 31 46 32 47 82 48 33 49 87 50 81 51
REMARK SMILES IDX 83 52 34 53 86 54 80 55 79 56 35 58 67 59 47 60 66 61 48 62
REMARK SMILES IDX 51 63 65 64 84 65 49 66 50 67 64 69 85 70 52 71 36 72 37 73
REMARK SMILES IDX 45 74 38 75 44 76 46 77 43 78 39 79 40 80 41 81 42 82 68 83
REMARK SMILES IDX 69 84 77 85 70 86 76 87 78 88 75 89 71 90 72 91 73 92 74 93
REMARK SMILES IDX 53 94 54 95 62 96 55 97 61 98 63 99 60 100 56 101 57 102
REMARK SMILES IDX 58 103 59 104
REMARK H PARENT 83 57 51 68
REMARK Flexibility Score: inf
ROOT
ATOM      1  O   UNL A   1      35.522  34.198  28.894  1.00  0.00    -0.374 OA
ENDROOT
BRANCH   1   2
ATOM      2  C   UNL A   1      35.865  32.933  28.322  1.00  0.00     0.202 C 
BRANCH   2   3
ATOM      3  C   UNL A   1      35.116  31.719  28.877  1.00  0.00     0.261 C 
BRANCH   3   4
ATOM      4  O   UNL A   1      34.803  30.791  27.826  1.00  0.00    -0.460 OA
BRANCH   4   5
ATOM      5  C   UNL A   1      33.503  30.747  27.454  1.00  0.00     0.338 C 
ATOM      6  O   UNL A   1      32.719  31.685  27.417  1.00  0.00    -0.246 OA
BRANCH   5   7
ATOM      7  C   UNL A   1      33.142  29.386  26.983  1.00  0.00     0.060 A 
ATOM      8  C   UNL A   1      32.495  26.914  25.825  1.00  0.00     0.060 A 
ATOM      9  C   UNL A   1      33.775  27.451  25.664  1.00  0.00     0.029 A 
ATOM     10  C   UNL A   1      31.590  27.562  26.678  1.00  0.00     0.029 A 
ATOM     11  C   UNL A   1      34.095  28.684  26.234  1.00  0.00     0.018 A 
ATOM     12  C   UNL A   1      31.901  28.797  27.251  1.00  0.00     0.018 A 
BRANCH   8  13
ATOM     13  N   UNL A   1      32.042  25.873  25.009  1.00  0.00    -0.257 N 
ATOM     14  C   UNL A   1      32.402  23.994  24.073  1.00  0.00     0.071 C 
ATOM     15  N   UNL A   1      32.459  24.598  25.220  1.00  0.00    -0.176 NA
ATOM     16  C   UNL A   1      32.096  24.869  22.889  1.00  0.00     0.091 C 
ATOM     17  C   UNL A   1      31.762  26.186  23.599  1.00  0.00     0.144 C 
BRANCH  14  18
ATOM     18  C   UNL A   1      32.608  22.541  23.919  1.00  0.00    -0.002 A 
ATOM     19  C   UNL A   1      32.938  19.774  23.802  1.00  0.00     0.067 A 
ATOM     20  C   UNL A   1      33.629  20.513  24.766  1.00  0.00     0.021 A 
ATOM     21  C   UNL A   1      32.092  20.411  22.887  1.00  0.00     0.021 A 
ATOM     22  C   UNL A   1      33.468  21.898  24.819  1.00  0.00     0.011 A 
ATOM     23  C   UNL A   1      31.925  21.799  22.948  1.00  0.00     0.011 A 
BRANCH  19  24
ATOM     24  S   UNL A   1      33.112  18.004  23.776  1.00  0.00     0.175 S 
ATOM     25  C   UNL A   1      34.760  17.684  24.342  1.00  0.00     0.163 C 
ATOM     26  O   UNL A   1      33.025  17.600  22.386  1.00  0.00    -0.224 OA
ATOM     27  O   UNL A   1      32.210  17.460  24.773  1.00  0.00    -0.224 OA
ENDBRANCH  19  24
ENDBRANCH  14  18
BRANCH  17  28
ATOM     28  C   UNL A   1      30.351  26.741  23.455  1.00  0.00    -0.023 A 
ATOM     29  C   UNL A   1      29.205  26.076  23.919  1.00  0.00     0.009 A 
ATOM     30  C   UNL A   1      30.194  28.037  22.914  1.00  0.00     0.009 A 
ATOM     31  C   UNL A   1      27.949  26.687  23.844  1.00  0.00     0.039 A 
ATOM     32  C   UNL A   1      28.946  28.659  22.875  1.00  0.00     0.039 A 
ATOM     33  C   UNL A   1      27.834  27.975  23.337  1.00  0.00     0.123 A 
ATOM     34  F   UNL A   1      26.633  28.566  23.304  1.00  0.00    -0.207 F 
ENDBRANCH  17  28
ENDBRANCH   8  13
ENDBRANCH   5   7
ENDBRANCH   4   5
ENDBRANCH   3   4
ENDBRANCH   2   3
ENDBRANCH   1   2
BRANCH   1  35
ATOM     35  C   UNL A   1      34.534  34.976  28.219  1.00  0.00     0.202 C 
BRANCH  35  36
ATOM     36  C   UNL A   1      33.171  35.124  28.907  1.00  0.00     0.261 C 
BRANCH  36  37
ATOM     37  O   UNL A   1      33.137  34.502  30.202  1.00  0.00    -0.460 OA
BRANCH  37  38
ATOM     38  C   UNL A   1      33.401  35.345  31.228  1.00  0.00     0.338 C 
ATOM     39  O   UNL A   1      32.810  36.384  31.490  1.00  0.00    -0.246 OA
BRANCH  38  40
ATOM     40  C   UNL A   1      34.404  34.760  32.138  1.00  0.00     0.060 A 
ATOM     41  C   UNL A   1      35.677  35.342  32.136  1.00  0.00     0.016 A 
ATOM     42  C   UNL A   1      34.145  33.622  32.908  1.00  0.00     0.016 A 
ATOM     43  C   UNL A   1      36.717  34.746  32.843  1.00  0.00     0.010 A 
ATOM     44  C   UNL A   1      35.195  33.023  33.617  1.00  0.00     0.010 A 
ATOM     45  C   UNL A   1      36.496  33.555  33.547  1.00  0.00    -0.014 A 
BRANCH  45  46
ATOM     46  C   UNL A   1      37.674  32.797  34.043  1.00  0.00     0.031 A 
ATOM     47  C   UNL A   1      38.218  31.670  33.202  1.00  0.00     0.074 A 
ATOM     48  C   UNL A   1      38.303  33.162  35.174  1.00  0.00     0.049 A 
ATOM     49  N   UNL A   1      39.272  30.921  33.396  1.00  0.00    -0.248 NA
ATOM     50  C   UNL A   1      37.469  31.349  31.977  1.00  0.00     0.031 C 
ATOM     51  C   UNL A   1      37.890  34.259  36.050  1.00  0.00     0.029 A 
ATOM     52  N   UNL A   1      39.431  32.659  35.771  1.00  0.00    -0.354 N 
ATOM     53  C   UNL A   1      39.319  30.043  32.318  1.00  0.00     0.074 A 
ATOM     54  C   UNL A   1      38.156  30.322  31.502  1.00  0.00     0.031 C 
ATOM     55  C   UNL A   1      38.759  34.348  37.072  1.00  0.00     0.029 A 
ATOM     56  C   UNL A   1      39.772  33.303  36.938  1.00  0.00     0.049 A 
ATOM     57  H   UNL A   1      39.946  31.907  35.401  1.00  0.00     0.167 HD
ATOM     58  C   UNL A   1      40.252  29.102  32.025  1.00  0.00     0.034 A 
ATOM     59  C   UNL A   1      40.784  33.072  37.798  1.00  0.00     0.034 A 
ATOM     60  C   UNL A   1      41.399  28.825  32.855  1.00  0.00     0.049 A 
ATOM     61  C   UNL A   1      41.776  31.977  37.485  1.00  0.00     0.074 A 
ATOM     62  C   UNL A   1      42.406  27.897  32.655  1.00  0.00     0.029 A 
ATOM     63  N   UNL A   1      41.690  29.468  34.053  1.00  0.00    -0.354 N 
ATOM     64  N   UNL A   1      41.817  31.165  36.452  1.00  0.00    -0.248 NA
ATOM     65  C   UNL A   1      42.870  31.784  38.444  1.00  0.00     0.031 C 
ATOM     66  C   UNL A   1      43.264  27.931  33.761  1.00  0.00     0.029 A 
ATOM     67  C   UNL A   1      42.842  28.938  34.614  1.00  0.00     0.049 A 
ATOM     68  H   UNL A   1      41.154  30.196  34.446  1.00  0.00     0.167 HD
ATOM     69  C   UNL A   1      42.961  30.389  36.625  1.00  0.00     0.074 A 
ATOM     70  C   UNL A   1      43.589  30.846  37.848  1.00  0.00     0.031 C 
ATOM     71  C   UNL A   1      43.452  29.393  35.842  1.00  0.00     0.034 A 
BRANCH  58  72
ATOM     72  C   UNL A   1      40.031  28.277  30.779  1.00  0.00     0.023 A 
ATOM     73  C   UNL A   1      40.706  28.552  29.577  1.00  0.00     0.031 A 
ATOM     74  C   UNL A   1      39.101  27.221  30.783  1.00  0.00     0.131 A 
ATOM     75  C   UNL A   1      40.389  27.835  28.413  1.00  0.00     0.055 A 
ATOM     76  C   UNL A   1      38.849  26.457  29.642  1.00  0.00     0.041 A 
ATOM     77  F   UNL A   1      38.409  26.925  31.894  1.00  0.00    -0.206 F 
ATOM     78  C   UNL A   1      39.483  26.771  28.444  1.00  0.00     0.022 A 
BRANCH  75  79
ATOM     79  S   UNL A   1      41.066  28.402  26.829  1.00  0.00     0.124 S 
ATOM     80  O   UNL A   1      42.309  29.040  27.252  1.00  0.00    -0.237 OA
ATOM     81  O   UNL A   1      41.207  27.158  26.082  1.00  0.00    -0.237 OA
ATOM     82  O   UNL A   1      40.043  29.318  26.327  1.00  0.00    -0.744 OA
ENDBRANCH  75  79
ENDBRANCH  58  72
BRANCH  59  83
ATOM     83  C   UNL A   1      40.907  33.870  39.052  1.00  0.00     0.023 A 
ATOM     84  C   UNL A   1      40.147  33.565  40.193  1.00  0.00     0.031 A 
ATOM     85  C   UNL A   1      41.748  34.997  39.103  1.00  0.00     0.131 A 
ATOM     86  C   UNL A   1      40.204  34.405  41.316  1.00  0.00     0.055 A 
ATOM     87  C   UNL A   1      41.842  35.798  40.242  1.00  0.00     0.041 A 
ATOM     88  F   UNL A   1      42.498  35.334  38.041  1.00  0.00    -0.206 F 
ATOM     89  C   UNL A   1      41.054  35.512  41.354  1.00  0.00     0.022 A 
BRANCH  86  90
ATOM     90  S   UNL A   1      39.080  34.078  42.703  1.00  0.00     0.124 S 
ATOM     91  O   UNL A   1      39.442  32.712  43.064  1.00  0.00    -0.237 OA
ATOM     92  O   UNL A   1      39.464  35.117  43.653  1.00  0.00    -0.237 OA
ATOM     93  O   UNL A   1      37.754  34.238  42.111  1.00  0.00    -0.744 OA
ENDBRANCH  86  90
ENDBRANCH  59  83
BRANCH  71  94
ATOM     94  C   UNL A   1      44.761  28.768  36.271  1.00  0.00     0.023 A 
ATOM     95  C   UNL A   1      44.806  27.636  37.104  1.00  0.00     0.031 A 
ATOM     96  C   UNL A   1      45.982  29.339  35.868  1.00  0.00     0.131 A 
ATOM     97  C   UNL A   1      46.041  27.157  37.569  1.00  0.00     0.055 A 
ATOM     98  C   UNL A   1      47.209  28.816  36.278  1.00  0.00     0.041 A 
ATOM     99  F   UNL A   1      46.001  30.420  35.074  1.00  0.00    -0.206 F 
ATOM    100  C   UNL A   1      47.244  27.731  37.148  1.00  0.00     0.022 A 
BRANCH  97 101
ATOM    101  S   UNL A   1      46.051  25.855  38.832  1.00  0.00     0.124 S 
ATOM    102  O   UNL A   1      46.209  26.625  40.062  1.00  0.00    -0.237 OA
ATOM    103  O   UNL A   1      44.749  25.225  38.638  1.00  0.00    -0.237 OA
ATOM    104  O   UNL A   1      47.200  25.030  38.465  1.00  0.00    -0.744 OA
ENDBRANCH  97 101
ENDBRANCH  71  94
ENDBRANCH  45  46
ENDBRANCH  38  40
ENDBRANCH  37  38
ENDBRANCH  36  37
ENDBRANCH  35  36
ENDBRANCH   1  35
TORSDOF 21
ENDMDL
MODEL 3
REMARK VINA RESULT:     -11.6      1.762      2.060
REMARK SMILES CS(=O)(=O)c1ccc(C2=NN(c3ccc(C(=O)OCCOCCOC(=O)c4ccc(-c5c6nc(c(-c7cc(S(=O)(=O)[O-])ccc7F)c7ccc([nH]7)c(-c7cc(S(=O)(=O)[O-])ccc7F)c7nc(c(-c8cc(S(=O)(=O)[O-])ccc8F)c8ccc5[nH]8)C=C7)C=C6)cc4)cc3)[C@H](c3ccc(F)cc3)C2)cc1
REMARK SMILES IDX 21 1 20 2 19 3 18 4 16 5 17 6 15 7 12 8 13 9 91 10 14 11
REMARK SMILES IDX 90 12 11 13 9 14 10 15 100 16 92 17 8 18 5 19 6 20 102 21
REMARK SMILES IDX 7 22 101 23 2 24 1 25 3 26 4 27 93 28 94 29 99 30 95 31
REMARK SMILES IDX 98 32 96 33 97 34 22 35 23 36 24 37 25 38 26 39 27 40 28 41
REMARK SMILES IDX 89 42 29 43 88 44 30 45 31 46 32 47 82 48 33 49 87 50 81 51
REMARK SMILES IDX 83 52 34 53 86 54 80 55 79 56 35 58 67 59 47 60 66 61 48 62
REMARK SMILES IDX 51 63 65 64 84 65 49 66 50 67 64 69 85 70 52 71 36 72 37 73
REMARK SMILES IDX 45 74 38 75 44 76 46 77 43 78 39 79 40 80 41 81 42 82 68 83
REMARK SMILES IDX 69 84 77 85 70 86 76 87 78 88 75 89 71 90 72 91 73 92 74 93
REMARK SMILES IDX 53 94 54 95 62 96 55 97 61 98 63 99 60 100 56 101 57 102
REMARK SMILES IDX 58 103 59 104
REMARK H PARENT 83 57 51 68
REMARK Flexibility Score: inf
ROOT
ATOM      1  O   UNL A   1      35.315  34.412  28.860  1.00  0.00    -0.374 OA
ENDROOT
BRANCH   1   2
ATOM      2  C   UNL A   1      35.611  33.308  28.000  1.00  0.00     0.202 C 
BRANCH   2   3
ATOM      3  C   UNL A   1      35.370  31.915  28.588  1.00  0.00     0.261 C 
BRANCH   3   4
ATOM      4  O   UNL A   1      34.947  30.998  27.566  1.00  0.00    -0.460 OA
BRANCH   4   5
ATOM      5  C   UNL A   1      33.609  30.851  27.431  1.00  0.00     0.338 C 
ATOM      6  O   UNL A   1      32.759  31.719  27.572  1.00  0.00    -0.246 OA
BRANCH   5   7
ATOM      7  C   UNL A   1      33.279  29.476  26.979  1.00  0.00     0.060 A 
ATOM      8  C   UNL A   1      32.688  26.975  25.853  1.00  0.00     0.060 A 
ATOM      9  C   UNL A   1      33.954  27.541  25.681  1.00  0.00     0.029 A 
ATOM     10  C   UNL A   1      31.770  27.612  26.701  1.00  0.00     0.029 A 
ATOM     11  C   UNL A   1      34.246  28.789  26.235  1.00  0.00     0.018 A 
ATOM     12  C   UNL A   1      32.054  28.861  27.258  1.00  0.00     0.018 A 
BRANCH   8  13
ATOM     13  N   UNL A   1      32.257  25.914  25.051  1.00  0.00    -0.257 N 
ATOM     14  C   UNL A   1      32.651  24.021  24.157  1.00  0.00     0.071 C 
ATOM     15  N   UNL A   1      32.686  24.648  25.293  1.00  0.00    -0.176 NA
ATOM     16  C   UNL A   1      32.350  24.870  22.952  1.00  0.00     0.091 C 
ATOM     17  C   UNL A   1      31.992  26.196  23.633  1.00  0.00     0.144 C 
BRANCH  14  18
ATOM     18  C   UNL A   1      32.874  22.568  24.034  1.00  0.00    -0.002 A 
ATOM     19  C   UNL A   1      33.250  19.805  23.978  1.00  0.00     0.067 A 
ATOM     20  C   UNL A   1      33.980  20.584  24.880  1.00  0.00     0.021 A 
ATOM     21  C   UNL A   1      32.342  20.399  23.095  1.00  0.00     0.021 A 
ATOM     22  C   UNL A   1      33.796  21.967  24.902  1.00  0.00     0.011 A 
ATOM     23  C   UNL A   1      32.153  21.786  23.125  1.00  0.00     0.011 A 
BRANCH  19  24
ATOM     24  S   UNL A   1      33.456  18.038  23.993  1.00  0.00     0.175 S 
ATOM     25  C   UNL A   1      32.526  17.467  25.388  1.00  0.00     0.163 C 
ATOM     26  O   UNL A   1      34.861  17.788  24.251  1.00  0.00    -0.224 OA
ATOM     27  O   UNL A   1      32.806  17.511  22.808  1.00  0.00    -0.224 OA
ENDBRANCH  19  24
ENDBRANCH  14  18
BRANCH  17  28
ATOM     28  C   UNL A   1      30.576  26.732  23.460  1.00  0.00    -0.023 A 
ATOM     29  C   UNL A   1      29.439  26.100  23.986  1.00  0.00     0.009 A 
ATOM     30  C   UNL A   1      30.408  27.981  22.822  1.00  0.00     0.009 A 
ATOM     31  C   UNL A   1      28.179  26.698  23.876  1.00  0.00     0.039 A 
ATOM     32  C   UNL A   1      29.157  28.594  22.747  1.00  0.00     0.039 A 
ATOM     33  C   UNL A   1      28.052  27.942  23.272  1.00  0.00     0.123 A 
ATOM     34  F   UNL A   1      26.848  28.524  23.205  1.00  0.00    -0.207 F 
ENDBRANCH  17  28
ENDBRANCH   8  13
ENDBRANCH   5   7
ENDBRANCH   4   5
ENDBRANCH   3   4
ENDBRANCH   2   3
ENDBRANCH   1   2
BRANCH   1  35
ATOM     35  C   UNL A   1      34.400  35.394  28.375  1.00  0.00     0.202 C 
BRANCH  35  36
ATOM     36  C   UNL A   1      33.002  35.418  29.003  1.00  0.00     0.261 C 
BRANCH  36  37
ATOM     37  O   UNL A   1      32.921  34.626  30.199  1.00  0.00    -0.460 OA
BRANCH  37  38
ATOM     38  C   UNL A   1      33.165  35.317  31.338  1.00  0.00     0.338 C 
ATOM     39  O   UNL A   1      32.498  36.237  31.790  1.00  0.00    -0.246 OA
BRANCH  38  40
ATOM     40  C   UNL A   1      34.268  34.698  32.098  1.00  0.00     0.060 A 
ATOM     41  C   UNL A   1      35.492  35.375  32.102  1.00  0.00     0.016 A 
ATOM     42  C   UNL A   1      34.145  33.450  32.715  1.00  0.00     0.016 A 
ATOM     43  C   UNL A   1      36.619  34.776  32.657  1.00  0.00     0.010 A 
ATOM     44  C   UNL A   1      35.281  32.847  33.271  1.00  0.00     0.010 A 
ATOM     45  C   UNL A   1      36.533  33.486  33.200  1.00  0.00    -0.014 A 
BRANCH  45  46
ATOM     46  C   UNL A   1      37.793  32.766  33.515  1.00  0.00     0.031 A 
ATOM     47  C   UNL A   1      38.525  33.105  34.789  1.00  0.00     0.074 A 
ATOM     48  C   UNL A   1      38.229  31.764  32.730  1.00  0.00     0.049 A 
ATOM     49  N   UNL A   1      39.598  32.562  35.302  1.00  0.00    -0.248 NA
ATOM     50  C   UNL A   1      37.968  34.208  35.587  1.00  0.00     0.031 C 
ATOM     51  C   UNL A   1      37.585  31.322  31.493  1.00  0.00     0.029 A 
ATOM     52  N   UNL A   1      39.310  30.930  32.865  1.00  0.00    -0.354 N 
ATOM     53  C   UNL A   1      39.843  33.249  36.486  1.00  0.00     0.074 A 
ATOM     54  C   UNL A   1      38.834  34.283  36.585  1.00  0.00     0.031 C 
ATOM     55  C   UNL A   1      38.283  30.291  30.985  1.00  0.00     0.029 A 
ATOM     56  C   UNL A   1      39.433  30.017  31.844  1.00  0.00     0.049 A 
ATOM     57  H   UNL A   1      39.939  30.981  33.620  1.00  0.00     0.167 HD
ATOM     58  C   UNL A   1      40.808  33.031  37.415  1.00  0.00     0.034 A 
ATOM     59  C   UNL A   1      40.370  29.072  31.627  1.00  0.00     0.034 A 
ATOM     60  C   UNL A   1      41.816  32.005  37.297  1.00  0.00     0.049 A 
ATOM     61  C   UNL A   1      41.474  28.887  32.641  1.00  0.00     0.074 A 
ATOM     62  C   UNL A   1      42.840  31.694  38.175  1.00  0.00     0.029 A 
ATOM     63  N   UNL A   1      41.936  31.126  36.227  1.00  0.00    -0.354 N 
ATOM     64  N   UNL A   1      41.683  29.534  33.766  1.00  0.00    -0.248 NA
ATOM     65  C   UNL A   1      42.453  27.829  32.366  1.00  0.00     0.031 C 
ATOM     66  C   UNL A   1      43.616  30.678  37.606  1.00  0.00     0.029 A 
ATOM     67  C   UNL A   1      43.031  30.295  36.410  1.00  0.00     0.049 A 
ATOM     68  H   UNL A   1      41.331  31.098  35.450  1.00  0.00     0.167 HD
ATOM     69  C   UNL A   1      42.800  28.936  34.346  1.00  0.00     0.074 A 
ATOM     70  C   UNL A   1      43.203  27.865  33.456  1.00  0.00     0.031 C 
ATOM     71  C   UNL A   1      43.432  29.239  35.509  1.00  0.00     0.034 A 
BRANCH  58  72
ATOM     72  C   UNL A   1      40.840  33.956  38.608  1.00  0.00     0.023 A 
ATOM     73  C   UNL A   1      41.626  35.123  38.622  1.00  0.00     0.031 A 
ATOM     74  C   UNL A   1      40.104  33.647  39.766  1.00  0.00     0.131 A 
ATOM     75  C   UNL A   1      41.717  35.894  39.791  1.00  0.00     0.055 A 
ATOM     76  C   UNL A   1      40.135  34.462  40.900  1.00  0.00     0.041 A 
ATOM     77  F   UNL A   1      39.354  32.535  39.822  1.00  0.00    -0.206 F 
ATOM     78  C   UNL A   1      40.955  35.585  40.922  1.00  0.00     0.022 A 
BRANCH  75  79
ATOM     79  S   UNL A   1      42.951  37.221  39.865  1.00  0.00     0.124 S 
ATOM     80  O   UNL A   1      43.870  36.712  40.880  1.00  0.00    -0.237 OA
ATOM     81  O   UNL A   1      43.460  37.255  38.500  1.00  0.00    -0.237 OA
ATOM     82  O   UNL A   1      42.173  38.391  40.270  1.00  0.00    -0.744 OA
ENDBRANCH  75  79
ENDBRANCH  58  72
BRANCH  59  83
ATOM     83  C   UNL A   1      40.330  28.237  30.390  1.00  0.00     0.023 A 
ATOM     84  C   UNL A   1      41.190  28.489  29.309  1.00  0.00     0.031 A 
ATOM     85  C   UNL A   1      39.379  27.210  30.251  1.00  0.00     0.131 A 
ATOM     86  C   UNL A   1      41.048  27.758  28.119  1.00  0.00     0.055 A 
ATOM     87  C   UNL A   1      39.278  26.450  29.085  1.00  0.00     0.041 A 
ATOM     88  F   UNL A   1      38.533  26.927  31.255  1.00  0.00    -0.206 F 
ATOM     89  C   UNL A   1      40.107  26.733  28.003  1.00  0.00     0.022 A 
BRANCH  86  90
ATOM     90  S   UNL A   1      42.058  28.225  26.686  1.00  0.00     0.124 S 
ATOM     91  O   UNL A   1      41.095  28.953  25.868  1.00  0.00    -0.237 OA
ATOM     92  O   UNL A   1      43.109  29.025  27.305  1.00  0.00    -0.237 OA
ATOM     93  O   UNL A   1      42.493  26.940  26.143  1.00  0.00    -0.744 OA
ENDBRANCH  86  90
ENDBRANCH  59  83
BRANCH  71  94
ATOM     94  C   UNL A   1      44.599  28.361  35.902  1.00  0.00     0.023 A 
ATOM     95  C   UNL A   1      45.913  28.644  35.489  1.00  0.00     0.031 A 
ATOM     96  C   UNL A   1      44.385  27.202  36.671  1.00  0.00     0.131 A 
ATOM     97  C   UNL A   1      46.949  27.742  35.781  1.00  0.00     0.055 A 
ATOM     98  C   UNL A   1      45.430  26.345  37.017  1.00  0.00     0.041 A 
ATOM     99  F   UNL A   1      43.152  26.881  37.092  1.00  0.00    -0.206 F 
ATOM    100  C   UNL A   1      46.718  26.602  36.556  1.00  0.00     0.022 A 
BRANCH  97 101
ATOM    101  S   UNL A   1      48.577  28.011  35.027  1.00  0.00     0.124 S 
ATOM    102  O   UNL A   1      49.039  29.210  35.718  1.00  0.00    -0.237 OA
ATOM    103  O   UNL A   1      49.279  26.775  35.356  1.00  0.00    -0.237 OA
ATOM    104  O   UNL A   1      48.272  28.192  33.608  1.00  0.00    -0.744 OA
ENDBRANCH  97 101
ENDBRANCH  71  94
ENDBRANCH  45  46
ENDBRANCH  38  40
ENDBRANCH  37  38
ENDBRANCH  36  37
ENDBRANCH  35  36
ENDBRANCH   1  35
TORSDOF 21
ENDMDL
