MODEL 1
REMARK VINA RESULT:     -11.9      0.000      0.000
REMARK SMILES O=C(OCCOCCOC(=O)[C@@H]1CCCC[C@@H]1C(=O)Nc1cc(C(F)(F)F)cc(C(F)(F)F)c1)c1ccc(-c2c3nc(c(-c4cc(S(=O)(=O)[O-])ccc4F)c4ccc([nH]4)c(-c4cc(S(=O)(=O)[O-])ccc4F)c4nc(c(-c5cc(S(=O)(=O)[O-])ccc5F)c5ccc2[nH]5)C=C4)C=C3)cc1
REMARK SMILES IDX 6 1 5 2 4 3 3 4 2 5 1 6 35 7 36 8 97 9 37 10 96 11 38 12
REMARK SMILES IDX 39 13 40 14 90 15 41 16 95 17 89 18 91 19 42 20 94 21 88 22
REMARK SMILES IDX 87 23 43 25 75 26 55 27 74 28 56 29 59 30 73 31 92 32 57 33
REMARK SMILES IDX 58 34 72 36 93 37 60 38 44 39 45 40 53 41 46 42 52 43 54 44
REMARK SMILES IDX 51 45 47 46 48 47 49 48 50 49 76 50 77 51 85 52 78 53 84 54
REMARK SMILES IDX 86 55 83 56 79 57 80 58 81 59 82 60 61 61 62 62 70 63 63 64
REMARK SMILES IDX 69 65 71 66 68 67 64 68 65 69 66 70 67 71 7 72 8 73 9 74
REMARK SMILES IDX 10 75 11 76 12 77 13 78 17 79 14 80 16 81 15 82 18 83 19 84
REMARK SMILES IDX 20 85 21 87 22 88 34 89 23 90 29 91 28 92 24 93 25 94 26 95
REMARK SMILES IDX 27 96 30 97 31 98 32 99 33 100
REMARK H PARENT 91 24 59 35 20 86
REMARK Flexibility Score: inf
ROOT
ATOM      1  O   UNL A   1      31.984  28.730  24.544  1.00  0.00    -0.374 OA
ENDROOT
BRANCH   1   2
ATOM      2  C   UNL A   1      31.117  29.820  24.860  1.00  0.00     0.202 C 
BRANCH   2   3
ATOM      3  C   UNL A   1      31.417  30.818  26.001  1.00  0.00     0.261 C 
BRANCH   3   4
ATOM      4  O   UNL A   1      32.809  30.955  26.367  1.00  0.00    -0.460 OA
BRANCH   4   5
ATOM      5  C   UNL A   1      33.331  31.885  27.222  1.00  0.00     0.338 C 
ATOM      6  O   UNL A   1      32.789  32.984  27.365  1.00  0.00    -0.246 OA
BRANCH   5   7
ATOM      7  C   UNL A   1      34.609  31.614  27.923  1.00  0.00     0.060 A 
ATOM      8  C   UNL A   1      34.831  30.372  28.493  1.00  0.00     0.016 A 
ATOM      9  C   UNL A   1      35.644  32.552  27.975  1.00  0.00     0.016 A 
ATOM     10  C   UNL A   1      35.910  30.087  29.261  1.00  0.00     0.010 A 
ATOM     11  C   UNL A   1      36.849  32.212  28.606  1.00  0.00     0.010 A 
ATOM     12  C   UNL A   1      36.965  30.969  29.243  1.00  0.00    -0.014 A 
BRANCH  12  13
ATOM     13  C   UNL A   1      38.120  30.486  29.993  1.00  0.00     0.031 A 
ATOM     14  C   UNL A   1      39.097  29.642  29.263  1.00  0.00     0.074 A 
ATOM     15  C   UNL A   1      38.380  31.061  31.184  1.00  0.00     0.049 A 
ATOM     16  N   UNL A   1      40.160  29.047  29.711  1.00  0.00    -0.248 NA
ATOM     17  C   UNL A   1      38.843  29.451  27.825  1.00  0.00     0.031 C 
ATOM     18  C   UNL A   1      37.552  32.103  31.819  1.00  0.00     0.029 A 
ATOM     19  N   UNL A   1      39.432  30.919  32.039  1.00  0.00    -0.354 N 
ATOM     20  C   UNL A   1      40.665  28.343  28.629  1.00  0.00     0.074 A 
ATOM     21  C   UNL A   1      39.807  28.607  27.499  1.00  0.00     0.031 C 
ATOM     22  C   UNL A   1      38.151  32.523  32.940  1.00  0.00     0.029 A 
ATOM     23  C   UNL A   1      39.310  31.680  33.178  1.00  0.00     0.049 A 
ATOM     24  H   UNL A   1      40.201  30.334  31.857  1.00  0.00     0.167 HD
ATOM     25  C   UNL A   1      41.739  27.520  28.632  1.00  0.00     0.034 A 
ATOM     26  C   UNL A   1      40.008  31.614  34.325  1.00  0.00     0.034 A 
ATOM     27  C   UNL A   1      42.520  27.315  29.827  1.00  0.00     0.049 A 
ATOM     28  C   UNL A   1      41.109  30.593  34.363  1.00  0.00     0.074 A 
ATOM     29  C   UNL A   1      43.563  26.442  30.051  1.00  0.00     0.029 A 
ATOM     30  N   UNL A   1      42.316  28.010  31.022  1.00  0.00    -0.354 N 
ATOM     31  N   UNL A   1      41.510  29.790  33.398  1.00  0.00    -0.248 NA
ATOM     32  C   UNL A   1      41.836  30.442  35.622  1.00  0.00     0.031 C 
ATOM     33  C   UNL A   1      43.934  26.554  31.397  1.00  0.00     0.029 A 
ATOM     34  C   UNL A   1      43.190  27.565  31.994  1.00  0.00     0.049 A 
ATOM     35  H   UNL A   1      41.643  28.718  31.153  1.00  0.00     0.167 HD
ATOM     36  C   UNL A   1      42.550  29.043  33.929  1.00  0.00     0.074 A 
ATOM     37  C   UNL A   1      42.716  29.503  35.299  1.00  0.00     0.031 C 
ATOM     38  C   UNL A   1      43.304  28.075  33.346  1.00  0.00     0.034 A 
BRANCH  25  39
ATOM     39  C   UNL A   1      41.959  26.703  27.384  1.00  0.00     0.023 A 
ATOM     40  C   UNL A   1      41.518  25.371  27.270  1.00  0.00     0.031 A 
ATOM     41  C   UNL A   1      42.787  27.206  26.365  1.00  0.00     0.131 A 
ATOM     42  C   UNL A   1      42.014  24.556  26.239  1.00  0.00     0.055 A 
ATOM     43  C   UNL A   1      43.190  26.420  25.284  1.00  0.00     0.041 A 
ATOM     44  F   UNL A   1      43.276  28.454  26.434  1.00  0.00    -0.206 F 
ATOM     45  C   UNL A   1      42.826  25.078  25.230  1.00  0.00     0.022 A 
BRANCH  42  46
ATOM     46  S   UNL A   1      41.780  22.759  26.368  1.00  0.00     0.124 S 
ATOM     47  O   UNL A   1      40.323  22.652  26.372  1.00  0.00    -0.237 OA
ATOM     48  O   UNL A   1      42.454  22.265  25.174  1.00  0.00    -0.237 OA
ATOM     49  O   UNL A   1      42.424  22.418  27.635  1.00  0.00    -0.744 OA
ENDBRANCH  42  46
ENDBRANCH  25  39
BRANCH  26  50
ATOM     50  C   UNL A   1      39.579  32.411  35.510  1.00  0.00     0.023 A 
ATOM     51  C   UNL A   1      39.967  33.746  35.689  1.00  0.00     0.031 A 
ATOM     52  C   UNL A   1      38.733  31.839  36.486  1.00  0.00     0.131 A 
ATOM     53  C   UNL A   1      39.517  34.459  36.815  1.00  0.00     0.055 A 
ATOM     54  C   UNL A   1      38.246  32.567  37.572  1.00  0.00     0.041 A 
ATOM     55  F   UNL A   1      38.329  30.562  36.373  1.00  0.00    -0.206 F 
ATOM     56  C   UNL A   1      38.646  33.885  37.747  1.00  0.00     0.022 A 
BRANCH  53  57
ATOM     57  S   UNL A   1      40.131  36.145  37.085  1.00  0.00     0.124 S 
ATOM     58  O   UNL A   1      39.278  36.600  38.177  1.00  0.00    -0.237 OA
ATOM     59  O   UNL A   1      41.531  35.908  37.418  1.00  0.00    -0.237 OA
ATOM     60  O   UNL A   1      39.901  36.802  35.800  1.00  0.00    -0.744 OA
ENDBRANCH  53  57
ENDBRANCH  26  50
BRANCH  38  61
ATOM     61  C   UNL A   1      44.416  27.508  34.178  1.00  0.00     0.023 A 
ATOM     62  C   UNL A   1      44.250  26.343  34.941  1.00  0.00     0.031 A 
ATOM     63  C   UNL A   1      45.679  28.126  34.153  1.00  0.00     0.131 A 
ATOM     64  C   UNL A   1      45.332  25.842  35.674  1.00  0.00     0.055 A 
ATOM     65  C   UNL A   1      46.766  27.589  34.835  1.00  0.00     0.041 A 
ATOM     66  F   UNL A   1      45.876  29.245  33.437  1.00  0.00    -0.206 F 
ATOM     67  C   UNL A   1      46.593  26.443  35.607  1.00  0.00     0.022 A 
BRANCH  64  68
ATOM     68  S   UNL A   1      45.058  24.421  36.764  1.00  0.00     0.124 S 
ATOM     69  O   UNL A   1      44.187  23.581  35.949  1.00  0.00    -0.237 OA
ATOM     70  O   UNL A   1      46.413  23.921  36.975  1.00  0.00    -0.237 OA
ATOM     71  O   UNL A   1      44.427  25.012  37.942  1.00  0.00    -0.744 OA
ENDBRANCH  64  68
ENDBRANCH  38  61
ENDBRANCH  12  13
ENDBRANCH   5   7
ENDBRANCH   4   5
ENDBRANCH   3   4
ENDBRANCH   2   3
ENDBRANCH   1   2
BRANCH   1  72
ATOM     72  C   UNL A   1      33.116  28.882  23.690  1.00  0.00     0.202 C 
BRANCH  72  73
ATOM     73  C   UNL A   1      33.970  27.648  23.456  1.00  0.00     0.261 C 
BRANCH  73  74
ATOM     74  O   UNL A   1      33.992  26.830  24.629  1.00  0.00    -0.463 OA
BRANCH  74  75
ATOM     75  C   UNL A   1      33.617  25.556  24.406  1.00  0.00     0.309 C 
ATOM     76  O   UNL A   1      33.989  24.875  23.453  1.00  0.00    -0.252 OA
BRANCH  75  77
ATOM     77  C   UNL A   1      32.718  24.972  25.476  1.00  0.00     0.111 C 
ATOM     78  C   UNL A   1      33.644  24.054  26.278  1.00  0.00     0.016 C 
ATOM     79  C   UNL A   1      31.291  24.438  25.132  1.00  0.00     0.093 C 
ATOM     80  C   UNL A   1      32.938  23.376  27.427  1.00  0.00     0.001 C 
ATOM     81  C   UNL A   1      30.713  23.602  26.295  1.00  0.00     0.014 C 
ATOM     82  C   UNL A   1      31.728  22.628  26.900  1.00  0.00     0.001 C 
BRANCH  79  83
ATOM     83  C   UNL A   1      31.093  23.618  23.863  1.00  0.00     0.228 C 
ATOM     84  O   UNL A   1      30.318  24.035  22.992  1.00  0.00    -0.274 OA
ATOM     85  N   UNL A   1      31.813  22.490  23.550  1.00  0.00    -0.326 N 
ATOM     86  H   UNL A   1      31.653  22.231  22.613  1.00  0.00     0.169 HD
BRANCH  85  87
ATOM     87  C   UNL A   1      32.718  21.585  24.168  1.00  0.00     0.042 A 
ATOM     88  C   UNL A   1      34.060  22.017  24.239  1.00  0.00     0.039 A 
ATOM     89  C   UNL A   1      32.451  20.283  24.587  1.00  0.00     0.039 A 
ATOM     90  C   UNL A   1      35.122  21.153  24.583  1.00  0.00     0.058 A 
ATOM     91  C   UNL A   1      33.504  19.366  24.844  1.00  0.00     0.058 A 
ATOM     92  C   UNL A   1      34.832  19.815  24.854  1.00  0.00     0.026 A 
BRANCH  90  93
ATOM     93  C   UNL A   1      36.548  21.652  24.601  1.00  0.00     0.416 C 
ATOM     94  F   UNL A   1      37.423  20.781  25.172  1.00  0.00    -0.166 F 
ATOM     95  F   UNL A   1      37.022  21.879  23.342  1.00  0.00    -0.166 F 
ATOM     96  F   UNL A   1      36.705  22.831  25.268  1.00  0.00    -0.166 F 
ENDBRANCH  90  93
BRANCH  91  97
ATOM     97  C   UNL A   1      33.248  17.877  24.963  1.00  0.00     0.416 C 
ATOM     98  F   UNL A   1      32.589  17.576  26.117  1.00  0.00    -0.166 F 
ATOM     99  F   UNL A   1      32.501  17.381  23.946  1.00  0.00    -0.166 F 
ATOM    100  F   UNL A   1      34.394  17.140  24.997  1.00  0.00    -0.166 F 
ENDBRANCH  91  97
ENDBRANCH  85  87
ENDBRANCH  79  83
ENDBRANCH  75  77
ENDBRANCH  74  75
ENDBRANCH  73  74
ENDBRANCH  72  73
ENDBRANCH   1  72
TORSDOF 21
ENDMDL
MODEL 2
REMARK VINA RESULT:     -11.7      1.467      2.317
REMARK SMILES O=C(OCCOCCOC(=O)[C@@H]1CCCC[C@@H]1C(=O)Nc1cc(C(F)(F)F)cc(C(F)(F)F)c1)c1ccc(-c2c3nc(c(-c4cc(S(=O)(=O)[O-])ccc4F)c4ccc([nH]4)c(-c4cc(S(=O)(=O)[O-])ccc4F)c4nc(c(-c5cc(S(=O)(=O)[O-])ccc5F)c5ccc2[nH]5)C=C4)C=C3)cc1
REMARK SMILES IDX 6 1 5 2 4 3 3 4 2 5 1 6 35 7 36 8 97 9 37 10 96 11 38 12
REMARK SMILES IDX 39 13 40 14 90 15 41 16 95 17 89 18 91 19 42 20 94 21 88 22
REMARK SMILES IDX 87 23 43 25 75 26 55 27 74 28 56 29 59 30 73 31 92 32 57 33
REMARK SMILES IDX 58 34 72 36 93 37 60 38 44 39 45 40 53 41 46 42 52 43 54 44
REMARK SMILES IDX 51 45 47 46 48 47 49 48 50 49 76 50 77 51 85 52 78 53 84 54
REMARK SMILES IDX 86 55 83 56 79 57 80 58 81 59 82 60 61 61 62 62 70 63 63 64
REMARK SMILES IDX 69 65 71 66 68 67 64 68 65 69 66 70 67 71 7 72 8 73 9 74
REMARK SMILES IDX 10 75 11 76 12 77 13 78 17 79 14 80 16 81 15 82 18 83 19 84
REMARK SMILES IDX 20 85 21 87 22 88 34 89 23 90 29 91 28 92 24 93 25 94 26 95
REMARK SMILES IDX 27 96 30 97 31 98 32 99 33 100
REMARK H PARENT 91 24 59 35 20 86
REMARK Flexibility Score: inf
ROOT
ATOM      1  O   UNL A   1      30.081  30.089  23.927  1.00  0.00    -0.374 OA
ENDROOT
BRANCH   1   2
ATOM      2  C   UNL A   1      30.925  30.531  24.991  1.00  0.00     0.202 C 
BRANCH   2   3
ATOM      3  C   UNL A   1      32.301  29.889  25.282  1.00  0.00     0.261 C 
BRANCH   3   4
ATOM      4  O   UNL A   1      32.768  29.995  26.646  1.00  0.00    -0.460 OA
BRANCH   4   5
ATOM      5  C   UNL A   1      33.390  31.077  27.205  1.00  0.00     0.338 C 
ATOM      6  O   UNL A   1      32.920  32.211  27.075  1.00  0.00    -0.246 OA
BRANCH   5   7
ATOM      7  C   UNL A   1      34.688  30.909  27.901  1.00  0.00     0.060 A 
ATOM      8  C   UNL A   1      35.024  29.682  28.443  1.00  0.00     0.016 A 
ATOM      9  C   UNL A   1      35.632  31.938  27.976  1.00  0.00     0.016 A 
ATOM     10  C   UNL A   1      36.126  29.480  29.206  1.00  0.00     0.010 A 
ATOM     11  C   UNL A   1      36.863  31.697  28.601  1.00  0.00     0.010 A 
ATOM     12  C   UNL A   1      37.095  30.456  29.210  1.00  0.00    -0.014 A 
BRANCH  12  13
ATOM     13  C   UNL A   1      38.289  30.065  29.951  1.00  0.00     0.031 A 
ATOM     14  C   UNL A   1      39.300  29.256  29.228  1.00  0.00     0.074 A 
ATOM     15  C   UNL A   1      38.538  30.692  31.117  1.00  0.00     0.049 A 
ATOM     16  N   UNL A   1      40.404  28.738  29.672  1.00  0.00    -0.248 NA
ATOM     17  C   UNL A   1      39.031  29.003  27.802  1.00  0.00     0.031 C 
ATOM     18  C   UNL A   1      37.663  31.706  31.736  1.00  0.00     0.029 A 
ATOM     19  N   UNL A   1      39.612  30.640  31.954  1.00  0.00    -0.354 N 
ATOM     20  C   UNL A   1      40.929  28.028  28.602  1.00  0.00     0.074 A 
ATOM     21  C   UNL A   1      40.035  28.206  27.482  1.00  0.00     0.031 C 
ATOM     22  C   UNL A   1      38.257  32.196  32.831  1.00  0.00     0.029 A 
ATOM     23  C   UNL A   1      39.468  31.429  33.071  1.00  0.00     0.049 A 
ATOM     24  H   UNL A   1      40.411  30.095  31.775  1.00  0.00     0.167 HD
ATOM     25  C   UNL A   1      42.048  27.269  28.609  1.00  0.00     0.034 A 
ATOM     26  C   UNL A   1      40.190  31.441  34.204  1.00  0.00     0.034 A 
ATOM     27  C   UNL A   1      42.863  27.149  29.793  1.00  0.00     0.049 A 
ATOM     28  C   UNL A   1      41.350  30.487  34.252  1.00  0.00     0.074 A 
ATOM     29  C   UNL A   1      43.959  26.346  30.022  1.00  0.00     0.029 A 
ATOM     30  N   UNL A   1      42.641  27.870  30.969  1.00  0.00    -0.354 N 
ATOM     31  N   UNL A   1      41.778  29.677  33.305  1.00  0.00    -0.248 NA
ATOM     32  C   UNL A   1      42.108  30.420  35.500  1.00  0.00     0.031 C 
ATOM     33  C   UNL A   1      44.348  26.523  31.356  1.00  0.00     0.029 A 
ATOM     34  C   UNL A   1      43.558  27.508  31.936  1.00  0.00     0.049 A 
ATOM     35  H   UNL A   1      41.931  28.542  31.092  1.00  0.00     0.167 HD
ATOM     36  C   UNL A   1      42.870  29.010  33.837  1.00  0.00     0.074 A 
ATOM     37  C   UNL A   1      43.035  29.523  35.188  1.00  0.00     0.031 C 
ATOM     38  C   UNL A   1      43.667  28.068  33.269  1.00  0.00     0.034 A 
BRANCH  25  39
ATOM     39  C   UNL A   1      42.292  26.426  27.383  1.00  0.00     0.023 A 
ATOM     40  C   UNL A   1      41.922  25.069  27.318  1.00  0.00     0.031 A 
ATOM     41  C   UNL A   1      43.075  26.940  26.334  1.00  0.00     0.131 A 
ATOM     42  C   UNL A   1      42.445  24.250  26.304  1.00  0.00     0.055 A 
ATOM     43  C   UNL A   1      43.502  26.143  25.271  1.00  0.00     0.041 A 
ATOM     44  F   UNL A   1      43.496  28.215  26.355  1.00  0.00    -0.206 F 
ATOM     45  C   UNL A   1      43.211  24.783  25.265  1.00  0.00     0.022 A 
BRANCH  42  46
ATOM     46  S   UNL A   1      42.312  22.447  26.493  1.00  0.00     0.124 S 
ATOM     47  O   UNL A   1      43.399  21.982  25.635  1.00  0.00    -0.237 OA
ATOM     48  O   UNL A   1      42.506  22.265  27.926  1.00  0.00    -0.237 OA
ATOM     49  O   UNL A   1      40.969  22.147  26.001  1.00  0.00    -0.744 OA
ENDBRANCH  42  46
ENDBRANCH  25  39
BRANCH  26  50
ATOM     50  C   UNL A   1      39.738  32.250  35.373  1.00  0.00     0.023 A 
ATOM     51  C   UNL A   1      40.141  33.580  35.557  1.00  0.00     0.031 A 
ATOM     52  C   UNL A   1      38.854  31.697  36.324  1.00  0.00     0.131 A 
ATOM     53  C   UNL A   1      39.669  34.306  36.667  1.00  0.00     0.055 A 
ATOM     54  C   UNL A   1      38.346  32.437  37.393  1.00  0.00     0.041 A 
ATOM     55  F   UNL A   1      38.434  30.426  36.205  1.00  0.00    -0.206 F 
ATOM     56  C   UNL A   1      38.762  33.750  37.573  1.00  0.00     0.022 A 
BRANCH  53  57
ATOM     57  S   UNL A   1      40.302  35.982  36.947  1.00  0.00     0.124 S 
ATOM     58  O   UNL A   1      39.737  36.297  38.256  1.00  0.00    -0.237 OA
ATOM     59  O   UNL A   1      41.744  35.774  36.903  1.00  0.00    -0.237 OA
ATOM     60  O   UNL A   1      39.750  36.747  35.831  1.00  0.00    -0.744 OA
ENDBRANCH  53  57
ENDBRANCH  26  50
BRANCH  38  61
ATOM     61  C   UNL A   1      44.827  27.593  34.096  1.00  0.00     0.023 A 
ATOM     62  C   UNL A   1      44.736  26.460  34.917  1.00  0.00     0.031 A 
ATOM     63  C   UNL A   1      46.058  28.267  34.006  1.00  0.00     0.131 A 
ATOM     64  C   UNL A   1      45.859  26.046  35.642  1.00  0.00     0.055 A 
ATOM     65  C   UNL A   1      47.186  27.814  34.682  1.00  0.00     0.041 A 
ATOM     66  F   UNL A   1      46.184  29.357  33.233  1.00  0.00    -0.206 F 
ATOM     67  C   UNL A   1      47.088  26.700  35.511  1.00  0.00     0.022 A 
BRANCH  64  68
ATOM     68  S   UNL A   1      45.681  24.669  36.806  1.00  0.00     0.124 S 
ATOM     69  O   UNL A   1      46.410  25.163  37.970  1.00  0.00    -0.237 OA
ATOM     70  O   UNL A   1      44.232  24.569  36.956  1.00  0.00    -0.237 OA
ATOM     71  O   UNL A   1      46.309  23.549  36.108  1.00  0.00    -0.744 OA
ENDBRANCH  64  68
ENDBRANCH  38  61
ENDBRANCH  12  13
ENDBRANCH   5   7
ENDBRANCH   4   5
ENDBRANCH   3   4
ENDBRANCH   2   3
ENDBRANCH   1   2
BRANCH   1  72
ATOM     72  C   UNL A   1      30.467  29.047  23.032  1.00  0.00     0.202 C 
BRANCH  72  73
ATOM     73  C   UNL A   1      29.992  27.644  23.368  1.00  0.00     0.261 C 
BRANCH  73  74
ATOM     74  O   UNL A   1      31.042  26.901  23.992  1.00  0.00    -0.463 OA
BRANCH  74  75
ATOM     75  C   UNL A   1      30.775  25.586  24.112  1.00  0.00     0.309 C 
ATOM     76  O   UNL A   1      30.106  25.088  25.014  1.00  0.00    -0.252 OA
BRANCH  75  77
ATOM     77  C   UNL A   1      31.324  24.731  22.989  1.00  0.00     0.111 C 
ATOM     78  C   UNL A   1      31.670  23.403  23.669  1.00  0.00     0.016 C 
ATOM     79  C   UNL A   1      32.349  25.305  21.960  1.00  0.00     0.093 C 
ATOM     80  C   UNL A   1      32.224  22.383  22.704  1.00  0.00     0.001 C 
ATOM     81  C   UNL A   1      33.004  24.175  21.135  1.00  0.00     0.014 C 
ATOM     82  C   UNL A   1      33.422  22.972  21.986  1.00  0.00     0.001 C 
BRANCH  79  83
ATOM     83  C   UNL A   1      33.481  26.193  22.459  1.00  0.00     0.228 C 
ATOM     84  O   UNL A   1      33.710  27.262  21.876  1.00  0.00    -0.274 OA
ATOM     85  N   UNL A   1      34.204  25.957  23.603  1.00  0.00    -0.326 N 
ATOM     86  H   UNL A   1      34.751  26.743  23.832  1.00  0.00     0.169 HD
BRANCH  85  87
ATOM     87  C   UNL A   1      34.402  24.921  24.557  1.00  0.00     0.042 A 
ATOM     88  C   UNL A   1      35.437  24.009  24.261  1.00  0.00     0.039 A 
ATOM     89  C   UNL A   1      33.611  24.639  25.668  1.00  0.00     0.039 A 
ATOM     90  C   UNL A   1      35.601  22.791  24.955  1.00  0.00     0.058 A 
ATOM     91  C   UNL A   1      33.690  23.382  26.324  1.00  0.00     0.058 A 
ATOM     92  C   UNL A   1      34.697  22.474  25.970  1.00  0.00     0.026 A 
BRANCH  90  93
ATOM     93  C   UNL A   1      36.699  21.825  24.571  1.00  0.00     0.416 C 
ATOM     94  F   UNL A   1      36.292  20.528  24.531  1.00  0.00    -0.166 F 
ATOM     95  F   UNL A   1      37.198  22.094  23.330  1.00  0.00    -0.166 F 
ATOM     96  F   UNL A   1      37.772  21.856  25.411  1.00  0.00    -0.166 F 
ENDBRANCH  90  93
BRANCH  91  97
ATOM     97  C   UNL A   1      32.622  22.926  27.299  1.00  0.00     0.416 C 
ATOM     98  F   UNL A   1      31.677  23.890  27.487  1.00  0.00    -0.166 F 
ATOM     99  F   UNL A   1      31.966  21.812  26.889  1.00  0.00    -0.166 F 
ATOM    100  F   UNL A   1      33.114  22.652  28.539  1.00  0.00    -0.166 F 
ENDBRANCH  91  97
ENDBRANCH  85  87
ENDBRANCH  79  83
ENDBRANCH  75  77
ENDBRANCH  74  75
ENDBRANCH  73  74
ENDBRANCH  72  73
ENDBRANCH   1  72
TORSDOF 21
ENDMDL
MODEL 3
REMARK VINA RESULT:     -11.6      1.889      7.688
REMARK SMILES O=C(OCCOCCOC(=O)[C@@H]1CCCC[C@@H]1C(=O)Nc1cc(C(F)(F)F)cc(C(F)(F)F)c1)c1ccc(-c2c3nc(c(-c4cc(S(=O)(=O)[O-])ccc4F)c4ccc([nH]4)c(-c4cc(S(=O)(=O)[O-])ccc4F)c4nc(c(-c5cc(S(=O)(=O)[O-])ccc5F)c5ccc2[nH]5)C=C4)C=C3)cc1
REMARK SMILES IDX 6 1 5 2 4 3 3 4 2 5 1 6 35 7 36 8 97 9 37 10 96 11 38 12
REMARK SMILES IDX 39 13 40 14 90 15 41 16 95 17 89 18 91 19 42 20 94 21 88 22
REMARK SMILES IDX 87 23 43 25 75 26 55 27 74 28 56 29 59 30 73 31 92 32 57 33
REMARK SMILES IDX 58 34 72 36 93 37 60 38 44 39 45 40 53 41 46 42 52 43 54 44
REMARK SMILES IDX 51 45 47 46 48 47 49 48 50 49 76 50 77 51 85 52 78 53 84 54
REMARK SMILES IDX 86 55 83 56 79 57 80 58 81 59 82 60 61 61 62 62 70 63 63 64
REMARK SMILES IDX 69 65 71 66 68 67 64 68 65 69 66 70 67 71 7 72 8 73 9 74
REMARK SMILES IDX 10 75 11 76 12 77 13 78 17 79 14 80 16 81 15 82 18 83 19 84
REMARK SMILES IDX 20 85 21 87 22 88 34 89 23 90 29 91 28 92 24 93 25 94 26 95
REMARK SMILES IDX 27 96 30 97 31 98 32 99 33 100
REMARK H PARENT 91 24 59 35 20 86
REMARK Flexibility Score: inf
ROOT
ATOM      1  O   UNL A   1      31.905  30.160  26.375  1.00  0.00    -0.374 OA
ENDROOT
BRANCH   1   2
ATOM      2  C   UNL A   1      31.736  31.514  26.795  1.00  0.00     0.202 C 
BRANCH   2   3
ATOM      3  C   UNL A   1      32.922  32.404  27.231  1.00  0.00     0.261 C 
BRANCH   3   4
ATOM      4  O   UNL A   1      32.571  33.695  27.779  1.00  0.00    -0.460 OA
BRANCH   4   5
ATOM      5  C   UNL A   1      33.189  34.324  28.824  1.00  0.00     0.338 C 
ATOM      6  O   UNL A   1      32.753  35.391  29.264  1.00  0.00    -0.246 OA
BRANCH   5   7
ATOM      7  C   UNL A   1      34.446  33.772  29.384  1.00  0.00     0.060 A 
ATOM      8  C   UNL A   1      34.399  32.681  30.234  1.00  0.00     0.016 A 
ATOM      9  C   UNL A   1      35.703  34.273  29.031  1.00  0.00     0.016 A 
ATOM     10  C   UNL A   1      35.483  32.200  30.889  1.00  0.00     0.010 A 
ATOM     11  C   UNL A   1      36.855  33.669  29.554  1.00  0.00     0.010 A 
ATOM     12  C   UNL A   1      36.725  32.628  30.483  1.00  0.00    -0.014 A 
BRANCH  12  13
ATOM     13  C   UNL A   1      37.814  31.937  31.165  1.00  0.00     0.031 A 
ATOM     14  C   UNL A   1      38.000  32.224  32.608  1.00  0.00     0.074 A 
ATOM     15  C   UNL A   1      38.382  30.888  30.538  1.00  0.00     0.049 A 
ATOM     16  N   UNL A   1      38.918  31.791  33.417  1.00  0.00    -0.248 NA
ATOM     17  C   UNL A   1      37.004  33.115  33.226  1.00  0.00     0.031 C 
ATOM     18  C   UNL A   1      38.028  30.417  29.186  1.00  0.00     0.029 A 
ATOM     19  N   UNL A   1      39.311  29.984  30.960  1.00  0.00    -0.354 N 
ATOM     20  C   UNL A   1      38.662  32.419  34.627  1.00  0.00     0.074 A 
ATOM     21  C   UNL A   1      37.487  33.239  34.450  1.00  0.00     0.031 C 
ATOM     22  C   UNL A   1      38.708  29.297  28.914  1.00  0.00     0.029 A 
ATOM     23  C   UNL A   1      39.648  29.063  29.997  1.00  0.00     0.049 A 
ATOM     24  H   UNL A   1      39.698  29.990  31.864  1.00  0.00     0.167 HD
ATOM     25  C   UNL A   1      39.398  32.322  35.757  1.00  0.00     0.034 A 
ATOM     26  C   UNL A   1      40.677  28.199  29.967  1.00  0.00     0.034 A 
ATOM     27  C   UNL A   1      40.567  31.481  35.819  1.00  0.00     0.049 A 
ATOM     28  C   UNL A   1      41.571  28.204  31.175  1.00  0.00     0.074 A 
ATOM     29  C   UNL A   1      41.494  31.344  36.830  1.00  0.00     0.029 A 
ATOM     30  N   UNL A   1      40.972  30.630  34.786  1.00  0.00    -0.354 N 
ATOM     31  N   UNL A   1      41.445  28.912  32.279  1.00  0.00    -0.248 NA
ATOM     32  C   UNL A   1      42.744  27.332  31.141  1.00  0.00     0.031 C 
ATOM     33  C   UNL A   1      42.495  30.474  36.379  1.00  0.00     0.029 A 
ATOM     34  C   UNL A   1      42.148  29.990  35.123  1.00  0.00     0.049 A 
ATOM     35  H   UNL A   1      40.487  30.505  33.938  1.00  0.00     0.167 HD
ATOM     36  C   UNL A   1      42.518  28.561  33.083  1.00  0.00     0.074 A 
ATOM     37  C   UNL A   1      43.274  27.570  32.334  1.00  0.00     0.031 C 
ATOM     38  C   UNL A   1      42.849  29.004  34.324  1.00  0.00     0.034 A 
BRANCH  25  39
ATOM     39  C   UNL A   1      39.035  33.269  36.874  1.00  0.00     0.023 A 
ATOM     40  C   UNL A   1      39.633  34.535  37.010  1.00  0.00     0.031 A 
ATOM     41  C   UNL A   1      38.215  32.818  37.923  1.00  0.00     0.131 A 
ATOM     42  C   UNL A   1      39.509  35.241  38.218  1.00  0.00     0.055 A 
ATOM     43  C   UNL A   1      38.010  33.574  39.079  1.00  0.00     0.041 A 
ATOM     44  F   UNL A   1      37.648  31.602  37.876  1.00  0.00    -0.206 F 
ATOM     45  C   UNL A   1      38.680  34.782  39.244  1.00  0.00     0.022 A 
BRANCH  42  46
ATOM     46  S   UNL A   1      40.630  36.639  38.523  1.00  0.00     0.124 S 
ATOM     47  O   UNL A   1      39.688  37.700  38.872  1.00  0.00    -0.237 OA
ATOM     48  O   UNL A   1      41.465  36.143  39.609  1.00  0.00    -0.237 OA
ATOM     49  O   UNL A   1      41.311  36.819  37.242  1.00  0.00    -0.744 OA
ENDBRANCH  42  46
ENDBRANCH  25  39
BRANCH  26  50
ATOM     50  C   UNL A   1      40.966  27.420  28.729  1.00  0.00     0.023 A 
ATOM     51  C   UNL A   1      41.981  27.791  27.836  1.00  0.00     0.031 A 
ATOM     52  C   UNL A   1      40.231  26.251  28.434  1.00  0.00     0.131 A 
ATOM     53  C   UNL A   1      42.226  27.008  26.693  1.00  0.00     0.055 A 
ATOM     54  C   UNL A   1      40.513  25.449  27.327  1.00  0.00     0.041 A 
ATOM     55  F   UNL A   1      39.242  25.845  29.249  1.00  0.00    -0.206 F 
ATOM     56  C   UNL A   1      41.513  25.832  26.443  1.00  0.00     0.022 A 
BRANCH  53  57
ATOM     57  S   UNL A   1      43.462  27.578  25.493  1.00  0.00     0.124 S 
ATOM     58  O   UNL A   1      44.022  28.741  26.174  1.00  0.00    -0.237 OA
ATOM     59  O   UNL A   1      44.336  26.416  25.383  1.00  0.00    -0.237 OA
ATOM     60  O   UNL A   1      42.670  27.875  24.302  1.00  0.00    -0.744 OA
ENDBRANCH  53  57
ENDBRANCH  26  50
BRANCH  38  61
ATOM     61  C   UNL A   1      44.045  28.361  34.961  1.00  0.00     0.023 A 
ATOM     62  C   UNL A   1      43.916  27.361  35.937  1.00  0.00     0.031 A 
ATOM     63  C   UNL A   1      45.334  28.725  34.533  1.00  0.00     0.131 A 
ATOM     64  C   UNL A   1      45.067  26.774  36.475  1.00  0.00     0.055 A 
ATOM     65  C   UNL A   1      46.471  28.095  35.028  1.00  0.00     0.041 A 
ATOM     66  F   UNL A   1      45.499  29.680  33.604  1.00  0.00    -0.206 F 
ATOM     67  C   UNL A   1      46.340  27.116  36.010  1.00  0.00     0.022 A 
BRANCH  64  68
ATOM     68  S   UNL A   1      44.882  25.590  37.834  1.00  0.00     0.124 S 
ATOM     69  O   UNL A   1      44.636  24.344  37.116  1.00  0.00    -0.237 OA
ATOM     70  O   UNL A   1      46.170  25.690  38.515  1.00  0.00    -0.237 OA
ATOM     71  O   UNL A   1      43.743  26.110  38.587  1.00  0.00    -0.744 OA
ENDBRANCH  64  68
ENDBRANCH  38  61
ENDBRANCH  12  13
ENDBRANCH   5   7
ENDBRANCH   4   5
ENDBRANCH   3   4
ENDBRANCH   2   3
ENDBRANCH   1   2
BRANCH   1  72
ATOM     72  C   UNL A   1      31.738  29.060  27.268  1.00  0.00     0.202 C 
BRANCH  72  73
ATOM     73  C   UNL A   1      32.604  27.837  27.019  1.00  0.00     0.261 C 
BRANCH  73  74
ATOM     74  O   UNL A   1      31.786  26.679  26.836  1.00  0.00    -0.463 OA
BRANCH  74  75
ATOM     75  C   UNL A   1      31.298  26.555  25.587  1.00  0.00     0.309 C 
ATOM     76  O   UNL A   1      30.104  26.592  25.297  1.00  0.00    -0.252 OA
BRANCH  75  77
ATOM     77  C   UNL A   1      32.355  26.418  24.511  1.00  0.00     0.111 C 
ATOM     78  C   UNL A   1      32.024  27.538  23.521  1.00  0.00     0.016 C 
ATOM     79  C   UNL A   1      32.737  25.022  23.924  1.00  0.00     0.093 C 
ATOM     80  C   UNL A   1      32.989  27.592  22.362  1.00  0.00     0.001 C 
ATOM     81  C   UNL A   1      33.575  25.170  22.634  1.00  0.00     0.014 C 
ATOM     82  C   UNL A   1      33.030  26.237  21.681  1.00  0.00     0.001 C 
BRANCH  79  83
ATOM     83  C   UNL A   1      31.631  24.021  23.614  1.00  0.00     0.228 C 
ATOM     84  O   UNL A   1      30.567  24.431  23.131  1.00  0.00    -0.274 OA
ATOM     85  N   UNL A   1      31.769  22.658  23.716  1.00  0.00    -0.326 N 
ATOM     86  H   UNL A   1      31.004  22.203  23.296  1.00  0.00     0.169 HD
BRANCH  85  87
ATOM     87  C   UNL A   1      32.683  21.705  24.244  1.00  0.00     0.042 A 
ATOM     88  C   UNL A   1      34.013  22.153  24.393  1.00  0.00     0.039 A 
ATOM     89  C   UNL A   1      32.437  20.359  24.505  1.00  0.00     0.039 A 
ATOM     90  C   UNL A   1      35.088  21.276  24.657  1.00  0.00     0.058 A 
ATOM     91  C   UNL A   1      33.506  19.439  24.677  1.00  0.00     0.058 A 
ATOM     92  C   UNL A   1      34.822  19.910  24.767  1.00  0.00     0.026 A 
BRANCH  90  93
ATOM     93  C   UNL A   1      36.502  21.799  24.763  1.00  0.00     0.416 C 
ATOM     94  F   UNL A   1      36.821  22.258  26.003  1.00  0.00    -0.166 F 
ATOM     95  F   UNL A   1      37.422  20.832  24.480  1.00  0.00    -0.166 F 
ATOM     96  F   UNL A   1      36.772  22.822  23.904  1.00  0.00    -0.166 F 
ENDBRANCH  90  93
BRANCH  91  97
ATOM     97  C   UNL A   1      33.281  17.941  24.618  1.00  0.00     0.416 C 
ATOM     98  F   UNL A   1      32.915  17.542  23.368  1.00  0.00    -0.166 F 
ATOM     99  F   UNL A   1      34.382  17.223  24.951  1.00  0.00    -0.166 F 
ATOM    100  F   UNL A   1      32.280  17.520  25.442  1.00  0.00    -0.166 F 
ENDBRANCH  91  97
ENDBRANCH  85  87
ENDBRANCH  79  83
ENDBRANCH  75  77
ENDBRANCH  74  75
ENDBRANCH  73  74
ENDBRANCH  72  73
ENDBRANCH   1  72
TORSDOF 21
ENDMDL
