MODEL 1
REMARK VINA RESULT:     -10.1      0.000      0.000
REMARK SMILES CN(CC(=O)N1C[C@@H](O)C[C@H]1C(=O)OCCOCCOC(=O)c1ccc(-c2c3nc(c(-c4cc(S(=O)(=O)[O-])ccc4F)c4ccc([nH]4)c(-c4cc(S(=O)(=O)[O-])ccc4F)c4nc(c(-c5cc(S(=O)(=O)[O-])ccc5F)c5ccc2[nH]5)C=C4)C=C3)cc1)C(=O)c1cccs1
REMARK SMILES IDX 16 1 15 2 14 3 12 4 13 5 11 6 6 7 7 8 8 9 10 10 4 11 5 12
REMARK SMILES IDX 3 13 2 14 1 15 86 16 87 17 88 18 89 19 92 20 90 21 91 22
REMARK SMILES IDX 9 23 17 25 18 26 19 27 20 28 21 29 22 30 23 31 24 32 85 33
REMARK SMILES IDX 25 34 84 35 26 36 27 37 28 38 78 39 29 40 83 41 77 42 79 43
REMARK SMILES IDX 30 44 82 45 76 46 75 47 31 49 63 50 43 51 62 52 44 53 47 54
REMARK SMILES IDX 61 55 80 56 45 57 46 58 60 60 81 61 48 62 32 63 33 64 41 65
REMARK SMILES IDX 34 66 40 67 42 68 39 69 35 70 36 71 37 72 38 73 64 74 65 75
REMARK SMILES IDX 73 76 66 77 72 78 74 79 71 80 67 81 68 82 69 83 70 84 49 85
REMARK SMILES IDX 50 86 58 87 51 88 57 89 59 90 56 91 52 92 53 93 54 94 55 95
REMARK H PARENT 9 24 79 48 47 59
REMARK Flexibility Score: inf
ROOT
ATOM      1  C   UNL A   1      36.090  20.491  25.012  1.00  0.00     0.202 C 
ENDROOT
BRANCH   1   2
ATOM      2  C   UNL A   1      34.911  21.439  24.753  1.00  0.00     0.261 C 
BRANCH   2   3
ATOM      3  O   UNL A   1      34.475  22.216  25.887  1.00  0.00    -0.462 OA
BRANCH   3   4
ATOM      4  C   UNL A   1      34.409  23.559  25.664  1.00  0.00     0.329 C 
ATOM      5  O   UNL A   1      35.379  24.313  25.650  1.00  0.00    -0.250 OA
BRANCH   4   6
ATOM      6  C   UNL A   1      32.979  24.114  25.620  1.00  0.00     0.197 C 
ATOM      7  N   UNL A   1      32.179  24.140  24.376  1.00  0.00    -0.325 N 
ATOM      8  C   UNL A   1      31.111  23.162  24.467  1.00  0.00     0.152 C 
ATOM      9  C   UNL A   1      30.791  23.136  25.957  1.00  0.00     0.136 C 
ATOM     10  C   UNL A   1      32.167  23.235  26.592  1.00  0.00     0.070 C 
BRANCH   7  11
ATOM     11  C   UNL A   1      32.353  25.180  23.489  1.00  0.00     0.243 C 
ATOM     12  O   UNL A   1      32.731  24.923  22.336  1.00  0.00    -0.273 OA
BRANCH  11  13
ATOM     13  C   UNL A   1      32.321  26.682  23.900  1.00  0.00     0.219 C 
BRANCH  13  14
ATOM     14  N   UNL A   1      31.112  27.373  24.339  1.00  0.00    -0.332 N 
ATOM     15  C   UNL A   1      31.310  28.460  25.295  1.00  0.00     0.147 C 
BRANCH  14  16
ATOM     16  C   UNL A   1      29.833  27.294  23.753  1.00  0.00     0.264 C 
ATOM     17  O   UNL A   1      29.200  26.243  23.889  1.00  0.00    -0.268 OA
BRANCH  16  18
ATOM     18  C   UNL A   1      29.244  28.444  23.064  1.00  0.00     0.092 A 
ATOM     19  C   UNL A   1      27.960  28.951  22.998  1.00  0.00     0.025 A 
ATOM     20  S   UNL A   1      30.316  29.439  22.140  1.00  0.00    -0.139 S 
ATOM     21  C   UNL A   1      27.841  30.072  22.122  1.00  0.00     0.012 A 
ATOM     22  C   UNL A   1      29.057  30.459  21.613  1.00  0.00     0.065 A 
ENDBRANCH  16  18
ENDBRANCH  14  16
ENDBRANCH  13  14
ENDBRANCH  11  13
ENDBRANCH   7  11
BRANCH   9  23
ATOM     23  O   UNL A   1      30.101  21.975  26.371  1.00  0.00    -0.391 OA
ATOM     24  H   UNL A   1      29.209  21.975  25.989  1.00  0.00     0.211 HD
ENDBRANCH   9  23
ENDBRANCH   4   6
ENDBRANCH   3   4
ENDBRANCH   2   3
ENDBRANCH   1   2
BRANCH   1  25
ATOM     25  O   UNL A   1      37.382  20.902  24.579  1.00  0.00    -0.374 OA
BRANCH  25  26
ATOM     26  C   UNL A   1      38.450  20.830  25.520  1.00  0.00     0.202 C 
BRANCH  26  27
ATOM     27  C   UNL A   1      39.145  19.475  25.701  1.00  0.00     0.261 C 
BRANCH  27  28
ATOM     28  O   UNL A   1      40.581  19.565  25.786  1.00  0.00    -0.460 OA
BRANCH  28  29
ATOM     29  C   UNL A   1      41.034  19.995  26.993  1.00  0.00     0.338 C 
ATOM     30  O   UNL A   1      40.855  19.435  28.069  1.00  0.00    -0.246 OA
BRANCH  29  31
ATOM     31  C   UNL A   1      41.891  21.191  26.892  1.00  0.00     0.060 A 
ATOM     32  C   UNL A   1      42.410  21.695  28.088  1.00  0.00     0.016 A 
ATOM     33  C   UNL A   1      42.038  21.912  25.704  1.00  0.00     0.016 A 
ATOM     34  C   UNL A   1      43.010  22.954  28.114  1.00  0.00     0.010 A 
ATOM     35  C   UNL A   1      42.635  23.181  25.733  1.00  0.00     0.010 A 
ATOM     36  C   UNL A   1      43.083  23.726  26.947  1.00  0.00    -0.014 A 
BRANCH  36  37
ATOM     37  C   UNL A   1      43.540  25.134  27.059  1.00  0.00     0.031 A 
ATOM     38  C   UNL A   1      42.610  26.182  27.607  1.00  0.00     0.074 A 
ATOM     39  C   UNL A   1      44.809  25.451  26.747  1.00  0.00     0.049 A 
ATOM     40  N   UNL A   1      42.865  27.419  27.948  1.00  0.00    -0.248 NA
ATOM     41  C   UNL A   1      41.208  25.782  27.794  1.00  0.00     0.031 C 
ATOM     42  C   UNL A   1      45.797  24.523  26.200  1.00  0.00     0.029 A 
ATOM     43  N   UNL A   1      45.487  26.639  26.861  1.00  0.00    -0.354 N 
ATOM     44  C   UNL A   1      41.662  27.943  28.412  1.00  0.00     0.074 A 
ATOM     45  C   UNL A   1      40.668  26.900  28.258  1.00  0.00     0.031 C 
ATOM     46  C   UNL A   1      46.960  25.175  26.030  1.00  0.00     0.029 A 
ATOM     47  C   UNL A   1      46.797  26.565  26.454  1.00  0.00     0.049 A 
ATOM     48  H   UNL A   1      45.075  27.464  27.204  1.00  0.00     0.167 HD
ATOM     49  C   UNL A   1      41.415  29.172  28.931  1.00  0.00     0.034 A 
ATOM     50  C   UNL A   1      47.760  27.507  26.434  1.00  0.00     0.034 A 
ATOM     51  C   UNL A   1      42.413  30.210  29.052  1.00  0.00     0.049 A 
ATOM     52  C   UNL A   1      47.461  28.872  26.996  1.00  0.00     0.074 A 
ATOM     53  C   UNL A   1      42.281  31.479  29.593  1.00  0.00     0.029 A 
ATOM     54  N   UNL A   1      43.724  30.108  28.605  1.00  0.00    -0.354 N 
ATOM     55  N   UNL A   1      46.338  29.331  27.501  1.00  0.00    -0.248 NA
ATOM     56  C   UNL A   1      48.567  29.837  27.011  1.00  0.00     0.031 C 
ATOM     57  C   UNL A   1      43.490  32.163  29.414  1.00  0.00     0.029 A 
ATOM     58  C   UNL A   1      44.402  31.299  28.827  1.00  0.00     0.049 A 
ATOM     59  H   UNL A   1      44.117  29.306  28.191  1.00  0.00     0.167 HD
ATOM     60  C   UNL A   1      46.614  30.630  27.919  1.00  0.00     0.074 A 
ATOM     61  C   UNL A   1      48.012  30.873  27.622  1.00  0.00     0.031 C 
ATOM     62  C   UNL A   1      45.790  31.537  28.504  1.00  0.00     0.034 A 
BRANCH  49  63
ATOM     63  C   UNL A   1      39.999  29.469  29.369  1.00  0.00     0.023 A 
ATOM     64  C   UNL A   1      39.645  29.545  30.727  1.00  0.00     0.031 A 
ATOM     65  C   UNL A   1      38.985  29.661  28.414  1.00  0.00     0.131 A 
ATOM     66  C   UNL A   1      38.304  29.740  31.094  1.00  0.00     0.055 A 
ATOM     67  C   UNL A   1      37.664  29.924  28.785  1.00  0.00     0.041 A 
ATOM     68  F   UNL A   1      39.257  29.583  27.102  1.00  0.00    -0.206 F 
ATOM     69  C   UNL A   1      37.314  29.952  30.131  1.00  0.00     0.022 A 
BRANCH  66  70
ATOM     70  S   UNL A   1      37.848  29.583  32.843  1.00  0.00     0.124 S 
ATOM     71  O   UNL A   1      36.756  30.548  32.952  1.00  0.00    -0.237 OA
ATOM     72  O   UNL A   1      37.473  28.178  32.946  1.00  0.00    -0.237 OA
ATOM     73  O   UNL A   1      39.070  29.956  33.552  1.00  0.00    -0.744 OA
ENDBRANCH  66  70
ENDBRANCH  49  63
BRANCH  50  74
ATOM     74  C   UNL A   1      49.099  27.189  25.866  1.00  0.00     0.023 A 
ATOM     75  C   UNL A   1      49.464  27.599  24.574  1.00  0.00     0.031 A 
ATOM     76  C   UNL A   1      50.031  26.447  26.614  1.00  0.00     0.131 A 
ATOM     77  C   UNL A   1      50.716  27.235  24.055  1.00  0.00     0.055 A 
ATOM     78  C   UNL A   1      51.290  26.122  26.108  1.00  0.00     0.041 A 
ATOM     79  F   UNL A   1      49.732  26.041  27.858  1.00  0.00    -0.206 F 
ATOM     80  C   UNL A   1      51.634  26.509  24.817  1.00  0.00     0.022 A 
BRANCH  77  81
ATOM     81  S   UNL A   1      51.109  27.679  22.342  1.00  0.00     0.124 S 
ATOM     82  O   UNL A   1      51.316  29.119  22.445  1.00  0.00    -0.237 OA
ATOM     83  O   UNL A   1      52.302  26.876  22.089  1.00  0.00    -0.237 OA
ATOM     84  O   UNL A   1      49.918  27.270  21.601  1.00  0.00    -0.744 OA
ENDBRANCH  77  81
ENDBRANCH  50  74
BRANCH  62  85
ATOM     85  C   UNL A   1      46.399  32.865  28.884  1.00  0.00     0.023 A 
ATOM     86  C   UNL A   1      46.388  33.961  28.005  1.00  0.00     0.031 A 
ATOM     87  C   UNL A   1      47.027  33.024  30.132  1.00  0.00     0.131 A 
ATOM     88  C   UNL A   1      47.049  35.148  28.359  1.00  0.00     0.055 A 
ATOM     89  C   UNL A   1      47.633  34.225  30.503  1.00  0.00     0.041 A 
ATOM     90  F   UNL A   1      47.068  32.009  31.012  1.00  0.00    -0.206 F 
ATOM     91  C   UNL A   1      47.660  35.291  29.607  1.00  0.00     0.022 A 
BRANCH  88  92
ATOM     92  S   UNL A   1      47.192  36.468  27.122  1.00  0.00     0.124 S 
ATOM     93  O   UNL A   1      45.839  37.015  27.104  1.00  0.00    -0.237 OA
ATOM     94  O   UNL A   1      48.219  37.327  27.703  1.00  0.00    -0.237 OA
ATOM     95  O   UNL A   1      47.591  35.759  25.908  1.00  0.00    -0.744 OA
ENDBRANCH  88  92
ENDBRANCH  62  85
ENDBRANCH  36  37
ENDBRANCH  29  31
ENDBRANCH  28  29
ENDBRANCH  27  28
ENDBRANCH  26  27
ENDBRANCH  25  26
ENDBRANCH   1  25
TORSDOF 23
ENDMDL
MODEL 2
REMARK VINA RESULT:      -9.9      2.206      7.835
REMARK SMILES CN(CC(=O)N1C[C@@H](O)C[C@H]1C(=O)OCCOCCOC(=O)c1ccc(-c2c3nc(c(-c4cc(S(=O)(=O)[O-])ccc4F)c4ccc([nH]4)c(-c4cc(S(=O)(=O)[O-])ccc4F)c4nc(c(-c5cc(S(=O)(=O)[O-])ccc5F)c5ccc2[nH]5)C=C4)C=C3)cc1)C(=O)c1cccs1
REMARK SMILES IDX 16 1 15 2 14 3 12 4 13 5 11 6 6 7 7 8 8 9 10 10 4 11 5 12
REMARK SMILES IDX 3 13 2 14 1 15 86 16 87 17 88 18 89 19 92 20 90 21 91 22
REMARK SMILES IDX 9 23 17 25 18 26 19 27 20 28 21 29 22 30 23 31 24 32 85 33
REMARK SMILES IDX 25 34 84 35 26 36 27 37 28 38 78 39 29 40 83 41 77 42 79 43
REMARK SMILES IDX 30 44 82 45 76 46 75 47 31 49 63 50 43 51 62 52 44 53 47 54
REMARK SMILES IDX 61 55 80 56 45 57 46 58 60 60 81 61 48 62 32 63 33 64 41 65
REMARK SMILES IDX 34 66 40 67 42 68 39 69 35 70 36 71 37 72 38 73 64 74 65 75
REMARK SMILES IDX 73 76 66 77 72 78 74 79 71 80 67 81 68 82 69 83 70 84 49 85
REMARK SMILES IDX 50 86 58 87 51 88 57 89 59 90 56 91 52 92 53 93 54 94 55 95
REMARK H PARENT 9 24 79 48 47 59
REMARK Flexibility Score: inf
ROOT
ATOM      1  C   UNL A   1      38.220  22.444  25.786  1.00  0.00     0.202 C 
ENDROOT
BRANCH   1   2
ATOM      2  C   UNL A   1      36.893  22.744  25.076  1.00  0.00     0.261 C 
BRANCH   2   3
ATOM      3  O   UNL A   1      35.904  23.433  25.869  1.00  0.00    -0.462 OA
BRANCH   3   4
ATOM      4  C   UNL A   1      34.781  22.708  26.133  1.00  0.00     0.329 C 
ATOM      5  O   UNL A   1      34.771  21.505  26.387  1.00  0.00    -0.250 OA
BRANCH   4   6
ATOM      6  C   UNL A   1      33.473  23.475  25.897  1.00  0.00     0.197 C 
ATOM      7  N   UNL A   1      32.850  23.580  24.559  1.00  0.00    -0.325 N 
ATOM      8  C   UNL A   1      31.638  22.782  24.526  1.00  0.00     0.152 C 
ATOM      9  C   UNL A   1      31.134  22.859  25.963  1.00  0.00     0.136 C 
ATOM     10  C   UNL A   1      32.418  22.767  26.769  1.00  0.00     0.070 C 
BRANCH   7  11
ATOM     11  C   UNL A   1      33.296  24.547  23.686  1.00  0.00     0.243 C 
ATOM     12  O   UNL A   1      34.276  24.297  22.968  1.00  0.00    -0.273 OA
BRANCH  11  13
ATOM     13  C   UNL A   1      32.789  26.020  23.695  1.00  0.00     0.219 C 
BRANCH  13  14
ATOM     14  N   UNL A   1      31.539  26.447  23.074  1.00  0.00    -0.332 N 
ATOM     15  C   UNL A   1      31.466  26.302  21.622  1.00  0.00     0.147 C 
BRANCH  14  16
ATOM     16  C   UNL A   1      30.321  26.723  23.727  1.00  0.00     0.264 C 
ATOM     17  O   UNL A   1      29.947  25.940  24.605  1.00  0.00    -0.268 OA
BRANCH  16  18
ATOM     18  C   UNL A   1      29.557  27.934  23.423  1.00  0.00     0.092 A 
ATOM     19  C   UNL A   1      28.239  28.158  23.069  1.00  0.00     0.025 A 
ATOM     20  S   UNL A   1      30.398  29.442  23.535  1.00  0.00    -0.139 S 
ATOM     21  C   UNL A   1      27.955  29.529  22.792  1.00  0.00     0.012 A 
ATOM     22  C   UNL A   1      29.038  30.339  23.036  1.00  0.00     0.065 A 
ENDBRANCH  16  18
ENDBRANCH  14  16
ENDBRANCH  13  14
ENDBRANCH  11  13
ENDBRANCH   7  11
BRANCH   9  23
ATOM     23  O   UNL A   1      30.223  21.834  26.303  1.00  0.00    -0.391 OA
ATOM     24  H   UNL A   1      29.329  22.089  26.023  1.00  0.00     0.211 HD
ENDBRANCH   9  23
ENDBRANCH   4   6
ENDBRANCH   3   4
ENDBRANCH   2   3
ENDBRANCH   1   2
BRANCH   1  25
ATOM     25  O   UNL A   1      38.441  21.117  26.251  1.00  0.00    -0.374 OA
BRANCH  25  26
ATOM     26  C   UNL A   1      39.144  20.223  25.392  1.00  0.00     0.202 C 
BRANCH  26  27
ATOM     27  C   UNL A   1      40.358  19.488  25.975  1.00  0.00     0.261 C 
BRANCH  27  28
ATOM     28  O   UNL A   1      41.063  20.239  26.983  1.00  0.00    -0.460 OA
BRANCH  28  29
ATOM     29  C   UNL A   1      41.926  21.159  26.478  1.00  0.00     0.338 C 
ATOM     30  O   UNL A   1      42.665  20.999  25.512  1.00  0.00    -0.246 OA
BRANCH  29  31
ATOM     31  C   UNL A   1      41.826  22.469  27.150  1.00  0.00     0.060 A 
ATOM     32  C   UNL A   1      41.527  23.568  26.340  1.00  0.00     0.016 A 
ATOM     33  C   UNL A   1      42.189  22.658  28.485  1.00  0.00     0.016 A 
ATOM     34  C   UNL A   1      41.665  24.863  26.840  1.00  0.00     0.010 A 
ATOM     35  C   UNL A   1      42.335  23.961  28.985  1.00  0.00     0.010 A 
ATOM     36  C   UNL A   1      42.116  25.069  28.151  1.00  0.00    -0.014 A 
BRANCH  36  37
ATOM     37  C   UNL A   1      42.444  26.453  28.576  1.00  0.00     0.031 A 
ATOM     38  C   UNL A   1      43.855  26.962  28.446  1.00  0.00     0.074 A 
ATOM     39  C   UNL A   1      41.465  27.273  28.997  1.00  0.00     0.049 A 
ATOM     40  N   UNL A   1      44.313  28.178  28.593  1.00  0.00    -0.248 NA
ATOM     41  C   UNL A   1      44.883  25.966  28.109  1.00  0.00     0.031 C 
ATOM     42  C   UNL A   1      40.065  26.889  29.171  1.00  0.00     0.029 A 
ATOM     43  N   UNL A   1      41.498  28.601  29.340  1.00  0.00    -0.354 N 
ATOM     44  C   UNL A   1      45.680  28.104  28.343  1.00  0.00     0.074 A 
ATOM     45  C   UNL A   1      45.980  26.710  28.088  1.00  0.00     0.031 C 
ATOM     46  C   UNL A   1      39.368  27.961  29.584  1.00  0.00     0.029 A 
ATOM     47  C   UNL A   1      40.272  29.104  29.705  1.00  0.00     0.049 A 
ATOM     48  H   UNL A   1      42.320  29.142  29.325  1.00  0.00     0.167 HD
ATOM     49  C   UNL A   1      46.595  29.107  28.316  1.00  0.00     0.034 A 
ATOM     50  C   UNL A   1      39.916  30.346  30.085  1.00  0.00     0.034 A 
ATOM     51  C   UNL A   1      46.282  30.488  28.601  1.00  0.00     0.049 A 
ATOM     52  C   UNL A   1      40.950  31.442  30.068  1.00  0.00     0.074 A 
ATOM     53  C   UNL A   1      47.122  31.590  28.569  1.00  0.00     0.029 A 
ATOM     54  N   UNL A   1      45.035  30.957  28.992  1.00  0.00    -0.354 N 
ATOM     55  N   UNL A   1      42.224  31.372  29.757  1.00  0.00    -0.248 NA
ATOM     56  C   UNL A   1      40.490  32.790  30.424  1.00  0.00     0.031 C 
ATOM     57  C   UNL A   1      46.400  32.708  29.003  1.00  0.00     0.029 A 
ATOM     58  C   UNL A   1      45.089  32.322  29.237  1.00  0.00     0.049 A 
ATOM     59  H   UNL A   1      44.227  30.401  29.082  1.00  0.00     0.167 HD
ATOM     60  C   UNL A   1      42.710  32.673  29.855  1.00  0.00     0.074 A 
ATOM     61  C   UNL A   1      41.588  33.507  30.236  1.00  0.00     0.031 C 
ATOM     62  C   UNL A   1      43.968  33.139  29.639  1.00  0.00     0.034 A 
BRANCH  49  63
ATOM     63  C   UNL A   1      48.025  28.733  28.004  1.00  0.00     0.023 A 
ATOM     64  C   UNL A   1      48.488  28.616  26.682  1.00  0.00     0.031 A 
ATOM     65  C   UNL A   1      48.935  28.470  29.044  1.00  0.00     0.131 A 
ATOM     66  C   UNL A   1      49.802  28.185  26.432  1.00  0.00     0.055 A 
ATOM     67  C   UNL A   1      50.260  28.110  28.791  1.00  0.00     0.041 A 
ATOM     68  F   UNL A   1      48.547  28.547  30.327  1.00  0.00    -0.206 F 
ATOM     69  C   UNL A   1      50.698  27.953  27.479  1.00  0.00     0.022 A 
BRANCH  66  70
ATOM     70  S   UNL A   1      50.285  27.808  24.726  1.00  0.00     0.124 S 
ATOM     71  O   UNL A   1      51.040  26.568  24.899  1.00  0.00    -0.237 OA
ATOM     72  O   UNL A   1      48.998  27.685  24.053  1.00  0.00    -0.237 OA
ATOM     73  O   UNL A   1      51.087  28.965  24.332  1.00  0.00    -0.744 OA
ENDBRANCH  66  70
ENDBRANCH  49  63
BRANCH  50  74
ATOM     74  C   UNL A   1      38.516  30.621  30.509  1.00  0.00     0.023 A 
ATOM     75  C   UNL A   1      37.549  31.075  29.598  1.00  0.00     0.031 A 
ATOM     76  C   UNL A   1      38.131  30.445  31.850  1.00  0.00     0.131 A 
ATOM     77  C   UNL A   1      36.253  31.371  30.047  1.00  0.00     0.055 A 
ATOM     78  C   UNL A   1      36.831  30.703  32.284  1.00  0.00     0.041 A 
ATOM     79  F   UNL A   1      39.018  30.003  32.757  1.00  0.00    -0.206 F 
ATOM     80  C   UNL A   1      35.885  31.178  31.381  1.00  0.00     0.022 A 
BRANCH  77  81
ATOM     81  S   UNL A   1      35.063  32.067  28.869  1.00  0.00     0.124 S 
ATOM     82  O   UNL A   1      35.912  32.939  28.066  1.00  0.00    -0.237 OA
ATOM     83  O   UNL A   1      34.561  30.869  28.205  1.00  0.00    -0.237 OA
ATOM     84  O   UNL A   1      34.097  32.751  29.727  1.00  0.00    -0.744 OA
ENDBRANCH  77  81
ENDBRANCH  50  74
BRANCH  62  85
ATOM     85  C   UNL A   1      44.177  34.626  29.787  1.00  0.00     0.023 A 
ATOM     86  C   UNL A   1      43.802  35.529  28.777  1.00  0.00     0.031 A 
ATOM     87  C   UNL A   1      44.791  35.143  30.942  1.00  0.00     0.131 A 
ATOM     88  C   UNL A   1      44.102  36.894  28.913  1.00  0.00     0.055 A 
ATOM     89  C   UNL A   1      45.034  36.509  31.097  1.00  0.00     0.041 A 
ATOM     90  F   UNL A   1      45.170  34.326  31.939  1.00  0.00    -0.206 F 
ATOM     91  C   UNL A   1      44.703  37.391  30.072  1.00  0.00     0.022 A 
BRANCH  88  92
ATOM     92  S   UNL A   1      43.791  37.999  27.507  1.00  0.00     0.124 S 
ATOM     93  O   UNL A   1      45.142  38.254  27.017  1.00  0.00    -0.237 OA
ATOM     94  O   UNL A   1      42.946  37.176  26.647  1.00  0.00    -0.237 OA
ATOM     95  O   UNL A   1      43.124  39.148  28.115  1.00  0.00    -0.744 OA
ENDBRANCH  88  92
ENDBRANCH  62  85
ENDBRANCH  36  37
ENDBRANCH  29  31
ENDBRANCH  28  29
ENDBRANCH  27  28
ENDBRANCH  26  27
ENDBRANCH  25  26
ENDBRANCH   1  25
TORSDOF 23
ENDMDL
MODEL 3
REMARK VINA RESULT:      -9.8      3.919      8.936
REMARK SMILES CN(CC(=O)N1C[C@@H](O)C[C@H]1C(=O)OCCOCCOC(=O)c1ccc(-c2c3nc(c(-c4cc(S(=O)(=O)[O-])ccc4F)c4ccc([nH]4)c(-c4cc(S(=O)(=O)[O-])ccc4F)c4nc(c(-c5cc(S(=O)(=O)[O-])ccc5F)c5ccc2[nH]5)C=C4)C=C3)cc1)C(=O)c1cccs1
REMARK SMILES IDX 16 1 15 2 14 3 12 4 13 5 11 6 6 7 7 8 8 9 10 10 4 11 5 12
REMARK SMILES IDX 3 13 2 14 1 15 86 16 87 17 88 18 89 19 92 20 90 21 91 22
REMARK SMILES IDX 9 23 17 25 18 26 19 27 20 28 21 29 22 30 23 31 24 32 85 33
REMARK SMILES IDX 25 34 84 35 26 36 27 37 28 38 78 39 29 40 83 41 77 42 79 43
REMARK SMILES IDX 30 44 82 45 76 46 75 47 31 49 63 50 43 51 62 52 44 53 47 54
REMARK SMILES IDX 61 55 80 56 45 57 46 58 60 60 81 61 48 62 32 63 33 64 41 65
REMARK SMILES IDX 34 66 40 67 42 68 39 69 35 70 36 71 37 72 38 73 64 74 65 75
REMARK SMILES IDX 73 76 66 77 72 78 74 79 71 80 67 81 68 82 69 83 70 84 49 85
REMARK SMILES IDX 50 86 58 87 51 88 57 89 59 90 56 91 52 92 53 93 54 94 55 95
REMARK H PARENT 9 24 79 48 47 59
REMARK Flexibility Score: inf
ROOT
ATOM      1  C   UNL A   1      34.060  26.157  24.956  1.00  0.00     0.202 C 
ENDROOT
BRANCH   1   2
ATOM      2  C   UNL A   1      33.621  27.350  25.816  1.00  0.00     0.261 C 
BRANCH   2   3
ATOM      3  O   UNL A   1      33.348  28.570  25.096  1.00  0.00    -0.462 OA
BRANCH   3   4
ATOM      4  C   UNL A   1      32.027  28.898  25.014  1.00  0.00     0.329 C 
ATOM      5  O   UNL A   1      31.397  29.483  25.893  1.00  0.00    -0.250 OA
BRANCH   4   6
ATOM      6  C   UNL A   1      31.311  28.301  23.795  1.00  0.00     0.197 C 
ATOM      7  N   UNL A   1      29.873  27.954  23.816  1.00  0.00    -0.325 N 
ATOM      8  C   UNL A   1      29.138  28.889  22.985  1.00  0.00     0.152 C 
ATOM      9  C   UNL A   1      30.145  29.256  21.902  1.00  0.00     0.136 C 
ATOM     10  C   UNL A   1      31.446  29.357  22.681  1.00  0.00     0.070 C 
BRANCH   7  11
ATOM     11  C   UNL A   1      29.484  26.741  24.339  1.00  0.00     0.243 C 
ATOM     12  O   UNL A   1      28.342  26.322  24.092  1.00  0.00    -0.273 OA
BRANCH  11  13
ATOM     13  C   UNL A   1      30.303  25.957  25.407  1.00  0.00     0.219 C 
BRANCH  13  14
ATOM     14  N   UNL A   1      30.670  24.550  25.271  1.00  0.00    -0.332 N 
ATOM     15  C   UNL A   1      31.232  24.159  23.980  1.00  0.00     0.147 C 
BRANCH  14  16
ATOM     16  C   UNL A   1      30.794  23.605  26.308  1.00  0.00     0.264 C 
ATOM     17  O   UNL A   1      30.006  23.681  27.256  1.00  0.00    -0.268 OA
BRANCH  16  18
ATOM     18  C   UNL A   1      31.780  22.525  26.234  1.00  0.00     0.092 A 
ATOM     19  C   UNL A   1      31.953  21.460  25.370  1.00  0.00     0.025 A 
ATOM     20  S   UNL A   1      33.037  22.525  27.423  1.00  0.00    -0.139 S 
ATOM     21  C   UNL A   1      33.034  20.604  25.740  1.00  0.00     0.012 A 
ATOM     22  C   UNL A   1      33.725  21.086  26.824  1.00  0.00     0.065 A 
ENDBRANCH  16  18
ENDBRANCH  14  16
ENDBRANCH  13  14
ENDBRANCH  11  13
ENDBRANCH   7  11
BRANCH   9  23
ATOM     23  O   UNL A   1      29.841  30.458  21.224  1.00  0.00    -0.391 OA
ATOM     24  H   UNL A   1      28.883  30.517  21.083  1.00  0.00     0.211 HD
ENDBRANCH   9  23
ENDBRANCH   4   6
ENDBRANCH   3   4
ENDBRANCH   2   3
ENDBRANCH   1   2
BRANCH   1  25
ATOM     25  O   UNL A   1      34.690  25.062  25.611  1.00  0.00    -0.374 OA
BRANCH  25  26
ATOM     26  C   UNL A   1      35.253  24.038  24.796  1.00  0.00     0.202 C 
BRANCH  26  27
ATOM     27  C   UNL A   1      36.335  23.149  25.421  1.00  0.00     0.261 C 
BRANCH  27  28
ATOM     28  O   UNL A   1      37.677  23.624  25.200  1.00  0.00    -0.460 OA
BRANCH  28  29
ATOM     29  C   UNL A   1      38.577  23.175  26.114  1.00  0.00     0.338 C 
ATOM     30  O   UNL A   1      38.762  22.002  26.424  1.00  0.00    -0.246 OA
BRANCH  29  31
ATOM     31  C   UNL A   1      39.430  24.249  26.657  1.00  0.00     0.060 A 
ATOM     32  C   UNL A   1      39.336  24.493  28.030  1.00  0.00     0.016 A 
ATOM     33  C   UNL A   1      40.158  25.115  25.838  1.00  0.00     0.016 A 
ATOM     34  C   UNL A   1      39.906  25.643  28.577  1.00  0.00     0.010 A 
ATOM     35  C   UNL A   1      40.724  26.276  26.388  1.00  0.00     0.010 A 
ATOM     36  C   UNL A   1      40.562  26.566  27.751  1.00  0.00    -0.014 A 
BRANCH  36  37
ATOM     37  C   UNL A   1      40.972  27.868  28.335  1.00  0.00     0.031 A 
ATOM     38  C   UNL A   1      42.430  28.237  28.393  1.00  0.00     0.074 A 
ATOM     39  C   UNL A   1      40.036  28.747  28.733  1.00  0.00     0.049 A 
ATOM     40  N   UNL A   1      42.983  29.382  28.699  1.00  0.00    -0.248 NA
ATOM     41  C   UNL A   1      43.389  27.171  28.066  1.00  0.00     0.031 C 
ATOM     42  C   UNL A   1      38.595  28.498  28.731  1.00  0.00     0.029 A 
ATOM     43  N   UNL A   1      40.157  30.031  29.201  1.00  0.00    -0.354 N 
ATOM     44  C   UNL A   1      44.356  29.187  28.579  1.00  0.00     0.074 A 
ATOM     45  C   UNL A   1      44.548  27.795  28.224  1.00  0.00     0.031 C 
ATOM     46  C   UNL A   1      37.962  29.598  29.173  1.00  0.00     0.029 A 
ATOM     47  C   UNL A   1      38.952  30.626  29.489  1.00  0.00     0.049 A 
ATOM     48  H   UNL A   1      41.023  30.483  29.318  1.00  0.00     0.167 HD
ATOM     49  C   UNL A   1      45.359  30.088  28.736  1.00  0.00     0.034 A 
ATOM     50  C   UNL A   1      38.676  31.863  29.947  1.00  0.00     0.034 A 
ATOM     51  C   UNL A   1      45.150  31.465  29.118  1.00  0.00     0.049 A 
ATOM     52  C   UNL A   1      39.806  32.843  30.136  1.00  0.00     0.074 A 
ATOM     53  C   UNL A   1      46.089  32.472  29.273  1.00  0.00     0.029 A 
ATOM     54  N   UNL A   1      43.918  32.027  29.427  1.00  0.00    -0.354 N 
ATOM     55  N   UNL A   1      41.093  32.667  29.946  1.00  0.00    -0.248 NA
ATOM     56  C   UNL A   1      39.440  34.197  30.570  1.00  0.00     0.031 C 
ATOM     57  C   UNL A   1      45.434  33.619  29.737  1.00  0.00     0.029 A 
ATOM     58  C   UNL A   1      44.075  33.354  29.803  1.00  0.00     0.049 A 
ATOM     59  H   UNL A   1      43.056  31.552  29.384  1.00  0.00     0.167 HD
ATOM     60  C   UNL A   1      41.688  33.897  30.214  1.00  0.00     0.074 A 
ATOM     61  C   UNL A   1      40.615  34.808  30.560  1.00  0.00     0.031 C 
ATOM     62  C   UNL A   1      42.999  34.246  30.169  1.00  0.00     0.034 A 
BRANCH  49  63
ATOM     63  C   UNL A   1      46.773  29.594  28.534  1.00  0.00     0.023 A 
ATOM     64  C   UNL A   1      47.530  29.064  29.593  1.00  0.00     0.031 A 
ATOM     65  C   UNL A   1      47.380  29.674  27.268  1.00  0.00     0.131 A 
ATOM     66  C   UNL A   1      48.868  28.694  29.384  1.00  0.00     0.055 A 
ATOM     67  C   UNL A   1      48.689  29.238  27.050  1.00  0.00     0.041 A 
ATOM     68  F   UNL A   1      46.715  30.187  26.221  1.00  0.00    -0.206 F 
ATOM     69  C   UNL A   1      49.446  28.757  28.114  1.00  0.00     0.022 A 
BRANCH  66  70
ATOM     70  S   UNL A   1      49.884  28.251  30.820  1.00  0.00     0.124 S 
ATOM     71  O   UNL A   1      50.827  29.366  30.872  1.00  0.00    -0.237 OA
ATOM     72  O   UNL A   1      48.902  28.193  31.896  1.00  0.00    -0.237 OA
ATOM     73  O   UNL A   1      50.472  26.967  30.442  1.00  0.00    -0.744 OA
ENDBRANCH  66  70
ENDBRANCH  49  63
BRANCH  50  74
ATOM     74  C   UNL A   1      37.271  32.245  30.255  1.00  0.00     0.023 A 
ATOM     75  C   UNL A   1      36.479  32.937  29.326  1.00  0.00     0.031 A 
ATOM     76  C   UNL A   1      36.706  31.931  31.504  1.00  0.00     0.131 A 
ATOM     77  C   UNL A   1      35.176  33.325  29.673  1.00  0.00     0.055 A 
ATOM     78  C   UNL A   1      35.396  32.284  31.830  1.00  0.00     0.041 A 
ATOM     79  F   UNL A   1      37.421  31.261  32.422  1.00  0.00    -0.206 F 
ATOM     80  C   UNL A   1      34.626  32.993  30.914  1.00  0.00     0.022 A 
BRANCH  77  81
ATOM     81  S   UNL A   1      34.222  34.320  28.496  1.00  0.00     0.124 S 
ATOM     82  O   UNL A   1      32.929  33.645  28.511  1.00  0.00    -0.237 OA
ATOM     83  O   UNL A   1      34.264  35.641  29.116  1.00  0.00    -0.237 OA
ATOM     84  O   UNL A   1      34.978  34.195  27.252  1.00  0.00    -0.744 OA
ENDBRANCH  77  81
ENDBRANCH  50  74
BRANCH  62  85
ATOM     85  C   UNL A   1      43.332  35.686  30.476  1.00  0.00     0.023 A 
ATOM     86  C   UNL A   1      43.452  36.151  31.797  1.00  0.00     0.031 A 
ATOM     87  C   UNL A   1      43.499  36.612  29.431  1.00  0.00     0.131 A 
ATOM     88  C   UNL A   1      43.667  37.517  32.040  1.00  0.00     0.055 A 
ATOM     89  C   UNL A   1      43.771  37.958  29.677  1.00  0.00     0.041 A 
ATOM     90  F   UNL A   1      43.395  36.223  28.149  1.00  0.00    -0.206 F 
ATOM     91  C   UNL A   1      43.840  38.420  30.989  1.00  0.00     0.022 A 
BRANCH  88  92
ATOM     92  S   UNL A   1      43.612  38.116  33.753  1.00  0.00     0.124 S 
ATOM     93  O   UNL A   1      45.021  38.083  34.132  1.00  0.00    -0.237 OA
ATOM     94  O   UNL A   1      43.024  39.442  33.598  1.00  0.00    -0.237 OA
ATOM     95  O   UNL A   1      42.765  37.137  34.431  1.00  0.00    -0.744 OA
ENDBRANCH  88  92
ENDBRANCH  62  85
ENDBRANCH  36  37
ENDBRANCH  29  31
ENDBRANCH  28  29
ENDBRANCH  27  28
ENDBRANCH  26  27
ENDBRANCH  25  26
ENDBRANCH   1  25
TORSDOF 23
ENDMDL
