MODEL 1
REMARK VINA RESULT:     -10.5      0.000      0.000
REMARK SMILES CCOc1c(Br)cc(CNc2cccc(C(=O)OCCOCCOC(=O)c3ccc(-c4c5nc(c(-c6cc(S(=O)(=O)[O-])ccc6F)c6ccc([nH]6)c(-c6cc(S(=O)(=O)[O-])ccc6F)c6nc(c(-c7cc(S(=O)(=O)[O-])ccc7F)c7ccc4[nH]7)C=C6)C=C5)cc3)c2C)cc1OC
REMARK SMILES IDX 20 1 19 2 18 3 16 4 17 5 15 6 11 7 12 8 90 9 13 10 91 11
REMARK SMILES IDX 14 12 10 13 9 15 8 16 4 17 5 18 93 19 6 20 7 21 92 22 3 23
REMARK SMILES IDX 2 24 1 25 94 26 95 27 21 28 22 29 23 30 24 31 25 32 26 33
REMARK SMILES IDX 27 34 28 35 89 36 29 37 88 38 30 39 31 40 32 41 82 42 33 43
REMARK SMILES IDX 87 44 81 45 83 46 34 47 86 48 80 49 79 50 35 52 67 53 47 54
REMARK SMILES IDX 66 55 48 56 51 57 65 58 84 59 49 60 50 61 64 63 85 64 52 65
REMARK SMILES IDX 36 66 37 67 45 68 38 69 44 70 46 71 43 72 39 73 40 74 41 75
REMARK SMILES IDX 42 76 68 77 69 78 77 79 70 80 76 81 78 82 75 83 71 84 72 85
REMARK SMILES IDX 73 86 74 87 53 88 54 89 62 90 55 91 61 92 63 93 60 94 56 95
REMARK SMILES IDX 57 96 58 97 59 98
REMARK H PARENT 10 14 83 51 51 62
REMARK Flexibility Score: inf
ROOT
ATOM      1  C   UNL A   1      30.768  29.974  24.345  1.00  0.00     0.202 C 
ENDROOT
BRANCH   1   2
ATOM      2  C   UNL A   1      31.767  28.919  24.061  1.00  0.00     0.261 C 
BRANCH   2   3
ATOM      3  O   UNL A   1      31.181  27.890  23.257  1.00  0.00    -0.460 OA
BRANCH   3   4
ATOM      4  C   UNL A   1      30.080  27.211  23.685  1.00  0.00     0.338 C 
ATOM      5  O   UNL A   1      28.943  27.598  23.692  1.00  0.00    -0.246 OA
BRANCH   4   6
ATOM      6  C   UNL A   1      30.571  25.867  24.101  1.00  0.00     0.065 A 
ATOM      7  C   UNL A   1      31.271  24.265  25.765  1.00  0.00     0.038 A 
ATOM      8  C   UNL A   1      31.163  23.251  24.793  1.00  0.00     0.026 A 
ATOM      9  C   UNL A   1      30.946  25.599  25.435  1.00  0.00    -0.013 A 
ATOM     10  C   UNL A   1      30.836  23.534  23.479  1.00  0.00     0.003 A 
ATOM     11  C   UNL A   1      31.086  26.698  26.462  1.00  0.00     0.047 C 
ATOM     12  C   UNL A   1      30.572  24.844  23.131  1.00  0.00     0.016 A 
BRANCH   7  13
ATOM     13  N   UNL A   1      31.804  23.931  27.012  1.00  0.00    -0.381 N 
ATOM     14  H   UNL A   1      31.969  24.611  27.705  1.00  0.00     0.160 HD
BRANCH  13  15
ATOM     15  C   UNL A   1      32.102  22.530  27.230  1.00  0.00     0.149 C 
BRANCH  15  16
ATOM     16  C   UNL A   1      33.417  22.188  26.586  1.00  0.00    -0.024 A 
ATOM     17  C   UNL A   1      35.848  21.556  25.302  1.00  0.00     0.175 A 
ATOM     18  C   UNL A   1      35.655  22.810  25.910  1.00  0.00     0.064 A 
ATOM     19  C   UNL A   1      34.788  20.634  25.292  1.00  0.00     0.162 A 
ATOM     20  Br  UNL A   1      36.893  24.238  25.735  1.00  0.00    -0.047 Br
ATOM     21  C   UNL A   1      34.471  23.103  26.591  1.00  0.00     0.025 A 
ATOM     22  C   UNL A   1      33.593  20.958  25.950  1.00  0.00     0.056 A 
BRANCH  17  23
ATOM     23  O   UNL A   1      37.023  21.315  24.641  1.00  0.00    -0.489 OA
BRANCH  23  24
ATOM     24  C   UNL A   1      37.995  20.632  25.449  1.00  0.00     0.226 C 
ATOM     25  C   UNL A   1      39.100  21.551  25.929  1.00  0.00     0.049 C 
ENDBRANCH  23  24
ENDBRANCH  17  23
BRANCH  19  26
ATOM     26  O   UNL A   1      34.714  19.403  24.696  1.00  0.00    -0.493 OA
ATOM     27  C   UNL A   1      33.445  18.924  24.283  1.00  0.00     0.278 C 
ENDBRANCH  19  26
ENDBRANCH  15  16
ENDBRANCH  13  15
ENDBRANCH   7  13
ENDBRANCH   4   6
ENDBRANCH   3   4
ENDBRANCH   2   3
ENDBRANCH   1   2
BRANCH   1  28
ATOM     28  O   UNL A   1      31.340  30.650  25.459  1.00  0.00    -0.374 OA
BRANCH  28  29
ATOM     29  C   UNL A   1      32.457  30.022  26.025  1.00  0.00     0.202 C 
BRANCH  29  30
ATOM     30  C   UNL A   1      33.165  30.946  27.016  1.00  0.00     0.261 C 
BRANCH  30  31
ATOM     31  O   UNL A   1      33.955  30.166  27.947  1.00  0.00    -0.460 OA
BRANCH  31  32
ATOM     32  C   UNL A   1      35.092  30.759  28.421  1.00  0.00     0.338 C 
ATOM     33  O   UNL A   1      35.267  31.962  28.506  1.00  0.00    -0.246 OA
BRANCH  32  34
ATOM     34  C   UNL A   1      36.148  29.732  28.682  1.00  0.00     0.060 A 
ATOM     35  C   UNL A   1      36.539  29.417  30.003  1.00  0.00     0.016 A 
ATOM     36  C   UNL A   1      36.936  29.324  27.611  1.00  0.00     0.016 A 
ATOM     37  C   UNL A   1      37.792  28.829  30.253  1.00  0.00     0.010 A 
ATOM     38  C   UNL A   1      38.208  28.864  27.869  1.00  0.00     0.010 A 
ATOM     39  C   UNL A   1      38.657  28.625  29.181  1.00  0.00    -0.014 A 
BRANCH  39  40
ATOM     40  C   UNL A   1      40.075  28.250  29.252  1.00  0.00     0.031 A 
ATOM     41  C   UNL A   1      40.424  26.878  28.840  1.00  0.00     0.074 A 
ATOM     42  C   UNL A   1      41.041  29.191  29.382  1.00  0.00     0.049 A 
ATOM     43  N   UNL A   1      41.560  26.320  29.061  1.00  0.00    -0.248 NA
ATOM     44  C   UNL A   1      39.470  25.962  28.214  1.00  0.00     0.031 C 
ATOM     45  C   UNL A   1      42.424  29.167  28.901  1.00  0.00     0.029 A 
ATOM     46  N   UNL A   1      40.943  30.447  29.970  1.00  0.00    -0.354 N 
ATOM     47  C   UNL A   1      41.612  25.180  28.293  1.00  0.00     0.074 A 
ATOM     48  C   UNL A   1      40.242  24.907  27.964  1.00  0.00     0.031 C 
ATOM     49  C   UNL A   1      43.095  30.229  29.391  1.00  0.00     0.029 A 
ATOM     50  C   UNL A   1      42.208  30.934  30.306  1.00  0.00     0.049 A 
ATOM     51  H   UNL A   1      40.098  30.927  30.127  1.00  0.00     0.167 HD
ATOM     52  C   UNL A   1      42.833  24.728  27.887  1.00  0.00     0.034 A 
ATOM     53  C   UNL A   1      42.438  31.324  31.587  1.00  0.00     0.034 A 
ATOM     54  C   UNL A   1      43.898  25.537  28.519  1.00  0.00     0.049 A 
ATOM     55  C   UNL A   1      43.302  30.232  32.170  1.00  0.00     0.074 A 
ATOM     56  C   UNL A   1      44.761  26.500  28.025  1.00  0.00     0.029 A 
ATOM     57  N   UNL A   1      43.930  25.681  29.913  1.00  0.00    -0.354 N 
ATOM     58  N   UNL A   1      43.352  29.027  31.657  1.00  0.00    -0.248 NA
ATOM     59  C   UNL A   1      44.288  30.440  33.219  1.00  0.00     0.031 C 
ATOM     60  C   UNL A   1      45.208  27.296  29.125  1.00  0.00     0.029 A 
ATOM     61  C   UNL A   1      44.652  26.800  30.297  1.00  0.00     0.049 A 
ATOM     62  H   UNL A   1      43.492  25.063  30.543  1.00  0.00     0.167 HD
ATOM     63  C   UNL A   1      44.424  28.365  32.159  1.00  0.00     0.074 A 
ATOM     64  C   UNL A   1      44.949  29.269  33.179  1.00  0.00     0.031 C 
ATOM     65  C   UNL A   1      44.830  27.139  31.709  1.00  0.00     0.034 A 
BRANCH  52  66
ATOM     66  C   UNL A   1      43.075  23.761  26.726  1.00  0.00     0.023 A 
ATOM     67  C   UNL A   1      42.820  22.384  26.919  1.00  0.00     0.031 A 
ATOM     68  C   UNL A   1      43.587  24.078  25.444  1.00  0.00     0.131 A 
ATOM     69  C   UNL A   1      43.081  21.428  25.910  1.00  0.00     0.055 A 
ATOM     70  C   UNL A   1      43.866  23.129  24.452  1.00  0.00     0.041 A 
ATOM     71  F   UNL A   1      43.843  25.321  25.041  1.00  0.00    -0.206 F 
ATOM     72  C   UNL A   1      43.619  21.794  24.680  1.00  0.00     0.022 A 
BRANCH  69  73
ATOM     73  S   UNL A   1      42.662  19.685  26.187  1.00  0.00     0.124 S 
ATOM     74  O   UNL A   1      41.605  19.455  25.211  1.00  0.00    -0.237 OA
ATOM     75  O   UNL A   1      43.935  19.021  25.934  1.00  0.00    -0.237 OA
ATOM     76  O   UNL A   1      42.221  19.660  27.582  1.00  0.00    -0.744 OA
ENDBRANCH  69  73
ENDBRANCH  52  66
BRANCH  53  77
ATOM     77  C   UNL A   1      41.255  32.056  32.174  1.00  0.00     0.023 A 
ATOM     78  C   UNL A   1      40.539  31.415  33.230  1.00  0.00     0.031 A 
ATOM     79  C   UNL A   1      41.111  33.448  32.069  1.00  0.00     0.131 A 
ATOM     80  C   UNL A   1      39.809  32.164  34.183  1.00  0.00     0.055 A 
ATOM     81  C   UNL A   1      40.381  34.190  33.017  1.00  0.00     0.041 A 
ATOM     82  F   UNL A   1      41.787  34.134  31.136  1.00  0.00    -0.206 F 
ATOM     83  C   UNL A   1      39.749  33.556  34.089  1.00  0.00     0.022 A 
BRANCH  80  84
ATOM     84  S   UNL A   1      39.306  31.385  35.777  1.00  0.00     0.124 S 
ATOM     85  O   UNL A   1      38.402  30.329  35.342  1.00  0.00    -0.237 OA
ATOM     86  O   UNL A   1      40.573  30.936  36.345  1.00  0.00    -0.237 OA
ATOM     87  O   UNL A   1      38.683  32.492  36.502  1.00  0.00    -0.744 OA
ENDBRANCH  80  84
ENDBRANCH  53  77
BRANCH  65  88
ATOM     88  C   UNL A   1      45.548  26.200  32.627  1.00  0.00     0.023 A 
ATOM     89  C   UNL A   1      46.940  26.266  32.768  1.00  0.00     0.031 A 
ATOM     90  C   UNL A   1      44.878  25.289  33.465  1.00  0.00     0.131 A 
ATOM     91  C   UNL A   1      47.629  25.339  33.544  1.00  0.00     0.055 A 
ATOM     92  C   UNL A   1      45.561  24.460  34.356  1.00  0.00     0.041 A 
ATOM     93  F   UNL A   1      43.542  25.175  33.468  1.00  0.00    -0.206 F 
ATOM     94  C   UNL A   1      46.950  24.451  34.370  1.00  0.00     0.022 A 
BRANCH  91  95
ATOM     95  S   UNL A   1      49.414  25.240  33.297  1.00  0.00     0.124 S 
ATOM     96  O   UNL A   1      49.915  25.902  34.502  1.00  0.00    -0.237 OA
ATOM     97  O   UNL A   1      49.649  23.801  33.227  1.00  0.00    -0.237 OA
ATOM     98  O   UNL A   1      49.627  25.970  32.052  1.00  0.00    -0.744 OA
ENDBRANCH  91  95
ENDBRANCH  65  88
ENDBRANCH  39  40
ENDBRANCH  32  34
ENDBRANCH  31  32
ENDBRANCH  30  31
ENDBRANCH  29  30
ENDBRANCH  28  29
ENDBRANCH   1  28
TORSDOF 23
ENDMDL
MODEL 2
REMARK VINA RESULT:     -10.4      4.327     10.499
REMARK SMILES CCOc1c(Br)cc(CNc2cccc(C(=O)OCCOCCOC(=O)c3ccc(-c4c5nc(c(-c6cc(S(=O)(=O)[O-])ccc6F)c6ccc([nH]6)c(-c6cc(S(=O)(=O)[O-])ccc6F)c6nc(c(-c7cc(S(=O)(=O)[O-])ccc7F)c7ccc4[nH]7)C=C6)C=C5)cc3)c2C)cc1OC
REMARK SMILES IDX 20 1 19 2 18 3 16 4 17 5 15 6 11 7 12 8 90 9 13 10 91 11
REMARK SMILES IDX 14 12 10 13 9 15 8 16 4 17 5 18 93 19 6 20 7 21 92 22 3 23
REMARK SMILES IDX 2 24 1 25 94 26 95 27 21 28 22 29 23 30 24 31 25 32 26 33
REMARK SMILES IDX 27 34 28 35 89 36 29 37 88 38 30 39 31 40 32 41 82 42 33 43
REMARK SMILES IDX 87 44 81 45 83 46 34 47 86 48 80 49 79 50 35 52 67 53 47 54
REMARK SMILES IDX 66 55 48 56 51 57 65 58 84 59 49 60 50 61 64 63 85 64 52 65
REMARK SMILES IDX 36 66 37 67 45 68 38 69 44 70 46 71 43 72 39 73 40 74 41 75
REMARK SMILES IDX 42 76 68 77 69 78 77 79 70 80 76 81 78 82 75 83 71 84 72 85
REMARK SMILES IDX 73 86 74 87 53 88 54 89 62 90 55 91 61 92 63 93 60 94 56 95
REMARK SMILES IDX 57 96 58 97 59 98
REMARK H PARENT 10 14 83 51 51 62
REMARK Flexibility Score: inf
ROOT
ATOM      1  C   UNL A   1      43.648  18.732  25.012  1.00  0.00     0.202 C 
ENDROOT
BRANCH   1   2
ATOM      2  C   UNL A   1      43.133  19.470  26.187  1.00  0.00     0.261 C 
BRANCH   2   3
ATOM      3  O   UNL A   1      41.802  19.931  25.935  1.00  0.00    -0.460 OA
BRANCH   3   4
ATOM      4  C   UNL A   1      40.940  20.175  26.961  1.00  0.00     0.338 C 
ATOM      5  O   UNL A   1      40.859  19.581  28.002  1.00  0.00    -0.246 OA
BRANCH   4   6
ATOM      6  C   UNL A   1      40.145  21.366  26.547  1.00  0.00     0.065 A 
ATOM      7  C   UNL A   1      38.202  22.406  25.563  1.00  0.00     0.038 A 
ATOM      8  C   UNL A   1      38.613  23.634  26.118  1.00  0.00     0.026 A 
ATOM      9  C   UNL A   1      38.958  21.236  25.796  1.00  0.00    -0.013 A 
ATOM     10  C   UNL A   1      39.801  23.755  26.816  1.00  0.00     0.003 A 
ATOM     11  C   UNL A   1      38.541  19.920  25.181  1.00  0.00     0.047 C 
ATOM     12  C   UNL A   1      40.578  22.629  27.000  1.00  0.00     0.016 A 
BRANCH   7  13
ATOM     13  N   UNL A   1      37.103  22.405  24.701  1.00  0.00    -0.381 N 
ATOM     14  H   UNL A   1      36.700  21.568  24.375  1.00  0.00     0.160 HD
BRANCH  13  15
ATOM     15  C   UNL A   1      36.588  23.703  24.313  1.00  0.00     0.149 C 
BRANCH  15  16
ATOM     16  C   UNL A   1      35.254  23.933  24.969  1.00  0.00    -0.024 A 
ATOM     17  C   UNL A   1      32.716  24.320  26.137  1.00  0.00     0.175 A 
ATOM     18  C   UNL A   1      33.625  23.390  26.672  1.00  0.00     0.064 A 
ATOM     19  C   UNL A   1      33.067  25.021  24.971  1.00  0.00     0.162 A 
ATOM     20  Br  UNL A   1      33.158  22.179  28.058  1.00  0.00    -0.047 Br
ATOM     21  C   UNL A   1      34.901  23.236  26.126  1.00  0.00     0.025 A 
ATOM     22  C   UNL A   1      34.339  24.828  24.413  1.00  0.00     0.056 A 
BRANCH  17  23
ATOM     23  O   UNL A   1      31.474  24.433  26.703  1.00  0.00    -0.489 OA
BRANCH  23  24
ATOM     24  C   UNL A   1      30.526  23.492  26.177  1.00  0.00     0.226 C 
ATOM     25  C   UNL A   1      29.578  22.969  27.237  1.00  0.00     0.049 C 
ENDBRANCH  23  24
ENDBRANCH  17  23
BRANCH  19  26
ATOM     26  O   UNL A   1      32.325  25.901  24.230  1.00  0.00    -0.493 OA
ATOM     27  C   UNL A   1      32.998  26.795  23.360  1.00  0.00     0.278 C 
ENDBRANCH  19  26
ENDBRANCH  15  16
ENDBRANCH  13  15
ENDBRANCH   7  13
ENDBRANCH   4   6
ENDBRANCH   3   4
ENDBRANCH   2   3
ENDBRANCH   1   2
BRANCH   1  28
ATOM     28  O   UNL A   1      45.056  18.768  25.216  1.00  0.00    -0.374 OA
BRANCH  28  29
ATOM     29  C   UNL A   1      45.766  19.573  24.317  1.00  0.00     0.202 C 
BRANCH  29  30
ATOM     30  C   UNL A   1      46.003  20.968  24.897  1.00  0.00     0.261 C 
BRANCH  30  31
ATOM     31  O   UNL A   1      45.347  21.966  24.075  1.00  0.00    -0.460 OA
BRANCH  31  32
ATOM     32  C   UNL A   1      44.246  22.569  24.618  1.00  0.00     0.338 C 
ATOM     33  O   UNL A   1      43.097  22.374  24.258  1.00  0.00    -0.246 OA
BRANCH  32  34
ATOM     34  C   UNL A   1      44.655  23.609  25.611  1.00  0.00     0.060 A 
ATOM     35  C   UNL A   1      44.288  23.494  26.970  1.00  0.00     0.016 A 
ATOM     36  C   UNL A   1      45.132  24.821  25.123  1.00  0.00     0.016 A 
ATOM     37  C   UNL A   1      44.257  24.631  27.797  1.00  0.00     0.010 A 
ATOM     38  C   UNL A   1      44.981  25.948  25.900  1.00  0.00     0.010 A 
ATOM     39  C   UNL A   1      44.532  25.873  27.232  1.00  0.00    -0.014 A 
BRANCH  39  40
ATOM     40  C   UNL A   1      44.328  27.189  27.851  1.00  0.00     0.031 A 
ATOM     41  C   UNL A   1      42.937  27.667  27.959  1.00  0.00     0.074 A 
ATOM     42  C   UNL A   1      45.313  27.787  28.564  1.00  0.00     0.049 A 
ATOM     43  N   UNL A   1      42.604  28.873  28.252  1.00  0.00    -0.248 NA
ATOM     44  C   UNL A   1      41.777  26.832  27.648  1.00  0.00     0.031 C 
ATOM     45  C   UNL A   1      45.204  28.708  29.697  1.00  0.00     0.029 A 
ATOM     46  N   UNL A   1      46.688  27.634  28.423  1.00  0.00    -0.354 N 
ATOM     47  C   UNL A   1      41.259  28.867  28.541  1.00  0.00     0.074 A 
ATOM     48  C   UNL A   1      40.772  27.650  27.957  1.00  0.00     0.031 C 
ATOM     49  C   UNL A   1      46.422  29.201  30.001  1.00  0.00     0.029 A 
ATOM     50  C   UNL A   1      47.365  28.708  29.006  1.00  0.00     0.049 A 
ATOM     51  H   UNL A   1      47.124  26.874  27.975  1.00  0.00     0.167 HD
ATOM     52  C   UNL A   1      40.778  29.811  29.399  1.00  0.00     0.034 A 
ATOM     53  C   UNL A   1      48.253  29.407  28.253  1.00  0.00     0.034 A 
ATOM     54  C   UNL A   1      41.852  30.771  29.737  1.00  0.00     0.049 A 
ATOM     55  C   UNL A   1      47.557  30.712  27.954  1.00  0.00     0.074 A 
ATOM     56  C   UNL A   1      42.599  30.976  30.884  1.00  0.00     0.029 A 
ATOM     57  N   UNL A   1      42.545  31.429  28.712  1.00  0.00    -0.354 N 
ATOM     58  N   UNL A   1      46.255  30.847  28.025  1.00  0.00    -0.248 NA
ATOM     59  C   UNL A   1      48.244  31.978  27.745  1.00  0.00     0.031 C 
ATOM     60  C   UNL A   1      43.801  31.653  30.511  1.00  0.00     0.029 A 
ATOM     61  C   UNL A   1      43.777  31.897  29.144  1.00  0.00     0.049 A 
ATOM     62  H   UNL A   1      42.201  31.545  27.797  1.00  0.00     0.167 HD
ATOM     63  C   UNL A   1      45.935  32.165  28.032  1.00  0.00     0.074 A 
ATOM     64  C   UNL A   1      47.211  32.837  27.796  1.00  0.00     0.031 C 
ATOM     65  C   UNL A   1      44.667  32.631  28.244  1.00  0.00     0.034 A 
BRANCH  52  66
ATOM     66  C   UNL A   1      39.448  29.725  30.151  1.00  0.00     0.023 A 
ATOM     67  C   UNL A   1      38.582  30.842  30.139  1.00  0.00     0.031 A 
ATOM     68  C   UNL A   1      38.975  28.638  30.927  1.00  0.00     0.131 A 
ATOM     69  C   UNL A   1      37.367  30.852  30.863  1.00  0.00     0.055 A 
ATOM     70  C   UNL A   1      37.783  28.656  31.662  1.00  0.00     0.041 A 
ATOM     71  F   UNL A   1      39.613  27.473  31.027  1.00  0.00    -0.206 F 
ATOM     72  C   UNL A   1      36.971  29.768  31.639  1.00  0.00     0.022 A 
BRANCH  69  73
ATOM     73  S   UNL A   1      36.259  32.284  30.748  1.00  0.00     0.124 S 
ATOM     74  O   UNL A   1      35.243  31.824  29.811  1.00  0.00    -0.237 OA
ATOM     75  O   UNL A   1      35.836  32.455  32.132  1.00  0.00    -0.237 OA
ATOM     76  O   UNL A   1      37.128  33.344  30.234  1.00  0.00    -0.744 OA
ENDBRANCH  69  73
ENDBRANCH  52  66
BRANCH  53  77
ATOM     77  C   UNL A   1      49.065  28.502  27.357  1.00  0.00     0.023 A 
ATOM     78  C   UNL A   1      48.438  28.006  26.174  1.00  0.00     0.031 A 
ATOM     79  C   UNL A   1      50.469  28.499  27.375  1.00  0.00     0.131 A 
ATOM     80  C   UNL A   1      49.198  27.632  25.042  1.00  0.00     0.055 A 
ATOM     81  C   UNL A   1      51.222  28.122  26.247  1.00  0.00     0.041 A 
ATOM     82  F   UNL A   1      51.137  28.993  28.427  1.00  0.00    -0.206 F 
ATOM     83  C   UNL A   1      50.592  27.712  25.070  1.00  0.00     0.022 A 
BRANCH  80  84
ATOM     84  S   UNL A   1      48.379  27.460  23.398  1.00  0.00     0.124 S 
ATOM     85  O   UNL A   1      49.349  28.065  22.496  1.00  0.00    -0.237 OA
ATOM     86  O   UNL A   1      48.204  26.018  23.261  1.00  0.00    -0.237 OA
ATOM     87  O   UNL A   1      47.129  28.202  23.574  1.00  0.00    -0.744 OA
ENDBRANCH  80  84
ENDBRANCH  53  77
BRANCH  65  88
ATOM     88  C   UNL A   1      44.234  33.934  27.649  1.00  0.00     0.023 A 
ATOM     89  C   UNL A   1      44.354  35.124  28.377  1.00  0.00     0.031 A 
ATOM     90  C   UNL A   1      43.793  34.058  26.319  1.00  0.00     0.131 A 
ATOM     91  C   UNL A   1      43.869  36.328  27.874  1.00  0.00     0.055 A 
ATOM     92  C   UNL A   1      43.446  35.290  25.764  1.00  0.00     0.041 A 
ATOM     93  F   UNL A   1      43.693  33.000  25.501  1.00  0.00    -0.206 F 
ATOM     94  C   UNL A   1      43.442  36.432  26.555  1.00  0.00     0.022 A 
BRANCH  91  95
ATOM     95  S   UNL A   1      43.668  37.680  29.053  1.00  0.00     0.124 S 
ATOM     96  O   UNL A   1      44.872  38.470  28.802  1.00  0.00    -0.237 OA
ATOM     97  O   UNL A   1      42.414  38.292  28.627  1.00  0.00    -0.237 OA
ATOM     98  O   UNL A   1      43.627  37.002  30.345  1.00  0.00    -0.744 OA
ENDBRANCH  91  95
ENDBRANCH  65  88
ENDBRANCH  39  40
ENDBRANCH  32  34
ENDBRANCH  31  32
ENDBRANCH  30  31
ENDBRANCH  29  30
ENDBRANCH  28  29
ENDBRANCH   1  28
TORSDOF 23
ENDMDL
MODEL 3
REMARK VINA RESULT:     -10.1      1.864      2.369
REMARK SMILES CCOc1c(Br)cc(CNc2cccc(C(=O)OCCOCCOC(=O)c3ccc(-c4c5nc(c(-c6cc(S(=O)(=O)[O-])ccc6F)c6ccc([nH]6)c(-c6cc(S(=O)(=O)[O-])ccc6F)c6nc(c(-c7cc(S(=O)(=O)[O-])ccc7F)c7ccc4[nH]7)C=C6)C=C5)cc3)c2C)cc1OC
REMARK SMILES IDX 20 1 19 2 18 3 16 4 17 5 15 6 11 7 12 8 90 9 13 10 91 11
REMARK SMILES IDX 14 12 10 13 9 15 8 16 4 17 5 18 93 19 6 20 7 21 92 22 3 23
REMARK SMILES IDX 2 24 1 25 94 26 95 27 21 28 22 29 23 30 24 31 25 32 26 33
REMARK SMILES IDX 27 34 28 35 89 36 29 37 88 38 30 39 31 40 32 41 82 42 33 43
REMARK SMILES IDX 87 44 81 45 83 46 34 47 86 48 80 49 79 50 35 52 67 53 47 54
REMARK SMILES IDX 66 55 48 56 51 57 65 58 84 59 49 60 50 61 64 63 85 64 52 65
REMARK SMILES IDX 36 66 37 67 45 68 38 69 44 70 46 71 43 72 39 73 40 74 41 75
REMARK SMILES IDX 42 76 68 77 69 78 77 79 70 80 76 81 78 82 75 83 71 84 72 85
REMARK SMILES IDX 73 86 74 87 53 88 54 89 62 90 55 91 61 92 63 93 60 94 56 95
REMARK SMILES IDX 57 96 58 97 59 98
REMARK H PARENT 10 14 83 51 51 62
REMARK Flexibility Score: inf
ROOT
ATOM      1  C   UNL A   1      30.324  29.888  24.117  1.00  0.00     0.202 C 
ENDROOT
BRANCH   1   2
ATOM      2  C   UNL A   1      31.439  29.232  23.397  1.00  0.00     0.261 C 
BRANCH   2   3
ATOM      3  O   UNL A   1      30.931  28.239  22.502  1.00  0.00    -0.460 OA
BRANCH   3   4
ATOM      4  C   UNL A   1      31.564  27.042  22.353  1.00  0.00     0.338 C 
ATOM      5  O   UNL A   1      31.779  26.453  21.329  1.00  0.00    -0.246 OA
BRANCH   4   6
ATOM      6  C   UNL A   1      31.979  26.631  23.725  1.00  0.00     0.065 A 
ATOM      7  C   UNL A   1      31.634  25.453  25.802  1.00  0.00     0.038 A 
ATOM      8  C   UNL A   1      32.991  25.667  26.116  1.00  0.00     0.026 A 
ATOM      9  C   UNL A   1      31.111  25.914  24.574  1.00  0.00    -0.013 A 
ATOM     10  C   UNL A   1      33.819  26.409  25.294  1.00  0.00     0.003 A 
ATOM     11  C   UNL A   1      29.650  25.714  24.241  1.00  0.00     0.047 C 
ATOM     12  C   UNL A   1      33.303  26.914  24.118  1.00  0.00     0.016 A 
BRANCH   7  13
ATOM     13  N   UNL A   1      30.814  24.875  26.774  1.00  0.00    -0.381 N 
ATOM     14  H   UNL A   1      30.585  25.347  27.608  1.00  0.00     0.160 HD
BRANCH  13  15
ATOM     15  C   UNL A   1      30.317  23.544  26.490  1.00  0.00     0.149 C 
BRANCH  15  16
ATOM     16  C   UNL A   1      31.451  22.672  26.025  1.00  0.00    -0.024 A 
ATOM     17  C   UNL A   1      33.550  20.975  25.205  1.00  0.00     0.175 A 
ATOM     18  C   UNL A   1      32.429  21.190  24.382  1.00  0.00     0.064 A 
ATOM     19  C   UNL A   1      33.587  21.576  26.475  1.00  0.00     0.162 A 
ATOM     20  Br  UNL A   1      32.126  20.211  22.784  1.00  0.00    -0.047 Br
ATOM     21  C   UNL A   1      31.415  22.070  24.765  1.00  0.00     0.025 A 
ATOM     22  C   UNL A   1      32.543  22.429  26.859  1.00  0.00     0.056 A 
BRANCH  17  23
ATOM     23  O   UNL A   1      34.517  20.099  24.790  1.00  0.00    -0.489 OA
BRANCH  23  24
ATOM     24  C   UNL A   1      35.829  20.685  24.748  1.00  0.00     0.226 C 
ATOM     25  C   UNL A   1      36.924  19.673  25.015  1.00  0.00     0.049 C 
ENDBRANCH  23  24
ENDBRANCH  17  23
BRANCH  19  26
ATOM     26  O   UNL A   1      34.519  21.446  27.470  1.00  0.00    -0.493 OA
ATOM     27  C   UNL A   1      35.198  22.606  27.919  1.00  0.00     0.278 C 
ENDBRANCH  19  26
ENDBRANCH  15  16
ENDBRANCH  13  15
ENDBRANCH   7  13
ENDBRANCH   4   6
ENDBRANCH   3   4
ENDBRANCH   2   3
ENDBRANCH   1   2
BRANCH   1  28
ATOM     28  O   UNL A   1      31.004  30.735  25.036  1.00  0.00    -0.374 OA
BRANCH  28  29
ATOM     29  C   UNL A   1      31.867  30.077  25.922  1.00  0.00     0.202 C 
BRANCH  29  30
ATOM     30  C   UNL A   1      32.550  31.070  26.864  1.00  0.00     0.261 C 
BRANCH  30  31
ATOM     31  O   UNL A   1      33.462  30.371  27.746  1.00  0.00    -0.460 OA
BRANCH  31  32
ATOM     32  C   UNL A   1      34.660  30.984  27.986  1.00  0.00     0.338 C 
ATOM     33  O   UNL A   1      34.882  32.171  27.819  1.00  0.00    -0.246 OA
BRANCH  32  34
ATOM     34  C   UNL A   1      35.703  29.972  28.339  1.00  0.00     0.060 A 
ATOM     35  C   UNL A   1      36.025  29.705  29.688  1.00  0.00     0.016 A 
ATOM     36  C   UNL A   1      36.549  29.530  27.326  1.00  0.00     0.016 A 
ATOM     37  C   UNL A   1      37.264  29.132  30.025  1.00  0.00     0.010 A 
ATOM     38  C   UNL A   1      37.807  29.086  27.667  1.00  0.00     0.010 A 
ATOM     39  C   UNL A   1      38.186  28.895  29.009  1.00  0.00    -0.014 A 
BRANCH  39  40
ATOM     40  C   UNL A   1      39.599  28.529  29.168  1.00  0.00     0.031 A 
ATOM     41  C   UNL A   1      39.977  27.151  28.804  1.00  0.00     0.074 A 
ATOM     42  C   UNL A   1      40.552  29.478  29.335  1.00  0.00     0.049 A 
ATOM     43  N   UNL A   1      41.102  26.604  29.100  1.00  0.00    -0.248 NA
ATOM     44  C   UNL A   1      39.065  26.219  28.141  1.00  0.00     0.031 C 
ATOM     45  C   UNL A   1      41.960  29.452  28.934  1.00  0.00     0.029 A 
ATOM     46  N   UNL A   1      40.414  30.745  29.892  1.00  0.00    -0.354 N 
ATOM     47  C   UNL A   1      41.202  25.450  28.358  1.00  0.00     0.074 A 
ATOM     48  C   UNL A   1      39.855  25.163  27.957  1.00  0.00     0.031 C 
ATOM     49  C   UNL A   1      42.597  30.527  29.441  1.00  0.00     0.029 A 
ATOM     50  C   UNL A   1      41.655  31.245  30.291  1.00  0.00     0.049 A 
ATOM     51  H   UNL A   1      39.559  31.223  29.991  1.00  0.00     0.167 HD
ATOM     52  C   UNL A   1      42.447  24.998  28.032  1.00  0.00     0.034 A 
ATOM     53  C   UNL A   1      41.810  31.660  31.574  1.00  0.00     0.034 A 
ATOM     54  C   UNL A   1      43.470  25.824  28.707  1.00  0.00     0.049 A 
ATOM     55  C   UNL A   1      42.644  30.584  32.227  1.00  0.00     0.074 A 
ATOM     56  C   UNL A   1      44.356  26.783  28.246  1.00  0.00     0.029 A 
ATOM     57  N   UNL A   1      43.421  25.995  30.098  1.00  0.00    -0.354 N 
ATOM     58  N   UNL A   1      42.729  29.370  31.741  1.00  0.00    -0.248 NA
ATOM     59  C   UNL A   1      43.568  30.818  33.327  1.00  0.00     0.031 C 
ATOM     60  C   UNL A   1      44.735  27.602  29.353  1.00  0.00     0.029 A 
ATOM     61  C   UNL A   1      44.115  27.125  30.501  1.00  0.00     0.049 A 
ATOM     62  H   UNL A   1      42.951  25.386  30.713  1.00  0.00     0.167 HD
ATOM     63  C   UNL A   1      43.774  28.724  32.316  1.00  0.00     0.074 A 
ATOM     64  C   UNL A   1      44.235  29.651  33.347  1.00  0.00     0.031 C 
ATOM     65  C   UNL A   1      44.210  27.492  31.915  1.00  0.00     0.034 A 
BRANCH  52  66
ATOM     66  C   UNL A   1      42.759  24.010  26.905  1.00  0.00     0.023 A 
ATOM     67  C   UNL A   1      42.286  22.682  27.010  1.00  0.00     0.031 A 
ATOM     68  C   UNL A   1      43.533  24.256  25.745  1.00  0.00     0.131 A 
ATOM     69  C   UNL A   1      42.592  21.702  26.037  1.00  0.00     0.055 A 
ATOM     70  C   UNL A   1      43.854  23.281  24.792  1.00  0.00     0.041 A 
ATOM     71  F   UNL A   1      44.027  25.452  25.430  1.00  0.00    -0.206 F 
ATOM     72  C   UNL A   1      43.388  21.993  24.934  1.00  0.00     0.022 A 
BRANCH  69  73
ATOM     73  S   UNL A   1      41.894  20.035  26.184  1.00  0.00     0.124 S 
ATOM     74  O   UNL A   1      42.302  19.637  27.525  1.00  0.00    -0.237 OA
ATOM     75  O   UNL A   1      40.471  20.281  25.984  1.00  0.00    -0.237 OA
ATOM     76  O   UNL A   1      42.549  19.296  25.103  1.00  0.00    -0.744 OA
ENDBRANCH  69  73
ENDBRANCH  52  66
BRANCH  53  77
ATOM     77  C   UNL A   1      40.592  32.397  32.079  1.00  0.00     0.023 A 
ATOM     78  C   UNL A   1      39.818  31.771  33.102  1.00  0.00     0.031 A 
ATOM     79  C   UNL A   1      40.449  33.786  31.941  1.00  0.00     0.131 A 
ATOM     80  C   UNL A   1      39.031  32.532  33.998  1.00  0.00     0.055 A 
ATOM     81  C   UNL A   1      39.662  34.541  32.831  1.00  0.00     0.041 A 
ATOM     82  F   UNL A   1      41.176  34.459  31.037  1.00  0.00    -0.206 F 
ATOM     83  C   UNL A   1      38.972  33.923  33.876  1.00  0.00     0.022 A 
BRANCH  80  84
ATOM     84  S   UNL A   1      38.439  31.779  35.573  1.00  0.00     0.124 S 
ATOM     85  O   UNL A   1      38.345  30.366  35.233  1.00  0.00    -0.237 OA
ATOM     86  O   UNL A   1      39.488  32.129  36.526  1.00  0.00    -0.237 OA
ATOM     87  O   UNL A   1      37.165  32.460  35.806  1.00  0.00    -0.744 OA
ENDBRANCH  80  84
ENDBRANCH  53  77
BRANCH  65  88
ATOM     88  C   UNL A   1      44.878  26.575  32.890  1.00  0.00     0.023 A 
ATOM     89  C   UNL A   1      44.180  26.086  34.001  1.00  0.00     0.031 A 
ATOM     90  C   UNL A   1      46.179  26.072  32.700  1.00  0.00     0.131 A 
ATOM     91  C   UNL A   1      44.814  25.309  34.966  1.00  0.00     0.055 A 
ATOM     92  C   UNL A   1      46.765  25.173  33.592  1.00  0.00     0.041 A 
ATOM     93  F   UNL A   1      46.927  26.416  31.642  1.00  0.00    -0.206 F 
ATOM     94  C   UNL A   1      46.098  24.817  34.758  1.00  0.00     0.022 A 
BRANCH  91  95
ATOM     95  S   UNL A   1      43.963  25.119  36.546  1.00  0.00     0.124 S 
ATOM     96  O   UNL A   1      42.620  24.737  36.112  1.00  0.00    -0.237 OA
ATOM     97  O   UNL A   1      44.734  24.068  37.201  1.00  0.00    -0.237 OA
ATOM     98  O   UNL A   1      44.068  26.443  37.151  1.00  0.00    -0.744 OA
ENDBRANCH  91  95
ENDBRANCH  65  88
ENDBRANCH  39  40
ENDBRANCH  32  34
ENDBRANCH  31  32
ENDBRANCH  30  31
ENDBRANCH  29  30
ENDBRANCH  28  29
ENDBRANCH   1  28
TORSDOF 23
ENDMDL
