MODEL 1
REMARK VINA RESULT:     -11.5      0.000      0.000
REMARK SMILES N#Cc1ccc(C[N@H+]2CCCC[C@H]2C(=O)OCCOCCOC(=O)c2ccc(-c3c4nc(c(-c5cc(S(=O)(=O)[O-])ccc5F)c5ccc([nH]5)c(-c5cc(S(=O)(=O)[O-])ccc5F)c5nc(c(-c6cc(S(=O)(=O)[O-])ccc6F)c6ccc3[nH]6)C=C5)C=C4)cc2)c(F)c1
REMARK SMILES IDX 19 1 18 2 17 3 16 4 14 5 15 6 13 7 8 8 9 9 10 11 12 12 11 13
REMARK SMILES IDX 7 14 6 15 3 16 4 17 90 18 5 19 88 20 89 21 2 22 1 23 20 24
REMARK SMILES IDX 21 25 22 26 23 27 24 28 25 29 26 30 87 31 27 32 86 33 28 34
REMARK SMILES IDX 29 35 30 36 80 37 31 38 85 39 79 40 81 41 32 42 84 43 78 44
REMARK SMILES IDX 77 45 33 47 65 48 45 49 64 50 46 51 49 52 63 53 82 54 47 55
REMARK SMILES IDX 48 56 62 58 83 59 50 60 34 61 35 62 43 63 36 64 42 65 44 66
REMARK SMILES IDX 41 67 37 68 38 69 39 70 40 71 66 72 67 73 75 74 68 75 74 76
REMARK SMILES IDX 76 77 73 78 69 79 70 80 71 81 72 82 51 83 52 84 60 85 53 86
REMARK SMILES IDX 59 87 61 88 58 89 54 90 55 91 56 92 57 93
REMARK H PARENT 8 10 81 46 49 57
REMARK Flexibility Score: inf
ROOT
ATOM      1  O   UNL A   1      35.702  22.498  25.306  1.00  0.00    -0.374 OA
ENDROOT
BRANCH   1   2
ATOM      2  C   UNL A   1      35.144  23.021  26.504  1.00  0.00     0.202 C 
BRANCH   2   3
ATOM      3  C   UNL A   1      33.720  22.736  27.064  1.00  0.00     0.261 C 
BRANCH   3   4
ATOM      4  O   UNL A   1      32.631  22.436  26.174  1.00  0.00    -0.459 OA
BRANCH   4   5
ATOM      5  C   UNL A   1      31.764  23.471  26.151  1.00  0.00     0.364 C 
ATOM      6  O   UNL A   1      31.494  24.061  27.185  1.00  0.00    -0.245 OA
BRANCH   5   7
ATOM      7  C   UNL A   1      31.131  23.831  24.804  1.00  0.00     0.295 C 
ATOM      8  N   UNL A   1      31.606  25.159  24.297  1.00  0.00    -0.319 N 
ATOM      9  C   UNL A   1      33.045  25.178  24.026  1.00  0.00     0.263 C 
ATOM     10  H   UNL A   1      31.149  25.252  23.391  1.00  0.00     0.349 HD
ATOM     11  C   UNL A   1      33.492  24.051  23.075  1.00  0.00     0.062 C 
ATOM     12  C   UNL A   1      31.404  22.769  23.729  1.00  0.00     0.078 C 
ATOM     13  C   UNL A   1      32.878  22.681  23.351  1.00  0.00     0.013 C 
BRANCH   8  14
ATOM     14  C   UNL A   1      31.079  26.370  24.994  1.00  0.00     0.302 C 
BRANCH  14  15
ATOM     15  C   UNL A   1      30.531  27.549  24.199  1.00  0.00     0.042 A 
ATOM     16  C   UNL A   1      29.119  29.840  23.335  1.00  0.00     0.055 A 
ATOM     17  C   UNL A   1      30.418  29.961  23.844  1.00  0.00     0.020 A 
ATOM     18  C   UNL A   1      28.576  28.569  23.127  1.00  0.00     0.059 A 
ATOM     19  C   UNL A   1      31.125  28.823  24.268  1.00  0.00     0.014 A 
ATOM     20  C   UNL A   1      29.289  27.440  23.543  1.00  0.00     0.133 A 
ATOM     21  F   UNL A   1      28.672  26.250  23.487  1.00  0.00    -0.206 F 
BRANCH  16  22
ATOM     22  C   UNL A   1      28.314  31.009  23.125  1.00  0.00     0.099 C 
ATOM     23  N   UNL A   1      27.652  31.952  22.959  1.00  0.00    -0.192 NA
ENDBRANCH  16  22
ENDBRANCH  14  15
ENDBRANCH   8  14
ENDBRANCH   5   7
ENDBRANCH   4   5
ENDBRANCH   3   4
ENDBRANCH   2   3
ENDBRANCH   1   2
BRANCH   1  24
ATOM     24  C   UNL A   1      35.829  21.101  25.082  1.00  0.00     0.202 C 
BRANCH  24  25
ATOM     25  C   UNL A   1      37.189  20.415  25.003  1.00  0.00     0.261 C 
BRANCH  25  26
ATOM     26  O   UNL A   1      38.282  21.333  24.988  1.00  0.00    -0.460 OA
BRANCH  26  27
ATOM     27  C   UNL A   1      39.213  21.041  25.930  1.00  0.00     0.338 C 
ATOM     28  O   UNL A   1      39.782  19.976  26.095  1.00  0.00    -0.246 OA
BRANCH  27  29
ATOM     29  C   UNL A   1      39.640  22.275  26.602  1.00  0.00     0.060 A 
ATOM     30  C   UNL A   1      39.069  23.471  26.145  1.00  0.00     0.016 A 
ATOM     31  C   UNL A   1      40.619  22.273  27.594  1.00  0.00     0.016 A 
ATOM     32  C   UNL A   1      39.522  24.683  26.629  1.00  0.00     0.010 A 
ATOM     33  C   UNL A   1      41.101  23.496  28.057  1.00  0.00     0.010 A 
ATOM     34  C   UNL A   1      40.586  24.698  27.534  1.00  0.00    -0.014 A 
BRANCH  34  35
ATOM     35  C   UNL A   1      41.295  25.975  27.741  1.00  0.00     0.031 A 
ATOM     36  C   UNL A   1      40.617  27.041  28.553  1.00  0.00     0.074 A 
ATOM     37  C   UNL A   1      42.551  26.131  27.295  1.00  0.00     0.049 A 
ATOM     38  N   UNL A   1      41.030  28.244  28.851  1.00  0.00    -0.248 NA
ATOM     39  C   UNL A   1      39.293  26.701  29.102  1.00  0.00     0.031 C 
ATOM     40  C   UNL A   1      43.322  25.113  26.582  1.00  0.00     0.029 A 
ATOM     41  N   UNL A   1      43.399  27.199  27.388  1.00  0.00    -0.354 N 
ATOM     42  C   UNL A   1      40.014  28.810  29.614  1.00  0.00     0.074 A 
ATOM     43  C   UNL A   1      38.948  27.833  29.692  1.00  0.00     0.031 C 
ATOM     44  C   UNL A   1      44.539  25.610  26.304  1.00  0.00     0.029 A 
ATOM     45  C   UNL A   1      44.608  26.993  26.770  1.00  0.00     0.049 A 
ATOM     46  H   UNL A   1      43.167  28.034  27.855  1.00  0.00     0.167 HD
ATOM     47  C   UNL A   1      39.984  30.031  30.201  1.00  0.00     0.034 A 
ATOM     48  C   UNL A   1      45.635  27.842  26.580  1.00  0.00     0.034 A 
ATOM     49  C   UNL A   1      41.059  30.986  30.093  1.00  0.00     0.049 A 
ATOM     50  C   UNL A   1      45.524  29.243  27.129  1.00  0.00     0.074 A 
ATOM     51  C   UNL A   1      41.142  32.255  30.633  1.00  0.00     0.029 A 
ATOM     52  N   UNL A   1      42.236  30.780  29.381  1.00  0.00    -0.354 N 
ATOM     53  N   UNL A   1      44.552  29.783  27.830  1.00  0.00    -0.248 NA
ATOM     54  C   UNL A   1      46.650  30.146  26.866  1.00  0.00     0.031 C 
ATOM     55  C   UNL A   1      42.320  32.850  30.173  1.00  0.00     0.029 A 
ATOM     56  C   UNL A   1      43.028  31.916  29.432  1.00  0.00     0.049 A 
ATOM     57  H   UNL A   1      42.471  29.948  28.910  1.00  0.00     0.167 HD
ATOM     58  C   UNL A   1      44.972  31.077  28.127  1.00  0.00     0.074 A 
ATOM     59  C   UNL A   1      46.287  31.228  27.537  1.00  0.00     0.031 C 
ATOM     60  C   UNL A   1      44.335  32.051  28.828  1.00  0.00     0.034 A 
BRANCH  47  61
ATOM     61  C   UNL A   1      38.726  30.413  30.945  1.00  0.00     0.023 A 
ATOM     62  C   UNL A   1      37.649  31.054  30.308  1.00  0.00     0.031 A 
ATOM     63  C   UNL A   1      38.621  30.174  32.327  1.00  0.00     0.131 A 
ATOM     64  C   UNL A   1      36.559  31.509  31.064  1.00  0.00     0.055 A 
ATOM     65  C   UNL A   1      37.489  30.543  33.056  1.00  0.00     0.041 A 
ATOM     66  F   UNL A   1      39.628  29.594  33.000  1.00  0.00    -0.206 F 
ATOM     67  C   UNL A   1      36.457  31.231  32.429  1.00  0.00     0.022 A 
BRANCH  64  68
ATOM     68  S   UNL A   1      35.365  32.625  30.274  1.00  0.00     0.124 S 
ATOM     69  O   UNL A   1      34.326  32.714  31.297  1.00  0.00    -0.237 OA
ATOM     70  O   UNL A   1      36.156  33.830  30.057  1.00  0.00    -0.237 OA
ATOM     71  O   UNL A   1      34.975  31.907  29.062  1.00  0.00    -0.744 OA
ENDBRANCH  64  68
ENDBRANCH  47  61
BRANCH  48  72
ATOM     72  C   UNL A   1      46.836  27.410  25.811  1.00  0.00     0.023 A 
ATOM     73  C   UNL A   1      47.054  27.865  24.502  1.00  0.00     0.031 A 
ATOM     74  C   UNL A   1      47.755  26.495  26.353  1.00  0.00     0.131 A 
ATOM     75  C   UNL A   1      48.132  27.364  23.760  1.00  0.00     0.055 A 
ATOM     76  C   UNL A   1      48.866  26.050  25.634  1.00  0.00     0.041 A 
ATOM     77  F   UNL A   1      47.592  26.021  27.599  1.00  0.00    -0.206 F 
ATOM     78  C   UNL A   1      49.051  26.473  24.322  1.00  0.00     0.022 A 
BRANCH  75  79
ATOM     79  S   UNL A   1      48.252  27.805  22.006  1.00  0.00     0.124 S 
ATOM     80  O   UNL A   1      47.031  28.579  21.814  1.00  0.00    -0.237 OA
ATOM     81  O   UNL A   1      49.502  28.558  21.968  1.00  0.00    -0.237 OA
ATOM     82  O   UNL A   1      48.286  26.510  21.331  1.00  0.00    -0.744 OA
ENDBRANCH  75  79
ENDBRANCH  48  72
BRANCH  60  83
ATOM     83  C   UNL A   1      45.081  33.347  29.041  1.00  0.00     0.023 A 
ATOM     84  C   UNL A   1      44.931  34.444  28.174  1.00  0.00     0.031 A 
ATOM     85  C   UNL A   1      45.964  33.481  30.128  1.00  0.00     0.131 A 
ATOM     86  C   UNL A   1      45.702  35.599  28.370  1.00  0.00     0.055 A 
ATOM     87  C   UNL A   1      46.668  34.662  30.364  1.00  0.00     0.041 A 
ATOM     88  F   UNL A   1      46.154  32.465  30.985  1.00  0.00    -0.206 F 
ATOM     89  C   UNL A   1      46.550  35.725  29.473  1.00  0.00     0.022 A 
BRANCH  86  90
ATOM     90  S   UNL A   1      45.671  36.890  27.097  1.00  0.00     0.124 S 
ATOM     91  O   UNL A   1      44.239  37.064  26.878  1.00  0.00    -0.237 OA
ATOM     92  O   UNL A   1      46.353  37.997  27.759  1.00  0.00    -0.237 OA
ATOM     93  O   UNL A   1      46.401  36.290  25.982  1.00  0.00    -0.744 OA
ENDBRANCH  86  90
ENDBRANCH  60  83
ENDBRANCH  34  35
ENDBRANCH  27  29
ENDBRANCH  26  27
ENDBRANCH  25  26
ENDBRANCH  24  25
ENDBRANCH   1  24
TORSDOF 20
ENDMDL
MODEL 2
REMARK VINA RESULT:     -11.3      5.260     10.662
REMARK SMILES N#Cc1ccc(C[N@H+]2CCCC[C@H]2C(=O)OCCOCCOC(=O)c2ccc(-c3c4nc(c(-c5cc(S(=O)(=O)[O-])ccc5F)c5ccc([nH]5)c(-c5cc(S(=O)(=O)[O-])ccc5F)c5nc(c(-c6cc(S(=O)(=O)[O-])ccc6F)c6ccc3[nH]6)C=C5)C=C4)cc2)c(F)c1
REMARK SMILES IDX 19 1 18 2 17 3 16 4 14 5 15 6 13 7 8 8 9 9 10 11 12 12 11 13
REMARK SMILES IDX 7 14 6 15 3 16 4 17 90 18 5 19 88 20 89 21 2 22 1 23 20 24
REMARK SMILES IDX 21 25 22 26 23 27 24 28 25 29 26 30 87 31 27 32 86 33 28 34
REMARK SMILES IDX 29 35 30 36 80 37 31 38 85 39 79 40 81 41 32 42 84 43 78 44
REMARK SMILES IDX 77 45 33 47 65 48 45 49 64 50 46 51 49 52 63 53 82 54 47 55
REMARK SMILES IDX 48 56 62 58 83 59 50 60 34 61 35 62 43 63 36 64 42 65 44 66
REMARK SMILES IDX 41 67 37 68 38 69 39 70 40 71 66 72 67 73 75 74 68 75 74 76
REMARK SMILES IDX 76 77 73 78 69 79 70 80 71 81 72 82 51 83 52 84 60 85 53 86
REMARK SMILES IDX 59 87 61 88 58 89 54 90 55 91 56 92 57 93
REMARK H PARENT 8 10 81 46 49 57
REMARK Flexibility Score: inf
ROOT
ATOM      1  O   UNL A   1      31.922  28.518  26.433  1.00  0.00    -0.374 OA
ENDROOT
BRANCH   1   2
ATOM      2  C   UNL A   1      32.809  27.464  26.084  1.00  0.00     0.202 C 
BRANCH   2   3
ATOM      3  C   UNL A   1      32.431  26.130  25.378  1.00  0.00     0.261 C 
BRANCH   3   4
ATOM      4  O   UNL A   1      32.427  24.892  26.109  1.00  0.00    -0.459 OA
BRANCH   4   5
ATOM      5  C   UNL A   1      32.374  23.855  25.246  1.00  0.00     0.364 C 
ATOM      6  O   UNL A   1      31.539  23.848  24.355  1.00  0.00    -0.245 OA
BRANCH   5   7
ATOM      7  C   UNL A   1      33.364  22.706  25.461  1.00  0.00     0.295 C 
ATOM      8  N   UNL A   1      33.743  22.043  24.172  1.00  0.00    -0.319 N 
ATOM      9  C   UNL A   1      34.445  22.946  23.257  1.00  0.00     0.263 C 
ATOM     10  H   UNL A   1      34.426  21.340  24.451  1.00  0.00     0.349 HD
ATOM     11  C   UNL A   1      35.677  23.612  23.899  1.00  0.00     0.062 C 
ATOM     12  C   UNL A   1      34.644  23.166  26.172  1.00  0.00     0.078 C 
ATOM     13  C   UNL A   1      35.476  24.121  25.325  1.00  0.00     0.013 C 
BRANCH   8  14
ATOM     14  C   UNL A   1      32.707  21.178  23.533  1.00  0.00     0.302 C 
BRANCH  14  15
ATOM     15  C   UNL A   1      32.522  19.731  23.975  1.00  0.00     0.042 A 
ATOM     16  C   UNL A   1      32.911  17.033  24.726  1.00  0.00     0.055 A 
ATOM     17  C   UNL A   1      32.762  18.024  25.703  1.00  0.00     0.020 A 
ATOM     18  C   UNL A   1      32.730  17.361  23.379  1.00  0.00     0.059 A 
ATOM     19  C   UNL A   1      32.561  19.365  25.333  1.00  0.00     0.014 A 
ATOM     20  C   UNL A   1      32.522  18.697  23.018  1.00  0.00     0.133 A 
ATOM     21  F   UNL A   1      32.522  19.003  21.711  1.00  0.00    -0.206 F 
BRANCH  16  22
ATOM     22  C   UNL A   1      33.348  15.717  25.092  1.00  0.00     0.099 C 
ATOM     23  N   UNL A   1      33.691  14.645  25.388  1.00  0.00    -0.192 NA
ENDBRANCH  16  22
ENDBRANCH  14  15
ENDBRANCH   8  14
ENDBRANCH   5   7
ENDBRANCH   4   5
ENDBRANCH   3   4
ENDBRANCH   2   3
ENDBRANCH   1   2
BRANCH   1  24
ATOM     24  C   UNL A   1      31.909  29.754  25.731  1.00  0.00     0.202 C 
BRANCH  24  25
ATOM     25  C   UNL A   1      31.982  31.095  26.455  1.00  0.00     0.261 C 
BRANCH  25  26
ATOM     26  O   UNL A   1      32.813  31.064  27.615  1.00  0.00    -0.460 OA
BRANCH  26  27
ATOM     27  C   UNL A   1      33.676  32.109  27.657  1.00  0.00     0.338 C 
ATOM     28  O   UNL A   1      33.396  33.295  27.630  1.00  0.00    -0.246 OA
BRANCH  27  29
ATOM     29  C   UNL A   1      35.023  31.625  27.989  1.00  0.00     0.060 A 
ATOM     30  C   UNL A   1      35.156  30.250  28.232  1.00  0.00     0.016 A 
ATOM     31  C   UNL A   1      36.103  32.493  28.131  1.00  0.00     0.016 A 
ATOM     32  C   UNL A   1      36.357  29.741  28.685  1.00  0.00     0.010 A 
ATOM     33  C   UNL A   1      37.305  31.986  28.623  1.00  0.00     0.010 A 
ATOM     34  C   UNL A   1      37.411  30.620  28.947  1.00  0.00    -0.014 A 
BRANCH  34  35
ATOM     35  C   UNL A   1      38.529  30.126  29.774  1.00  0.00     0.031 A 
ATOM     36  C   UNL A   1      39.456  29.105  29.179  1.00  0.00     0.074 A 
ATOM     37  C   UNL A   1      38.758  30.655  30.986  1.00  0.00     0.049 A 
ATOM     38  N   UNL A   1      40.488  28.512  29.716  1.00  0.00    -0.248 NA
ATOM     39  C   UNL A   1      39.178  28.701  27.791  1.00  0.00     0.031 C 
ATOM     40  C   UNL A   1      37.967  31.719  31.602  1.00  0.00     0.029 A 
ATOM     41  N   UNL A   1      39.730  30.376  31.906  1.00  0.00    -0.354 N 
ATOM     42  C   UNL A   1      40.979  27.656  28.736  1.00  0.00     0.074 A 
ATOM     43  C   UNL A   1      40.102  27.776  27.591  1.00  0.00     0.031 C 
ATOM     44  C   UNL A   1      38.491  32.005  32.805  1.00  0.00     0.029 A 
ATOM     45  C   UNL A   1      39.616  31.109  33.061  1.00  0.00     0.049 A 
ATOM     46  H   UNL A   1      40.443  29.715  31.754  1.00  0.00     0.167 HD
ATOM     47  C   UNL A   1      42.070  26.853  28.790  1.00  0.00     0.034 A 
ATOM     48  C   UNL A   1      40.325  31.036  34.203  1.00  0.00     0.034 A 
ATOM     49  C   UNL A   1      42.915  26.747  29.953  1.00  0.00     0.049 A 
ATOM     50  C   UNL A   1      41.454  30.038  34.288  1.00  0.00     0.074 A 
ATOM     51  C   UNL A   1      44.040  25.963  30.132  1.00  0.00     0.029 A 
ATOM     52  N   UNL A   1      42.719  27.439  31.143  1.00  0.00    -0.354 N 
ATOM     53  N   UNL A   1      41.901  29.213  33.367  1.00  0.00    -0.248 NA
ATOM     54  C   UNL A   1      42.176  29.965  35.563  1.00  0.00     0.031 C 
ATOM     55  C   UNL A   1      44.466  26.108  31.455  1.00  0.00     0.029 A 
ATOM     56  C   UNL A   1      43.675  27.064  32.074  1.00  0.00     0.049 A 
ATOM     57  H   UNL A   1      42.005  28.098  31.301  1.00  0.00     0.167 HD
ATOM     58  C   UNL A   1      42.984  28.553  33.942  1.00  0.00     0.074 A 
ATOM     59  C   UNL A   1      43.126  29.087  35.283  1.00  0.00     0.031 C 
ATOM     60  C   UNL A   1      43.794  27.601  33.412  1.00  0.00     0.034 A 
BRANCH  47  61
ATOM     61  C   UNL A   1      42.354  25.986  27.585  1.00  0.00     0.023 A 
ATOM     62  C   UNL A   1      41.830  24.688  27.461  1.00  0.00     0.031 A 
ATOM     63  C   UNL A   1      43.204  26.450  26.565  1.00  0.00     0.131 A 
ATOM     64  C   UNL A   1      42.227  23.871  26.392  1.00  0.00     0.055 A 
ATOM     65  C   UNL A   1      43.518  25.666  25.454  1.00  0.00     0.041 A 
ATOM     66  F   UNL A   1      43.762  27.669  26.641  1.00  0.00    -0.206 F 
ATOM     67  C   UNL A   1      43.044  24.362  25.371  1.00  0.00     0.022 A 
BRANCH  64  68
ATOM     68  S   UNL A   1      41.810  22.106  26.450  1.00  0.00     0.124 S 
ATOM     69  O   UNL A   1      40.381  22.133  26.149  1.00  0.00    -0.237 OA
ATOM     70  O   UNL A   1      42.672  21.544  25.419  1.00  0.00    -0.237 OA
ATOM     71  O   UNL A   1      42.141  21.721  27.822  1.00  0.00    -0.744 OA
ENDBRANCH  64  68
ENDBRANCH  47  61
BRANCH  48  72
ATOM     72  C   UNL A   1      39.973  31.899  35.364  1.00  0.00     0.023 A 
ATOM     73  C   UNL A   1      39.079  31.453  36.348  1.00  0.00     0.031 A 
ATOM     74  C   UNL A   1      40.484  33.205  35.481  1.00  0.00     0.131 A 
ATOM     75  C   UNL A   1      38.680  32.321  37.374  1.00  0.00     0.055 A 
ATOM     76  C   UNL A   1      40.137  34.042  36.542  1.00  0.00     0.041 A 
ATOM     77  F   UNL A   1      41.339  33.687  34.564  1.00  0.00    -0.206 F 
ATOM     78  C   UNL A   1      39.215  33.606  37.489  1.00  0.00     0.022 A 
BRANCH  75  79
ATOM     79  S   UNL A   1      37.360  31.783  38.494  1.00  0.00     0.124 S 
ATOM     80  O   UNL A   1      37.977  31.995  39.798  1.00  0.00    -0.237 OA
ATOM     81  O   UNL A   1      36.275  32.693  38.141  1.00  0.00    -0.237 OA
ATOM     82  O   UNL A   1      37.146  30.387  38.122  1.00  0.00    -0.744 OA
ENDBRANCH  75  79
ENDBRANCH  48  72
BRANCH  60  83
ATOM     83  C   UNL A   1      44.941  27.116  34.268  1.00  0.00     0.023 A 
ATOM     84  C   UNL A   1      44.819  25.999  35.112  1.00  0.00     0.031 A 
ATOM     85  C   UNL A   1      46.174  27.793  34.242  1.00  0.00     0.131 A 
ATOM     86  C   UNL A   1      45.888  25.633  35.944  1.00  0.00     0.055 A 
ATOM     87  C   UNL A   1      47.259  27.375  35.013  1.00  0.00     0.041 A 
ATOM     88  F   UNL A   1      46.347  28.872  33.461  1.00  0.00    -0.206 F 
ATOM     89  C   UNL A   1      47.115  26.298  35.881  1.00  0.00     0.022 A 
BRANCH  86  90
ATOM     90  S   UNL A   1      45.614  24.350  37.196  1.00  0.00     0.124 S 
ATOM     91  O   UNL A   1      44.599  24.968  38.045  1.00  0.00    -0.237 OA
ATOM     92  O   UNL A   1      45.168  23.218  36.392  1.00  0.00    -0.237 OA
ATOM     93  O   UNL A   1      46.928  24.191  37.817  1.00  0.00    -0.744 OA
ENDBRANCH  86  90
ENDBRANCH  60  83
ENDBRANCH  34  35
ENDBRANCH  27  29
ENDBRANCH  26  27
ENDBRANCH  25  26
ENDBRANCH  24  25
ENDBRANCH   1  24
TORSDOF 20
ENDMDL
MODEL 3
REMARK VINA RESULT:     -11.3      5.093     10.455
REMARK SMILES N#Cc1ccc(C[N@H+]2CCCC[C@H]2C(=O)OCCOCCOC(=O)c2ccc(-c3c4nc(c(-c5cc(S(=O)(=O)[O-])ccc5F)c5ccc([nH]5)c(-c5cc(S(=O)(=O)[O-])ccc5F)c5nc(c(-c6cc(S(=O)(=O)[O-])ccc6F)c6ccc3[nH]6)C=C5)C=C4)cc2)c(F)c1
REMARK SMILES IDX 19 1 18 2 17 3 16 4 14 5 15 6 13 7 8 8 9 9 10 11 12 12 11 13
REMARK SMILES IDX 7 14 6 15 3 16 4 17 90 18 5 19 88 20 89 21 2 22 1 23 20 24
REMARK SMILES IDX 21 25 22 26 23 27 24 28 25 29 26 30 87 31 27 32 86 33 28 34
REMARK SMILES IDX 29 35 30 36 80 37 31 38 85 39 79 40 81 41 32 42 84 43 78 44
REMARK SMILES IDX 77 45 33 47 65 48 45 49 64 50 46 51 49 52 63 53 82 54 47 55
REMARK SMILES IDX 48 56 62 58 83 59 50 60 34 61 35 62 43 63 36 64 42 65 44 66
REMARK SMILES IDX 41 67 37 68 38 69 39 70 40 71 66 72 67 73 75 74 68 75 74 76
REMARK SMILES IDX 76 77 73 78 69 79 70 80 71 81 72 82 51 83 52 84 60 85 53 86
REMARK SMILES IDX 59 87 61 88 58 89 54 90 55 91 56 92 57 93
REMARK H PARENT 8 10 81 46 49 57
REMARK Flexibility Score: inf
ROOT
ATOM      1  O   UNL A   1      31.781  29.150  25.323  1.00  0.00    -0.374 OA
ENDROOT
BRANCH   1   2
ATOM      2  C   UNL A   1      32.980  28.889  24.606  1.00  0.00     0.202 C 
BRANCH   2   3
ATOM      3  C   UNL A   1      33.110  28.098  23.273  1.00  0.00     0.261 C 
BRANCH   3   4
ATOM      4  O   UNL A   1      32.064  27.210  22.845  1.00  0.00    -0.459 OA
BRANCH   4   5
ATOM      5  C   UNL A   1      32.538  25.947  22.781  1.00  0.00     0.364 C 
ATOM      6  O   UNL A   1      33.677  25.745  22.391  1.00  0.00    -0.245 OA
BRANCH   5   7
ATOM      7  C   UNL A   1      31.586  24.815  23.178  1.00  0.00     0.295 C 
ATOM      8  N   UNL A   1      32.176  23.930  24.233  1.00  0.00    -0.319 N 
ATOM      9  C   UNL A   1      32.425  24.637  25.491  1.00  0.00     0.263 C 
ATOM     10  H   UNL A   1      31.434  23.259  24.431  1.00  0.00     0.349 HD
ATOM     11  C   UNL A   1      31.175  25.356  26.033  1.00  0.00     0.062 C 
ATOM     12  C   UNL A   1      30.233  25.341  23.679  1.00  0.00     0.078 C 
ATOM     13  C   UNL A   1      30.349  26.107  24.991  1.00  0.00     0.013 C 
BRANCH   8  14
ATOM     14  C   UNL A   1      33.268  23.008  23.800  1.00  0.00     0.302 C 
BRANCH  14  15
ATOM     15  C   UNL A   1      33.137  21.502  23.991  1.00  0.00     0.042 A 
ATOM     16  C   UNL A   1      33.371  18.692  23.786  1.00  0.00     0.055 A 
ATOM     17  C   UNL A   1      34.116  19.395  24.741  1.00  0.00     0.020 A 
ATOM     18  C   UNL A   1      32.410  19.367  23.029  1.00  0.00     0.059 A 
ATOM     19  C   UNL A   1      33.996  20.791  24.850  1.00  0.00     0.014 A 
ATOM     20  C   UNL A   1      32.290  20.756  23.148  1.00  0.00     0.133 A 
ATOM     21  F   UNL A   1      31.481  21.394  22.289  1.00  0.00    -0.206 F 
BRANCH  16  22
ATOM     22  C   UNL A   1      33.662  17.314  23.515  1.00  0.00     0.099 C 
ATOM     23  N   UNL A   1      33.892  16.193  23.303  1.00  0.00    -0.192 NA
ENDBRANCH  16  22
ENDBRANCH  14  15
ENDBRANCH   8  14
ENDBRANCH   5   7
ENDBRANCH   4   5
ENDBRANCH   3   4
ENDBRANCH   2   3
ENDBRANCH   1   2
BRANCH   1  24
ATOM     24  C   UNL A   1      31.132  30.413  25.270  1.00  0.00     0.202 C 
BRANCH  24  25
ATOM     25  C   UNL A   1      31.413  31.509  26.293  1.00  0.00     0.261 C 
BRANCH  25  26
ATOM     26  O   UNL A   1      32.481  31.188  27.183  1.00  0.00    -0.460 OA
BRANCH  26  27
ATOM     27  C   UNL A   1      33.264  32.261  27.456  1.00  0.00     0.338 C 
ATOM     28  O   UNL A   1      32.903  33.418  27.591  1.00  0.00    -0.246 OA
BRANCH  27  29
ATOM     29  C   UNL A   1      34.615  31.809  27.816  1.00  0.00     0.060 A 
ATOM     30  C   UNL A   1      34.771  30.442  28.083  1.00  0.00     0.016 A 
ATOM     31  C   UNL A   1      35.675  32.701  27.959  1.00  0.00     0.016 A 
ATOM     32  C   UNL A   1      35.975  29.964  28.562  1.00  0.00     0.010 A 
ATOM     33  C   UNL A   1      36.879  32.226  28.477  1.00  0.00     0.010 A 
ATOM     34  C   UNL A   1      37.007  30.867  28.825  1.00  0.00    -0.014 A 
BRANCH  34  35
ATOM     35  C   UNL A   1      38.122  30.409  29.676  1.00  0.00     0.031 A 
ATOM     36  C   UNL A   1      39.115  29.447  29.091  1.00  0.00     0.074 A 
ATOM     37  C   UNL A   1      38.288  30.921  30.906  1.00  0.00     0.049 A 
ATOM     38  N   UNL A   1      40.158  28.891  29.647  1.00  0.00    -0.248 NA
ATOM     39  C   UNL A   1      38.899  29.060  27.686  1.00  0.00     0.031 C 
ATOM     40  C   UNL A   1      37.428  31.933  31.519  1.00  0.00     0.029 A 
ATOM     41  N   UNL A   1      39.244  30.669  31.850  1.00  0.00    -0.354 N 
ATOM     42  C   UNL A   1      40.719  28.082  28.665  1.00  0.00     0.074 A 
ATOM     43  C   UNL A   1      39.872  28.185  27.496  1.00  0.00     0.031 C 
ATOM     44  C   UNL A   1      37.901  32.217  32.743  1.00  0.00     0.029 A 
ATOM     45  C   UNL A   1      39.060  31.370  33.016  1.00  0.00     0.049 A 
ATOM     46  H   UNL A   1      39.993  30.046  31.707  1.00  0.00     0.167 HD
ATOM     47  C   UNL A   1      41.844  27.330  28.737  1.00  0.00     0.034 A 
ATOM     48  C   UNL A   1      39.737  31.305  34.178  1.00  0.00     0.034 A 
ATOM     49  C   UNL A   1      42.659  27.239  29.924  1.00  0.00     0.049 A 
ATOM     50  C   UNL A   1      40.909  30.361  34.278  1.00  0.00     0.074 A 
ATOM     51  C   UNL A   1      43.814  26.506  30.122  1.00  0.00     0.029 A 
ATOM     52  N   UNL A   1      42.393  27.895  31.122  1.00  0.00    -0.354 N 
ATOM     53  N   UNL A   1      41.423  29.579  33.355  1.00  0.00    -0.248 NA
ATOM     54  C   UNL A   1      41.594  30.294  35.573  1.00  0.00     0.031 C 
ATOM     55  C   UNL A   1      44.192  26.642  31.461  1.00  0.00     0.029 A 
ATOM     56  C   UNL A   1      43.337  27.545  32.074  1.00  0.00     0.049 A 
ATOM     57  H   UNL A   1      41.644  28.516  31.270  1.00  0.00     0.167 HD
ATOM     58  C   UNL A   1      42.519  28.959  33.950  1.00  0.00     0.074 A 
ATOM     59  C   UNL A   1      42.594  29.468  35.305  1.00  0.00     0.031 C 
ATOM     60  C   UNL A   1      43.390  28.057  33.425  1.00  0.00     0.034 A 
BRANCH  47  61
ATOM     61  C   UNL A   1      42.207  26.505  27.525  1.00  0.00     0.023 A 
ATOM     62  C   UNL A   1      41.813  25.162  27.393  1.00  0.00     0.031 A 
ATOM     63  C   UNL A   1      43.002  27.058  26.505  1.00  0.00     0.131 A 
ATOM     64  C   UNL A   1      42.283  24.397  26.316  1.00  0.00     0.055 A 
ATOM     65  C   UNL A   1      43.386  26.317  25.386  1.00  0.00     0.041 A 
ATOM     66  F   UNL A   1      43.437  28.325  26.588  1.00  0.00    -0.206 F 
ATOM     67  C   UNL A   1      43.042  24.973  25.295  1.00  0.00     0.022 A 
BRANCH  64  68
ATOM     68  S   UNL A   1      42.042  22.599  26.362  1.00  0.00     0.124 S 
ATOM     69  O   UNL A   1      42.817  22.169  25.201  1.00  0.00    -0.237 OA
ATOM     70  O   UNL A   1      42.588  22.240  27.665  1.00  0.00    -0.237 OA
ATOM     71  O   UNL A   1      40.594  22.444  26.226  1.00  0.00    -0.744 OA
ENDBRANCH  64  68
ENDBRANCH  47  61
BRANCH  48  72
ATOM     72  C   UNL A   1      39.308  32.126  35.345  1.00  0.00     0.023 A 
ATOM     73  C   UNL A   1      39.769  33.441  35.508  1.00  0.00     0.031 A 
ATOM     74  C   UNL A   1      38.476  31.591  36.344  1.00  0.00     0.131 A 
ATOM     75  C   UNL A   1      39.439  34.157  36.667  1.00  0.00     0.055 A 
ATOM     76  C   UNL A   1      38.094  32.332  37.463  1.00  0.00     0.041 A 
ATOM     77  F   UNL A   1      38.011  30.334  36.243  1.00  0.00    -0.206 F 
ATOM     78  C   UNL A   1      38.590  33.620  37.637  1.00  0.00     0.022 A 
BRANCH  75  79
ATOM     79  S   UNL A   1      40.231  35.764  36.942  1.00  0.00     0.124 S 
ATOM     80  O   UNL A   1      39.774  36.090  38.288  1.00  0.00    -0.237 OA
ATOM     81  O   UNL A   1      41.645  35.432  36.806  1.00  0.00    -0.237 OA
ATOM     82  O   UNL A   1      39.683  36.600  35.876  1.00  0.00    -0.744 OA
ENDBRANCH  75  79
ENDBRANCH  48  72
BRANCH  60  83
ATOM     83  C   UNL A   1      44.532  27.609  34.307  1.00  0.00     0.023 A 
ATOM     84  C   UNL A   1      44.422  26.497  35.160  1.00  0.00     0.031 A 
ATOM     85  C   UNL A   1      45.749  28.315  34.297  1.00  0.00     0.131 A 
ATOM     86  C   UNL A   1      45.483  26.166  36.015  1.00  0.00     0.055 A 
ATOM     87  C   UNL A   1      46.829  27.932  35.092  1.00  0.00     0.041 A 
ATOM     88  F   UNL A   1      45.910  29.391  33.509  1.00  0.00    -0.206 F 
ATOM     89  C   UNL A   1      46.694  26.860  35.968  1.00  0.00     0.022 A 
BRANCH  86  90
ATOM     90  S   UNL A   1      45.217  24.888  37.274  1.00  0.00     0.124 S 
ATOM     91  O   UNL A   1      43.877  25.211  37.754  1.00  0.00    -0.237 OA
ATOM     92  O   UNL A   1      45.338  23.657  36.501  1.00  0.00    -0.237 OA
ATOM     93  O   UNL A   1      46.293  25.125  38.236  1.00  0.00    -0.744 OA
ENDBRANCH  86  90
ENDBRANCH  60  83
ENDBRANCH  34  35
ENDBRANCH  27  29
ENDBRANCH  26  27
ENDBRANCH  25  26
ENDBRANCH  24  25
ENDBRANCH   1  24
TORSDOF 20
ENDMDL
