MODEL 1
REMARK VINA RESULT:     -11.9      0.000      0.000
REMARK SMILES CC(=C/C(=O)OCCOCCOC(=O)c1ccc(-c2c3nc(c(-c4cc(S(=O)(=O)[O-])ccc4F)c4ccc([nH]4)c(-c4cc(S(=O)(=O)[O-])ccc4F)c4nc(c(-c5cc(S(=O)(=O)[O-])ccc5F)c5ccc2[nH]5)C=C4)C=C3)cc1)/C=C/c1ccc2ccccc2c1
REMARK SMILES IDX 10 1 9 2 8 3 7 4 6 5 4 6 5 7 3 8 1 9 2 10 78 11 79 12 80 13
REMARK SMILES IDX 81 14 89 15 82 16 88 17 83 18 87 19 84 20 86 21 85 22 11 23
REMARK SMILES IDX 12 24 13 25 14 26 15 27 16 28 77 29 17 30 76 31 18 32 19 33
REMARK SMILES IDX 20 34 70 35 21 36 75 37 69 38 71 39 22 40 74 41 68 42 67 43
REMARK SMILES IDX 23 45 55 46 35 47 54 48 36 49 39 50 53 51 72 52 37 53 38 54
REMARK SMILES IDX 52 56 73 57 40 58 24 59 25 60 33 61 26 62 32 63 34 64 31 65
REMARK SMILES IDX 27 66 28 67 29 68 30 69 56 70 57 71 65 72 58 73 64 74 66 75
REMARK SMILES IDX 63 76 59 77 60 78 61 79 62 80 41 81 42 82 50 83 43 84 49 85
REMARK SMILES IDX 51 86 48 87 44 88 45 89 46 90 47 91
REMARK H PARENT 71 44 39 55
REMARK Flexibility Score: inf
ROOT
ATOM      1  C   UNL A   1      31.432  29.828  25.378  1.00  0.00     0.202 C 
ENDROOT
BRANCH   1   2
ATOM      2  O   UNL A   1      30.554  29.893  24.253  1.00  0.00    -0.374 OA
BRANCH   2   3
ATOM      3  C   UNL A   1      30.624  28.809  23.322  1.00  0.00     0.202 C 
BRANCH   3   4
ATOM      4  C   UNL A   1      32.043  28.440  22.883  1.00  0.00     0.261 C 
BRANCH   4   5
ATOM      5  O   UNL A   1      32.001  27.249  22.076  1.00  0.00    -0.460 OA
BRANCH   5   6
ATOM      6  C   UNL A   1      33.041  26.402  22.193  1.00  0.00     0.331 C 
ATOM      7  O   UNL A   1      33.657  25.874  21.278  1.00  0.00    -0.247 OA
BRANCH   6   8
ATOM      8  C   UNL A   1      33.524  26.300  23.590  1.00  0.00     0.096 C 
ATOM      9  C   UNL A   1      34.162  25.567  25.843  1.00  0.00     0.044 C 
ATOM     10  C   UNL A   1      33.686  25.262  24.436  1.00  0.00    -0.044 C 
BRANCH  10  11
ATOM     11  C   UNL A   1      33.427  23.861  24.118  1.00  0.00     0.004 C 
ATOM     12  C   UNL A   1      34.111  22.825  24.630  1.00  0.00     0.008 C 
BRANCH  12  13
ATOM     13  C   UNL A   1      33.825  21.423  24.315  1.00  0.00    -0.025 A 
ATOM     14  C   UNL A   1      32.598  21.108  23.727  1.00  0.00     0.009 A 
ATOM     15  C   UNL A   1      34.708  20.394  24.663  1.00  0.00     0.016 A 
ATOM     16  C   UNL A   1      32.253  19.778  23.482  1.00  0.00     0.009 A 
ATOM     17  C   UNL A   1      34.364  19.048  24.445  1.00  0.00    -0.018 A 
ATOM     18  C   UNL A   1      33.120  18.740  23.846  1.00  0.00    -0.018 A 
ATOM     19  C   UNL A   1      35.219  18.000  24.822  1.00  0.00     0.009 A 
ATOM     20  C   UNL A   1      32.767  17.400  23.637  1.00  0.00     0.009 A 
ATOM     21  C   UNL A   1      34.847  16.671  24.621  1.00  0.00     0.001 A 
ATOM     22  C   UNL A   1      33.622  16.373  24.030  1.00  0.00     0.001 A 
ENDBRANCH  12  13
ENDBRANCH  10  11
ENDBRANCH   6   8
ENDBRANCH   5   6
ENDBRANCH   4   5
ENDBRANCH   3   4
ENDBRANCH   2   3
ENDBRANCH   1   2
BRANCH   1  23
ATOM     23  C   UNL A   1      31.658  31.147  26.126  1.00  0.00     0.261 C 
BRANCH  23  24
ATOM     24  O   UNL A   1      32.520  30.979  27.266  1.00  0.00    -0.460 OA
BRANCH  24  25
ATOM     25  C   UNL A   1      33.287  32.063  27.543  1.00  0.00     0.338 C 
ATOM     26  O   UNL A   1      32.897  33.204  27.717  1.00  0.00    -0.246 OA
BRANCH  25  27
ATOM     27  C   UNL A   1      34.690  31.661  27.777  1.00  0.00     0.060 A 
ATOM     28  C   UNL A   1      34.943  30.288  27.884  1.00  0.00     0.016 A 
ATOM     29  C   UNL A   1      35.715  32.587  27.990  1.00  0.00     0.016 A 
ATOM     30  C   UNL A   1      36.196  29.838  28.290  1.00  0.00     0.010 A 
ATOM     31  C   UNL A   1      36.975  32.133  28.401  1.00  0.00     0.010 A 
ATOM     32  C   UNL A   1      37.202  30.760  28.608  1.00  0.00    -0.014 A 
BRANCH  32  33
ATOM     33  C   UNL A   1      38.392  30.280  29.357  1.00  0.00     0.031 A 
ATOM     34  C   UNL A   1      38.578  30.739  30.782  1.00  0.00     0.074 A 
ATOM     35  C   UNL A   1      39.236  29.382  28.818  1.00  0.00     0.049 A 
ATOM     36  N   UNL A   1      39.508  30.422  31.645  1.00  0.00    -0.248 NA
ATOM     37  C   UNL A   1      37.578  31.687  31.298  1.00  0.00     0.031 C 
ATOM     38  C   UNL A   1      39.135  28.834  27.467  1.00  0.00     0.029 A 
ATOM     39  N   UNL A   1      40.340  28.763  29.351  1.00  0.00    -0.354 N 
ATOM     40  C   UNL A   1      39.208  31.133  32.804  1.00  0.00     0.074 A 
ATOM     41  C   UNL A   1      38.035  31.930  32.516  1.00  0.00     0.031 C 
ATOM     42  C   UNL A   1      40.131  27.951  27.280  1.00  0.00     0.029 A 
ATOM     43  C   UNL A   1      40.957  27.893  28.484  1.00  0.00     0.049 A 
ATOM     44  H   UNL A   1      40.658  28.927  30.268  1.00  0.00     0.167 HD
ATOM     45  C   UNL A   1      39.843  31.114  34.004  1.00  0.00     0.034 A 
ATOM     46  C   UNL A   1      42.070  27.145  28.644  1.00  0.00     0.034 A 
ATOM     47  C   UNL A   1      41.017  30.319  34.274  1.00  0.00     0.049 A 
ATOM     48  C   UNL A   1      42.798  27.189  29.965  1.00  0.00     0.074 A 
ATOM     49  C   UNL A   1      41.745  30.225  35.448  1.00  0.00     0.029 A 
ATOM     50  N   UNL A   1      41.640  29.481  33.356  1.00  0.00    -0.354 N 
ATOM     51  N   UNL A   1      42.509  27.871  31.051  1.00  0.00    -0.248 NA
ATOM     52  C   UNL A   1      43.998  26.351  30.085  1.00  0.00     0.031 C 
ATOM     53  C   UNL A   1      42.843  29.387  35.220  1.00  0.00     0.029 A 
ATOM     54  C   UNL A   1      42.755  28.890  33.930  1.00  0.00     0.049 A 
ATOM     55  H   UNL A   1      41.334  29.331  32.433  1.00  0.00     0.167 HD
ATOM     56  C   UNL A   1      43.469  27.511  31.993  1.00  0.00     0.074 A 
ATOM     57  C   UNL A   1      44.338  26.547  31.350  1.00  0.00     0.031 C 
ATOM     58  C   UNL A   1      43.617  27.933  33.275  1.00  0.00     0.034 A 
BRANCH  45  59
ATOM     59  C   UNL A   1      39.309  32.022  35.086  1.00  0.00     0.023 A 
ATOM     60  C   UNL A   1      39.756  33.348  35.231  1.00  0.00     0.031 A 
ATOM     61  C   UNL A   1      38.365  31.543  36.011  1.00  0.00     0.131 A 
ATOM     62  C   UNL A   1      39.316  34.121  36.318  1.00  0.00     0.055 A 
ATOM     63  C   UNL A   1      37.869  32.343  37.042  1.00  0.00     0.041 A 
ATOM     64  F   UNL A   1      37.919  30.279  35.939  1.00  0.00    -0.206 F 
ATOM     65  C   UNL A   1      38.357  33.636  37.209  1.00  0.00     0.022 A 
BRANCH  62  66
ATOM     66  S   UNL A   1      40.125  35.714  36.636  1.00  0.00     0.124 S 
ATOM     67  O   UNL A   1      39.623  36.038  37.970  1.00  0.00    -0.237 OA
ATOM     68  O   UNL A   1      41.539  35.373  36.551  1.00  0.00    -0.237 OA
ATOM     69  O   UNL A   1      39.623  36.573  35.565  1.00  0.00    -0.744 OA
ENDBRANCH  62  66
ENDBRANCH  45  59
BRANCH  46  70
ATOM     70  C   UNL A   1      42.595  26.317  27.519  1.00  0.00     0.023 A 
ATOM     71  C   UNL A   1      42.184  24.990  27.326  1.00  0.00     0.031 A 
ATOM     72  C   UNL A   1      43.580  26.831  26.659  1.00  0.00     0.131 A 
ATOM     73  C   UNL A   1      42.785  24.212  26.323  1.00  0.00     0.055 A 
ATOM     74  C   UNL A   1      44.128  26.076  25.622  1.00  0.00     0.041 A 
ATOM     75  F   UNL A   1      44.033  28.082  26.825  1.00  0.00    -0.206 F 
ATOM     76  C   UNL A   1      43.740  24.752  25.457  1.00  0.00     0.022 A 
BRANCH  73  77
ATOM     77  S   UNL A   1      42.375  22.447  26.225  1.00  0.00     0.124 S 
ATOM     78  O   UNL A   1      42.928  21.947  27.479  1.00  0.00    -0.237 OA
ATOM     79  O   UNL A   1      40.920  22.479  26.133  1.00  0.00    -0.237 OA
ATOM     80  O   UNL A   1      43.065  22.005  25.016  1.00  0.00    -0.744 OA
ENDBRANCH  73  77
ENDBRANCH  46  70
BRANCH  58  81
ATOM     81  C   UNL A   1      44.725  27.300  34.083  1.00  0.00     0.023 A 
ATOM     82  C   UNL A   1      44.527  26.123  34.827  1.00  0.00     0.031 A 
ATOM     83  C   UNL A   1      45.996  27.902  34.127  1.00  0.00     0.131 A 
ATOM     84  C   UNL A   1      45.561  25.624  35.635  1.00  0.00     0.055 A 
ATOM     85  C   UNL A   1      47.040  27.364  34.881  1.00  0.00     0.041 A 
ATOM     86  F   UNL A   1      46.243  29.028  33.438  1.00  0.00    -0.206 F 
ATOM     87  C   UNL A   1      46.821  26.228  35.653  1.00  0.00     0.022 A 
BRANCH  84  88
ATOM     88  S   UNL A   1      45.205  24.237  36.749  1.00  0.00     0.124 S 
ATOM     89  O   UNL A   1      44.695  23.228  35.826  1.00  0.00    -0.237 OA
ATOM     90  O   UNL A   1      46.515  23.963  37.332  1.00  0.00    -0.237 OA
ATOM     91  O   UNL A   1      44.218  24.786  37.676  1.00  0.00    -0.744 OA
ENDBRANCH  84  88
ENDBRANCH  58  81
ENDBRANCH  32  33
ENDBRANCH  25  27
ENDBRANCH  24  25
ENDBRANCH  23  24
ENDBRANCH   1  23
TORSDOF 19
ENDMDL
MODEL 2
REMARK VINA RESULT:     -11.7      4.928     10.742
REMARK SMILES CC(=C/C(=O)OCCOCCOC(=O)c1ccc(-c2c3nc(c(-c4cc(S(=O)(=O)[O-])ccc4F)c4ccc([nH]4)c(-c4cc(S(=O)(=O)[O-])ccc4F)c4nc(c(-c5cc(S(=O)(=O)[O-])ccc5F)c5ccc2[nH]5)C=C4)C=C3)cc1)/C=C/c1ccc2ccccc2c1
REMARK SMILES IDX 10 1 9 2 8 3 7 4 6 5 4 6 5 7 3 8 1 9 2 10 78 11 79 12 80 13
REMARK SMILES IDX 81 14 89 15 82 16 88 17 83 18 87 19 84 20 86 21 85 22 11 23
REMARK SMILES IDX 12 24 13 25 14 26 15 27 16 28 77 29 17 30 76 31 18 32 19 33
REMARK SMILES IDX 20 34 70 35 21 36 75 37 69 38 71 39 22 40 74 41 68 42 67 43
REMARK SMILES IDX 23 45 55 46 35 47 54 48 36 49 39 50 53 51 72 52 37 53 38 54
REMARK SMILES IDX 52 56 73 57 40 58 24 59 25 60 33 61 26 62 32 63 34 64 31 65
REMARK SMILES IDX 27 66 28 67 29 68 30 69 56 70 57 71 65 72 58 73 64 74 66 75
REMARK SMILES IDX 63 76 59 77 60 78 61 79 62 80 41 81 42 82 50 83 43 84 49 85
REMARK SMILES IDX 51 86 48 87 44 88 45 89 46 90 47 91
REMARK H PARENT 71 44 39 55
REMARK Flexibility Score: inf
ROOT
ATOM      1  C   UNL A   1      35.971  21.607  24.965  1.00  0.00     0.202 C 
ENDROOT
BRANCH   1   2
ATOM      2  O   UNL A   1      34.917  21.074  25.767  1.00  0.00    -0.374 OA
BRANCH   2   3
ATOM      3  C   UNL A   1      34.668  21.726  27.016  1.00  0.00     0.202 C 
BRANCH   3   4
ATOM      4  C   UNL A   1      33.598  22.818  26.960  1.00  0.00     0.261 C 
BRANCH   4   5
ATOM      5  O   UNL A   1      32.426  22.307  26.300  1.00  0.00    -0.460 OA
BRANCH   5   6
ATOM      6  C   UNL A   1      31.280  22.990  26.487  1.00  0.00     0.331 C 
ATOM      7  O   UNL A   1      30.721  23.196  27.555  1.00  0.00    -0.247 OA
BRANCH   6   8
ATOM      8  C   UNL A   1      30.824  23.665  25.249  1.00  0.00     0.096 C 
ATOM      9  C   UNL A   1      30.286  25.262  23.467  1.00  0.00     0.044 C 
ATOM     10  C   UNL A   1      30.954  24.924  24.784  1.00  0.00    -0.044 C 
BRANCH  10  11
ATOM     11  C   UNL A   1      31.675  26.003  25.453  1.00  0.00     0.004 C 
ATOM     12  C   UNL A   1      31.375  27.307  25.333  1.00  0.00     0.008 C 
BRANCH  12  13
ATOM     13  C   UNL A   1      32.097  28.377  26.027  1.00  0.00    -0.025 A 
ATOM     14  C   UNL A   1      31.502  29.638  26.113  1.00  0.00     0.009 A 
ATOM     15  C   UNL A   1      33.391  28.189  26.527  1.00  0.00     0.016 A 
ATOM     16  C   UNL A   1      32.187  30.704  26.696  1.00  0.00     0.009 A 
ATOM     17  C   UNL A   1      34.104  29.261  27.096  1.00  0.00    -0.018 A 
ATOM     18  C   UNL A   1      33.490  30.532  27.180  1.00  0.00    -0.018 A 
ATOM     19  C   UNL A   1      35.417  29.102  27.568  1.00  0.00     0.009 A 
ATOM     20  C   UNL A   1      34.200  31.606  27.734  1.00  0.00     0.009 A 
ATOM     21  C   UNL A   1      36.115  30.184  28.104  1.00  0.00     0.001 A 
ATOM     22  C   UNL A   1      35.506  31.433  28.185  1.00  0.00     0.001 A 
ENDBRANCH  12  13
ENDBRANCH  10  11
ENDBRANCH   6   8
ENDBRANCH   5   6
ENDBRANCH   4   5
ENDBRANCH   3   4
ENDBRANCH   2   3
ENDBRANCH   1   2
BRANCH   1  23
ATOM     23  C   UNL A   1      37.361  21.008  25.203  1.00  0.00     0.261 C 
BRANCH  23  24
ATOM     24  O   UNL A   1      38.376  22.023  25.302  1.00  0.00    -0.460 OA
BRANCH  24  25
ATOM     25  C   UNL A   1      39.397  21.704  26.136  1.00  0.00     0.338 C 
ATOM     26  O   UNL A   1      39.982  20.636  26.192  1.00  0.00    -0.246 OA
BRANCH  25  27
ATOM     27  C   UNL A   1      39.847  22.894  26.887  1.00  0.00     0.060 A 
ATOM     28  C   UNL A   1      39.291  24.124  26.512  1.00  0.00     0.016 A 
ATOM     29  C   UNL A   1      40.852  22.840  27.858  1.00  0.00     0.016 A 
ATOM     30  C   UNL A   1      39.798  25.309  27.038  1.00  0.00     0.010 A 
ATOM     31  C   UNL A   1      41.362  24.033  28.385  1.00  0.00     0.010 A 
ATOM     32  C   UNL A   1      40.876  25.274  27.933  1.00  0.00    -0.014 A 
BRANCH  32  33
ATOM     33  C   UNL A   1      41.612  26.535  28.205  1.00  0.00     0.031 A 
ATOM     34  C   UNL A   1      43.006  26.688  27.651  1.00  0.00     0.074 A 
ATOM     35  C   UNL A   1      41.021  27.559  28.848  1.00  0.00     0.049 A 
ATOM     36  N   UNL A   1      43.824  27.708  27.720  1.00  0.00    -0.248 NA
ATOM     37  C   UNL A   1      43.551  25.530  26.925  1.00  0.00     0.031 C 
ATOM     38  C   UNL A   1      39.664  27.544  29.391  1.00  0.00     0.029 A 
ATOM     39  N   UNL A   1      41.486  28.817  29.139  1.00  0.00    -0.354 N 
ATOM     40  C   UNL A   1      44.979  27.314  27.049  1.00  0.00     0.074 A 
ATOM     41  C   UNL A   1      44.770  25.947  26.622  1.00  0.00     0.031 C 
ATOM     42  C   UNL A   1      39.403  28.742  29.941  1.00  0.00     0.029 A 
ATOM     43  C   UNL A   1      40.580  29.598  29.818  1.00  0.00     0.049 A 
ATOM     44  H   UNL A   1      42.385  29.131  28.885  1.00  0.00     0.167 HD
ATOM     45  C   UNL A   1      46.105  28.029  26.801  1.00  0.00     0.034 A 
ATOM     46  C   UNL A   1      40.697  30.856  30.294  1.00  0.00     0.034 A 
ATOM     47  C   UNL A   1      46.301  29.389  27.240  1.00  0.00     0.049 A 
ATOM     48  C   UNL A   1      41.984  31.610  30.062  1.00  0.00     0.074 A 
ATOM     49  C   UNL A   1      47.401  30.208  27.050  1.00  0.00     0.029 A 
ATOM     50  N   UNL A   1      45.377  30.133  27.964  1.00  0.00    -0.354 N 
ATOM     51  N   UNL A   1      43.071  31.224  29.433  1.00  0.00    -0.248 NA
ATOM     52  C   UNL A   1      42.053  32.976  30.595  1.00  0.00     0.031 C 
ATOM     53  C   UNL A   1      47.170  31.418  27.715  1.00  0.00     0.029 A 
ATOM     54  C   UNL A   1      45.892  31.389  28.249  1.00  0.00     0.049 A 
ATOM     55  H   UNL A   1      44.486  29.815  28.235  1.00  0.00     0.167 HD
ATOM     56  C   UNL A   1      43.935  32.316  29.463  1.00  0.00     0.074 A 
ATOM     57  C   UNL A   1      43.239  33.376  30.163  1.00  0.00     0.031 C 
ATOM     58  C   UNL A   1      45.188  32.436  28.953  1.00  0.00     0.034 A 
BRANCH  45  59
ATOM     59  C   UNL A   1      47.224  27.327  26.069  1.00  0.00     0.023 A 
ATOM     60  C   UNL A   1      48.211  26.590  26.749  1.00  0.00     0.031 A 
ATOM     61  C   UNL A   1      47.329  27.428  24.670  1.00  0.00     0.131 A 
ATOM     62  C   UNL A   1      49.295  26.048  26.040  1.00  0.00     0.055 A 
ATOM     63  C   UNL A   1      48.366  26.817  23.961  1.00  0.00     0.041 A 
ATOM     64  F   UNL A   1      46.433  28.137  23.967  1.00  0.00    -0.206 F 
ATOM     65  C   UNL A   1      49.365  26.135  24.648  1.00  0.00     0.022 A 
BRANCH  62  66
ATOM     66  S   UNL A   1      50.687  25.357  26.976  1.00  0.00     0.124 S 
ATOM     67  O   UNL A   1      51.516  24.806  25.906  1.00  0.00    -0.237 OA
ATOM     68  O   UNL A   1      51.222  26.528  27.660  1.00  0.00    -0.237 OA
ATOM     69  O   UNL A   1      50.058  24.360  27.841  1.00  0.00    -0.744 OA
ENDBRANCH  62  66
ENDBRANCH  45  59
BRANCH  46  70
ATOM     70  C   UNL A   1      39.586  31.478  31.070  1.00  0.00     0.023 A 
ATOM     71  C   UNL A   1      39.530  31.400  32.470  1.00  0.00     0.031 A 
ATOM     72  C   UNL A   1      38.518  32.103  30.405  1.00  0.00     0.131 A 
ATOM     73  C   UNL A   1      38.411  31.904  33.153  1.00  0.00     0.055 A 
ATOM     74  C   UNL A   1      37.439  32.660  31.091  1.00  0.00     0.041 A 
ATOM     75  F   UNL A   1      38.506  32.170  29.066  1.00  0.00    -0.206 F 
ATOM     76  C   UNL A   1      37.374  32.551  32.475  1.00  0.00     0.022 A 
BRANCH  73  77
ATOM     77  S   UNL A   1      38.277  31.614  34.939  1.00  0.00     0.124 S 
ATOM     78  O   UNL A   1      39.504  32.229  35.431  1.00  0.00    -0.237 OA
ATOM     79  O   UNL A   1      37.036  32.308  35.265  1.00  0.00    -0.237 OA
ATOM     80  O   UNL A   1      38.221  30.158  35.044  1.00  0.00    -0.744 OA
ENDBRANCH  73  77
ENDBRANCH  46  70
BRANCH  58  81
ATOM     81  C   UNL A   1      45.856  33.785  29.079  1.00  0.00     0.023 A 
ATOM     82  C   UNL A   1      45.708  34.785  28.102  1.00  0.00     0.031 A 
ATOM     83  C   UNL A   1      46.674  34.063  30.190  1.00  0.00     0.131 A 
ATOM     84  C   UNL A   1      46.421  35.988  28.220  1.00  0.00     0.055 A 
ATOM     85  C   UNL A   1      47.328  35.287  30.333  1.00  0.00     0.041 A 
ATOM     86  F   UNL A   1      46.852  33.146  31.154  1.00  0.00    -0.206 F 
ATOM     87  C   UNL A   1      47.217  36.251  29.338  1.00  0.00     0.022 A 
BRANCH  84  88
ATOM     88  S   UNL A   1      46.384  37.162  26.837  1.00  0.00     0.124 S 
ATOM     89  O   UNL A   1      46.753  36.315  25.708  1.00  0.00    -0.237 OA
ATOM     90  O   UNL A   1      45.000  37.625  26.860  1.00  0.00    -0.237 OA
ATOM     91  O   UNL A   1      47.379  38.165  27.211  1.00  0.00    -0.744 OA
ENDBRANCH  84  88
ENDBRANCH  58  81
ENDBRANCH  32  33
ENDBRANCH  25  27
ENDBRANCH  24  25
ENDBRANCH  23  24
ENDBRANCH   1  23
TORSDOF 19
ENDMDL
MODEL 3
REMARK VINA RESULT:     -11.7      2.305      3.246
REMARK SMILES CC(=C/C(=O)OCCOCCOC(=O)c1ccc(-c2c3nc(c(-c4cc(S(=O)(=O)[O-])ccc4F)c4ccc([nH]4)c(-c4cc(S(=O)(=O)[O-])ccc4F)c4nc(c(-c5cc(S(=O)(=O)[O-])ccc5F)c5ccc2[nH]5)C=C4)C=C3)cc1)/C=C/c1ccc2ccccc2c1
REMARK SMILES IDX 10 1 9 2 8 3 7 4 6 5 4 6 5 7 3 8 1 9 2 10 78 11 79 12 80 13
REMARK SMILES IDX 81 14 89 15 82 16 88 17 83 18 87 19 84 20 86 21 85 22 11 23
REMARK SMILES IDX 12 24 13 25 14 26 15 27 16 28 77 29 17 30 76 31 18 32 19 33
REMARK SMILES IDX 20 34 70 35 21 36 75 37 69 38 71 39 22 40 74 41 68 42 67 43
REMARK SMILES IDX 23 45 55 46 35 47 54 48 36 49 39 50 53 51 72 52 37 53 38 54
REMARK SMILES IDX 52 56 73 57 40 58 24 59 25 60 33 61 26 62 32 63 34 64 31 65
REMARK SMILES IDX 27 66 28 67 29 68 30 69 56 70 57 71 65 72 58 73 64 74 66 75
REMARK SMILES IDX 63 76 59 77 60 78 61 79 62 80 41 81 42 82 50 83 43 84 49 85
REMARK SMILES IDX 51 86 48 87 44 88 45 89 46 90 47 91
REMARK H PARENT 71 44 39 55
REMARK Flexibility Score: inf
ROOT
ATOM      1  C   UNL A   1      31.628  29.810  25.596  1.00  0.00     0.202 C 
ENDROOT
BRANCH   1   2
ATOM      2  O   UNL A   1      32.038  28.443  25.568  1.00  0.00    -0.374 OA
BRANCH   2   3
ATOM      3  C   UNL A   1      31.463  27.579  26.553  1.00  0.00     0.202 C 
BRANCH   3   4
ATOM      4  C   UNL A   1      30.983  26.231  26.013  1.00  0.00     0.261 C 
BRANCH   4   5
ATOM      5  O   UNL A   1      31.560  25.169  26.795  1.00  0.00    -0.460 OA
BRANCH   5   6
ATOM      6  C   UNL A   1      31.025  23.942  26.636  1.00  0.00     0.331 C 
ATOM      7  O   UNL A   1      30.467  23.275  27.496  1.00  0.00    -0.247 OA
BRANCH   6   8
ATOM      8  C   UNL A   1      31.003  23.522  25.216  1.00  0.00     0.096 C 
ATOM      9  C   UNL A   1      31.543  22.745  22.953  1.00  0.00     0.044 C 
ATOM     10  C   UNL A   1      31.935  22.998  24.395  1.00  0.00    -0.044 C 
BRANCH  10  11
ATOM     11  C   UNL A   1      33.305  22.664  24.774  1.00  0.00     0.004 C 
ATOM     12  C   UNL A   1      34.375  23.431  24.511  1.00  0.00     0.008 C 
BRANCH  12  13
ATOM     13  C   UNL A   1      35.742  23.091  24.916  1.00  0.00    -0.025 A 
ATOM     14  C   UNL A   1      36.228  21.815  24.621  1.00  0.00     0.009 A 
ATOM     15  C   UNL A   1      36.534  23.976  25.657  1.00  0.00     0.016 A 
ATOM     16  C   UNL A   1      37.494  21.423  25.057  1.00  0.00     0.009 A 
ATOM     17  C   UNL A   1      37.802  23.587  26.124  1.00  0.00    -0.018 A 
ATOM     18  C   UNL A   1      38.285  22.294  25.818  1.00  0.00    -0.018 A 
ATOM     19  C   UNL A   1      38.595  24.446  26.902  1.00  0.00     0.009 A 
ATOM     20  C   UNL A   1      39.543  21.896  26.290  1.00  0.00     0.009 A 
ATOM     21  C   UNL A   1      39.839  24.030  27.378  1.00  0.00     0.001 A 
ATOM     22  C   UNL A   1      40.310  22.757  27.072  1.00  0.00     0.001 A 
ENDBRANCH  12  13
ENDBRANCH  10  11
ENDBRANCH   6   8
ENDBRANCH   5   6
ENDBRANCH   4   5
ENDBRANCH   3   4
ENDBRANCH   2   3
ENDBRANCH   1   2
BRANCH   1  23
ATOM     23  C   UNL A   1      32.140  30.638  26.780  1.00  0.00     0.261 C 
BRANCH  23  24
ATOM     24  O   UNL A   1      33.544  30.433  27.014  1.00  0.00    -0.460 OA
BRANCH  24  25
ATOM     25  C   UNL A   1      34.159  31.472  27.633  1.00  0.00     0.338 C 
ATOM     26  O   UNL A   1      33.639  32.516  27.989  1.00  0.00    -0.246 OA
BRANCH  25  27
ATOM     27  C   UNL A   1      35.549  31.118  27.987  1.00  0.00     0.060 A 
ATOM     28  C   UNL A   1      35.813  29.764  28.227  1.00  0.00     0.016 A 
ATOM     29  C   UNL A   1      36.546  32.079  28.183  1.00  0.00     0.016 A 
ATOM     30  C   UNL A   1      37.044  29.374  28.747  1.00  0.00     0.010 A 
ATOM     31  C   UNL A   1      37.784  31.684  28.708  1.00  0.00     0.010 A 
ATOM     32  C   UNL A   1      38.016  30.338  29.046  1.00  0.00    -0.014 A 
BRANCH  32  33
ATOM     33  C   UNL A   1      39.162  29.946  29.906  1.00  0.00     0.031 A 
ATOM     34  C   UNL A   1      39.216  30.475  31.318  1.00  0.00     0.074 A 
ATOM     35  C   UNL A   1      40.084  29.066  29.475  1.00  0.00     0.049 A 
ATOM     36  N   UNL A   1      40.089  30.239  32.264  1.00  0.00    -0.248 NA
ATOM     37  C   UNL A   1      38.139  31.397  31.710  1.00  0.00     0.031 C 
ATOM     38  C   UNL A   1      40.112  28.456  28.147  1.00  0.00     0.029 A 
ATOM     39  N   UNL A   1      41.167  28.522  30.119  1.00  0.00    -0.354 N 
ATOM     40  C   UNL A   1      39.669  30.984  33.362  1.00  0.00     0.074 A 
ATOM     41  C   UNL A   1      38.489  31.714  32.947  1.00  0.00     0.031 C 
ATOM     42  C   UNL A   1      41.157  27.612  28.079  1.00  0.00     0.029 A 
ATOM     43  C   UNL A   1      41.888  27.645  29.344  1.00  0.00     0.049 A 
ATOM     44  H   UNL A   1      41.406  28.740  31.050  1.00  0.00     0.167 HD
ATOM     45  C   UNL A   1      40.208  31.046  34.606  1.00  0.00     0.034 A 
ATOM     46  C   UNL A   1      43.015  26.957  29.623  1.00  0.00     0.034 A 
ATOM     47  C   UNL A   1      41.389  30.319  35.002  1.00  0.00     0.049 A 
ATOM     48  C   UNL A   1      43.634  27.091  30.993  1.00  0.00     0.074 A 
ATOM     49  C   UNL A   1      42.026  30.309  36.231  1.00  0.00     0.029 A 
ATOM     50  N   UNL A   1      42.117  29.472  34.174  1.00  0.00    -0.354 N 
ATOM     51  N   UNL A   1      43.232  27.805  32.020  1.00  0.00    -0.248 NA
ATOM     52  C   UNL A   1      44.856  26.315  31.243  1.00  0.00     0.031 C 
ATOM     53  C   UNL A   1      43.173  29.513  36.127  1.00  0.00     0.029 A 
ATOM     54  C   UNL A   1      43.208  28.957  34.859  1.00  0.00     0.049 A 
ATOM     55  H   UNL A   1      41.891  29.268  33.239  1.00  0.00     0.167 HD
ATOM     56  C   UNL A   1      44.130  27.531  33.048  1.00  0.00     0.074 A 
ATOM     57  C   UNL A   1      45.087  26.581  32.520  1.00  0.00     0.031 C 
ATOM     58  C   UNL A   1      44.159  28.013  34.317  1.00  0.00     0.034 A 
BRANCH  45  59
ATOM     59  C   UNL A   1      39.552  31.975  35.600  1.00  0.00     0.023 A 
ATOM     60  C   UNL A   1      40.026  33.281  35.822  1.00  0.00     0.031 A 
ATOM     61  C   UNL A   1      38.458  31.535  36.366  1.00  0.00     0.131 A 
ATOM     62  C   UNL A   1      39.457  34.070  36.835  1.00  0.00     0.055 A 
ATOM     63  C   UNL A   1      37.844  32.354  37.315  1.00  0.00     0.041 A 
ATOM     64  F   UNL A   1      37.976  30.291  36.217  1.00  0.00    -0.206 F 
ATOM     65  C   UNL A   1      38.353  33.625  37.565  1.00  0.00     0.022 A 
BRANCH  62  66
ATOM     66  S   UNL A   1      40.272  35.627  37.285  1.00  0.00     0.124 S 
ATOM     67  O   UNL A   1      39.983  35.708  38.715  1.00  0.00    -0.237 OA
ATOM     68  O   UNL A   1      41.662  35.371  36.928  1.00  0.00    -0.237 OA
ATOM     69  O   UNL A   1      39.588  36.623  36.462  1.00  0.00    -0.744 OA
ENDBRANCH  62  66
ENDBRANCH  45  59
BRANCH  46  70
ATOM     70  C   UNL A   1      43.661  26.106  28.582  1.00  0.00     0.023 A 
ATOM     71  C   UNL A   1      44.563  26.639  27.648  1.00  0.00     0.031 A 
ATOM     72  C   UNL A   1      43.323  24.747  28.465  1.00  0.00     0.131 A 
ATOM     73  C   UNL A   1      45.063  25.826  26.618  1.00  0.00     0.055 A 
ATOM     74  C   UNL A   1      43.871  23.927  27.479  1.00  0.00     0.041 A 
ATOM     75  F   UNL A   1      42.438  24.199  29.309  1.00  0.00    -0.206 F 
ATOM     76  C   UNL A   1      44.739  24.469  26.538  1.00  0.00     0.022 A 
BRANCH  73  77
ATOM     77  S   UNL A   1      46.069  26.590  25.315  1.00  0.00     0.124 S 
ATOM     78  O   UNL A   1      47.250  27.007  26.062  1.00  0.00    -0.237 OA
ATOM     79  O   UNL A   1      46.254  25.481  24.387  1.00  0.00    -0.237 OA
ATOM     80  O   UNL A   1      45.223  27.676  24.825  1.00  0.00    -0.744 OA
ENDBRANCH  73  77
ENDBRANCH  46  70
BRANCH  58  81
ATOM     81  C   UNL A   1      45.226  27.468  35.237  1.00  0.00     0.023 A 
ATOM     82  C   UNL A   1      45.037  26.291  35.983  1.00  0.00     0.031 A 
ATOM     83  C   UNL A   1      46.445  28.154  35.385  1.00  0.00     0.131 A 
ATOM     84  C   UNL A   1      46.021  25.874  36.892  1.00  0.00     0.055 A 
ATOM     85  C   UNL A   1      47.447  27.698  36.242  1.00  0.00     0.041 A 
ATOM     86  F   UNL A   1      46.681  29.284  34.699  1.00  0.00    -0.206 F 
ATOM     87  C   UNL A   1      47.232  26.561  37.014  1.00  0.00     0.022 A 
BRANCH  84  88
ATOM     88  S   UNL A   1      45.655  24.482  37.997  1.00  0.00     0.124 S 
ATOM     89  O   UNL A   1      45.009  23.537  37.092  1.00  0.00    -0.237 OA
ATOM     90  O   UNL A   1      46.982  24.105  38.471  1.00  0.00    -0.237 OA
ATOM     91  O   UNL A   1      44.779  25.069  39.009  1.00  0.00    -0.744 OA
ENDBRANCH  84  88
ENDBRANCH  58  81
ENDBRANCH  32  33
ENDBRANCH  25  27
ENDBRANCH  24  25
ENDBRANCH  23  24
ENDBRANCH   1  23
TORSDOF 19
ENDMDL
