MODEL 1
REMARK VINA RESULT:     -11.7      0.000      0.000
REMARK SMILES COc1cc(/C=C2/CCc3cc(OC(C)(C)C(=O)OCCOCCOC(=O)c4ccc(-c5c6nc(c(-c7cc(S(=O)(=O)[O-])ccc7F)c7ccc([nH]7)c(-c7cc(S(=O)(=O)[O-])ccc7F)c7nc(c(-c8cc(S(=O)(=O)[O-])ccc8F)c8ccc5[nH]8)C=C7)C=C6)cc4)ccc3C2=O)cc(OC)c1O
REMARK SMILES IDX 21 1 20 2 19 3 17 4 18 5 14 6 15 7 16 8 13 9 12 10 6 11 7 12
REMARK SMILES IDX 8 13 94 14 9 15 93 16 95 17 10 18 92 19 11 20 91 21 5 22
REMARK SMILES IDX 3 23 4 24 100 25 97 26 96 27 2 28 1 29 101 30 98 32 99 33
REMARK SMILES IDX 22 34 23 35 24 36 25 37 26 38 27 39 28 40 29 41 90 42 30 43
REMARK SMILES IDX 89 44 31 45 32 46 33 47 83 48 34 49 88 50 82 51 84 52 35 53
REMARK SMILES IDX 87 54 81 55 80 56 36 58 68 59 48 60 67 61 49 62 52 63 66 64
REMARK SMILES IDX 85 65 50 66 51 67 65 69 86 70 53 71 37 72 38 73 46 74 39 75
REMARK SMILES IDX 45 76 47 77 44 78 40 79 41 80 42 81 43 82 69 83 70 84 78 85
REMARK SMILES IDX 71 86 77 87 79 88 76 89 72 90 73 91 74 92 75 93 54 94 55 95
REMARK SMILES IDX 63 96 56 97 62 98 64 99 61 100 57 101 58 102 59 103 60 104
REMARK H PARENT 101 31 84 57 52 68
REMARK Flexibility Score: inf
ROOT
ATOM      1  C   UNL A   1      32.719  30.259  27.073  1.00  0.00     0.202 C 
ENDROOT
BRANCH   1   2
ATOM      2  C   UNL A   1      32.360  28.751  26.967  1.00  0.00     0.261 C 
BRANCH   2   3
ATOM      3  O   UNL A   1      31.547  28.397  25.824  1.00  0.00    -0.460 OA
BRANCH   3   4
ATOM      4  C   UNL A   1      32.127  28.148  24.592  1.00  0.00     0.349 C 
ATOM      5  O   UNL A   1      33.163  28.669  24.204  1.00  0.00    -0.247 OA
BRANCH   4   6
ATOM      6  C   UNL A   1      31.291  27.077  23.792  1.00  0.00     0.200 C 
ATOM      7  C   UNL A   1      31.151  27.556  22.338  1.00  0.00     0.069 C 
ATOM      8  C   UNL A   1      29.920  27.182  24.457  1.00  0.00     0.069 C 
BRANCH   6   9
ATOM      9  O   UNL A   1      31.897  25.727  23.698  1.00  0.00    -0.476 OA
BRANCH   9  10
ATOM     10  C   UNL A   1      32.858  25.411  24.648  1.00  0.00     0.121 A 
ATOM     11  C   UNL A   1      35.245  20.162  25.518  1.00  0.00     0.016 C 
ATOM     12  C   UNL A   1      35.498  21.488  25.493  1.00  0.00     0.001 C 
ATOM     13  C   UNL A   1      36.695  22.428  25.653  1.00  0.00     0.044 C 
ATOM     14  C   UNL A   1      34.400  22.308  25.029  1.00  0.00     0.189 C 
ATOM     15  C   UNL A   1      36.465  23.867  24.868  1.00  0.00     0.041 C 
ATOM     16  C   UNL A   1      34.290  23.555  25.851  1.00  0.00     0.026 A 
ATOM     17  O   UNL A   1      34.062  22.223  23.851  1.00  0.00    -0.289 OA
ATOM     18  C   UNL A   1      35.044  24.432  25.092  1.00  0.00    -0.033 A 
ATOM     19  C   UNL A   1      33.080  23.895  26.442  1.00  0.00     0.016 A 
ATOM     20  C   UNL A   1      34.250  25.311  24.333  1.00  0.00     0.051 A 
ATOM     21  C   UNL A   1      32.371  24.929  25.864  1.00  0.00     0.047 A 
BRANCH  11  22
ATOM     22  C   UNL A   1      34.111  19.566  24.713  1.00  0.00    -0.018 A 
ATOM     23  C   UNL A   1      33.350  17.454  23.698  1.00  0.00     0.165 A 
ATOM     24  C   UNL A   1      34.141  18.165  24.614  1.00  0.00     0.058 A 
ATOM     25  C   UNL A   1      32.525  18.161  22.830  1.00  0.00     0.200 A 
ATOM     26  C   UNL A   1      32.490  19.559  22.874  1.00  0.00     0.165 A 
ATOM     27  C   UNL A   1      33.224  20.258  23.860  1.00  0.00     0.058 A 
BRANCH  23  28
ATOM     28  O   UNL A   1      33.518  16.096  23.755  1.00  0.00    -0.493 OA
ATOM     29  C   UNL A   1      33.186  15.443  24.977  1.00  0.00     0.278 C 
ENDBRANCH  23  28
BRANCH  25  30
ATOM     30  O   UNL A   1      31.756  17.481  21.928  1.00  0.00    -0.502 OA
ATOM     31  H   UNL A   1      31.261  16.735  22.202  1.00  0.00     0.293 HD
ENDBRANCH  25  30
BRANCH  26  32
ATOM     32  O   UNL A   1      31.797  20.322  21.967  1.00  0.00    -0.493 OA
ATOM     33  C   UNL A   1      31.606  21.703  22.311  1.00  0.00     0.278 C 
ENDBRANCH  26  32
ENDBRANCH  11  22
ENDBRANCH   9  10
ENDBRANCH   6   9
ENDBRANCH   4   6
ENDBRANCH   3   4
ENDBRANCH   2   3
ENDBRANCH   1   2
BRANCH   1  34
ATOM     34  O   UNL A   1      31.854  31.129  26.341  1.00  0.00    -0.374 OA
BRANCH  34  35
ATOM     35  C   UNL A   1      31.668  32.437  26.889  1.00  0.00     0.202 C 
BRANCH  35  36
ATOM     36  C   UNL A   1      32.881  33.003  27.654  1.00  0.00     0.261 C 
BRANCH  36  37
ATOM     37  O   UNL A   1      32.762  34.426  27.875  1.00  0.00    -0.460 OA
BRANCH  37  38
ATOM     38  C   UNL A   1      33.213  34.924  29.046  1.00  0.00     0.338 C 
ATOM     39  O   UNL A   1      32.706  35.824  29.697  1.00  0.00    -0.246 OA
BRANCH  38  40
ATOM     40  C   UNL A   1      34.363  34.118  29.529  1.00  0.00     0.060 A 
ATOM     41  C   UNL A   1      34.095  33.085  30.430  1.00  0.00     0.016 A 
ATOM     42  C   UNL A   1      35.689  34.375  29.153  1.00  0.00     0.016 A 
ATOM     43  C   UNL A   1      35.140  32.334  30.984  1.00  0.00     0.010 A 
ATOM     44  C   UNL A   1      36.738  33.605  29.704  1.00  0.00     0.010 A 
ATOM     45  C   UNL A   1      36.478  32.597  30.655  1.00  0.00    -0.014 A 
BRANCH  45  46
ATOM     46  C   UNL A   1      37.568  31.950  31.462  1.00  0.00     0.031 A 
ATOM     47  C   UNL A   1      38.411  30.870  30.819  1.00  0.00     0.074 A 
ATOM     48  C   UNL A   1      37.901  32.369  32.703  1.00  0.00     0.049 A 
ATOM     49  N   UNL A   1      39.459  30.237  31.287  1.00  0.00    -0.248 NA
ATOM     50  C   UNL A   1      38.014  30.449  29.468  1.00  0.00     0.031 C 
ATOM     51  C   UNL A   1      37.215  33.416  33.457  1.00  0.00     0.029 A 
ATOM     52  N   UNL A   1      38.922  31.973  33.543  1.00  0.00    -0.354 N 
ATOM     53  C   UNL A   1      39.848  29.350  30.287  1.00  0.00     0.074 A 
ATOM     54  C   UNL A   1      38.881  29.482  29.218  1.00  0.00     0.031 C 
ATOM     55  C   UNL A   1      37.846  33.597  34.633  1.00  0.00     0.029 A 
ATOM     56  C   UNL A   1      38.965  32.658  34.739  1.00  0.00     0.049 A 
ATOM     57  H   UNL A   1      39.563  31.263  33.310  1.00  0.00     0.167 HD
ATOM     58  C   UNL A   1      40.921  28.519  30.238  1.00  0.00     0.034 A 
ATOM     59  C   UNL A   1      39.799  32.547  35.800  1.00  0.00     0.034 A 
ATOM     60  C   UNL A   1      41.894  28.377  31.293  1.00  0.00     0.049 A 
ATOM     61  C   UNL A   1      40.937  31.547  35.762  1.00  0.00     0.074 A 
ATOM     62  C   UNL A   1      43.022  27.573  31.318  1.00  0.00     0.029 A 
ATOM     63  N   UNL A   1      41.856  29.038  32.512  1.00  0.00    -0.354 N 
ATOM     64  N   UNL A   1      41.300  30.737  34.793  1.00  0.00    -0.248 NA
ATOM     65  C   UNL A   1      41.786  31.457  36.961  1.00  0.00     0.031 C 
ATOM     66  C   UNL A   1      43.617  27.684  32.578  1.00  0.00     0.029 A 
ATOM     67  C   UNL A   1      42.917  28.630  33.309  1.00  0.00     0.049 A 
ATOM     68  H   UNL A   1      41.176  29.701  32.773  1.00  0.00     0.167 HD
ATOM     69  C   UNL A   1      42.440  30.077  35.255  1.00  0.00     0.074 A 
ATOM     70  C   UNL A   1      42.712  30.589  36.579  1.00  0.00     0.031 C 
ATOM     71  C   UNL A   1      43.195  29.135  34.633  1.00  0.00     0.034 A 
BRANCH  58  72
ATOM     72  C   UNL A   1      41.071  27.663  29.001  1.00  0.00     0.023 A 
ATOM     73  C   UNL A   1      42.092  27.893  28.062  1.00  0.00     0.031 A 
ATOM     74  C   UNL A   1      40.160  26.625  28.742  1.00  0.00     0.131 A 
ATOM     75  C   UNL A   1      42.124  27.155  26.870  1.00  0.00     0.055 A 
ATOM     76  C   UNL A   1      40.253  25.833  27.597  1.00  0.00     0.041 A 
ATOM     77  F   UNL A   1      39.152  26.371  29.591  1.00  0.00    -0.206 F 
ATOM     78  C   UNL A   1      41.229  26.107  26.643  1.00  0.00     0.022 A 
BRANCH  75  79
ATOM     79  S   UNL A   1      43.245  27.694  25.551  1.00  0.00     0.124 S 
ATOM     80  O   UNL A   1      42.306  27.998  24.473  1.00  0.00    -0.237 OA
ATOM     81  O   UNL A   1      43.917  28.838  26.154  1.00  0.00    -0.237 OA
ATOM     82  O   UNL A   1      44.089  26.524  25.320  1.00  0.00    -0.744 OA
ENDBRANCH  75  79
ENDBRANCH  58  72
BRANCH  59  83
ATOM     83  C   UNL A   1      39.587  33.370  37.033  1.00  0.00     0.023 A 
ATOM     84  C   UNL A   1      38.992  32.829  38.187  1.00  0.00     0.031 A 
ATOM     85  C   UNL A   1      39.882  34.746  37.034  1.00  0.00     0.131 A 
ATOM     86  C   UNL A   1      38.661  33.667  39.266  1.00  0.00     0.055 A 
ATOM     87  C   UNL A   1      39.607  35.561  38.133  1.00  0.00     0.041 A 
ATOM     88  F   UNL A   1      40.438  35.321  35.956  1.00  0.00    -0.206 F 
ATOM     89  C   UNL A   1      38.979  35.027  39.253  1.00  0.00     0.022 A 
BRANCH  86  90
ATOM     90  S   UNL A   1      37.710  32.978  40.651  1.00  0.00     0.124 S 
ATOM     91  O   UNL A   1      36.343  33.091  40.157  1.00  0.00    -0.237 OA
ATOM     92  O   UNL A   1      38.249  31.626  40.746  1.00  0.00    -0.237 OA
ATOM     93  O   UNL A   1      38.045  33.859  41.767  1.00  0.00    -0.744 OA
ENDBRANCH  86  90
ENDBRANCH  59  83
BRANCH  71  94
ATOM     94  C   UNL A   1      44.431  28.634  35.350  1.00  0.00     0.023 A 
ATOM     95  C   UNL A   1      44.392  27.555  36.252  1.00  0.00     0.031 A 
ATOM     96  C   UNL A   1      45.676  29.252  35.125  1.00  0.00     0.131 A 
ATOM     97  C   UNL A   1      45.556  27.166  36.935  1.00  0.00     0.055 A 
ATOM     98  C   UNL A   1      46.843  28.818  35.757  1.00  0.00     0.041 A 
ATOM     99  F   UNL A   1      45.781  30.288  34.278  1.00  0.00    -0.206 F 
ATOM    100  C   UNL A   1      46.785  27.778  36.678  1.00  0.00     0.022 A 
BRANCH  97 101
ATOM    101  S   UNL A   1      45.428  25.911  38.241  1.00  0.00     0.124 S 
ATOM    102  O   UNL A   1      46.798  25.418  38.322  1.00  0.00    -0.237 OA
ATOM    103  O   UNL A   1      44.964  26.695  39.381  1.00  0.00    -0.237 OA
ATOM    104  O   UNL A   1      44.456  24.958  37.708  1.00  0.00    -0.744 OA
ENDBRANCH  97 101
ENDBRANCH  71  94
ENDBRANCH  45  46
ENDBRANCH  38  40
ENDBRANCH  37  38
ENDBRANCH  36  37
ENDBRANCH  35  36
ENDBRANCH  34  35
ENDBRANCH   1  34
TORSDOF 23
ENDMDL
MODEL 2
REMARK VINA RESULT:     -11.7      1.576      7.231
REMARK SMILES COc1cc(/C=C2/CCc3cc(OC(C)(C)C(=O)OCCOCCOC(=O)c4ccc(-c5c6nc(c(-c7cc(S(=O)(=O)[O-])ccc7F)c7ccc([nH]7)c(-c7cc(S(=O)(=O)[O-])ccc7F)c7nc(c(-c8cc(S(=O)(=O)[O-])ccc8F)c8ccc5[nH]8)C=C7)C=C6)cc4)ccc3C2=O)cc(OC)c1O
REMARK SMILES IDX 21 1 20 2 19 3 17 4 18 5 14 6 15 7 16 8 13 9 12 10 6 11 7 12
REMARK SMILES IDX 8 13 94 14 9 15 93 16 95 17 10 18 92 19 11 20 91 21 5 22
REMARK SMILES IDX 3 23 4 24 100 25 97 26 96 27 2 28 1 29 101 30 98 32 99 33
REMARK SMILES IDX 22 34 23 35 24 36 25 37 26 38 27 39 28 40 29 41 90 42 30 43
REMARK SMILES IDX 89 44 31 45 32 46 33 47 83 48 34 49 88 50 82 51 84 52 35 53
REMARK SMILES IDX 87 54 81 55 80 56 36 58 68 59 48 60 67 61 49 62 52 63 66 64
REMARK SMILES IDX 85 65 50 66 51 67 65 69 86 70 53 71 37 72 38 73 46 74 39 75
REMARK SMILES IDX 45 76 47 77 44 78 40 79 41 80 42 81 43 82 69 83 70 84 78 85
REMARK SMILES IDX 71 86 77 87 79 88 76 89 72 90 73 91 74 92 75 93 54 94 55 95
REMARK SMILES IDX 63 96 56 97 62 98 64 99 61 100 57 101 58 102 59 103 60 104
REMARK H PARENT 101 31 84 57 52 68
REMARK Flexibility Score: inf
ROOT
ATOM      1  C   UNL A   1      32.106  30.041  26.942  1.00  0.00     0.202 C 
ENDROOT
BRANCH   1   2
ATOM      2  C   UNL A   1      31.806  28.614  26.407  1.00  0.00     0.261 C 
BRANCH   2   3
ATOM      3  O   UNL A   1      31.359  28.561  25.032  1.00  0.00    -0.460 OA
BRANCH   3   4
ATOM      4  C   UNL A   1      32.252  28.313  24.006  1.00  0.00     0.349 C 
ATOM      5  O   UNL A   1      33.326  28.884  23.878  1.00  0.00    -0.247 OA
BRANCH   4   6
ATOM      6  C   UNL A   1      31.711  27.173  23.062  1.00  0.00     0.200 C 
ATOM      7  C   UNL A   1      32.693  27.001  21.891  1.00  0.00     0.069 C 
ATOM      8  C   UNL A   1      30.428  27.796  22.513  1.00  0.00     0.069 C 
BRANCH   6   9
ATOM      9  O   UNL A   1      31.601  25.827  23.675  1.00  0.00    -0.476 OA
BRANCH   9  10
ATOM     10  C   UNL A   1      32.513  25.526  24.678  1.00  0.00     0.121 A 
ATOM     11  C   UNL A   1      34.982  20.333  25.643  1.00  0.00     0.016 C 
ATOM     12  C   UNL A   1      35.201  21.665  25.645  1.00  0.00     0.001 C 
ATOM     13  C   UNL A   1      36.362  22.634  25.883  1.00  0.00     0.044 C 
ATOM     14  C   UNL A   1      34.111  22.461  25.123  1.00  0.00     0.189 C 
ATOM     15  C   UNL A   1      36.140  24.074  25.097  1.00  0.00     0.041 C 
ATOM     16  C   UNL A   1      33.920  23.696  25.948  1.00  0.00     0.026 A 
ATOM     17  O   UNL A   1      33.845  22.378  23.927  1.00  0.00    -0.289 OA
ATOM     18  C   UNL A   1      34.694  24.600  25.242  1.00  0.00    -0.033 A 
ATOM     19  C   UNL A   1      32.669  23.999  26.469  1.00  0.00     0.016 A 
ATOM     20  C   UNL A   1      33.923  25.466  24.444  1.00  0.00     0.051 A 
ATOM     21  C   UNL A   1      31.968  25.020  25.859  1.00  0.00     0.047 A 
BRANCH  11  22
ATOM     22  C   UNL A   1      33.913  19.715  24.769  1.00  0.00    -0.018 A 
ATOM     23  C   UNL A   1      33.393  17.681  23.480  1.00  0.00     0.165 A 
ATOM     24  C   UNL A   1      34.110  18.354  24.481  1.00  0.00     0.058 A 
ATOM     25  C   UNL A   1      32.473  18.391  22.717  1.00  0.00     0.200 A 
ATOM     26  C   UNL A   1      32.270  19.756  22.949  1.00  0.00     0.165 A 
ATOM     27  C   UNL A   1      32.934  20.401  24.019  1.00  0.00     0.058 A 
BRANCH  23  28
ATOM     28  O   UNL A   1      33.725  16.358  23.353  1.00  0.00    -0.493 OA
ATOM     29  C   UNL A   1      34.268  15.703  24.496  1.00  0.00     0.278 C 
ENDBRANCH  23  28
BRANCH  25  30
ATOM     30  O   UNL A   1      31.775  17.749  21.733  1.00  0.00    -0.502 OA
ATOM     31  H   UNL A   1      31.210  18.236  21.166  1.00  0.00     0.293 HD
ENDBRANCH  25  30
BRANCH  26  32
ATOM     32  O   UNL A   1      31.473  20.543  22.156  1.00  0.00    -0.493 OA
ATOM     33  C   UNL A   1      32.132  21.594  21.433  1.00  0.00     0.278 C 
ENDBRANCH  26  32
ENDBRANCH  11  22
ENDBRANCH   9  10
ENDBRANCH   6   9
ENDBRANCH   4   6
ENDBRANCH   3   4
ENDBRANCH   2   3
ENDBRANCH   1   2
BRANCH   1  34
ATOM     34  O   UNL A   1      31.399  31.088  26.276  1.00  0.00    -0.374 OA
BRANCH  34  35
ATOM     35  C   UNL A   1      31.699  32.420  26.702  1.00  0.00     0.202 C 
BRANCH  35  36
ATOM     36  C   UNL A   1      33.036  32.580  27.453  1.00  0.00     0.261 C 
BRANCH  36  37
ATOM     37  O   UNL A   1      33.355  33.968  27.695  1.00  0.00    -0.460 OA
BRANCH  37  38
ATOM     38  C   UNL A   1      33.398  34.393  28.976  1.00  0.00     0.338 C 
ATOM     39  O   UNL A   1      32.542  35.040  29.557  1.00  0.00    -0.246 OA
BRANCH  38  40
ATOM     40  C   UNL A   1      34.596  33.833  29.654  1.00  0.00     0.060 A 
ATOM     41  C   UNL A   1      35.849  34.223  29.178  1.00  0.00     0.016 A 
ATOM     42  C   UNL A   1      34.517  32.913  30.709  1.00  0.00     0.016 A 
ATOM     43  C   UNL A   1      37.020  33.675  29.721  1.00  0.00     0.010 A 
ATOM     44  C   UNL A   1      35.701  32.375  31.263  1.00  0.00     0.010 A 
ATOM     45  C   UNL A   1      36.967  32.723  30.750  1.00  0.00    -0.014 A 
BRANCH  45  46
ATOM     46  C   UNL A   1      38.219  31.978  31.118  1.00  0.00     0.031 A 
ATOM     47  C   UNL A   1      38.846  32.224  32.473  1.00  0.00     0.074 A 
ATOM     48  C   UNL A   1      38.747  31.013  30.333  1.00  0.00     0.049 A 
ATOM     49  N   UNL A   1      39.868  31.634  33.042  1.00  0.00    -0.248 NA
ATOM     50  C   UNL A   1      38.234  33.280  33.292  1.00  0.00     0.031 C 
ATOM     51  C   UNL A   1      38.253  30.628  29.013  1.00  0.00     0.029 A 
ATOM     52  N   UNL A   1      39.814  30.163  30.546  1.00  0.00    -0.354 N 
ATOM     53  C   UNL A   1      40.018  32.243  34.285  1.00  0.00     0.074 A 
ATOM     54  C   UNL A   1      39.023  33.291  34.355  1.00  0.00     0.031 C 
ATOM     55  C   UNL A   1      38.995  29.606  28.546  1.00  0.00     0.029 A 
ATOM     56  C   UNL A   1      40.044  29.277  29.515  1.00  0.00     0.049 A 
ATOM     57  H   UNL A   1      40.364  30.188  31.363  1.00  0.00     0.167 HD
ATOM     58  C   UNL A   1      40.879  31.948  35.293  1.00  0.00     0.034 A 
ATOM     59  C   UNL A   1      40.984  28.317  29.358  1.00  0.00     0.034 A 
ATOM     60  C   UNL A   1      41.874  30.906  35.240  1.00  0.00     0.049 A 
ATOM     61  C   UNL A   1      41.996  28.066  30.459  1.00  0.00     0.074 A 
ATOM     62  C   UNL A   1      42.775  30.528  36.223  1.00  0.00     0.029 A 
ATOM     63  N   UNL A   1      42.116  30.083  34.150  1.00  0.00    -0.354 N 
ATOM     64  N   UNL A   1      42.100  28.637  31.637  1.00  0.00    -0.248 NA
ATOM     65  C   UNL A   1      43.010  27.028  30.210  1.00  0.00     0.031 C 
ATOM     66  C   UNL A   1      43.611  29.537  35.700  1.00  0.00     0.029 A 
ATOM     67  C   UNL A   1      43.174  29.228  34.422  1.00  0.00     0.049 A 
ATOM     68  H   UNL A   1      41.609  30.104  33.305  1.00  0.00     0.167 HD
ATOM     69  C   UNL A   1      43.163  27.998  32.279  1.00  0.00     0.074 A 
ATOM     70  C   UNL A   1      43.657  26.993  31.366  1.00  0.00     0.031 C 
ATOM     71  C   UNL A   1      43.676  28.223  33.516  1.00  0.00     0.034 A 
BRANCH  58  72
ATOM     72  C   UNL A   1      40.801  32.805  36.535  1.00  0.00     0.023 A 
ATOM     73  C   UNL A   1      39.920  32.502  37.589  1.00  0.00     0.031 A 
ATOM     74  C   UNL A   1      41.594  33.960  36.651  1.00  0.00     0.131 A 
ATOM     75  C   UNL A   1      39.792  33.389  38.668  1.00  0.00     0.055 A 
ATOM     76  C   UNL A   1      41.527  34.789  37.772  1.00  0.00     0.041 A 
ATOM     77  F   UNL A   1      42.438  34.312  35.669  1.00  0.00    -0.206 F 
ATOM     78  C   UNL A   1      40.609  34.515  38.782  1.00  0.00     0.022 A 
BRANCH  75  79
ATOM     79  S   UNL A   1      38.426  33.135  39.835  1.00  0.00     0.124 S 
ATOM     80  O   UNL A   1      38.370  34.431  40.508  1.00  0.00    -0.237 OA
ATOM     81  O   UNL A   1      37.309  32.824  38.951  1.00  0.00    -0.237 OA
ATOM     82  O   UNL A   1      38.890  32.028  40.668  1.00  0.00    -0.744 OA
ENDBRANCH  75  79
ENDBRANCH  58  72
BRANCH  59  83
ATOM     83  C   UNL A   1      41.070  27.525  28.090  1.00  0.00     0.023 A 
ATOM     84  C   UNL A   1      40.826  26.139  28.069  1.00  0.00     0.031 A 
ATOM     85  C   UNL A   1      41.502  28.130  26.896  1.00  0.00     0.131 A 
ATOM     86  C   UNL A   1      41.072  25.400  26.898  1.00  0.00     0.055 A 
ATOM     87  C   UNL A   1      41.686  27.401  25.720  1.00  0.00     0.041 A 
ATOM     88  F   UNL A   1      41.764  29.446  26.860  1.00  0.00    -0.206 F 
ATOM     89  C   UNL A   1      41.486  26.025  25.720  1.00  0.00     0.022 A 
BRANCH  86  90
ATOM     90  S   UNL A   1      40.947  23.590  26.962  1.00  0.00     0.124 S 
ATOM     91  O   UNL A   1      41.333  23.315  28.341  1.00  0.00    -0.237 OA
ATOM     92  O   UNL A   1      39.543  23.371  26.632  1.00  0.00    -0.237 OA
ATOM     93  O   UNL A   1      41.899  23.146  25.947  1.00  0.00    -0.744 OA
ENDBRANCH  86  90
ENDBRANCH  59  83
BRANCH  71  94
ATOM     94  C   UNL A   1      44.800  27.323  33.987  1.00  0.00     0.023 A 
ATOM     95  C   UNL A   1      44.562  26.127  34.688  1.00  0.00     0.031 A 
ATOM     96  C   UNL A   1      46.139  27.674  33.729  1.00  0.00     0.131 A 
ATOM     97  C   UNL A   1      45.641  25.357  35.154  1.00  0.00     0.055 A 
ATOM     98  C   UNL A   1      47.206  26.871  34.137  1.00  0.00     0.041 A 
ATOM     99  F   UNL A   1      46.434  28.804  33.068  1.00  0.00    -0.206 F 
ATOM    100  C   UNL A   1      46.961  25.712  34.866  1.00  0.00     0.022 A 
BRANCH  97 101
ATOM    101  S   UNL A   1      45.303  23.934  36.229  1.00  0.00     0.124 S 
ATOM    102  O   UNL A   1      44.322  23.190  35.447  1.00  0.00    -0.237 OA
ATOM    103  O   UNL A   1      46.620  23.318  36.352  1.00  0.00    -0.237 OA
ATOM    104  O   UNL A   1      44.787  24.543  37.453  1.00  0.00    -0.744 OA
ENDBRANCH  97 101
ENDBRANCH  71  94
ENDBRANCH  45  46
ENDBRANCH  38  40
ENDBRANCH  37  38
ENDBRANCH  36  37
ENDBRANCH  35  36
ENDBRANCH  34  35
ENDBRANCH   1  34
TORSDOF 23
ENDMDL
MODEL 3
REMARK VINA RESULT:     -11.6      5.636     13.153
REMARK SMILES COc1cc(/C=C2/CCc3cc(OC(C)(C)C(=O)OCCOCCOC(=O)c4ccc(-c5c6nc(c(-c7cc(S(=O)(=O)[O-])ccc7F)c7ccc([nH]7)c(-c7cc(S(=O)(=O)[O-])ccc7F)c7nc(c(-c8cc(S(=O)(=O)[O-])ccc8F)c8ccc5[nH]8)C=C7)C=C6)cc4)ccc3C2=O)cc(OC)c1O
REMARK SMILES IDX 21 1 20 2 19 3 17 4 18 5 14 6 15 7 16 8 13 9 12 10 6 11 7 12
REMARK SMILES IDX 8 13 94 14 9 15 93 16 95 17 10 18 92 19 11 20 91 21 5 22
REMARK SMILES IDX 3 23 4 24 100 25 97 26 96 27 2 28 1 29 101 30 98 32 99 33
REMARK SMILES IDX 22 34 23 35 24 36 25 37 26 38 27 39 28 40 29 41 90 42 30 43
REMARK SMILES IDX 89 44 31 45 32 46 33 47 83 48 34 49 88 50 82 51 84 52 35 53
REMARK SMILES IDX 87 54 81 55 80 56 36 58 68 59 48 60 67 61 49 62 52 63 66 64
REMARK SMILES IDX 85 65 50 66 51 67 65 69 86 70 53 71 37 72 38 73 46 74 39 75
REMARK SMILES IDX 45 76 47 77 44 78 40 79 41 80 42 81 43 82 69 83 70 84 78 85
REMARK SMILES IDX 71 86 77 87 79 88 76 89 72 90 73 91 74 92 75 93 54 94 55 95
REMARK SMILES IDX 63 96 56 97 62 98 64 99 61 100 57 101 58 102 59 103 60 104
REMARK H PARENT 101 31 84 57 52 68
REMARK Flexibility Score: inf
ROOT
ATOM      1  C   UNL A   1      49.419  31.114  34.079  1.00  0.00     0.202 C 
ENDROOT
BRANCH   1   2
ATOM      2  C   UNL A   1      49.493  30.698  32.583  1.00  0.00     0.261 C 
BRANCH   2   3
ATOM      3  O   UNL A   1      48.246  30.804  31.859  1.00  0.00    -0.460 OA
BRANCH   3   4
ATOM      4  C   UNL A   1      47.192  29.951  32.135  1.00  0.00     0.349 C 
ATOM      5  O   UNL A   1      47.325  28.785  32.477  1.00  0.00    -0.247 OA
BRANCH   4   6
ATOM      6  C   UNL A   1      45.815  30.705  31.987  1.00  0.00     0.200 C 
ATOM      7  C   UNL A   1      46.039  31.966  31.136  1.00  0.00     0.069 C 
ATOM      8  C   UNL A   1      45.541  31.149  33.423  1.00  0.00     0.069 C 
BRANCH   6   9
ATOM      9  O   UNL A   1      44.741  29.955  31.293  1.00  0.00    -0.476 OA
BRANCH   9  10
ATOM     10  C   UNL A   1      43.443  30.187  31.725  1.00  0.00     0.121 A 
ATOM     11  C   UNL A   1      38.569  28.205  29.212  1.00  0.00     0.016 C 
ATOM     12  C   UNL A   1      39.163  28.459  30.398  1.00  0.00     0.001 C 
ATOM     13  C   UNL A   1      38.856  28.299  31.889  1.00  0.00     0.044 C 
ATOM     14  C   UNL A   1      40.555  28.843  30.310  1.00  0.00     0.189 C 
ATOM     15  C   UNL A   1      40.235  28.188  32.798  1.00  0.00     0.041 C 
ATOM     16  C   UNL A   1      40.858  29.946  31.277  1.00  0.00     0.026 A 
ATOM     17  O   UNL A   1      41.372  28.005  29.937  1.00  0.00    -0.289 OA
ATOM     18  C   UNL A   1      41.302  29.220  32.367  1.00  0.00    -0.033 A 
ATOM     19  C   UNL A   1      41.466  31.113  30.833  1.00  0.00     0.016 A 
ATOM     20  C   UNL A   1      42.703  29.233  32.492  1.00  0.00     0.051 A 
ATOM     21  C   UNL A   1      42.799  31.282  31.145  1.00  0.00     0.047 A 
BRANCH  11  22
ATOM     22  C   UNL A   1      39.386  27.904  27.975  1.00  0.00    -0.018 A 
ATOM     23  C   UNL A   1      40.490  26.056  26.779  1.00  0.00     0.165 A 
ATOM     24  C   UNL A   1      39.553  26.535  27.706  1.00  0.00     0.058 A 
ATOM     25  C   UNL A   1      41.313  26.963  26.121  1.00  0.00     0.200 A 
ATOM     26  C   UNL A   1      41.202  28.333  26.384  1.00  0.00     0.165 A 
ATOM     27  C   UNL A   1      40.194  28.810  27.254  1.00  0.00     0.058 A 
BRANCH  23  28
ATOM     28  O   UNL A   1      40.501  24.692  26.654  1.00  0.00    -0.493 OA
ATOM     29  C   UNL A   1      41.163  23.943  27.670  1.00  0.00     0.278 C 
ENDBRANCH  23  28
BRANCH  25  30
ATOM     30  O   UNL A   1      42.237  26.508  25.223  1.00  0.00    -0.502 OA
ATOM     31  H   UNL A   1      42.556  25.630  25.283  1.00  0.00     0.293 HD
ENDBRANCH  25  30
BRANCH  26  32
ATOM     32  O   UNL A   1      42.062  29.270  25.867  1.00  0.00    -0.493 OA
ATOM     33  C   UNL A   1      43.253  29.531  26.627  1.00  0.00     0.278 C 
ENDBRANCH  26  32
ENDBRANCH  11  22
ENDBRANCH   9  10
ENDBRANCH   6   9
ENDBRANCH   4   6
ENDBRANCH   3   4
ENDBRANCH   2   3
ENDBRANCH   1   2
BRANCH   1  34
ATOM     34  O   UNL A   1      49.785  32.470  34.338  1.00  0.00    -0.374 OA
BRANCH  34  35
ATOM     35  C   UNL A   1      50.739  32.674  35.384  1.00  0.00     0.202 C 
BRANCH  35  36
ATOM     36  C   UNL A   1      50.908  34.137  35.838  1.00  0.00     0.261 C 
BRANCH  36  37
ATOM     37  O   UNL A   1      49.928  34.510  36.831  1.00  0.00    -0.460 OA
BRANCH  37  38
ATOM     38  C   UNL A   1      49.340  35.720  36.717  1.00  0.00     0.338 C 
ATOM     39  O   UNL A   1      49.890  36.807  36.802  1.00  0.00    -0.246 OA
BRANCH  38  40
ATOM     40  C   UNL A   1      47.918  35.555  36.322  1.00  0.00     0.060 A 
ATOM     41  C   UNL A   1      47.429  34.253  36.196  1.00  0.00     0.016 A 
ATOM     42  C   UNL A   1      47.073  36.637  36.038  1.00  0.00     0.016 A 
ATOM     43  C   UNL A   1      46.119  34.024  35.753  1.00  0.00     0.010 A 
ATOM     44  C   UNL A   1      45.748  36.401  35.606  1.00  0.00     0.010 A 
ATOM     45  C   UNL A   1      45.267  35.088  35.424  1.00  0.00    -0.014 A 
BRANCH  45  46
ATOM     46  C   UNL A   1      43.976  34.794  34.713  1.00  0.00     0.031 A 
ATOM     47  C   UNL A   1      42.733  34.524  35.534  1.00  0.00     0.074 A 
ATOM     48  C   UNL A   1      43.852  34.871  33.370  1.00  0.00     0.049 A 
ATOM     49  N   UNL A   1      41.496  34.337  35.144  1.00  0.00    -0.248 NA
ATOM     50  C   UNL A   1      42.916  34.453  36.990  1.00  0.00     0.031 C 
ATOM     51  C   UNL A   1      44.937  35.150  32.432  1.00  0.00     0.029 A 
ATOM     52  N   UNL A   1      42.742  34.740  32.559  1.00  0.00    -0.354 N 
ATOM     53  C   UNL A   1      40.755  34.134  36.304  1.00  0.00     0.074 A 
ATOM     54  C   UNL A   1      41.696  34.153  37.405  1.00  0.00     0.031 C 
ATOM     55  C   UNL A   1      44.439  35.193  31.182  1.00  0.00     0.029 A 
ATOM     56  C   UNL A   1      43.002  34.913  31.216  1.00  0.00     0.049 A 
ATOM     57  H   UNL A   1      41.844  34.538  32.909  1.00  0.00     0.167 HD
ATOM     58  C   UNL A   1      39.415  33.974  36.458  1.00  0.00     0.034 A 
ATOM     59  C   UNL A   1      42.188  34.852  30.136  1.00  0.00     0.034 A 
ATOM     60  C   UNL A   1      38.466  33.954  35.373  1.00  0.00     0.049 A 
ATOM     61  C   UNL A   1      40.708  34.580  30.322  1.00  0.00     0.074 A 
ATOM     62  C   UNL A   1      37.088  33.815  35.441  1.00  0.00     0.029 A 
ATOM     63  N   UNL A   1      38.783  34.063  34.027  1.00  0.00    -0.354 N 
ATOM     64  N   UNL A   1      40.027  34.417  31.433  1.00  0.00    -0.248 NA
ATOM     65  C   UNL A   1      39.887  34.496  29.103  1.00  0.00     0.031 C 
ATOM     66  C   UNL A   1      36.585  33.757  34.137  1.00  0.00     0.029 A 
ATOM     67  C   UNL A   1      37.635  33.954  33.255  1.00  0.00     0.049 A 
ATOM     68  H   UNL A   1      39.692  34.197  33.671  1.00  0.00     0.167 HD
ATOM     69  C   UNL A   1      38.696  34.253  31.044  1.00  0.00     0.074 A 
ATOM     70  C   UNL A   1      38.668  34.349  29.602  1.00  0.00     0.031 C 
ATOM     71  C   UNL A   1      37.597  34.047  31.815  1.00  0.00     0.034 A 
BRANCH  58  72
ATOM     72  C   UNL A   1      38.905  33.764  37.865  1.00  0.00     0.023 A 
ATOM     73  C   UNL A   1      38.351  32.539  38.275  1.00  0.00     0.031 A 
ATOM     74  C   UNL A   1      38.943  34.815  38.797  1.00  0.00     0.131 A 
ATOM     75  C   UNL A   1      37.780  32.423  39.551  1.00  0.00     0.055 A 
ATOM     76  C   UNL A   1      38.455  34.664  40.096  1.00  0.00     0.041 A 
ATOM     77  F   UNL A   1      39.441  36.014  38.458  1.00  0.00    -0.206 F 
ATOM     78  C   UNL A   1      37.854  33.467  40.475  1.00  0.00     0.022 A 
BRANCH  75  79
ATOM     79  S   UNL A   1      36.794  30.947  39.924  1.00  0.00     0.124 S 
ATOM     80  O   UNL A   1      37.602  30.307  40.959  1.00  0.00    -0.237 OA
ATOM     81  O   UNL A   1      35.525  31.516  40.362  1.00  0.00    -0.237 OA
ATOM     82  O   UNL A   1      36.751  30.234  38.649  1.00  0.00    -0.744 OA
ENDBRANCH  75  79
ENDBRANCH  58  72
BRANCH  59  83
ATOM     83  C   UNL A   1      42.736  35.007  28.751  1.00  0.00     0.023 A 
ATOM     84  C   UNL A   1      43.495  33.991  28.141  1.00  0.00     0.031 A 
ATOM     85  C   UNL A   1      42.596  36.223  28.058  1.00  0.00     0.131 A 
ATOM     86  C   UNL A   1      44.129  34.231  26.909  1.00  0.00     0.055 A 
ATOM     87  C   UNL A   1      43.178  36.434  26.807  1.00  0.00     0.041 A 
ATOM     88  F   UNL A   1      41.896  37.234  28.597  1.00  0.00    -0.206 F 
ATOM     89  C   UNL A   1      43.962  35.441  26.231  1.00  0.00     0.022 A 
BRANCH  86  90
ATOM     90  S   UNL A   1      45.265  32.978  26.250  1.00  0.00     0.124 S 
ATOM     91  O   UNL A   1      44.519  32.475  25.103  1.00  0.00    -0.237 OA
ATOM     92  O   UNL A   1      46.451  33.773  25.947  1.00  0.00    -0.237 OA
ATOM     93  O   UNL A   1      45.416  32.038  27.358  1.00  0.00    -0.744 OA
ENDBRANCH  86  90
ENDBRANCH  59  83
BRANCH  71  94
ATOM     94  C   UNL A   1      36.253  33.972  31.122  1.00  0.00     0.023 A 
ATOM     95  C   UNL A   1      35.319  35.023  31.177  1.00  0.00     0.031 A 
ATOM     96  C   UNL A   1      35.899  32.821  30.392  1.00  0.00     0.131 A 
ATOM     97  C   UNL A   1      34.062  34.881  30.565  1.00  0.00     0.055 A 
ATOM     98  C   UNL A   1      34.674  32.712  29.730  1.00  0.00     0.041 A 
ATOM     99  F   UNL A   1      36.744  31.781  30.304  1.00  0.00    -0.206 F 
ATOM    100  C   UNL A   1      33.742  33.739  29.826  1.00  0.00     0.022 A 
BRANCH  97 101
ATOM    101  S   UNL A   1      32.809  36.166  30.828  1.00  0.00     0.124 S 
ATOM    102  O   UNL A   1      32.265  36.339  29.486  1.00  0.00    -0.237 OA
ATOM    103  O   UNL A   1      31.919  35.539  31.800  1.00  0.00    -0.237 OA
ATOM    104  O   UNL A   1      33.579  37.299  31.336  1.00  0.00    -0.744 OA
ENDBRANCH  97 101
ENDBRANCH  71  94
ENDBRANCH  45  46
ENDBRANCH  38  40
ENDBRANCH  37  38
ENDBRANCH  36  37
ENDBRANCH  35  36
ENDBRANCH  34  35
ENDBRANCH   1  34
TORSDOF 23
ENDMDL
