MODEL 1
REMARK VINA RESULT:     -11.2      0.000      0.000
REMARK SMILES CCSc1ccc(-c2cc(Cl)cc3c2O[C@@H](C(F)(F)F)C(C(=O)OCCOCCOC(=O)c2ccc(-c4c5nc(c(-c6cc(S(=O)(=O)[O-])ccc6F)c6ccc([nH]6)c(-c6cc(S(=O)(=O)[O-])ccc6F)c6nc(c(-c7cc(S(=O)(=O)[O-])ccc7F)c7ccc4[nH]7)C=C6)C=C5)cc2)=C3)cc1
REMARK SMILES IDX 27 1 26 2 25 3 24 4 22 5 23 6 21 7 8 8 9 9 14 10 10 11 13 12
REMARK SMILES IDX 15 13 11 14 12 15 96 16 16 17 7 18 4 19 5 20 98 21 6 22
REMARK SMILES IDX 97 23 3 24 2 25 1 26 17 27 18 28 19 29 20 30 28 31 29 32
REMARK SMILES IDX 30 33 31 34 32 35 33 36 34 37 95 38 35 39 94 40 36 41 37 42
REMARK SMILES IDX 38 43 88 44 39 45 93 46 87 47 89 48 40 49 92 50 86 51 85 52
REMARK SMILES IDX 41 54 73 55 53 56 72 57 54 58 57 59 71 60 90 61 55 62 56 63
REMARK SMILES IDX 70 65 91 66 58 67 42 68 43 69 51 70 44 71 50 72 52 73 49 74
REMARK SMILES IDX 45 75 46 76 47 77 48 78 74 79 75 80 83 81 76 82 82 83 84 84
REMARK SMILES IDX 81 85 77 86 78 87 79 88 80 89 59 90 60 91 68 92 61 93 67 94
REMARK SMILES IDX 69 95 66 96 62 97 63 98 64 99 65 100
REMARK H PARENT 89 53 57 64
REMARK Flexibility Score: inf
ROOT
ATOM      1  O   UNL A   1      39.018  22.122  26.374  1.00  0.00    -0.374 OA
ENDROOT
BRANCH   1   2
ATOM      2  C   UNL A   1      38.146  23.233  26.206  1.00  0.00     0.202 C 
BRANCH   2   3
ATOM      3  C   UNL A   1      36.663  22.963  25.906  1.00  0.00     0.261 C 
BRANCH   3   4
ATOM      4  O   UNL A   1      36.227  23.519  24.654  1.00  0.00    -0.460 OA
BRANCH   4   5
ATOM      5  C   UNL A   1      34.898  23.516  24.441  1.00  0.00     0.338 C 
ATOM      6  O   UNL A   1      34.281  22.661  23.819  1.00  0.00    -0.246 OA
BRANCH   5   7
ATOM      7  C   UNL A   1      34.195  24.579  25.198  1.00  0.00     0.087 C 
ATOM      8  C   UNL A   1      30.896  26.273  23.331  1.00  0.00     0.026 A 
ATOM      9  C   UNL A   1      31.098  26.030  21.952  1.00  0.00     0.033 A 
ATOM     10  C   UNL A   1      31.959  25.875  24.168  1.00  0.00     0.135 A 
ATOM     11  C   UNL A   1      32.375  25.787  21.445  1.00  0.00     0.042 A 
ATOM     12  C   UNL A   1      33.267  25.900  23.658  1.00  0.00     0.019 A 
ATOM     13  O   UNL A   1      31.708  25.007  25.250  1.00  0.00    -0.475 OA
ATOM     14  Cl  UNL A   1      32.591  25.566  19.756  1.00  0.00    -0.084 Cl
ATOM     15  C   UNL A   1      33.476  25.827  22.286  1.00  0.00     0.032 A 
ATOM     16  C   UNL A   1      34.395  25.766  24.602  1.00  0.00     0.027 C 
ATOM     17  C   UNL A   1      32.899  24.478  25.974  1.00  0.00     0.316 C 
BRANCH   8  18
ATOM     18  C   UNL A   1      30.037  27.494  23.584  1.00  0.00    -0.015 A 
ATOM     19  C   UNL A   1      28.550  29.916  23.126  1.00  0.00     0.007 A 
ATOM     20  C   UNL A   1      27.936  28.661  23.060  1.00  0.00     0.015 A 
ATOM     21  C   UNL A   1      29.895  29.963  23.491  1.00  0.00     0.015 A 
ATOM     22  C   UNL A   1      28.657  27.477  23.306  1.00  0.00     0.010 A 
ATOM     23  C   UNL A   1      30.622  28.772  23.727  1.00  0.00     0.010 A 
BRANCH  19  24
ATOM     24  S   UNL A   1      27.575  31.317  22.585  1.00  0.00    -0.126 SA
BRANCH  24  25
ATOM     25  C   UNL A   1      28.791  32.565  22.044  1.00  0.00     0.071 C 
ATOM     26  C   UNL A   1      29.120  33.565  23.135  1.00  0.00     0.016 C 
ENDBRANCH  24  25
ENDBRANCH  19  24
ENDBRANCH   8  18
BRANCH  17  27
ATOM     27  C   UNL A   1      32.710  23.167  26.771  1.00  0.00     0.430 C 
ATOM     28  F   UNL A   1      33.813  22.961  27.546  1.00  0.00    -0.167 F 
ATOM     29  F   UNL A   1      31.660  23.243  27.620  1.00  0.00    -0.167 F 
ATOM     30  F   UNL A   1      32.546  22.059  26.028  1.00  0.00    -0.167 F 
ENDBRANCH  17  27
ENDBRANCH   5   7
ENDBRANCH   4   5
ENDBRANCH   3   4
ENDBRANCH   2   3
ENDBRANCH   1   2
BRANCH   1  31
ATOM     31  C   UNL A   1      38.925  21.046  25.443  1.00  0.00     0.202 C 
BRANCH  31  32
ATOM     32  C   UNL A   1      39.515  19.684  25.815  1.00  0.00     0.261 C 
BRANCH  32  33
ATOM     33  O   UNL A   1      40.621  19.760  26.727  1.00  0.00    -0.460 OA
BRANCH  33  34
ATOM     34  C   UNL A   1      41.829  19.903  26.130  1.00  0.00     0.338 C 
ATOM     35  O   UNL A   1      42.367  19.122  25.354  1.00  0.00    -0.246 OA
BRANCH  34  36
ATOM     36  C   UNL A   1      42.370  21.241  26.409  1.00  0.00     0.060 A 
ATOM     37  C   UNL A   1      42.567  21.608  27.746  1.00  0.00     0.016 A 
ATOM     38  C   UNL A   1      42.586  22.155  25.376  1.00  0.00     0.016 A 
ATOM     39  C   UNL A   1      42.949  22.910  28.058  1.00  0.00     0.010 A 
ATOM     40  C   UNL A   1      42.963  23.462  25.694  1.00  0.00     0.010 A 
ATOM     41  C   UNL A   1      43.116  23.854  27.037  1.00  0.00    -0.014 A 
BRANCH  41  42
ATOM     42  C   UNL A   1      43.312  25.282  27.381  1.00  0.00     0.031 A 
ATOM     43  C   UNL A   1      44.689  25.875  27.272  1.00  0.00     0.074 A 
ATOM     44  C   UNL A   1      42.269  26.041  27.762  1.00  0.00     0.049 A 
ATOM     45  N   UNL A   1      45.105  27.075  27.586  1.00  0.00    -0.248 NA
ATOM     46  C   UNL A   1      45.738  24.991  26.744  1.00  0.00     0.031 C 
ATOM     47  C   UNL A   1      40.884  25.582  27.857  1.00  0.00     0.029 A 
ATOM     48  N   UNL A   1      42.215  27.355  28.152  1.00  0.00    -0.354 N 
ATOM     49  C   UNL A   1      46.466  27.089  27.299  1.00  0.00     0.074 A 
ATOM     50  C   UNL A   1      46.811  25.764  26.828  1.00  0.00     0.031 C 
ATOM     51  C   UNL A   1      40.117  26.596  28.289  1.00  0.00     0.029 A 
ATOM     52  C   UNL A   1      40.962  27.760  28.548  1.00  0.00     0.049 A 
ATOM     53  H   UNL A   1      42.998  27.951  28.149  1.00  0.00     0.167 HD
ATOM     54  C   UNL A   1      47.343  28.118  27.410  1.00  0.00     0.034 A 
ATOM     55  C   UNL A   1      40.552  28.926  29.088  1.00  0.00     0.034 A 
ATOM     56  C   UNL A   1      46.979  29.427  27.897  1.00  0.00     0.049 A 
ATOM     57  C   UNL A   1      41.564  30.028  29.293  1.00  0.00     0.074 A 
ATOM     58  C   UNL A   1      47.780  30.545  28.047  1.00  0.00     0.029 A 
ATOM     59  N   UNL A   1      45.709  29.791  28.329  1.00  0.00    -0.354 N 
ATOM     60  N   UNL A   1      42.849  30.034  29.017  1.00  0.00    -0.248 NA
ATOM     61  C   UNL A   1      41.069  31.283  29.871  1.00  0.00     0.031 C 
ATOM     62  C   UNL A   1      47.017  31.556  28.643  1.00  0.00     0.029 A 
ATOM     63  C   UNL A   1      45.714  31.103  28.779  1.00  0.00     0.049 A 
ATOM     64  H   UNL A   1      44.919  29.202  28.317  1.00  0.00     0.167 HD
ATOM     65  C   UNL A   1      43.307  31.304  29.359  1.00  0.00     0.074 A 
ATOM     66  C   UNL A   1      42.157  32.039  29.845  1.00  0.00     0.031 C 
ATOM     67  C   UNL A   1      44.560  31.820  29.273  1.00  0.00     0.034 A 
BRANCH  54  68
ATOM     68  C   UNL A   1      48.784  27.845  27.047  1.00  0.00     0.023 A 
ATOM     69  C   UNL A   1      49.274  28.053  25.745  1.00  0.00     0.031 A 
ATOM     70  C   UNL A   1      49.676  27.338  28.010  1.00  0.00     0.131 A 
ATOM     71  C   UNL A   1      50.589  27.683  25.424  1.00  0.00     0.055 A 
ATOM     72  C   UNL A   1      51.009  27.055  27.704  1.00  0.00     0.041 A 
ATOM     73  F   UNL A   1      49.262  27.094  29.263  1.00  0.00    -0.206 F 
ATOM     74  C   UNL A   1      51.469  27.212  26.400  1.00  0.00     0.022 A 
BRANCH  71  75
ATOM     75  S   UNL A   1      51.086  27.681  23.679  1.00  0.00     0.124 S 
ATOM     76  O   UNL A   1      51.261  29.109  23.420  1.00  0.00    -0.237 OA
ATOM     77  O   UNL A   1      52.306  26.882  23.699  1.00  0.00    -0.237 OA
ATOM     78  O   UNL A   1      49.948  27.067  23.000  1.00  0.00    -0.744 OA
ENDBRANCH  71  75
ENDBRANCH  54  68
BRANCH  55  79
ATOM     79  C   UNL A   1      39.135  29.100  29.518  1.00  0.00     0.023 A 
ATOM     80  C   UNL A   1      38.181  29.681  28.670  1.00  0.00     0.031 A 
ATOM     81  C   UNL A   1      38.725  28.727  30.813  1.00  0.00     0.131 A 
ATOM     82  C   UNL A   1      36.879  29.917  29.139  1.00  0.00     0.055 A 
ATOM     83  C   UNL A   1      37.413  28.908  31.253  1.00  0.00     0.041 A 
ATOM     84  F   UNL A   1      39.597  28.170  31.668  1.00  0.00    -0.206 F 
ATOM     85  C   UNL A   1      36.484  29.520  30.419  1.00  0.00     0.022 A 
BRANCH  82  86
ATOM     86  S   UNL A   1      35.729  30.841  28.082  1.00  0.00     0.124 S 
ATOM     87  O   UNL A   1      35.594  29.947  26.939  1.00  0.00    -0.237 OA
ATOM     88  O   UNL A   1      34.559  30.965  28.945  1.00  0.00    -0.237 OA
ATOM     89  O   UNL A   1      36.440  32.090  27.817  1.00  0.00    -0.744 OA
ENDBRANCH  82  86
ENDBRANCH  55  79
BRANCH  67  90
ATOM     90  C   UNL A   1      44.739  33.267  29.668  1.00  0.00     0.023 A 
ATOM     91  C   UNL A   1      44.601  34.315  28.741  1.00  0.00     0.031 A 
ATOM     92  C   UNL A   1      45.059  33.601  30.998  1.00  0.00     0.131 A 
ATOM     93  C   UNL A   1      44.841  35.639  29.142  1.00  0.00     0.055 A 
ATOM     94  C   UNL A   1      45.226  34.924  31.405  1.00  0.00     0.041 A 
ATOM     95  F   UNL A   1      45.208  32.642  31.926  1.00  0.00    -0.206 F 
ATOM     96  C   UNL A   1      45.133  35.952  30.472  1.00  0.00     0.022 A 
BRANCH  93  97
ATOM     97  S   UNL A   1      44.869  36.940  27.878  1.00  0.00     0.124 S 
ATOM     98  O   UNL A   1      43.893  36.444  26.912  1.00  0.00    -0.237 OA
ATOM     99  O   UNL A   1      44.473  38.122  28.636  1.00  0.00    -0.237 OA
ATOM    100  O   UNL A   1      46.256  36.938  27.415  1.00  0.00    -0.744 OA
ENDBRANCH  93  97
ENDBRANCH  67  90
ENDBRANCH  41  42
ENDBRANCH  34  36
ENDBRANCH  33  34
ENDBRANCH  32  33
ENDBRANCH  31  32
ENDBRANCH   1  31
TORSDOF 21
ENDMDL
MODEL 2
REMARK VINA RESULT:     -11.2      6.476     10.109
REMARK SMILES CCSc1ccc(-c2cc(Cl)cc3c2O[C@@H](C(F)(F)F)C(C(=O)OCCOCCOC(=O)c2ccc(-c4c5nc(c(-c6cc(S(=O)(=O)[O-])ccc6F)c6ccc([nH]6)c(-c6cc(S(=O)(=O)[O-])ccc6F)c6nc(c(-c7cc(S(=O)(=O)[O-])ccc7F)c7ccc4[nH]7)C=C6)C=C5)cc2)=C3)cc1
REMARK SMILES IDX 27 1 26 2 25 3 24 4 22 5 23 6 21 7 8 8 9 9 14 10 10 11 13 12
REMARK SMILES IDX 15 13 11 14 12 15 96 16 16 17 7 18 4 19 5 20 98 21 6 22
REMARK SMILES IDX 97 23 3 24 2 25 1 26 17 27 18 28 19 29 20 30 28 31 29 32
REMARK SMILES IDX 30 33 31 34 32 35 33 36 34 37 95 38 35 39 94 40 36 41 37 42
REMARK SMILES IDX 38 43 88 44 39 45 93 46 87 47 89 48 40 49 92 50 86 51 85 52
REMARK SMILES IDX 41 54 73 55 53 56 72 57 54 58 57 59 71 60 90 61 55 62 56 63
REMARK SMILES IDX 70 65 91 66 58 67 42 68 43 69 51 70 44 71 50 72 52 73 49 74
REMARK SMILES IDX 45 75 46 76 47 77 48 78 74 79 75 80 83 81 76 82 82 83 84 84
REMARK SMILES IDX 81 85 77 86 78 87 79 88 80 89 59 90 60 91 68 92 61 93 67 94
REMARK SMILES IDX 69 95 66 96 62 97 63 98 64 99 65 100
REMARK H PARENT 89 53 57 64
REMARK Flexibility Score: inf
ROOT
ATOM      1  O   UNL A   1      32.373  30.327  27.250  1.00  0.00    -0.374 OA
ENDROOT
BRANCH   1   2
ATOM      2  C   UNL A   1      33.635  29.832  26.820  1.00  0.00     0.202 C 
BRANCH   2   3
ATOM      3  C   UNL A   1      33.693  28.978  25.544  1.00  0.00     0.261 C 
BRANCH   3   4
ATOM      4  O   UNL A   1      32.395  28.592  25.061  1.00  0.00    -0.460 OA
BRANCH   4   5
ATOM      5  C   UNL A   1      32.084  27.288  25.190  1.00  0.00     0.338 C 
ATOM      6  O   UNL A   1      30.998  26.850  25.547  1.00  0.00    -0.246 OA
BRANCH   5   7
ATOM      7  C   UNL A   1      33.149  26.393  24.677  1.00  0.00     0.087 C 
ATOM      8  C   UNL A   1      32.128  22.389  24.271  1.00  0.00     0.026 A 
ATOM      9  C   UNL A   1      31.041  22.203  25.158  1.00  0.00     0.033 A 
ATOM     10  C   UNL A   1      32.721  23.668  24.317  1.00  0.00     0.135 A 
ATOM     11  C   UNL A   1      30.839  23.063  26.237  1.00  0.00     0.042 A 
ATOM     12  C   UNL A   1      32.702  24.379  25.527  1.00  0.00     0.019 A 
ATOM     13  O   UNL A   1      32.850  24.420  23.132  1.00  0.00    -0.475 OA
ATOM     14  Cl  UNL A   1      29.552  22.764  27.333  1.00  0.00    -0.084 Cl
ATOM     15  C   UNL A   1      31.734  24.093  26.483  1.00  0.00     0.032 A 
ATOM     16  C   UNL A   1      33.561  25.573  25.658  1.00  0.00     0.027 C 
ATOM     17  C   UNL A   1      33.309  25.831  23.280  1.00  0.00     0.316 C 
BRANCH   8  18
ATOM     18  C   UNL A   1      32.901  21.111  24.026  1.00  0.00    -0.015 A 
ATOM     19  C   UNL A   1      33.975  18.466  24.402  1.00  0.00     0.007 A 
ATOM     20  C   UNL A   1      32.778  18.674  23.709  1.00  0.00     0.015 A 
ATOM     21  C   UNL A   1      34.672  19.589  24.846  1.00  0.00     0.015 A 
ATOM     22  C   UNL A   1      32.263  19.968  23.505  1.00  0.00     0.010 A 
ATOM     23  C   UNL A   1      34.148  20.890  24.651  1.00  0.00     0.010 A 
BRANCH  19  24
ATOM     24  S   UNL A   1      34.403  16.767  24.774  1.00  0.00    -0.126 SA
BRANCH  24  25
ATOM     25  C   UNL A   1      33.008  16.128  25.761  1.00  0.00     0.071 C 
ATOM     26  C   UNL A   1      32.617  14.717  25.366  1.00  0.00     0.016 C 
ENDBRANCH  24  25
ENDBRANCH  19  24
ENDBRANCH   8  18
BRANCH  17  27
ATOM     27  C   UNL A   1      32.959  26.807  22.134  1.00  0.00     0.430 C 
ATOM     28  F   UNL A   1      33.287  26.225  20.946  1.00  0.00    -0.167 F 
ATOM     29  F   UNL A   1      31.632  27.060  22.078  1.00  0.00    -0.167 F 
ATOM     30  F   UNL A   1      33.592  27.992  22.173  1.00  0.00    -0.167 F 
ENDBRANCH  17  27
ENDBRANCH   5   7
ENDBRANCH   4   5
ENDBRANCH   3   4
ENDBRANCH   2   3
ENDBRANCH   1   2
BRANCH   1  31
ATOM     31  C   UNL A   1      31.787  31.400  26.517  1.00  0.00     0.202 C 
BRANCH  31  32
ATOM     32  C   UNL A   1      31.941  32.831  27.039  1.00  0.00     0.261 C 
BRANCH  32  33
ATOM     33  O   UNL A   1      33.275  33.156  27.457  1.00  0.00    -0.460 OA
BRANCH  33  34
ATOM     34  C   UNL A   1      33.343  34.109  28.418  1.00  0.00     0.338 C 
ATOM     35  O   UNL A   1      32.550  35.024  28.609  1.00  0.00    -0.246 OA
BRANCH  34  36
ATOM     36  C   UNL A   1      34.442  33.807  29.346  1.00  0.00     0.060 A 
ATOM     37  C   UNL A   1      35.731  34.232  29.004  1.00  0.00     0.016 A 
ATOM     38  C   UNL A   1      34.223  33.031  30.486  1.00  0.00     0.016 A 
ATOM     39  C   UNL A   1      36.818  33.851  29.786  1.00  0.00     0.010 A 
ATOM     40  C   UNL A   1      35.317  32.645  31.264  1.00  0.00     0.010 A 
ATOM     41  C   UNL A   1      36.622  33.027  30.901  1.00  0.00    -0.014 A 
BRANCH  41  42
ATOM     42  C   UNL A   1      37.792  32.450  31.605  1.00  0.00     0.031 A 
ATOM     43  C   UNL A   1      38.559  31.335  30.950  1.00  0.00     0.074 A 
ATOM     44  C   UNL A   1      38.174  32.932  32.801  1.00  0.00     0.049 A 
ATOM     45  N   UNL A   1      39.565  30.636  31.408  1.00  0.00    -0.248 NA
ATOM     46  C   UNL A   1      38.125  30.954  29.597  1.00  0.00     0.031 C 
ATOM     47  C   UNL A   1      37.532  34.041  33.506  1.00  0.00     0.029 A 
ATOM     48  N   UNL A   1      39.187  32.542  33.639  1.00  0.00    -0.354 N 
ATOM     49  C   UNL A   1      39.882  29.729  30.404  1.00  0.00     0.074 A 
ATOM     50  C   UNL A   1      38.933  29.938  29.332  1.00  0.00     0.031 C 
ATOM     51  C   UNL A   1      38.161  34.236  34.676  1.00  0.00     0.029 A 
ATOM     52  C   UNL A   1      39.216  33.236  34.826  1.00  0.00     0.049 A 
ATOM     53  H   UNL A   1      39.832  31.834  33.413  1.00  0.00     0.167 HD
ATOM     54  C   UNL A   1      40.882  28.812  30.377  1.00  0.00     0.034 A 
ATOM     55  C   UNL A   1      39.985  33.061  35.920  1.00  0.00     0.034 A 
ATOM     56  C   UNL A   1      41.809  28.611  31.466  1.00  0.00     0.049 A 
ATOM     57  C   UNL A   1      41.030  31.972  35.908  1.00  0.00     0.074 A 
ATOM     58  C   UNL A   1      42.862  27.717  31.548  1.00  0.00     0.029 A 
ATOM     59  N   UNL A   1      41.783  29.303  32.671  1.00  0.00    -0.354 N 
ATOM     60  N   UNL A   1      41.326  31.118  34.953  1.00  0.00    -0.248 NA
ATOM     61  C   UNL A   1      41.852  31.828  37.116  1.00  0.00     0.031 C 
ATOM     62  C   UNL A   1      43.420  27.813  32.828  1.00  0.00     0.029 A 
ATOM     63  C   UNL A   1      42.778  28.832  33.515  1.00  0.00     0.049 A 
ATOM     64  H   UNL A   1      41.150  30.024  32.894  1.00  0.00     0.167 HD
ATOM     65  C   UNL A   1      42.390  30.360  35.434  1.00  0.00     0.074 A 
ATOM     66  C   UNL A   1      42.692  30.868  36.757  1.00  0.00     0.031 C 
ATOM     67  C   UNL A   1      43.061  29.341  34.838  1.00  0.00     0.034 A 
BRANCH  54  68
ATOM     68  C   UNL A   1      40.984  27.930  29.155  1.00  0.00     0.023 A 
ATOM     69  C   UNL A   1      42.009  28.092  28.206  1.00  0.00     0.031 A 
ATOM     70  C   UNL A   1      40.022  26.931  28.917  1.00  0.00     0.131 A 
ATOM     71  C   UNL A   1      42.004  27.324  27.031  1.00  0.00     0.055 A 
ATOM     72  C   UNL A   1      40.074  26.112  27.787  1.00  0.00     0.041 A 
ATOM     73  F   UNL A   1      39.005  26.744  29.772  1.00  0.00    -0.206 F 
ATOM     74  C   UNL A   1      41.060  26.317  26.828  1.00  0.00     0.022 A 
BRANCH  71  75
ATOM     75  S   UNL A   1      43.156  27.769  25.701  1.00  0.00     0.124 S 
ATOM     76  O   UNL A   1      43.945  28.823  26.335  1.00  0.00    -0.237 OA
ATOM     77  O   UNL A   1      43.852  26.512  25.453  1.00  0.00    -0.237 OA
ATOM     78  O   UNL A   1      42.278  28.221  24.624  1.00  0.00    -0.744 OA
ENDBRANCH  71  75
ENDBRANCH  54  68
BRANCH  55  79
ATOM     79  C   UNL A   1      39.770  33.900  37.134  1.00  0.00     0.023 A 
ATOM     80  C   UNL A   1      39.101  33.397  38.260  1.00  0.00     0.031 A 
ATOM     81  C   UNL A   1      40.191  35.244  37.164  1.00  0.00     0.131 A 
ATOM     82  C   UNL A   1      38.831  34.241  39.349  1.00  0.00     0.055 A 
ATOM     83  C   UNL A   1      39.973  36.062  38.274  1.00  0.00     0.041 A 
ATOM     84  F   UNL A   1      40.831  35.779  36.113  1.00  0.00    -0.206 F 
ATOM     85  C   UNL A   1      39.277  35.566  39.370  1.00  0.00     0.022 A 
BRANCH  82  86
ATOM     86  S   UNL A   1      37.801  33.611  40.702  1.00  0.00     0.124 S 
ATOM     87  O   UNL A   1      36.655  33.076  39.977  1.00  0.00    -0.237 OA
ATOM     88  O   UNL A   1      38.685  32.629  41.323  1.00  0.00    -0.237 OA
ATOM     89  O   UNL A   1      37.531  34.800  41.507  1.00  0.00    -0.744 OA
ENDBRANCH  82  86
ENDBRANCH  55  79
BRANCH  67  90
ATOM     90  C   UNL A   1      44.224  28.744  35.595  1.00  0.00     0.023 A 
ATOM     91  C   UNL A   1      44.037  27.848  36.662  1.00  0.00     0.031 A 
ATOM     92  C   UNL A   1      45.543  29.086  35.245  1.00  0.00     0.131 A 
ATOM     93  C   UNL A   1      45.146  27.371  37.377  1.00  0.00     0.055 A 
ATOM     94  C   UNL A   1      46.645  28.553  35.915  1.00  0.00     0.041 A 
ATOM     95  F   UNL A   1      45.784  29.941  34.238  1.00  0.00    -0.206 F 
ATOM     96  C   UNL A   1      46.450  27.702  36.998  1.00  0.00     0.022 A 
BRANCH  93  97
ATOM     97  S   UNL A   1      44.860  26.394  38.879  1.00  0.00     0.124 S 
ATOM     98  O   UNL A   1      43.405  26.271  38.887  1.00  0.00    -0.237 OA
ATOM     99  O   UNL A   1      45.602  25.168  38.601  1.00  0.00    -0.237 OA
ATOM    100  O   UNL A   1      45.418  27.227  39.942  1.00  0.00    -0.744 OA
ENDBRANCH  93  97
ENDBRANCH  67  90
ENDBRANCH  41  42
ENDBRANCH  34  36
ENDBRANCH  33  34
ENDBRANCH  32  33
ENDBRANCH  31  32
ENDBRANCH   1  31
TORSDOF 21
ENDMDL
MODEL 3
REMARK VINA RESULT:     -11.0      5.835     10.854
REMARK SMILES CCSc1ccc(-c2cc(Cl)cc3c2O[C@@H](C(F)(F)F)C(C(=O)OCCOCCOC(=O)c2ccc(-c4c5nc(c(-c6cc(S(=O)(=O)[O-])ccc6F)c6ccc([nH]6)c(-c6cc(S(=O)(=O)[O-])ccc6F)c6nc(c(-c7cc(S(=O)(=O)[O-])ccc7F)c7ccc4[nH]7)C=C6)C=C5)cc2)=C3)cc1
REMARK SMILES IDX 27 1 26 2 25 3 24 4 22 5 23 6 21 7 8 8 9 9 14 10 10 11 13 12
REMARK SMILES IDX 15 13 11 14 12 15 96 16 16 17 7 18 4 19 5 20 98 21 6 22
REMARK SMILES IDX 97 23 3 24 2 25 1 26 17 27 18 28 19 29 20 30 28 31 29 32
REMARK SMILES IDX 30 33 31 34 32 35 33 36 34 37 95 38 35 39 94 40 36 41 37 42
REMARK SMILES IDX 38 43 88 44 39 45 93 46 87 47 89 48 40 49 92 50 86 51 85 52
REMARK SMILES IDX 41 54 73 55 53 56 72 57 54 58 57 59 71 60 90 61 55 62 56 63
REMARK SMILES IDX 70 65 91 66 58 67 42 68 43 69 51 70 44 71 50 72 52 73 49 74
REMARK SMILES IDX 45 75 46 76 47 77 48 78 74 79 75 80 83 81 76 82 82 83 84 84
REMARK SMILES IDX 81 85 77 86 78 87 79 88 80 89 59 90 60 91 68 92 61 93 67 94
REMARK SMILES IDX 69 95 66 96 62 97 63 98 64 99 65 100
REMARK H PARENT 89 53 57 64
REMARK Flexibility Score: inf
ROOT
ATOM      1  O   UNL A   1      32.062  30.471  26.958  1.00  0.00    -0.374 OA
ENDROOT
BRANCH   1   2
ATOM      2  C   UNL A   1      33.278  29.987  26.401  1.00  0.00     0.202 C 
BRANCH   2   3
ATOM      3  C   UNL A   1      33.211  29.131  25.126  1.00  0.00     0.261 C 
BRANCH   3   4
ATOM      4  O   UNL A   1      31.891  28.637  24.843  1.00  0.00    -0.460 OA
BRANCH   4   5
ATOM      5  C   UNL A   1      31.688  27.329  25.089  1.00  0.00     0.338 C 
ATOM      6  O   UNL A   1      30.663  26.845  25.552  1.00  0.00    -0.246 OA
BRANCH   5   7
ATOM      7  C   UNL A   1      32.782  26.474  24.571  1.00  0.00     0.087 C 
ATOM      8  C   UNL A   1      31.955  22.413  24.306  1.00  0.00     0.026 A 
ATOM      9  C   UNL A   1      30.903  22.200  25.229  1.00  0.00     0.033 A 
ATOM     10  C   UNL A   1      32.483  23.721  24.299  1.00  0.00     0.135 A 
ATOM     11  C   UNL A   1      30.688  23.080  26.289  1.00  0.00     0.042 A 
ATOM     12  C   UNL A   1      32.461  24.465  25.489  1.00  0.00     0.019 A 
ATOM     13  O   UNL A   1      32.541  24.444  23.090  1.00  0.00    -0.475 OA
ATOM     14  Cl  UNL A   1      29.448  22.750  27.430  1.00  0.00    -0.084 Cl
ATOM     15  C   UNL A   1      31.536  24.160  26.480  1.00  0.00     0.032 A 
ATOM     16  C   UNL A   1      33.263  25.704  25.562  1.00  0.00     0.027 C 
ATOM     17  C   UNL A   1      32.932  25.879  23.186  1.00  0.00     0.316 C 
BRANCH   8  18
ATOM     18  C   UNL A   1      32.784  21.169  24.074  1.00  0.00    -0.015 A 
ATOM     19  C   UNL A   1      33.855  18.516  24.392  1.00  0.00     0.007 A 
ATOM     20  C   UNL A   1      32.764  18.765  23.553  1.00  0.00     0.015 A 
ATOM     21  C   UNL A   1      34.456  19.607  25.017  1.00  0.00     0.015 A 
ATOM     22  C   UNL A   1      32.253  20.065  23.380  1.00  0.00     0.010 A 
ATOM     23  C   UNL A   1      33.935  20.912  24.852  1.00  0.00     0.010 A 
BRANCH  19  24
ATOM     24  S   UNL A   1      34.266  16.797  24.687  1.00  0.00    -0.126 SA
BRANCH  24  25
ATOM     25  C   UNL A   1      32.766  16.066  25.423  1.00  0.00     0.071 C 
ATOM     26  C   UNL A   1      32.833  14.553  25.495  1.00  0.00     0.016 C 
ENDBRANCH  24  25
ENDBRANCH  19  24
ENDBRANCH   8  18
BRANCH  17  27
ATOM     27  C   UNL A   1      32.502  26.803  22.024  1.00  0.00     0.430 C 
ATOM     28  F   UNL A   1      33.357  27.862  21.964  1.00  0.00    -0.167 F 
ATOM     29  F   UNL A   1      32.589  26.177  20.827  1.00  0.00    -0.167 F 
ATOM     30  F   UNL A   1      31.261  27.311  22.120  1.00  0.00    -0.167 F 
ENDBRANCH  17  27
ENDBRANCH   5   7
ENDBRANCH   4   5
ENDBRANCH   3   4
ENDBRANCH   2   3
ENDBRANCH   1   2
BRANCH   1  31
ATOM     31  C   UNL A   1      31.490  31.652  26.402  1.00  0.00     0.202 C 
BRANCH  31  32
ATOM     32  C   UNL A   1      32.004  33.018  26.861  1.00  0.00     0.261 C 
BRANCH  32  33
ATOM     33  O   UNL A   1      32.874  32.958  28.003  1.00  0.00    -0.460 OA
BRANCH  33  34
ATOM     34  C   UNL A   1      34.013  33.680  27.876  1.00  0.00     0.338 C 
ATOM     35  O   UNL A   1      34.110  34.857  27.549  1.00  0.00    -0.246 OA
BRANCH  34  36
ATOM     36  C   UNL A   1      35.160  32.895  28.355  1.00  0.00     0.060 A 
ATOM     37  C   UNL A   1      34.902  31.706  29.048  1.00  0.00     0.016 A 
ATOM     38  C   UNL A   1      36.464  33.372  28.214  1.00  0.00     0.016 A 
ATOM     39  C   UNL A   1      35.951  31.003  29.634  1.00  0.00     0.010 A 
ATOM     40  C   UNL A   1      37.513  32.669  28.810  1.00  0.00     0.010 A 
ATOM     41  C   UNL A   1      37.258  31.498  29.548  1.00  0.00    -0.014 A 
BRANCH  41  42
ATOM     42  C   UNL A   1      38.337  30.870  30.348  1.00  0.00     0.031 A 
ATOM     43  C   UNL A   1      38.557  31.329  31.762  1.00  0.00     0.074 A 
ATOM     44  C   UNL A   1      39.092  29.890  29.822  1.00  0.00     0.049 A 
ATOM     45  N   UNL A   1      39.481  30.974  32.617  1.00  0.00    -0.248 NA
ATOM     46  C   UNL A   1      37.610  32.329  32.277  1.00  0.00     0.031 C 
ATOM     47  C   UNL A   1      38.935  29.335  28.477  1.00  0.00     0.029 A 
ATOM     48  N   UNL A   1      40.150  29.195  30.350  1.00  0.00    -0.354 N 
ATOM     49  C   UNL A   1      39.231  31.710  33.770  1.00  0.00     0.074 A 
ATOM     50  C   UNL A   1      38.096  32.563  33.487  1.00  0.00     0.031 C 
ATOM     51  C   UNL A   1      39.870  28.391  28.283  1.00  0.00     0.029 A 
ATOM     52  C   UNL A   1      40.722  28.309  29.468  1.00  0.00     0.049 A 
ATOM     53  H   UNL A   1      40.468  29.317  31.273  1.00  0.00     0.167 HD
ATOM     54  C   UNL A   1      39.884  31.669  34.959  1.00  0.00     0.034 A 
ATOM     55  C   UNL A   1      41.827  27.545  29.592  1.00  0.00     0.034 A 
ATOM     56  C   UNL A   1      41.024  30.821  35.213  1.00  0.00     0.049 A 
ATOM     57  C   UNL A   1      42.597  27.585  30.890  1.00  0.00     0.074 A 
ATOM     58  C   UNL A   1      41.761  30.692  36.377  1.00  0.00     0.029 A 
ATOM     59  N   UNL A   1      41.604  29.967  34.282  1.00  0.00    -0.354 N 
ATOM     60  N   UNL A   1      42.353  28.283  31.976  1.00  0.00    -0.248 NA
ATOM     61  C   UNL A   1      43.785  26.727  30.983  1.00  0.00     0.031 C 
ATOM     62  C   UNL A   1      42.830  29.825  36.126  1.00  0.00     0.029 A 
ATOM     63  C   UNL A   1      42.710  29.336  34.834  1.00  0.00     0.049 A 
ATOM     64  H   UNL A   1      41.277  29.829  33.363  1.00  0.00     0.167 HD
ATOM     65  C   UNL A   1      43.338  27.922  32.892  1.00  0.00     0.074 A 
ATOM     66  C   UNL A   1      44.169  26.934  32.234  1.00  0.00     0.031 C 
ATOM     67  C   UNL A   1      43.537  28.360  34.162  1.00  0.00     0.034 A 
BRANCH  54  68
ATOM     68  C   UNL A   1      39.410  32.605  36.045  1.00  0.00     0.023 A 
ATOM     69  C   UNL A   1      39.885  33.926  36.147  1.00  0.00     0.031 A 
ATOM     70  C   UNL A   1      38.493  32.162  37.016  1.00  0.00     0.131 A 
ATOM     71  C   UNL A   1      39.502  34.726  37.234  1.00  0.00     0.055 A 
ATOM     72  C   UNL A   1      38.050  32.994  38.046  1.00  0.00     0.041 A 
ATOM     73  F   UNL A   1      38.023  30.905  36.988  1.00  0.00    -0.206 F 
ATOM     74  C   UNL A   1      38.567  34.280  38.169  1.00  0.00     0.022 A 
BRANCH  71  75
ATOM     75  S   UNL A   1      40.364  36.301  37.495  1.00  0.00     0.124 S 
ATOM     76  O   UNL A   1      41.613  35.856  38.110  1.00  0.00    -0.237 OA
ATOM     77  O   UNL A   1      40.473  36.830  36.141  1.00  0.00    -0.237 OA
ATOM     78  O   UNL A   1      39.468  37.038  38.384  1.00  0.00    -0.744 OA
ENDBRANCH  71  75
ENDBRANCH  54  68
BRANCH  55  79
ATOM     79  C   UNL A   1      42.302  26.716  28.446  1.00  0.00     0.023 A 
ATOM     80  C   UNL A   1      43.455  27.059  27.726  1.00  0.00     0.031 A 
ATOM     81  C   UNL A   1      41.573  25.587  28.025  1.00  0.00     0.131 A 
ATOM     82  C   UNL A   1      43.821  26.311  26.595  1.00  0.00     0.055 A 
ATOM     83  C   UNL A   1      41.975  24.812  26.936  1.00  0.00     0.041 A 
ATOM     84  F   UNL A   1      40.459  25.216  28.675  1.00  0.00    -0.206 F 
ATOM     85  C   UNL A   1      43.099  25.181  26.205  1.00  0.00     0.022 A 
BRANCH  82  86
ATOM     86  S   UNL A   1      45.206  26.895  25.579  1.00  0.00     0.124 S 
ATOM     87  O   UNL A   1      45.526  25.704  24.801  1.00  0.00    -0.237 OA
ATOM     88  O   UNL A   1      44.597  27.999  24.843  1.00  0.00    -0.237 OA
ATOM     89  O   UNL A   1      46.211  27.286  26.565  1.00  0.00    -0.744 OA
ENDBRANCH  82  86
ENDBRANCH  55  79
BRANCH  67  90
ATOM     90  C   UNL A   1      44.669  27.732  34.939  1.00  0.00     0.023 A 
ATOM     91  C   UNL A   1      44.498  26.551  35.683  1.00  0.00     0.031 A 
ATOM     92  C   UNL A   1      45.943  28.332  34.939  1.00  0.00     0.131 A 
ATOM     93  C   UNL A   1      45.564  26.042  36.441  1.00  0.00     0.055 A 
ATOM     94  C   UNL A   1      47.016  27.781  35.639  1.00  0.00     0.041 A 
ATOM     95  F   UNL A   1      46.165  29.464  34.251  1.00  0.00    -0.206 F 
ATOM     96  C   UNL A   1      46.827  26.638  36.408  1.00  0.00     0.022 A 
BRANCH  93  97
ATOM     97  S   UNL A   1      45.249  24.646  37.557  1.00  0.00     0.124 S 
ATOM     98  O   UNL A   1      43.927  24.972  38.084  1.00  0.00    -0.237 OA
ATOM     99  O   UNL A   1      45.311  23.502  36.653  1.00  0.00    -0.237 OA
ATOM    100  O   UNL A   1      46.340  24.729  38.526  1.00  0.00    -0.744 OA
ENDBRANCH  93  97
ENDBRANCH  67  90
ENDBRANCH  41  42
ENDBRANCH  34  36
ENDBRANCH  33  34
ENDBRANCH  32  33
ENDBRANCH  31  32
ENDBRANCH   1  31
TORSDOF 21
ENDMDL
