MODEL 1
REMARK VINA RESULT:     -12.6      0.000      0.000
REMARK SMILES Cc1cccc(C(=O)Nc2cc(C(=O)OCCOCCOC(=O)c3ccc(-c4c5nc(c(-c6cc(S(=O)(=O)[O-])ccc6F)c6ccc([nH]6)c(-c6cc(S(=O)(=O)[O-])ccc6F)c6nc(c(-c7cc(S(=O)(=O)[O-])ccc7F)c7ccc4[nH]7)C=C6)C=C5)cc3)ccc2N2CC[NH+](CC(=O)NC(C)(C)C)CC2)c1
REMARK SMILES IDX 17 1 16 2 15 3 13 4 14 5 12 6 10 7 11 8 89 9 88 10 87 11
REMARK SMILES IDX 9 12 7 13 8 14 6 16 1 17 2 18 3 19 104 20 4 21 5 22 90 23
REMARK SMILES IDX 91 24 103 25 92 26 102 27 93 28 94 30 95 31 96 32 97 33
REMARK SMILES IDX 98 35 99 36 100 37 101 38 18 39 19 40 20 41 21 42 22 43
REMARK SMILES IDX 23 44 24 45 25 46 86 47 26 48 85 49 27 50 28 51 29 52 79 53
REMARK SMILES IDX 30 54 84 55 78 56 80 57 31 58 83 59 77 60 76 61 32 63 64 64
REMARK SMILES IDX 44 65 63 66 45 67 48 68 62 69 81 70 46 71 47 72 61 74 82 75
REMARK SMILES IDX 49 76 33 77 34 78 42 79 35 80 41 81 43 82 40 83 36 84 37 85
REMARK SMILES IDX 38 86 39 87 65 88 66 89 74 90 67 91 73 92 75 93 72 94 68 95
REMARK SMILES IDX 69 96 70 97 71 98 50 99 51 100 59 101 52 102 58 103 60 104
REMARK SMILES IDX 57 105 53 106 54 107 55 108 56 109
REMARK H PARENT 9 15 93 29 97 34 80 62 48 73
REMARK Flexibility Score: inf
ROOT
ATOM      1  C   UNL A   1      34.805  32.867  27.769  1.00  0.00     0.202 C 
ENDROOT
BRANCH   1   2
ATOM      2  C   UNL A   1      33.535  32.122  28.040  1.00  0.00     0.261 C 
BRANCH   2   3
ATOM      3  O   UNL A   1      33.363  31.046  27.138  1.00  0.00    -0.460 OA
BRANCH   3   4
ATOM      4  C   UNL A   1      32.179  30.747  26.572  1.00  0.00     0.338 C 
ATOM      5  O   UNL A   1      31.248  31.459  26.269  1.00  0.00    -0.246 OA
BRANCH   4   6
ATOM      6  C   UNL A   1      32.324  29.310  26.276  1.00  0.00     0.062 A 
ATOM      7  C   UNL A   1      32.028  27.541  24.686  1.00  0.00     0.065 A 
ATOM      8  C   UNL A   1      31.939  28.862  25.009  1.00  0.00     0.044 A 
ATOM      9  C   UNL A   1      32.394  26.586  25.675  1.00  0.00     0.061 A 
ATOM     10  C   UNL A   1      32.787  27.049  26.944  1.00  0.00     0.029 A 
ATOM     11  C   UNL A   1      32.787  28.417  27.237  1.00  0.00     0.018 A 
BRANCH   7  12
ATOM     12  N   UNL A   1      31.898  27.206  23.322  1.00  0.00    -0.320 N 
ATOM     13  C   UNL A   1      30.843  27.500  22.449  1.00  0.00     0.255 C 
ATOM     14  O   UNL A   1      30.955  27.157  21.268  1.00  0.00    -0.269 OA
ATOM     15  H   UNL A   1      32.646  26.699  22.932  1.00  0.00     0.170 HD
BRANCH  13  16
ATOM     16  C   UNL A   1      29.671  28.388  22.805  1.00  0.00     0.040 A 
ATOM     17  C   UNL A   1      28.864  32.012  23.542  1.00  0.00     0.044 C 
ATOM     18  C   UNL A   1      28.623  30.572  23.188  1.00  0.00    -0.050 A 
ATOM     19  C   UNL A   1      27.406  29.951  23.471  1.00  0.00     0.003 A 
ATOM     20  C   UNL A   1      29.708  29.789  22.775  1.00  0.00     0.017 A 
ATOM     21  C   UNL A   1      27.312  28.559  23.417  1.00  0.00     0.001 A 
ATOM     22  C   UNL A   1      28.438  27.785  23.102  1.00  0.00     0.014 A 
ENDBRANCH  13  16
ENDBRANCH   7  12
BRANCH   9  23
ATOM     23  N   UNL A   1      32.593  25.272  25.292  1.00  0.00    -0.359 N 
ATOM     24  C   UNL A   1      31.798  24.103  25.675  1.00  0.00     0.178 C 
ATOM     25  C   UNL A   1      34.011  24.963  25.278  1.00  0.00     0.178 C 
ATOM     26  C   UNL A   1      32.213  22.889  24.767  1.00  0.00     0.284 C 
ATOM     27  C   UNL A   1      34.257  23.981  24.143  1.00  0.00     0.284 C 
ATOM     28  N   UNL A   1      33.654  22.681  24.441  1.00  0.00    -0.324 N 
ATOM     29  H   UNL A   1      33.658  22.071  23.624  1.00  0.00     0.348 HD
BRANCH  28  30
ATOM     30  C   UNL A   1      34.469  21.877  25.381  1.00  0.00     0.363 C 
BRANCH  30  31
ATOM     31  C   UNL A   1      33.746  20.948  26.362  1.00  0.00     0.275 C 
ATOM     32  O   UNL A   1      33.595  21.324  27.534  1.00  0.00    -0.268 OA
ATOM     33  N   UNL A   1      33.242  19.712  26.065  1.00  0.00    -0.347 N 
ATOM     34  H   UNL A   1      32.742  19.368  26.840  1.00  0.00     0.164 HD
BRANCH  33  35
ATOM     35  C   UNL A   1      33.195  18.707  24.954  1.00  0.00     0.032 C 
ATOM     36  C   UNL A   1      34.593  18.256  24.501  1.00  0.00     0.034 C 
ATOM     37  C   UNL A   1      32.560  17.429  25.546  1.00  0.00     0.034 C 
ATOM     38  C   UNL A   1      32.369  19.125  23.738  1.00  0.00     0.034 C 
ENDBRANCH  33  35
ENDBRANCH  30  31
ENDBRANCH  28  30
ENDBRANCH   9  23
ENDBRANCH   4   6
ENDBRANCH   3   4
ENDBRANCH   2   3
ENDBRANCH   1   2
BRANCH   1  39
ATOM     39  O   UNL A   1      34.425  34.237  27.856  1.00  0.00    -0.374 OA
BRANCH  39  40
ATOM     40  C   UNL A   1      33.199  34.502  28.488  1.00  0.00     0.202 C 
BRANCH  40  41
ATOM     41  C   UNL A   1      33.382  35.584  29.548  1.00  0.00     0.261 C 
BRANCH  41  42
ATOM     42  O   UNL A   1      33.208  34.990  30.859  1.00  0.00    -0.460 OA
BRANCH  42  43
ATOM     43  C   UNL A   1      34.332  34.897  31.630  1.00  0.00     0.338 C 
ATOM     44  O   UNL A   1      34.675  35.727  32.456  1.00  0.00    -0.246 OA
BRANCH  43  45
ATOM     45  C   UNL A   1      35.169  33.720  31.226  1.00  0.00     0.060 A 
ATOM     46  C   UNL A   1      34.860  32.424  31.694  1.00  0.00     0.016 A 
ATOM     47  C   UNL A   1      36.408  33.949  30.638  1.00  0.00     0.016 A 
ATOM     48  C   UNL A   1      35.842  31.409  31.710  1.00  0.00     0.010 A 
ATOM     49  C   UNL A   1      37.394  32.981  30.745  1.00  0.00     0.010 A 
ATOM     50  C   UNL A   1      37.150  31.713  31.318  1.00  0.00    -0.014 A 
BRANCH  50  51
ATOM     51  C   UNL A   1      38.386  30.994  31.726  1.00  0.00     0.031 A 
ATOM     52  C   UNL A   1      38.819  29.785  30.981  1.00  0.00     0.074 A 
ATOM     53  C   UNL A   1      39.363  31.671  32.367  1.00  0.00     0.049 A 
ATOM     54  N   UNL A   1      40.016  29.315  30.923  1.00  0.00    -0.248 NA
ATOM     55  C   UNL A   1      37.857  28.963  30.270  1.00  0.00     0.031 C 
ATOM     56  C   UNL A   1      40.765  31.708  31.932  1.00  0.00     0.029 A 
ATOM     57  N   UNL A   1      39.313  32.644  33.335  1.00  0.00    -0.354 N 
ATOM     58  C   UNL A   1      40.045  28.263  30.045  1.00  0.00     0.074 A 
ATOM     59  C   UNL A   1      38.658  28.060  29.700  1.00  0.00     0.031 C 
ATOM     60  C   UNL A   1      41.412  32.614  32.666  1.00  0.00     0.029 A 
ATOM     61  C   UNL A   1      40.582  33.040  33.737  1.00  0.00     0.049 A 
ATOM     62  H   UNL A   1      38.478  33.016  33.700  1.00  0.00     0.167 HD
ATOM     63  C   UNL A   1      41.243  27.697  29.716  1.00  0.00     0.034 A 
ATOM     64  C   UNL A   1      40.997  33.030  35.027  1.00  0.00     0.034 A 
ATOM     65  C   UNL A   1      42.335  28.129  30.632  1.00  0.00     0.049 A 
ATOM     66  C   UNL A   1      41.717  31.698  35.308  1.00  0.00     0.074 A 
ATOM     67  C   UNL A   1      43.647  28.557  30.520  1.00  0.00     0.029 A 
ATOM     68  N   UNL A   1      42.061  28.203  32.007  1.00  0.00    -0.354 N 
ATOM     69  N   UNL A   1      42.217  30.893  34.388  1.00  0.00    -0.248 NA
ATOM     70  C   UNL A   1      41.896  31.142  36.642  1.00  0.00     0.031 C 
ATOM     71  C   UNL A   1      44.146  28.848  31.837  1.00  0.00     0.029 A 
ATOM     72  C   UNL A   1      43.129  28.658  32.757  1.00  0.00     0.049 A 
ATOM     73  H   UNL A   1      41.193  27.955  32.399  1.00  0.00     0.167 HD
ATOM     74  C   UNL A   1      42.617  29.700  34.939  1.00  0.00     0.074 A 
ATOM     75  C   UNL A   1      42.401  29.925  36.369  1.00  0.00     0.031 C 
ATOM     76  C   UNL A   1      43.053  28.604  34.219  1.00  0.00     0.034 A 
BRANCH  63  77
ATOM     77  C   UNL A   1      41.453  26.729  28.541  1.00  0.00     0.023 A 
ATOM     78  C   UNL A   1      42.221  25.557  28.727  1.00  0.00     0.031 A 
ATOM     79  C   UNL A   1      41.009  26.916  27.208  1.00  0.00     0.131 A 
ATOM     80  C   UNL A   1      42.510  24.672  27.661  1.00  0.00     0.055 A 
ATOM     81  C   UNL A   1      41.235  26.002  26.166  1.00  0.00     0.041 A 
ATOM     82  F   UNL A   1      40.384  28.021  26.794  1.00  0.00    -0.206 F 
ATOM     83  C   UNL A   1      41.999  24.877  26.384  1.00  0.00     0.022 A 
BRANCH  80  84
ATOM     84  S   UNL A   1      43.623  23.267  27.940  1.00  0.00     0.124 S 
ATOM     85  O   UNL A   1      43.002  22.607  29.084  1.00  0.00    -0.237 OA
ATOM     86  O   UNL A   1      43.557  22.559  26.667  1.00  0.00    -0.237 OA
ATOM     87  O   UNL A   1      44.910  23.903  28.225  1.00  0.00    -0.744 OA
ENDBRANCH  80  84
ENDBRANCH  63  77
BRANCH  64  88
ATOM     88  C   UNL A   1      40.071  33.942  35.796  1.00  0.00     0.023 A 
ATOM     89  C   UNL A   1      39.555  33.324  36.977  1.00  0.00     0.031 A 
ATOM     90  C   UNL A   1      40.381  35.311  35.877  1.00  0.00     0.131 A 
ATOM     91  C   UNL A   1      39.705  33.956  38.228  1.00  0.00     0.055 A 
ATOM     92  C   UNL A   1      40.493  35.949  37.126  1.00  0.00     0.041 A 
ATOM     93  F   UNL A   1      40.865  35.957  34.806  1.00  0.00    -0.206 F 
ATOM     94  C   UNL A   1      40.224  35.251  38.309  1.00  0.00     0.022 A 
BRANCH  91  95
ATOM     95  S   UNL A   1      39.585  32.953  39.761  1.00  0.00     0.124 S 
ATOM     96  O   UNL A   1      38.470  32.064  39.457  1.00  0.00    -0.237 OA
ATOM     97  O   UNL A   1      40.901  32.330  39.845  1.00  0.00    -0.237 OA
ATOM     98  O   UNL A   1      39.331  33.955  40.796  1.00  0.00    -0.744 OA
ENDBRANCH  91  95
ENDBRANCH  64  88
BRANCH  76  99
ATOM     99  C   UNL A   1      43.405  27.270  34.862  1.00  0.00     0.023 A 
ATOM    100  C   UNL A   1      44.709  26.959  35.252  1.00  0.00     0.031 A 
ATOM    101  C   UNL A   1      42.439  26.258  35.101  1.00  0.00     0.131 A 
ATOM    102  C   UNL A   1      44.977  25.820  36.028  1.00  0.00     0.055 A 
ATOM    103  C   UNL A   1      42.734  25.064  35.766  1.00  0.00     0.041 A 
ATOM    104  F   UNL A   1      41.158  26.389  34.733  1.00  0.00    -0.206 F 
ATOM    105  C   UNL A   1      44.003  24.859  36.280  1.00  0.00     0.022 A 
BRANCH 102 106
ATOM    106  S   UNL A   1      46.598  25.719  36.820  1.00  0.00     0.124 S 
ATOM    107  O   UNL A   1      46.252  25.555  38.228  1.00  0.00    -0.237 OA
ATOM    108  O   UNL A   1      47.168  24.539  36.171  1.00  0.00    -0.237 OA
ATOM    109  O   UNL A   1      47.233  26.987  36.474  1.00  0.00    -0.744 OA
ENDBRANCH 102 106
ENDBRANCH  76  99
ENDBRANCH  50  51
ENDBRANCH  43  45
ENDBRANCH  42  43
ENDBRANCH  41  42
ENDBRANCH  40  41
ENDBRANCH  39  40
ENDBRANCH   1  39
TORSDOF 23
ENDMDL
MODEL 2
REMARK VINA RESULT:     -11.0      1.792      2.134
REMARK SMILES Cc1cccc(C(=O)Nc2cc(C(=O)OCCOCCOC(=O)c3ccc(-c4c5nc(c(-c6cc(S(=O)(=O)[O-])ccc6F)c6ccc([nH]6)c(-c6cc(S(=O)(=O)[O-])ccc6F)c6nc(c(-c7cc(S(=O)(=O)[O-])ccc7F)c7ccc4[nH]7)C=C6)C=C5)cc3)ccc2N2CC[NH+](CC(=O)NC(C)(C)C)CC2)c1
REMARK SMILES IDX 17 1 16 2 15 3 13 4 14 5 12 6 10 7 11 8 89 9 88 10 87 11
REMARK SMILES IDX 9 12 7 13 8 14 6 16 1 17 2 18 3 19 104 20 4 21 5 22 90 23
REMARK SMILES IDX 91 24 103 25 92 26 102 27 93 28 94 30 95 31 96 32 97 33
REMARK SMILES IDX 98 35 99 36 100 37 101 38 18 39 19 40 20 41 21 42 22 43
REMARK SMILES IDX 23 44 24 45 25 46 86 47 26 48 85 49 27 50 28 51 29 52 79 53
REMARK SMILES IDX 30 54 84 55 78 56 80 57 31 58 83 59 77 60 76 61 32 63 64 64
REMARK SMILES IDX 44 65 63 66 45 67 48 68 62 69 81 70 46 71 47 72 61 74 82 75
REMARK SMILES IDX 49 76 33 77 34 78 42 79 35 80 41 81 43 82 40 83 36 84 37 85
REMARK SMILES IDX 38 86 39 87 65 88 66 89 74 90 67 91 73 92 75 93 72 94 68 95
REMARK SMILES IDX 69 96 70 97 71 98 50 99 51 100 59 101 52 102 58 103 60 104
REMARK SMILES IDX 57 105 53 106 54 107 55 108 56 109
REMARK H PARENT 9 15 93 29 97 34 80 62 48 73
REMARK Flexibility Score: inf
ROOT
ATOM      1  C   UNL A   1      35.023  32.179  27.649  1.00  0.00     0.202 C 
ENDROOT
BRANCH   1   2
ATOM      2  C   UNL A   1      33.963  31.174  27.976  1.00  0.00     0.261 C 
BRANCH   2   3
ATOM      3  O   UNL A   1      33.687  30.335  26.872  1.00  0.00    -0.460 OA
BRANCH   3   4
ATOM      4  C   UNL A   1      32.439  30.105  26.421  1.00  0.00     0.338 C 
ATOM      5  O   UNL A   1      31.545  30.874  26.152  1.00  0.00    -0.246 OA
BRANCH   4   6
ATOM      6  C   UNL A   1      32.447  28.647  26.200  1.00  0.00     0.062 A 
ATOM      7  C   UNL A   1      31.162  26.663  25.805  1.00  0.00     0.065 A 
ATOM      8  C   UNL A   1      31.220  28.011  25.992  1.00  0.00     0.044 A 
ATOM      9  C   UNL A   1      32.336  25.871  25.946  1.00  0.00     0.061 A 
ATOM     10  C   UNL A   1      33.566  26.522  26.147  1.00  0.00     0.029 A 
ATOM     11  C   UNL A   1      33.630  27.916  26.239  1.00  0.00     0.018 A 
BRANCH   7  12
ATOM     12  N   UNL A   1      29.945  26.135  25.324  1.00  0.00    -0.320 N 
ATOM     13  C   UNL A   1      29.128  26.625  24.298  1.00  0.00     0.255 C 
ATOM     14  O   UNL A   1      28.123  25.973  23.996  1.00  0.00    -0.269 OA
ATOM     15  H   UNL A   1      29.629  25.315  25.768  1.00  0.00     0.170 HD
BRANCH  13  16
ATOM     16  C   UNL A   1      29.500  27.782  23.397  1.00  0.00     0.040 A 
ATOM     17  C   UNL A   1      27.944  30.790  21.706  1.00  0.00     0.044 C 
ATOM     18  C   UNL A   1      29.022  29.895  22.246  1.00  0.00    -0.050 A 
ATOM     19  C   UNL A   1      30.310  29.905  21.708  1.00  0.00     0.003 A 
ATOM     20  C   UNL A   1      28.670  28.884  23.149  1.00  0.00     0.017 A 
ATOM     21  C   UNL A   1      31.194  28.869  22.011  1.00  0.00     0.001 A 
ATOM     22  C   UNL A   1      30.787  27.810  22.836  1.00  0.00     0.014 A 
ENDBRANCH  13  16
ENDBRANCH   7  12
BRANCH   9  23
ATOM     23  N   UNL A   1      32.273  24.524  25.634  1.00  0.00    -0.359 N 
ATOM     24  C   UNL A   1      32.599  23.393  26.504  1.00  0.00     0.178 C 
ATOM     25  C   UNL A   1      32.744  24.301  24.280  1.00  0.00     0.178 C 
ATOM     26  C   UNL A   1      32.093  22.069  25.826  1.00  0.00     0.284 C 
ATOM     27  C   UNL A   1      31.933  23.157  23.692  1.00  0.00     0.284 C 
ATOM     28  N   UNL A   1      32.261  21.894  24.353  1.00  0.00    -0.324 N 
ATOM     29  H   UNL A   1      31.607  21.155  24.095  1.00  0.00     0.348 HD
BRANCH  28  30
ATOM     30  C   UNL A   1      33.532  21.309  23.866  1.00  0.00     0.363 C 
BRANCH  30  31
ATOM     31  C   UNL A   1      34.378  20.484  24.842  1.00  0.00     0.275 C 
ATOM     32  O   UNL A   1      35.248  21.062  25.510  1.00  0.00    -0.268 OA
ATOM     33  N   UNL A   1      34.266  19.137  25.051  1.00  0.00    -0.347 N 
ATOM     34  H   UNL A   1      34.852  18.871  25.795  1.00  0.00     0.164 HD
BRANCH  33  35
ATOM     35  C   UNL A   1      33.547  17.930  24.525  1.00  0.00     0.032 C 
ATOM     36  C   UNL A   1      34.477  16.719  24.343  1.00  0.00     0.034 C 
ATOM     37  C   UNL A   1      32.566  17.488  25.633  1.00  0.00     0.034 C 
ATOM     38  C   UNL A   1      32.745  18.161  23.246  1.00  0.00     0.034 C 
ENDBRANCH  33  35
ENDBRANCH  30  31
ENDBRANCH  28  30
ENDBRANCH   9  23
ENDBRANCH   4   6
ENDBRANCH   3   4
ENDBRANCH   2   3
ENDBRANCH   1   2
BRANCH   1  39
ATOM     39  O   UNL A   1      34.329  33.422  27.643  1.00  0.00    -0.374 OA
BRANCH  39  40
ATOM     40  C   UNL A   1      33.295  33.561  28.584  1.00  0.00     0.202 C 
BRANCH  40  41
ATOM     41  C   UNL A   1      33.366  34.939  29.236  1.00  0.00     0.261 C 
BRANCH  41  42
ATOM     42  O   UNL A   1      33.036  34.810  30.642  1.00  0.00    -0.460 OA
BRANCH  42  43
ATOM     43  C   UNL A   1      34.091  34.831  31.510  1.00  0.00     0.338 C 
ATOM     44  O   UNL A   1      34.335  35.745  32.280  1.00  0.00    -0.246 OA
BRANCH  43  45
ATOM     45  C   UNL A   1      34.997  33.656  31.289  1.00  0.00     0.060 A 
ATOM     46  C   UNL A   1      34.892  32.505  32.101  1.00  0.00     0.016 A 
ATOM     47  C   UNL A   1      36.121  33.818  30.487  1.00  0.00     0.016 A 
ATOM     48  C   UNL A   1      35.974  31.606  32.222  1.00  0.00     0.010 A 
ATOM     49  C   UNL A   1      37.212  32.987  30.682  1.00  0.00     0.010 A 
ATOM     50  C   UNL A   1      37.182  31.897  31.579  1.00  0.00    -0.014 A 
BRANCH  50  51
ATOM     51  C   UNL A   1      38.531  31.403  31.965  1.00  0.00     0.031 A 
ATOM     52  C   UNL A   1      39.114  30.226  31.273  1.00  0.00     0.074 A 
ATOM     53  C   UNL A   1      39.418  32.262  32.512  1.00  0.00     0.049 A 
ATOM     54  N   UNL A   1      40.367  29.939  31.181  1.00  0.00    -0.248 NA
ATOM     55  C   UNL A   1      38.262  29.221  30.664  1.00  0.00     0.031 C 
ATOM     56  C   UNL A   1      40.778  32.482  32.002  1.00  0.00     0.029 A 
ATOM     57  N   UNL A   1      39.259  33.279  33.420  1.00  0.00    -0.354 N 
ATOM     58  C   UNL A   1      40.520  28.847  30.367  1.00  0.00     0.074 A 
ATOM     59  C   UNL A   1      39.168  28.413  30.109  1.00  0.00     0.031 C 
ATOM     60  C   UNL A   1      41.307  33.523  32.645  1.00  0.00     0.029 A 
ATOM     61  C   UNL A   1      40.467  33.889  33.730  1.00  0.00     0.049 A 
ATOM     62  H   UNL A   1      38.392  33.545  33.804  1.00  0.00     0.167 HD
ATOM     63  C   UNL A   1      41.777  28.448  30.011  1.00  0.00     0.034 A 
ATOM     64  C   UNL A   1      40.933  34.031  34.995  1.00  0.00     0.034 A 
ATOM     65  C   UNL A   1      42.826  29.102  30.842  1.00  0.00     0.049 A 
ATOM     66  C   UNL A   1      41.862  32.846  35.319  1.00  0.00     0.074 A 
ATOM     67  C   UNL A   1      44.050  29.716  30.635  1.00  0.00     0.029 A 
ATOM     68  N   UNL A   1      42.603  29.227  32.221  1.00  0.00    -0.354 N 
ATOM     69  N   UNL A   1      42.441  32.065  34.423  1.00  0.00    -0.248 NA
ATOM     70  C   UNL A   1      42.181  32.416  36.673  1.00  0.00     0.031 C 
ATOM     71  C   UNL A   1      44.554  30.168  31.904  1.00  0.00     0.029 A 
ATOM     72  C   UNL A   1      43.618  29.889  32.885  1.00  0.00     0.049 A 
ATOM     73  H   UNL A   1      41.801  28.877  32.673  1.00  0.00     0.167 HD
ATOM     74  C   UNL A   1      43.044  30.987  35.025  1.00  0.00     0.074 A 
ATOM     75  C   UNL A   1      42.856  31.273  36.447  1.00  0.00     0.031 C 
ATOM     76  C   UNL A   1      43.613  29.923  34.351  1.00  0.00     0.034 A 
BRANCH  63  77
ATOM     77  C   UNL A   1      42.084  27.445  28.888  1.00  0.00     0.023 A 
ATOM     78  C   UNL A   1      43.256  27.598  28.113  1.00  0.00     0.031 A 
ATOM     79  C   UNL A   1      41.254  26.376  28.465  1.00  0.00     0.131 A 
ATOM     80  C   UNL A   1      43.547  26.749  27.018  1.00  0.00     0.055 A 
ATOM     81  C   UNL A   1      41.577  25.491  27.425  1.00  0.00     0.041 A 
ATOM     82  F   UNL A   1      40.042  26.146  28.978  1.00  0.00    -0.206 F 
ATOM     83  C   UNL A   1      42.724  25.680  26.685  1.00  0.00     0.022 A 
BRANCH  80  84
ATOM     84  S   UNL A   1      44.994  27.094  25.979  1.00  0.00     0.124 S 
ATOM     85  O   UNL A   1      44.513  28.184  25.137  1.00  0.00    -0.237 OA
ATOM     86  O   UNL A   1      46.011  27.437  26.966  1.00  0.00    -0.237 OA
ATOM     87  O   UNL A   1      45.218  25.831  25.277  1.00  0.00    -0.744 OA
ENDBRANCH  80  84
ENDBRANCH  63  77
BRANCH  64  88
ATOM     88  C   UNL A   1      39.910  34.842  35.754  1.00  0.00     0.023 A 
ATOM     89  C   UNL A   1      39.114  34.035  36.625  1.00  0.00     0.031 A 
ATOM     90  C   UNL A   1      40.268  36.120  36.219  1.00  0.00     0.131 A 
ATOM     91  C   UNL A   1      39.016  34.357  37.994  1.00  0.00     0.055 A 
ATOM     92  C   UNL A   1      40.135  36.451  37.581  1.00  0.00     0.041 A 
ATOM     93  F   UNL A   1      41.010  36.933  35.453  1.00  0.00    -0.206 F 
ATOM     94  C   UNL A   1      39.573  35.542  38.483  1.00  0.00     0.022 A 
BRANCH  91  95
ATOM     95  S   UNL A   1      38.507  33.059  39.187  1.00  0.00     0.124 S 
ATOM     96  O   UNL A   1      37.877  32.074  38.317  1.00  0.00    -0.237 OA
ATOM     97  O   UNL A   1      39.772  32.664  39.798  1.00  0.00    -0.237 OA
ATOM     98  O   UNL A   1      37.606  33.772  40.091  1.00  0.00    -0.744 OA
ENDBRANCH  91  95
ENDBRANCH  64  88
BRANCH  76  99
ATOM     99  C   UNL A   1      44.195  28.705  35.054  1.00  0.00     0.023 A 
ATOM    100  C   UNL A   1      43.392  27.800  35.752  1.00  0.00     0.031 A 
ATOM    101  C   UNL A   1      45.584  28.414  35.054  1.00  0.00     0.131 A 
ATOM    102  C   UNL A   1      43.914  26.581  36.212  1.00  0.00     0.055 A 
ATOM    103  C   UNL A   1      46.120  27.256  35.624  1.00  0.00     0.041 A 
ATOM    104  F   UNL A   1      46.484  29.218  34.473  1.00  0.00    -0.206 F 
ATOM    105  C   UNL A   1      45.276  26.303  36.167  1.00  0.00     0.022 A 
BRANCH 102 106
ATOM    106  S   UNL A   1      42.731  25.315  36.729  1.00  0.00     0.124 S 
ATOM    107  O   UNL A   1      43.540  24.462  37.594  1.00  0.00    -0.237 OA
ATOM    108  O   UNL A   1      41.719  26.122  37.408  1.00  0.00    -0.237 OA
ATOM    109  O   UNL A   1      42.303  24.708  35.472  1.00  0.00    -0.744 OA
ENDBRANCH 102 106
ENDBRANCH  76  99
ENDBRANCH  50  51
ENDBRANCH  43  45
ENDBRANCH  42  43
ENDBRANCH  41  42
ENDBRANCH  40  41
ENDBRANCH  39  40
ENDBRANCH   1  39
TORSDOF 23
ENDMDL
MODEL 3
REMARK VINA RESULT:     -10.6      2.239      3.112
REMARK SMILES Cc1cccc(C(=O)Nc2cc(C(=O)OCCOCCOC(=O)c3ccc(-c4c5nc(c(-c6cc(S(=O)(=O)[O-])ccc6F)c6ccc([nH]6)c(-c6cc(S(=O)(=O)[O-])ccc6F)c6nc(c(-c7cc(S(=O)(=O)[O-])ccc7F)c7ccc4[nH]7)C=C6)C=C5)cc3)ccc2N2CC[NH+](CC(=O)NC(C)(C)C)CC2)c1
REMARK SMILES IDX 17 1 16 2 15 3 13 4 14 5 12 6 10 7 11 8 89 9 88 10 87 11
REMARK SMILES IDX 9 12 7 13 8 14 6 16 1 17 2 18 3 19 104 20 4 21 5 22 90 23
REMARK SMILES IDX 91 24 103 25 92 26 102 27 93 28 94 30 95 31 96 32 97 33
REMARK SMILES IDX 98 35 99 36 100 37 101 38 18 39 19 40 20 41 21 42 22 43
REMARK SMILES IDX 23 44 24 45 25 46 86 47 26 48 85 49 27 50 28 51 29 52 79 53
REMARK SMILES IDX 30 54 84 55 78 56 80 57 31 58 83 59 77 60 76 61 32 63 64 64
REMARK SMILES IDX 44 65 63 66 45 67 48 68 62 69 81 70 46 71 47 72 61 74 82 75
REMARK SMILES IDX 49 76 33 77 34 78 42 79 35 80 41 81 43 82 40 83 36 84 37 85
REMARK SMILES IDX 38 86 39 87 65 88 66 89 74 90 67 91 73 92 75 93 72 94 68 95
REMARK SMILES IDX 69 96 70 97 71 98 50 99 51 100 59 101 52 102 58 103 60 104
REMARK SMILES IDX 57 105 53 106 54 107 55 108 56 109
REMARK H PARENT 9 15 93 29 97 34 80 62 48 73
REMARK Flexibility Score: inf
ROOT
ATOM      1  C   UNL A   1      34.460  32.079  29.116  1.00  0.00     0.202 C 
ENDROOT
BRANCH   1   2
ATOM      2  C   UNL A   1      34.053  32.132  27.676  1.00  0.00     0.261 C 
BRANCH   2   3
ATOM      3  O   UNL A   1      33.499  30.903  27.249  1.00  0.00    -0.460 OA
BRANCH   3   4
ATOM      4  C   UNL A   1      32.245  30.792  26.772  1.00  0.00     0.338 C 
ATOM      5  O   UNL A   1      31.431  31.642  26.492  1.00  0.00    -0.246 OA
BRANCH   4   6
ATOM      6  C   UNL A   1      32.123  29.341  26.540  1.00  0.00     0.062 A 
ATOM      7  C   UNL A   1      31.730  27.579  24.963  1.00  0.00     0.065 A 
ATOM      8  C   UNL A   1      31.876  28.907  25.234  1.00  0.00     0.044 A 
ATOM      9  C   UNL A   1      31.701  26.632  26.023  1.00  0.00     0.061 A 
ATOM     10  C   UNL A   1      31.959  27.079  27.332  1.00  0.00     0.029 A 
ATOM     11  C   UNL A   1      32.206  28.431  27.589  1.00  0.00     0.018 A 
BRANCH   7  12
ATOM     12  N   UNL A   1      31.769  27.197  23.605  1.00  0.00    -0.320 N 
ATOM     13  C   UNL A   1      30.851  27.492  22.590  1.00  0.00     0.255 C 
ATOM     14  O   UNL A   1      31.106  27.100  21.446  1.00  0.00    -0.269 OA
ATOM     15  H   UNL A   1      32.542  26.649  23.337  1.00  0.00     0.170 HD
BRANCH  13  16
ATOM     16  C   UNL A   1      29.677  28.433  22.755  1.00  0.00     0.040 A 
ATOM     17  C   UNL A   1      28.880  32.132  22.810  1.00  0.00     0.044 C 
ATOM     18  C   UNL A   1      28.637  30.653  22.717  1.00  0.00    -0.050 A 
ATOM     19  C   UNL A   1      27.409  30.096  23.080  1.00  0.00     0.003 A 
ATOM     20  C   UNL A   1      29.725  29.805  22.475  1.00  0.00     0.017 A 
ATOM     21  C   UNL A   1      27.308  28.717  23.276  1.00  0.00     0.001 A 
ATOM     22  C   UNL A   1      28.435  27.897  23.129  1.00  0.00     0.014 A 
ENDBRANCH  13  16
ENDBRANCH   7  12
BRANCH   9  23
ATOM     23  N   UNL A   1      31.673  25.284  25.712  1.00  0.00    -0.359 N 
ATOM     24  C   UNL A   1      30.812  24.254  26.298  1.00  0.00     0.178 C 
ATOM     25  C   UNL A   1      33.021  24.789  25.504  1.00  0.00     0.178 C 
ATOM     26  C   UNL A   1      30.922  22.948  25.429  1.00  0.00     0.284 C 
ATOM     27  C   UNL A   1      32.958  23.723  24.420  1.00  0.00     0.284 C 
ATOM     28  N   UNL A   1      32.256  22.533  24.902  1.00  0.00    -0.324 N 
ATOM     29  H   UNL A   1      32.053  21.885  24.142  1.00  0.00     0.348 HD
BRANCH  28  30
ATOM     30  C   UNL A   1      33.106  21.680  25.763  1.00  0.00     0.363 C 
BRANCH  30  31
ATOM     31  C   UNL A   1      34.200  22.350  26.603  1.00  0.00     0.275 C 
ATOM     32  O   UNL A   1      33.872  22.937  27.645  1.00  0.00    -0.268 OA
ATOM     33  N   UNL A   1      35.534  22.366  26.307  1.00  0.00    -0.347 N 
ATOM     34  H   UNL A   1      36.031  22.773  27.053  1.00  0.00     0.164 HD
BRANCH  33  35
ATOM     35  C   UNL A   1      36.495  21.971  25.225  1.00  0.00     0.032 C 
ATOM     36  C   UNL A   1      37.965  22.134  25.648  1.00  0.00     0.034 C 
ATOM     37  C   UNL A   1      36.327  20.448  25.026  1.00  0.00     0.034 C 
ATOM     38  C   UNL A   1      36.268  22.653  23.878  1.00  0.00     0.034 C 
ENDBRANCH  33  35
ENDBRANCH  30  31
ENDBRANCH  28  30
ENDBRANCH   9  23
ENDBRANCH   4   6
ENDBRANCH   3   4
ENDBRANCH   2   3
ENDBRANCH   1   2
BRANCH   1  39
ATOM     39  O   UNL A   1      34.672  33.443  29.464  1.00  0.00    -0.374 OA
BRANCH  39  40
ATOM     40  C   UNL A   1      34.530  33.765  30.824  1.00  0.00     0.202 C 
BRANCH  40  41
ATOM     41  C   UNL A   1      35.568  33.010  31.649  1.00  0.00     0.261 C 
BRANCH  41  42
ATOM     42  O   UNL A   1      35.421  33.381  33.043  1.00  0.00    -0.460 OA
BRANCH  42  43
ATOM     43  C   UNL A   1      36.165  34.449  33.460  1.00  0.00     0.338 C 
ATOM     44  O   UNL A   1      35.783  35.608  33.438  1.00  0.00    -0.246 OA
BRANCH  43  45
ATOM     45  C   UNL A   1      37.563  34.032  33.808  1.00  0.00     0.060 A 
ATOM     46  C   UNL A   1      38.637  34.323  32.938  1.00  0.00     0.016 A 
ATOM     47  C   UNL A   1      37.753  33.112  34.833  1.00  0.00     0.016 A 
ATOM     48  C   UNL A   1      39.838  33.583  33.002  1.00  0.00     0.010 A 
ATOM     49  C   UNL A   1      38.893  32.326  34.829  1.00  0.00     0.010 A 
ATOM     50  C   UNL A   1      39.936  32.510  33.895  1.00  0.00    -0.014 A 
BRANCH  50  51
ATOM     51  C   UNL A   1      40.844  31.339  33.774  1.00  0.00     0.031 A 
ATOM     52  C   UNL A   1      40.628  30.343  32.694  1.00  0.00     0.074 A 
ATOM     53  C   UNL A   1      42.107  31.430  34.245  1.00  0.00     0.049 A 
ATOM     54  N   UNL A   1      41.514  29.549  32.201  1.00  0.00    -0.248 NA
ATOM     55  C   UNL A   1      39.310  30.139  32.121  1.00  0.00     0.031 C 
ATOM     56  C   UNL A   1      43.308  31.138  33.452  1.00  0.00     0.029 A 
ATOM     57  N   UNL A   1      42.616  32.021  35.374  1.00  0.00    -0.354 N 
ATOM     58  C   UNL A   1      40.970  28.867  31.144  1.00  0.00     0.074 A 
ATOM     59  C   UNL A   1      39.577  29.243  31.168  1.00  0.00     0.031 C 
ATOM     60  C   UNL A   1      44.378  31.513  34.152  1.00  0.00     0.029 A 
ATOM     61  C   UNL A   1      43.989  31.838  35.479  1.00  0.00     0.049 A 
ATOM     62  H   UNL A   1      42.075  32.516  36.031  1.00  0.00     0.167 HD
ATOM     63  C   UNL A   1      41.771  28.070  30.378  1.00  0.00     0.034 A 
ATOM     64  C   UNL A   1      44.593  31.301  36.567  1.00  0.00     0.034 A 
ATOM     65  C   UNL A   1      43.091  27.820  31.021  1.00  0.00     0.049 A 
ATOM     66  C   UNL A   1      44.774  29.788  36.339  1.00  0.00     0.074 A 
ATOM     67  C   UNL A   1      44.421  27.809  30.641  1.00  0.00     0.029 A 
ATOM     68  N   UNL A   1      43.121  27.556  32.399  1.00  0.00    -0.354 N 
ATOM     69  N   UNL A   1      44.744  29.186  35.164  1.00  0.00    -0.248 NA
ATOM     70  C   UNL A   1      44.959  28.826  37.416  1.00  0.00     0.031 C 
ATOM     71  C   UNL A   1      45.224  27.505  31.794  1.00  0.00     0.029 A 
ATOM     72  C   UNL A   1      44.398  27.386  32.899  1.00  0.00     0.049 A 
ATOM     73  H   UNL A   1      42.311  27.498  32.956  1.00  0.00     0.167 HD
ATOM     74  C   UNL A   1      44.738  27.819  35.309  1.00  0.00     0.074 A 
ATOM     75  C   UNL A   1      44.889  27.655  36.755  1.00  0.00     0.031 C 
ATOM     76  C   UNL A   1      44.572  26.916  34.276  1.00  0.00     0.034 A 
BRANCH  63  77
ATOM     77  C   UNL A   1      41.369  27.493  29.011  1.00  0.00     0.023 A 
ATOM     78  C   UNL A   1      41.688  26.153  28.694  1.00  0.00     0.031 A 
ATOM     79  C   UNL A   1      40.752  28.201  27.948  1.00  0.00     0.131 A 
ATOM     80  C   UNL A   1      41.411  25.597  27.422  1.00  0.00     0.055 A 
ATOM     81  C   UNL A   1      40.413  27.629  26.713  1.00  0.00     0.041 A 
ATOM     82  F   UNL A   1      40.491  29.510  27.997  1.00  0.00    -0.206 F 
ATOM     83  C   UNL A   1      40.752  26.323  26.437  1.00  0.00     0.022 A 
BRANCH  80  84
ATOM     84  S   UNL A   1      41.981  23.919  27.037  1.00  0.00     0.124 S 
ATOM     85  O   UNL A   1      42.982  23.689  28.074  1.00  0.00    -0.237 OA
ATOM     86  O   UNL A   1      40.752  23.141  27.139  1.00  0.00    -0.237 OA
ATOM     87  O   UNL A   1      42.520  24.044  25.682  1.00  0.00    -0.744 OA
ENDBRANCH  80  84
ENDBRANCH  63  77
BRANCH  64  88
ATOM     88  C   UNL A   1      44.253  32.185  37.743  1.00  0.00     0.023 A 
ATOM     89  C   UNL A   1      44.035  31.436  38.941  1.00  0.00     0.031 A 
ATOM     90  C   UNL A   1      44.911  33.420  37.875  1.00  0.00     0.131 A 
ATOM     91  C   UNL A   1      44.760  31.744  40.109  1.00  0.00     0.055 A 
ATOM     92  C   UNL A   1      45.604  33.741  39.058  1.00  0.00     0.041 A 
ATOM     93  F   UNL A   1      45.146  34.178  36.794  1.00  0.00    -0.206 F 
ATOM     94  C   UNL A   1      45.588  32.869  40.152  1.00  0.00     0.022 A 
BRANCH  91  95
ATOM     95  S   UNL A   1      44.921  30.476  41.426  1.00  0.00     0.124 S 
ATOM     96  O   UNL A   1      43.529  30.199  41.756  1.00  0.00    -0.237 OA
ATOM     97  O   UNL A   1      45.650  29.404  40.758  1.00  0.00    -0.237 OA
ATOM     98  O   UNL A   1      45.691  31.166  42.461  1.00  0.00    -0.744 OA
ENDBRANCH  91  95
ENDBRANCH  64  88
BRANCH  76  99
ATOM     99  C   UNL A   1      44.486  25.412  34.490  1.00  0.00     0.023 A 
ATOM    100  C   UNL A   1      45.609  24.588  34.408  1.00  0.00     0.031 A 
ATOM    101  C   UNL A   1      43.263  24.750  34.777  1.00  0.00     0.131 A 
ATOM    102  C   UNL A   1      45.548  23.244  34.813  1.00  0.00     0.055 A 
ATOM    103  C   UNL A   1      43.184  23.383  35.058  1.00  0.00     0.041 A 
ATOM    104  F   UNL A   1      42.093  25.400  34.833  1.00  0.00    -0.206 F 
ATOM    105  C   UNL A   1      44.341  22.627  35.125  1.00  0.00     0.022 A 
BRANCH 102 106
ATOM    106  S   UNL A   1      47.116  22.380  35.060  1.00  0.00     0.124 S 
ATOM    107  O   UNL A   1      46.899  21.123  34.353  1.00  0.00    -0.237 OA
ATOM    108  O   UNL A   1      48.060  23.302  34.430  1.00  0.00    -0.237 OA
ATOM    109  O   UNL A   1      47.227  22.273  36.512  1.00  0.00    -0.744 OA
ENDBRANCH 102 106
ENDBRANCH  76  99
ENDBRANCH  50  51
ENDBRANCH  43  45
ENDBRANCH  42  43
ENDBRANCH  41  42
ENDBRANCH  40  41
ENDBRANCH  39  40
ENDBRANCH   1  39
TORSDOF 23
ENDMDL
