MODEL 1
REMARK VINA RESULT:      -9.9      0.000      0.000
REMARK SMILES O=C(OCCOCCOC(=O)c1cc(Br)cc2c1OCC2)c1ccc(-c2c3nc(c(-c4cc(S(=O)(=O)[O-])ccc4F)c4ccc([nH]4)c(-c4cc(S(=O)(=O)[O-])ccc4F)c4nc(c(-c5cc(S(=O)(=O)[O-])ccc5F)c5ccc2[nH]5)C=C4)C=C3)cc1
REMARK SMILES IDX 4 1 3 2 2 3 1 4 22 5 23 6 84 7 24 8 83 9 25 10 26 11 27 12
REMARK SMILES IDX 77 13 28 14 82 15 76 16 78 17 29 18 81 19 75 20 74 21 30 23
REMARK SMILES IDX 62 24 42 25 61 26 43 27 46 28 60 29 79 30 44 31 45 32 59 34
REMARK SMILES IDX 80 35 47 36 31 37 32 38 40 39 33 40 39 41 41 42 38 43 34 44
REMARK SMILES IDX 35 45 36 46 37 47 63 48 64 49 72 50 65 51 71 52 73 53 70 54
REMARK SMILES IDX 66 55 67 56 68 57 69 58 48 59 49 60 57 61 50 62 56 63 58 64
REMARK SMILES IDX 55 65 51 66 52 67 53 68 54 69 5 70 6 71 7 72 8 73 9 74 10 75
REMARK SMILES IDX 11 76 12 77 13 78 18 79 14 80 17 81 19 82 15 83 16 84 21 85
REMARK SMILES IDX 20 86
REMARK H PARENT 78 22 46 33
REMARK Flexibility Score: inf
ROOT
ATOM      1  C   UNL A   1      40.761  19.946  26.219  1.00  0.00     0.261 C 
ENDROOT
BRANCH   1   2
ATOM      2  O   UNL A   1      40.868  21.363  26.012  1.00  0.00    -0.460 OA
BRANCH   2   3
ATOM      3  C   UNL A   1      39.948  22.307  26.331  1.00  0.00     0.338 C 
ATOM      4  O   UNL A   1      38.757  22.040  26.185  1.00  0.00    -0.246 OA
BRANCH   3   5
ATOM      5  C   UNL A   1      40.309  23.656  26.861  1.00  0.00     0.060 A 
ATOM      6  C   UNL A   1      40.040  24.855  26.203  1.00  0.00     0.016 A 
ATOM      7  C   UNL A   1      40.878  23.729  28.143  1.00  0.00     0.016 A 
ATOM      8  C   UNL A   1      40.374  26.080  26.745  1.00  0.00     0.010 A 
ATOM      9  C   UNL A   1      41.168  24.967  28.730  1.00  0.00     0.010 A 
ATOM     10  C   UNL A   1      40.918  26.148  28.021  1.00  0.00    -0.014 A 
BRANCH  10  11
ATOM     11  C   UNL A   1      41.277  27.489  28.512  1.00  0.00     0.031 A 
ATOM     12  C   UNL A   1      42.705  27.922  28.416  1.00  0.00     0.074 A 
ATOM     13  C   UNL A   1      40.290  28.348  28.835  1.00  0.00     0.049 A 
ATOM     14  N   UNL A   1      43.255  29.047  28.778  1.00  0.00    -0.248 NA
ATOM     15  C   UNL A   1      43.638  26.957  27.809  1.00  0.00     0.031 C 
ATOM     16  C   UNL A   1      38.857  28.032  28.795  1.00  0.00     0.029 A 
ATOM     17  N   UNL A   1      40.327  29.664  29.205  1.00  0.00    -0.354 N 
ATOM     18  C   UNL A   1      44.601  28.926  28.456  1.00  0.00     0.074 A 
ATOM     19  C   UNL A   1      44.788  27.608  27.890  1.00  0.00     0.031 C 
ATOM     20  C   UNL A   1      38.156  29.135  29.093  1.00  0.00     0.029 A 
ATOM     21  C   UNL A   1      39.082  30.207  29.433  1.00  0.00     0.049 A 
ATOM     22  H   UNL A   1      41.164  30.175  29.298  1.00  0.00     0.167 HD
ATOM     23  C   UNL A   1      45.582  29.842  28.624  1.00  0.00     0.034 A 
ATOM     24  C   UNL A   1      38.744  31.421  29.908  1.00  0.00     0.034 A 
ATOM     25  C   UNL A   1      45.343  31.134  29.219  1.00  0.00     0.049 A 
ATOM     26  C   UNL A   1      39.872  32.374  30.215  1.00  0.00     0.074 A 
ATOM     27  C   UNL A   1      46.252  32.110  29.578  1.00  0.00     0.029 A 
ATOM     28  N   UNL A   1      44.081  31.627  29.539  1.00  0.00    -0.354 N 
ATOM     29  N   UNL A   1      41.165  32.210  30.025  1.00  0.00    -0.248 NA
ATOM     30  C   UNL A   1      39.507  33.666  30.802  1.00  0.00     0.031 C 
ATOM     31  C   UNL A   1      45.545  33.168  30.164  1.00  0.00     0.029 A 
ATOM     32  C   UNL A   1      44.188  32.887  30.103  1.00  0.00     0.049 A 
ATOM     33  H   UNL A   1      43.234  31.149  29.385  1.00  0.00     0.167 HD
ATOM     34  C   UNL A   1      41.764  33.386  30.460  1.00  0.00     0.074 A 
ATOM     35  C   UNL A   1      40.688  34.261  30.886  1.00  0.00     0.031 C 
ATOM     36  C   UNL A   1      43.081  33.718  30.519  1.00  0.00     0.034 A 
BRANCH  23  37
ATOM     37  C   UNL A   1      46.980  29.415  28.253  1.00  0.00     0.023 A 
ATOM     38  C   UNL A   1      47.797  28.698  29.147  1.00  0.00     0.031 A 
ATOM     39  C   UNL A   1      47.543  29.826  27.032  1.00  0.00     0.131 A 
ATOM     40  C   UNL A   1      49.152  28.490  28.843  1.00  0.00     0.055 A 
ATOM     41  C   UNL A   1      48.870  29.545  26.701  1.00  0.00     0.041 A 
ATOM     42  F   UNL A   1      46.824  30.544  26.156  1.00  0.00    -0.206 F 
ATOM     43  C   UNL A   1      49.689  28.889  27.616  1.00  0.00     0.022 A 
BRANCH  40  44
ATOM     44  S   UNL A   1      50.245  27.839  30.138  1.00  0.00     0.124 S 
ATOM     45  O   UNL A   1      49.469  28.115  31.345  1.00  0.00    -0.237 OA
ATOM     46  O   UNL A   1      50.375  26.435  29.768  1.00  0.00    -0.237 OA
ATOM     47  O   UNL A   1      51.462  28.637  29.993  1.00  0.00    -0.744 OA
ENDBRANCH  40  44
ENDBRANCH  23  37
BRANCH  24  48
ATOM     48  C   UNL A   1      37.321  31.763  30.214  1.00  0.00     0.023 A 
ATOM     49  C   UNL A   1      36.447  32.249  29.227  1.00  0.00     0.031 A 
ATOM     50  C   UNL A   1      36.829  31.677  31.531  1.00  0.00     0.131 A 
ATOM     51  C   UNL A   1      35.156  32.679  29.581  1.00  0.00     0.055 A 
ATOM     52  C   UNL A   1      35.524  32.040  31.865  1.00  0.00     0.041 A 
ATOM     53  F   UNL A   1      37.616  31.236  32.525  1.00  0.00    -0.206 F 
ATOM     54  C   UNL A   1      34.683  32.562  30.890  1.00  0.00     0.022 A 
BRANCH  51  55
ATOM     55  S   UNL A   1      34.140  33.515  28.330  1.00  0.00     0.124 S 
ATOM     56  O   UNL A   1      35.157  34.087  27.455  1.00  0.00    -0.237 OA
ATOM     57  O   UNL A   1      33.367  32.408  27.778  1.00  0.00    -0.237 OA
ATOM     58  O   UNL A   1      33.371  34.484  29.109  1.00  0.00    -0.744 OA
ENDBRANCH  51  55
ENDBRANCH  24  48
BRANCH  36  59
ATOM     59  C   UNL A   1      43.396  35.100  31.029  1.00  0.00     0.023 A 
ATOM     60  C   UNL A   1      43.469  36.203  30.162  1.00  0.00     0.031 A 
ATOM     61  C   UNL A   1      43.649  35.306  32.395  1.00  0.00     0.131 A 
ATOM     62  C   UNL A   1      43.852  37.454  30.662  1.00  0.00     0.055 A 
ATOM     63  C   UNL A   1      43.967  36.567  32.897  1.00  0.00     0.041 A 
ATOM     64  F   UNL A   1      43.594  34.282  33.263  1.00  0.00    -0.206 F 
ATOM     65  C   UNL A   1      44.085  37.647  32.027  1.00  0.00     0.022 A 
BRANCH  62  66
ATOM     66  S   UNL A   1      44.146  38.803  29.486  1.00  0.00     0.124 S 
ATOM     67  O   UNL A   1      43.897  39.982  30.309  1.00  0.00    -0.237 OA
ATOM     68  O   UNL A   1      45.534  38.578  29.098  1.00  0.00    -0.237 OA
ATOM     69  O   UNL A   1      43.161  38.559  28.434  1.00  0.00    -0.744 OA
ENDBRANCH  62  66
ENDBRANCH  36  59
ENDBRANCH  10  11
ENDBRANCH   3   5
ENDBRANCH   2   3
ENDBRANCH   1   2
BRANCH   1  70
ATOM     70  C   UNL A   1      42.145  19.292  26.236  1.00  0.00     0.202 C 
BRANCH  70  71
ATOM     71  O   UNL A   1      42.810  19.269  24.976  1.00  0.00    -0.374 OA
BRANCH  71  72
ATOM     72  C   UNL A   1      44.200  18.955  25.000  1.00  0.00     0.202 C 
BRANCH  72  73
ATOM     73  C   UNL A   1      44.888  19.693  23.852  1.00  0.00     0.261 C 
BRANCH  73  74
ATOM     74  O   UNL A   1      45.623  20.800  24.405  1.00  0.00    -0.460 OA
BRANCH  74  75
ATOM     75  C   UNL A   1      45.009  22.013  24.337  1.00  0.00     0.342 C 
ATOM     76  O   UNL A   1      44.160  22.373  23.544  1.00  0.00    -0.246 OA
BRANCH  75  77
ATOM     77  C   UNL A   1      45.484  22.786  25.499  1.00  0.00     0.103 A 
ATOM     78  C   UNL A   1      44.882  22.612  26.753  1.00  0.00     0.035 A 
ATOM     79  C   UNL A   1      46.444  23.778  25.360  1.00  0.00     0.137 A 
ATOM     80  C   UNL A   1      45.250  23.433  27.825  1.00  0.00     0.019 A 
ATOM     81  C   UNL A   1      46.787  24.603  26.425  1.00  0.00    -0.000 A 
ATOM     82  O   UNL A   1      47.123  24.101  24.213  1.00  0.00    -0.492 OA
ATOM     83  Br  UNL A   1      44.416  23.189  29.505  1.00  0.00    -0.051 Br
ATOM     84  C   UNL A   1      46.206  24.440  27.671  1.00  0.00     0.023 A 
ATOM     85  C   UNL A   1      47.822  25.569  25.988  1.00  0.00     0.081 C 
ATOM     86  C   UNL A   1      47.668  25.412  24.478  1.00  0.00     0.234 C 
ENDBRANCH  75  77
ENDBRANCH  74  75
ENDBRANCH  73  74
ENDBRANCH  72  73
ENDBRANCH  71  72
ENDBRANCH  70  71
ENDBRANCH   1  70
TORSDOF 17
ENDMDL
MODEL 2
REMARK VINA RESULT:      -9.9      2.342      2.730
REMARK SMILES O=C(OCCOCCOC(=O)c1cc(Br)cc2c1OCC2)c1ccc(-c2c3nc(c(-c4cc(S(=O)(=O)[O-])ccc4F)c4ccc([nH]4)c(-c4cc(S(=O)(=O)[O-])ccc4F)c4nc(c(-c5cc(S(=O)(=O)[O-])ccc5F)c5ccc2[nH]5)C=C4)C=C3)cc1
REMARK SMILES IDX 4 1 3 2 2 3 1 4 22 5 23 6 84 7 24 8 83 9 25 10 26 11 27 12
REMARK SMILES IDX 77 13 28 14 82 15 76 16 78 17 29 18 81 19 75 20 74 21 30 23
REMARK SMILES IDX 62 24 42 25 61 26 43 27 46 28 60 29 79 30 44 31 45 32 59 34
REMARK SMILES IDX 80 35 47 36 31 37 32 38 40 39 33 40 39 41 41 42 38 43 34 44
REMARK SMILES IDX 35 45 36 46 37 47 63 48 64 49 72 50 65 51 71 52 73 53 70 54
REMARK SMILES IDX 66 55 67 56 68 57 69 58 48 59 49 60 57 61 50 62 56 63 58 64
REMARK SMILES IDX 55 65 51 66 52 67 53 68 54 69 5 70 6 71 7 72 8 73 9 74 10 75
REMARK SMILES IDX 11 76 12 77 13 78 18 79 14 80 17 81 19 82 15 83 16 84 21 85
REMARK SMILES IDX 20 86
REMARK H PARENT 78 22 46 33
REMARK Flexibility Score: inf
ROOT
ATOM      1  C   UNL A   1      40.716  19.754  25.957  1.00  0.00     0.261 C 
ENDROOT
BRANCH   1   2
ATOM      2  O   UNL A   1      40.031  20.648  26.848  1.00  0.00    -0.460 OA
BRANCH   2   3
ATOM      3  C   UNL A   1      39.414  21.811  26.522  1.00  0.00     0.338 C 
ATOM      4  O   UNL A   1      38.395  21.764  25.835  1.00  0.00    -0.246 OA
BRANCH   3   5
ATOM      5  C   UNL A   1      39.906  23.151  26.963  1.00  0.00     0.060 A 
ATOM      6  C   UNL A   1      40.735  23.359  28.064  1.00  0.00     0.016 A 
ATOM      7  C   UNL A   1      39.583  24.264  26.169  1.00  0.00     0.016 A 
ATOM      8  C   UNL A   1      41.181  24.617  28.418  1.00  0.00     0.010 A 
ATOM      9  C   UNL A   1      40.076  25.537  26.484  1.00  0.00     0.010 A 
ATOM     10  C   UNL A   1      40.876  25.711  27.619  1.00  0.00    -0.014 A 
BRANCH  10  11
ATOM     11  C   UNL A   1      41.361  27.021  28.086  1.00  0.00     0.031 A 
ATOM     12  C   UNL A   1      42.759  27.424  27.742  1.00  0.00     0.074 A 
ATOM     13  C   UNL A   1      40.479  27.887  28.622  1.00  0.00     0.049 A 
ATOM     14  N   UNL A   1      43.401  28.518  28.039  1.00  0.00    -0.248 NA
ATOM     15  C   UNL A   1      43.533  26.465  26.935  1.00  0.00     0.031 C 
ATOM     16  C   UNL A   1      39.054  27.607  28.838  1.00  0.00     0.029 A 
ATOM     17  N   UNL A   1      40.625  29.184  29.030  1.00  0.00    -0.354 N 
ATOM     18  C   UNL A   1      44.660  28.381  27.467  1.00  0.00     0.074 A 
ATOM     19  C   UNL A   1      44.697  27.085  26.825  1.00  0.00     0.031 C 
ATOM     20  C   UNL A   1      38.455  28.712  29.305  1.00  0.00     0.029 A 
ATOM     21  C   UNL A   1      39.461  29.745  29.508  1.00  0.00     0.049 A 
ATOM     22  H   UNL A   1      41.479  29.671  28.985  1.00  0.00     0.167 HD
ATOM     23  C   UNL A   1      45.683  29.265  27.485  1.00  0.00     0.034 A 
ATOM     24  C   UNL A   1      39.255  30.945  30.085  1.00  0.00     0.034 A 
ATOM     25  C   UNL A   1      45.600  30.535  28.164  1.00  0.00     0.049 A 
ATOM     26  C   UNL A   1      40.450  31.857  30.213  1.00  0.00     0.074 A 
ATOM     27  C   UNL A   1      46.590  31.472  28.385  1.00  0.00     0.029 A 
ATOM     28  N   UNL A   1      44.434  31.042  28.733  1.00  0.00    -0.354 N 
ATOM     29  N   UNL A   1      41.679  31.671  29.779  1.00  0.00    -0.248 NA
ATOM     30  C   UNL A   1      40.241  33.129  30.908  1.00  0.00     0.031 C 
ATOM     31  C   UNL A   1      46.037  32.519  29.134  1.00  0.00     0.029 A 
ATOM     32  C   UNL A   1      44.684  32.273  29.317  1.00  0.00     0.049 A 
ATOM     33  H   UNL A   1      43.559  30.592  28.722  1.00  0.00     0.167 HD
ATOM     34  C   UNL A   1      42.386  32.812  30.140  1.00  0.00     0.074 A 
ATOM     35  C   UNL A   1      41.435  33.692  30.793  1.00  0.00     0.031 C 
ATOM     36  C   UNL A   1      43.700  33.110  29.964  1.00  0.00     0.034 A 
BRANCH  23  37
ATOM     37  C   UNL A   1      46.974  28.822  26.843  1.00  0.00     0.023 A 
ATOM     38  C   UNL A   1      47.093  28.667  25.450  1.00  0.00     0.031 A 
ATOM     39  C   UNL A   1      48.065  28.442  27.643  1.00  0.00     0.131 A 
ATOM     40  C   UNL A   1      48.242  28.067  24.908  1.00  0.00     0.055 A 
ATOM     41  C   UNL A   1      49.238  27.922  27.091  1.00  0.00     0.041 A 
ATOM     42  F   UNL A   1      47.997  28.533  28.980  1.00  0.00    -0.206 F 
ATOM     43  C   UNL A   1      49.325  27.715  25.718  1.00  0.00     0.022 A 
BRANCH  40  44
ATOM     44  S   UNL A   1      48.237  27.603  23.153  1.00  0.00     0.124 S 
ATOM     45  O   UNL A   1      47.037  28.283  22.671  1.00  0.00    -0.237 OA
ATOM     46  O   UNL A   1      49.508  28.137  22.679  1.00  0.00    -0.237 OA
ATOM     47  O   UNL A   1      48.147  26.144  23.184  1.00  0.00    -0.744 OA
ENDBRANCH  40  44
ENDBRANCH  23  37
BRANCH  24  48
ATOM     48  C   UNL A   1      37.925  31.306  30.664  1.00  0.00     0.023 A 
ATOM     49  C   UNL A   1      36.947  31.978  29.912  1.00  0.00     0.031 A 
ATOM     50  C   UNL A   1      37.637  31.046  32.019  1.00  0.00     0.131 A 
ATOM     51  C   UNL A   1      35.761  32.413  30.530  1.00  0.00     0.055 A 
ATOM     52  C   UNL A   1      36.429  31.418  32.610  1.00  0.00     0.041 A 
ATOM     53  F   UNL A   1      38.534  30.420  32.798  1.00  0.00    -0.206 F 
ATOM     54  C   UNL A   1      35.489  32.122  31.869  1.00  0.00     0.022 A 
BRANCH  51  55
ATOM     55  S   UNL A   1      34.628  33.478  29.594  1.00  0.00     0.124 S 
ATOM     56  O   UNL A   1      33.999  32.522  28.690  1.00  0.00    -0.237 OA
ATOM     57  O   UNL A   1      33.779  34.018  30.649  1.00  0.00    -0.237 OA
ATOM     58  O   UNL A   1      35.519  34.445  28.957  1.00  0.00    -0.744 OA
ENDBRANCH  51  55
ENDBRANCH  24  48
BRANCH  36  59
ATOM     59  C   UNL A   1      44.148  34.460  30.460  1.00  0.00     0.023 A 
ATOM     60  C   UNL A   1      44.611  34.642  31.774  1.00  0.00     0.031 A 
ATOM     61  C   UNL A   1      44.085  35.579  29.613  1.00  0.00     0.131 A 
ATOM     62  C   UNL A   1      44.934  35.929  32.224  1.00  0.00     0.055 A 
ATOM     63  C   UNL A   1      44.469  36.847  30.047  1.00  0.00     0.041 A 
ATOM     64  F   UNL A   1      43.647  35.456  28.349  1.00  0.00    -0.206 F 
ATOM     65  C   UNL A   1      44.882  37.030  31.364  1.00  0.00     0.022 A 
BRANCH  62  66
ATOM     66  S   UNL A   1      45.319  36.161  33.981  1.00  0.00     0.124 S 
ATOM     67  O   UNL A   1      46.653  36.749  33.923  1.00  0.00    -0.237 OA
ATOM     68  O   UNL A   1      44.248  37.049  34.419  1.00  0.00    -0.237 OA
ATOM     69  O   UNL A   1      45.260  34.805  34.524  1.00  0.00    -0.744 OA
ENDBRANCH  62  66
ENDBRANCH  36  59
ENDBRANCH  10  11
ENDBRANCH   3   5
ENDBRANCH   2   3
ENDBRANCH   1   2
BRANCH   1  70
ATOM     70  C   UNL A   1      41.908  19.095  26.657  1.00  0.00     0.202 C 
BRANCH  70  71
ATOM     71  O   UNL A   1      42.697  18.249  25.826  1.00  0.00    -0.374 OA
BRANCH  71  72
ATOM     72  C   UNL A   1      44.074  18.590  25.702  1.00  0.00     0.202 C 
BRANCH  72  73
ATOM     73  C   UNL A   1      44.212  19.699  24.658  1.00  0.00     0.261 C 
BRANCH  73  74
ATOM     74  O   UNL A   1      44.868  20.820  25.276  1.00  0.00    -0.460 OA
BRANCH  74  75
ATOM     75  C   UNL A   1      44.076  21.891  25.555  1.00  0.00     0.342 C 
ATOM     76  O   UNL A   1      43.017  22.188  25.035  1.00  0.00    -0.246 OA
BRANCH  75  77
ATOM     77  C   UNL A   1      44.689  22.574  26.708  1.00  0.00     0.103 A 
ATOM     78  C   UNL A   1      44.037  22.579  27.950  1.00  0.00     0.035 A 
ATOM     79  C   UNL A   1      45.850  23.319  26.571  1.00  0.00     0.137 A 
ATOM     80  C   UNL A   1      44.558  23.330  29.009  1.00  0.00     0.019 A 
ATOM     81  C   UNL A   1      46.349  24.079  27.622  1.00  0.00    -0.000 A 
ATOM     82  O   UNL A   1      46.609  23.445  25.434  1.00  0.00    -0.492 OA
ATOM     83  Br  UNL A   1      43.656  23.333  30.672  1.00  0.00    -0.051 Br
ATOM     84  C   UNL A   1      45.720  24.090  28.856  1.00  0.00     0.023 A 
ATOM     85  C   UNL A   1      47.584  24.773  27.189  1.00  0.00     0.081 C 
ATOM     86  C   UNL A   1      47.430  24.608  25.681  1.00  0.00     0.234 C 
ENDBRANCH  75  77
ENDBRANCH  74  75
ENDBRANCH  73  74
ENDBRANCH  72  73
ENDBRANCH  71  72
ENDBRANCH  70  71
ENDBRANCH   1  70
TORSDOF 17
ENDMDL
MODEL 3
REMARK VINA RESULT:      -9.9      1.838      2.416
REMARK SMILES O=C(OCCOCCOC(=O)c1cc(Br)cc2c1OCC2)c1ccc(-c2c3nc(c(-c4cc(S(=O)(=O)[O-])ccc4F)c4ccc([nH]4)c(-c4cc(S(=O)(=O)[O-])ccc4F)c4nc(c(-c5cc(S(=O)(=O)[O-])ccc5F)c5ccc2[nH]5)C=C4)C=C3)cc1
REMARK SMILES IDX 4 1 3 2 2 3 1 4 22 5 23 6 84 7 24 8 83 9 25 10 26 11 27 12
REMARK SMILES IDX 77 13 28 14 82 15 76 16 78 17 29 18 81 19 75 20 74 21 30 23
REMARK SMILES IDX 62 24 42 25 61 26 43 27 46 28 60 29 79 30 44 31 45 32 59 34
REMARK SMILES IDX 80 35 47 36 31 37 32 38 40 39 33 40 39 41 41 42 38 43 34 44
REMARK SMILES IDX 35 45 36 46 37 47 63 48 64 49 72 50 65 51 71 52 73 53 70 54
REMARK SMILES IDX 66 55 67 56 68 57 69 58 48 59 49 60 57 61 50 62 56 63 58 64
REMARK SMILES IDX 55 65 51 66 52 67 53 68 54 69 5 70 6 71 7 72 8 73 9 74 10 75
REMARK SMILES IDX 11 76 12 77 13 78 18 79 14 80 17 81 19 82 15 83 16 84 21 85
REMARK SMILES IDX 20 86
REMARK H PARENT 78 22 46 33
REMARK Flexibility Score: inf
ROOT
ATOM      1  C   UNL A   1      40.578  21.086  25.775  1.00  0.00     0.261 C 
ENDROOT
BRANCH   1   2
ATOM      2  O   UNL A   1      39.409  21.459  26.521  1.00  0.00    -0.460 OA
BRANCH   2   3
ATOM      3  C   UNL A   1      38.692  22.604  26.396  1.00  0.00     0.338 C 
ATOM      4  O   UNL A   1      37.582  22.548  25.870  1.00  0.00    -0.246 OA
BRANCH   3   5
ATOM      5  C   UNL A   1      39.180  23.932  26.875  1.00  0.00     0.060 A 
ATOM      6  C   UNL A   1      39.100  24.368  28.196  1.00  0.00     0.016 A 
ATOM      7  C   UNL A   1      39.839  24.762  25.952  1.00  0.00     0.016 A 
ATOM      8  C   UNL A   1      39.586  25.598  28.593  1.00  0.00     0.010 A 
ATOM      9  C   UNL A   1      40.389  25.986  26.354  1.00  0.00     0.010 A 
ATOM     10  C   UNL A   1      40.255  26.406  27.682  1.00  0.00    -0.014 A 
BRANCH  10  11
ATOM     11  C   UNL A   1      40.712  27.715  28.178  1.00  0.00     0.031 A 
ATOM     12  C   UNL A   1      42.144  28.092  27.970  1.00  0.00     0.074 A 
ATOM     13  C   UNL A   1      39.794  28.602  28.611  1.00  0.00     0.049 A 
ATOM     14  N   UNL A   1      42.770  29.182  28.316  1.00  0.00    -0.248 NA
ATOM     15  C   UNL A   1      42.979  27.111  27.257  1.00  0.00     0.031 C 
ATOM     16  C   UNL A   1      38.351  28.345  28.687  1.00  0.00     0.029 A 
ATOM     17  N   UNL A   1      39.920  29.902  29.014  1.00  0.00    -0.354 N 
ATOM     18  C   UNL A   1      44.077  29.018  27.874  1.00  0.00     0.074 A 
ATOM     19  C   UNL A   1      44.158  27.712  27.256  1.00  0.00     0.031 C 
ATOM     20  C   UNL A   1      37.726  29.466  29.077  1.00  0.00     0.029 A 
ATOM     21  C   UNL A   1      38.723  30.487  29.366  1.00  0.00     0.049 A 
ATOM     22  H   UNL A   1      40.782  30.376  29.049  1.00  0.00     0.167 HD
ATOM     23  C   UNL A   1      45.108  29.888  27.982  1.00  0.00     0.034 A 
ATOM     24  C   UNL A   1      38.479  31.698  29.903  1.00  0.00     0.034 A 
ATOM     25  C   UNL A   1      44.977  31.168  28.632  1.00  0.00     0.049 A 
ATOM     26  C   UNL A   1      39.670  32.595  30.138  1.00  0.00     0.074 A 
ATOM     27  C   UNL A   1      45.954  32.095  28.939  1.00  0.00     0.029 A 
ATOM     28  N   UNL A   1      43.769  31.701  29.076  1.00  0.00    -0.354 N 
ATOM     29  N   UNL A   1      40.933  32.385  29.832  1.00  0.00    -0.248 NA
ATOM     30  C   UNL A   1      39.412  33.880  30.792  1.00  0.00     0.031 C 
ATOM     31  C   UNL A   1      45.346  33.160  29.614  1.00  0.00     0.029 A 
ATOM     32  C   UNL A   1      43.978  32.936  29.665  1.00  0.00     0.049 A 
ATOM     33  H   UNL A   1      42.892  31.263  28.983  1.00  0.00     0.167 HD
ATOM     34  C   UNL A   1      41.618  33.521  30.246  1.00  0.00     0.074 A 
ATOM     35  C   UNL A   1      40.620  34.424  30.789  1.00  0.00     0.031 C 
ATOM     36  C   UNL A   1      42.948  33.798  30.199  1.00  0.00     0.034 A 
BRANCH  23  37
ATOM     37  C   UNL A   1      46.448  29.417  27.478  1.00  0.00     0.023 A 
ATOM     38  C   UNL A   1      46.651  29.060  26.133  1.00  0.00     0.031 A 
ATOM     39  C   UNL A   1      47.509  29.215  28.379  1.00  0.00     0.131 A 
ATOM     40  C   UNL A   1      47.851  28.442  25.745  1.00  0.00     0.055 A 
ATOM     41  C   UNL A   1      48.731  28.675  27.971  1.00  0.00     0.041 A 
ATOM     42  F   UNL A   1      47.363  29.502  29.682  1.00  0.00    -0.206 F 
ATOM     43  C   UNL A   1      48.901  28.269  26.650  1.00  0.00     0.022 A 
BRANCH  40  44
ATOM     44  S   UNL A   1      47.962  27.720  24.084  1.00  0.00     0.124 S 
ATOM     45  O   UNL A   1      49.395  27.819  23.814  1.00  0.00    -0.237 OA
ATOM     46  O   UNL A   1      47.443  26.373  24.287  1.00  0.00    -0.237 OA
ATOM     47  O   UNL A   1      47.121  28.597  23.270  1.00  0.00    -0.744 OA
ENDBRANCH  40  44
ENDBRANCH  23  37
BRANCH  24  48
ATOM     48  C   UNL A   1      37.104  32.087  30.342  1.00  0.00     0.023 A 
ATOM     49  C   UNL A   1      36.189  32.689  29.463  1.00  0.00     0.031 A 
ATOM     50  C   UNL A   1      36.706  31.927  31.684  1.00  0.00     0.131 A 
ATOM     51  C   UNL A   1      34.953  33.156  29.946  1.00  0.00     0.055 A 
ATOM     52  C   UNL A   1      35.451  32.329  32.143  1.00  0.00     0.041 A 
ATOM     53  F   UNL A   1      37.539  31.372  32.580  1.00  0.00    -0.206 F 
ATOM     54  C   UNL A   1      34.572  32.964  31.276  1.00  0.00     0.022 A 
BRANCH  51  55
ATOM     55  S   UNL A   1      33.897  34.134  28.840  1.00  0.00     0.124 S 
ATOM     56  O   UNL A   1      34.838  35.122  28.326  1.00  0.00    -0.237 OA
ATOM     57  O   UNL A   1      33.439  33.128  27.889  1.00  0.00    -0.237 OA
ATOM     58  O   UNL A   1      32.866  34.661  29.733  1.00  0.00    -0.744 OA
ENDBRANCH  51  55
ENDBRANCH  24  48
BRANCH  36  59
ATOM     59  C   UNL A   1      43.365  35.148  30.720  1.00  0.00     0.023 A 
ATOM     60  C   UNL A   1      43.435  36.269  29.876  1.00  0.00     0.031 A 
ATOM     61  C   UNL A   1      43.717  35.305  32.071  1.00  0.00     0.131 A 
ATOM     62  C   UNL A   1      43.913  37.487  30.379  1.00  0.00     0.055 A 
ATOM     63  C   UNL A   1      44.130  36.535  32.580  1.00  0.00     0.041 A 
ATOM     64  F   UNL A   1      43.668  34.262  32.915  1.00  0.00    -0.206 F 
ATOM     65  C   UNL A   1      44.244  37.631  31.729  1.00  0.00     0.022 A 
BRANCH  62  66
ATOM     66  S   UNL A   1      44.196  38.851  29.218  1.00  0.00     0.124 S 
ATOM     67  O   UNL A   1      43.553  38.357  28.006  1.00  0.00    -0.237 OA
ATOM     68  O   UNL A   1      43.533  39.967  29.884  1.00  0.00    -0.237 OA
ATOM     69  O   UNL A   1      45.653  38.946  29.154  1.00  0.00    -0.744 OA
ENDBRANCH  62  66
ENDBRANCH  36  59
ENDBRANCH  10  11
ENDBRANCH   3   5
ENDBRANCH   2   3
ENDBRANCH   1   2
BRANCH   1  70
ATOM     70  C   UNL A   1      41.053  19.686  26.173  1.00  0.00     0.202 C 
BRANCH  70  71
ATOM     71  O   UNL A   1      42.107  19.161  25.371  1.00  0.00    -0.374 OA
BRANCH  71  72
ATOM     72  C   UNL A   1      43.428  19.318  25.881  1.00  0.00     0.202 C 
BRANCH  72  73
ATOM     73  C   UNL A   1      44.327  19.835  24.757  1.00  0.00     0.261 C 
BRANCH  73  74
ATOM     74  O   UNL A   1      45.020  21.001  25.236  1.00  0.00    -0.460 OA
BRANCH  74  75
ATOM     75  C   UNL A   1      44.362  22.183  25.092  1.00  0.00     0.342 C 
ATOM     76  O   UNL A   1      43.518  22.468  24.263  1.00  0.00    -0.246 OA
BRANCH  75  77
ATOM     77  C   UNL A   1      44.780  23.034  26.220  1.00  0.00     0.103 A 
ATOM     78  C   UNL A   1      46.092  23.524  26.283  1.00  0.00     0.035 A 
ATOM     79  C   UNL A   1      43.936  23.272  27.295  1.00  0.00     0.137 A 
ATOM     80  C   UNL A   1      46.522  24.228  27.414  1.00  0.00     0.019 A 
ATOM     81  C   UNL A   1      44.378  23.954  28.422  1.00  0.00    -0.000 A 
ATOM     82  O   UNL A   1      42.633  22.859  27.415  1.00  0.00    -0.492 OA
ATOM     83  Br  UNL A   1      48.300  24.869  27.483  1.00  0.00    -0.051 Br
ATOM     84  C   UNL A   1      45.669  24.449  28.497  1.00  0.00     0.023 A 
ATOM     85  C   UNL A   1      43.274  24.051  29.406  1.00  0.00     0.081 C 
ATOM     86  C   UNL A   1      42.347  22.987  28.826  1.00  0.00     0.234 C 
ENDBRANCH  75  77
ENDBRANCH  74  75
ENDBRANCH  73  74
ENDBRANCH  72  73
ENDBRANCH  71  72
ENDBRANCH  70  71
ENDBRANCH   1  70
TORSDOF 17
ENDMDL
