MODEL 1
REMARK VINA RESULT:     -12.0      0.000      0.000
REMARK SMILES COc1ccc(-c2ncn(CC(=O)OCCOCCOC(=O)c3ccc(-c4c5nc(c(-c6cc(S(=O)(=O)[O-])ccc6F)c6ccc([nH]6)c(-c6cc(S(=O)(=O)[O-])ccc6F)c6nc(c(-c7cc(S(=O)(=O)[O-])ccc7F)c7ccc4[nH]7)C=C6)C=C5)cc3)c2-c2ccc(OC)cc2)cc1
REMARK SMILES IDX 17 1 16 2 15 3 14 4 12 5 13 6 11 7 10 8 7 9 8 10 86 11 9 12
REMARK SMILES IDX 6 13 3 14 4 15 96 16 5 17 95 18 2 19 1 20 87 21 88 22 94 23
REMARK SMILES IDX 89 24 93 25 90 26 91 27 92 28 18 29 19 30 20 31 21 32 22 33
REMARK SMILES IDX 23 34 24 35 85 36 25 37 84 38 26 39 27 40 28 41 78 42 29 43
REMARK SMILES IDX 83 44 77 45 79 46 30 47 82 48 76 49 75 50 31 52 63 53 43 54
REMARK SMILES IDX 62 55 44 56 47 57 61 58 80 59 45 60 46 61 60 63 81 64 48 65
REMARK SMILES IDX 32 66 33 67 41 68 34 69 40 70 42 71 39 72 35 73 36 74 37 75
REMARK SMILES IDX 38 76 64 77 65 78 73 79 66 80 72 81 74 82 71 83 67 84 68 85
REMARK SMILES IDX 69 86 70 87 49 88 50 89 58 90 51 91 57 92 59 93 56 94 52 95
REMARK SMILES IDX 53 96 54 97 55 98
REMARK H PARENT 79 51 47 62
REMARK Flexibility Score: inf
ROOT
ATOM      1  O   UNL A   1      32.219  29.222  26.747  1.00  0.00    -0.374 OA
ENDROOT
BRANCH   1   2
ATOM      2  C   UNL A   1      32.179  29.565  25.376  1.00  0.00     0.202 C 
BRANCH   2   3
ATOM      3  C   UNL A   1      31.837  28.406  24.428  1.00  0.00     0.261 C 
BRANCH   3   4
ATOM      4  O   UNL A   1      32.448  28.512  23.118  1.00  0.00    -0.462 OA
BRANCH   4   5
ATOM      5  C   UNL A   1      33.311  27.530  22.759  1.00  0.00     0.326 C 
ATOM      6  O   UNL A   1      33.929  27.527  21.696  1.00  0.00    -0.250 OA
BRANCH   5   7
ATOM      7  C   UNL A   1      33.534  26.429  23.777  1.00  0.00     0.246 C 
BRANCH   7   8
ATOM      8  N   UNL A   1      32.794  25.177  23.666  1.00  0.00    -0.319 N 
ATOM      9  C   UNL A   1      32.196  23.080  23.476  1.00  0.00     0.096 A 
ATOM     10  N   UNL A   1      31.131  23.828  23.052  1.00  0.00    -0.236 NA
ATOM     11  C   UNL A   1      33.285  23.883  23.810  1.00  0.00     0.076 A 
ATOM     12  C   UNL A   1      31.523  25.077  23.157  1.00  0.00     0.201 A 
BRANCH   9  13
ATOM     13  C   UNL A   1      32.189  21.640  23.636  1.00  0.00     0.003 A 
ATOM     14  C   UNL A   1      32.577  18.889  24.026  1.00  0.00     0.118 A 
ATOM     15  C   UNL A   1      32.583  19.765  25.108  1.00  0.00     0.047 A 
ATOM     16  C   UNL A   1      32.319  19.383  22.747  1.00  0.00     0.047 A 
ATOM     17  C   UNL A   1      32.353  21.119  24.920  1.00  0.00     0.014 A 
ATOM     18  C   UNL A   1      32.133  20.763  22.549  1.00  0.00     0.014 A 
BRANCH  14  19
ATOM     19  O   UNL A   1      32.820  17.596  24.381  1.00  0.00    -0.497 OA
ATOM     20  C   UNL A   1      32.940  17.280  25.757  1.00  0.00     0.278 C 
ENDBRANCH  14  19
ENDBRANCH   9  13
BRANCH  11  21
ATOM     21  C   UNL A   1      34.621  23.486  24.279  1.00  0.00     0.001 A 
ATOM     22  C   UNL A   1      35.500  22.826  23.416  1.00  0.00     0.014 A 
ATOM     23  C   UNL A   1      35.097  23.835  25.544  1.00  0.00     0.014 A 
ATOM     24  C   UNL A   1      36.762  22.396  23.815  1.00  0.00     0.047 A 
ATOM     25  C   UNL A   1      36.384  23.440  25.950  1.00  0.00     0.047 A 
ATOM     26  C   UNL A   1      37.195  22.699  25.092  1.00  0.00     0.118 A 
BRANCH  26  27
ATOM     27  O   UNL A   1      38.379  22.183  25.532  1.00  0.00    -0.497 OA
ATOM     28  C   UNL A   1      39.016  23.050  26.470  1.00  0.00     0.278 C 
ENDBRANCH  26  27
ENDBRANCH  11  21
ENDBRANCH   7   8
ENDBRANCH   5   7
ENDBRANCH   4   5
ENDBRANCH   3   4
ENDBRANCH   2   3
ENDBRANCH   1   2
BRANCH   1  29
ATOM     29  C   UNL A   1      33.478  28.986  27.364  1.00  0.00     0.202 C 
BRANCH  29  30
ATOM     30  C   UNL A   1      34.505  30.099  27.606  1.00  0.00     0.261 C 
BRANCH  30  31
ATOM     31  O   UNL A   1      35.867  29.703  27.522  1.00  0.00    -0.460 OA
BRANCH  31  32
ATOM     32  C   UNL A   1      36.451  29.651  28.730  1.00  0.00     0.338 C 
ATOM     33  O   UNL A   1      35.891  30.020  29.761  1.00  0.00    -0.246 OA
BRANCH  32  34
ATOM     34  C   UNL A   1      37.822  29.104  28.648  1.00  0.00     0.060 A 
ATOM     35  C   UNL A   1      38.590  29.476  27.544  1.00  0.00     0.016 A 
ATOM     36  C   UNL A   1      38.326  28.195  29.599  1.00  0.00     0.016 A 
ATOM     37  C   UNL A   1      39.849  28.929  27.382  1.00  0.00     0.010 A 
ATOM     38  C   UNL A   1      39.563  27.607  29.409  1.00  0.00     0.010 A 
ATOM     39  C   UNL A   1      40.323  27.992  28.309  1.00  0.00    -0.014 A 
BRANCH  39  40
ATOM     40  C   UNL A   1      41.739  27.676  28.282  1.00  0.00     0.031 A 
ATOM     41  C   UNL A   1      42.048  26.469  27.494  1.00  0.00     0.074 A 
ATOM     42  C   UNL A   1      42.724  28.396  28.837  1.00  0.00     0.049 A 
ATOM     43  N   UNL A   1      42.350  25.310  27.972  1.00  0.00    -0.248 NA
ATOM     44  C   UNL A   1      41.828  26.486  26.043  1.00  0.00     0.031 C 
ATOM     45  C   UNL A   1      42.620  29.693  29.478  1.00  0.00     0.029 A 
ATOM     46  N   UNL A   1      44.059  28.133  28.868  1.00  0.00    -0.354 N 
ATOM     47  C   UNL A   1      42.604  24.509  26.873  1.00  0.00     0.074 A 
ATOM     48  C   UNL A   1      42.054  25.207  25.742  1.00  0.00     0.031 C 
ATOM     49  C   UNL A   1      43.855  30.214  29.640  1.00  0.00     0.029 A 
ATOM     50  C   UNL A   1      44.833  29.217  29.253  1.00  0.00     0.049 A 
ATOM     51  H   UNL A   1      44.441  27.255  28.638  1.00  0.00     0.167 HD
ATOM     52  C   UNL A   1      43.471  23.465  26.966  1.00  0.00     0.034 A 
ATOM     53  C   UNL A   1      46.184  29.308  29.259  1.00  0.00     0.034 A 
ATOM     54  C   UNL A   1      43.710  23.110  28.353  1.00  0.00     0.049 A 
ATOM     55  C   UNL A   1      46.700  27.929  29.427  1.00  0.00     0.074 A 
ATOM     56  C   UNL A   1      42.893  22.744  29.408  1.00  0.00     0.029 A 
ATOM     57  N   UNL A   1      44.904  23.484  28.930  1.00  0.00    -0.354 N 
ATOM     58  N   UNL A   1      46.501  27.230  30.513  1.00  0.00    -0.248 NA
ATOM     59  C   UNL A   1      47.020  27.147  28.244  1.00  0.00     0.031 C 
ATOM     60  C   UNL A   1      43.459  23.377  30.556  1.00  0.00     0.029 A 
ATOM     61  C   UNL A   1      44.622  24.036  30.157  1.00  0.00     0.049 A 
ATOM     62  H   UNL A   1      45.799  23.375  28.534  1.00  0.00     0.167 HD
ATOM     63  C   UNL A   1      46.210  25.951  30.062  1.00  0.00     0.074 A 
ATOM     64  C   UNL A   1      46.674  25.930  28.677  1.00  0.00     0.031 C 
ATOM     65  C   UNL A   1      45.372  25.126  30.759  1.00  0.00     0.034 A 
BRANCH  52  66
ATOM     66  C   UNL A   1      44.377  23.015  25.842  1.00  0.00     0.023 A 
ATOM     67  C   UNL A   1      44.442  21.633  25.591  1.00  0.00     0.031 A 
ATOM     68  C   UNL A   1      45.363  23.800  25.199  1.00  0.00     0.131 A 
ATOM     69  C   UNL A   1      45.495  21.083  24.842  1.00  0.00     0.055 A 
ATOM     70  C   UNL A   1      46.366  23.254  24.393  1.00  0.00     0.041 A 
ATOM     71  F   UNL A   1      45.481  25.120  25.379  1.00  0.00    -0.206 F 
ATOM     72  C   UNL A   1      46.458  21.884  24.239  1.00  0.00     0.022 A 
BRANCH  69  73
ATOM     73  S   UNL A   1      45.688  19.284  24.838  1.00  0.00     0.124 S 
ATOM     74  O   UNL A   1      44.510  18.861  25.589  1.00  0.00    -0.237 OA
ATOM     75  O   UNL A   1      45.683  18.988  23.409  1.00  0.00    -0.237 OA
ATOM     76  O   UNL A   1      46.966  19.081  25.515  1.00  0.00    -0.744 OA
ENDBRANCH  69  73
ENDBRANCH  52  66
BRANCH  53  77
ATOM     77  C   UNL A   1      46.982  30.481  28.819  1.00  0.00     0.023 A 
ATOM     78  C   UNL A   1      46.555  31.354  27.800  1.00  0.00     0.031 A 
ATOM     79  C   UNL A   1      48.108  30.887  29.575  1.00  0.00     0.131 A 
ATOM     80  C   UNL A   1      47.244  32.569  27.573  1.00  0.00     0.055 A 
ATOM     81  C   UNL A   1      48.787  32.083  29.342  1.00  0.00     0.041 A 
ATOM     82  F   UNL A   1      48.540  30.169  30.624  1.00  0.00    -0.206 F 
ATOM     83  C   UNL A   1      48.351  32.936  28.343  1.00  0.00     0.022 A 
BRANCH  80  84
ATOM     84  S   UNL A   1      46.638  33.744  26.323  1.00  0.00     0.124 S 
ATOM     85  O   UNL A   1      47.844  34.022  25.551  1.00  0.00    -0.237 OA
ATOM     86  O   UNL A   1      45.597  32.977  25.647  1.00  0.00    -0.237 OA
ATOM     87  O   UNL A   1      46.148  34.869  27.122  1.00  0.00    -0.744 OA
ENDBRANCH  80  84
ENDBRANCH  53  77
BRANCH  65  88
ATOM     88  C   UNL A   1      45.021  25.495  32.190  1.00  0.00     0.023 A 
ATOM     89  C   UNL A   1      43.862  26.204  32.583  1.00  0.00     0.031 A 
ATOM     90  C   UNL A   1      45.850  24.993  33.210  1.00  0.00     0.131 A 
ATOM     91  C   UNL A   1      43.579  26.395  33.952  1.00  0.00     0.055 A 
ATOM     92  C   UNL A   1      45.558  25.168  34.563  1.00  0.00     0.041 A 
ATOM     93  F   UNL A   1      46.951  24.286  32.905  1.00  0.00    -0.206 F 
ATOM     94  C   UNL A   1      44.423  25.875  34.939  1.00  0.00     0.022 A 
BRANCH  91  95
ATOM     95  S   UNL A   1      42.107  27.333  34.480  1.00  0.00     0.124 S 
ATOM     96  O   UNL A   1      41.674  28.008  33.262  1.00  0.00    -0.237 OA
ATOM     97  O   UNL A   1      41.226  26.282  34.980  1.00  0.00    -0.237 OA
ATOM     98  O   UNL A   1      42.629  28.228  35.516  1.00  0.00    -0.744 OA
ENDBRANCH  91  95
ENDBRANCH  65  88
ENDBRANCH  39  40
ENDBRANCH  32  34
ENDBRANCH  31  32
ENDBRANCH  30  31
ENDBRANCH  29  30
ENDBRANCH   1  29
TORSDOF 22
ENDMDL
MODEL 2
REMARK VINA RESULT:     -11.3      1.803      2.161
REMARK SMILES COc1ccc(-c2ncn(CC(=O)OCCOCCOC(=O)c3ccc(-c4c5nc(c(-c6cc(S(=O)(=O)[O-])ccc6F)c6ccc([nH]6)c(-c6cc(S(=O)(=O)[O-])ccc6F)c6nc(c(-c7cc(S(=O)(=O)[O-])ccc7F)c7ccc4[nH]7)C=C6)C=C5)cc3)c2-c2ccc(OC)cc2)cc1
REMARK SMILES IDX 17 1 16 2 15 3 14 4 12 5 13 6 11 7 10 8 7 9 8 10 86 11 9 12
REMARK SMILES IDX 6 13 3 14 4 15 96 16 5 17 95 18 2 19 1 20 87 21 88 22 94 23
REMARK SMILES IDX 89 24 93 25 90 26 91 27 92 28 18 29 19 30 20 31 21 32 22 33
REMARK SMILES IDX 23 34 24 35 85 36 25 37 84 38 26 39 27 40 28 41 78 42 29 43
REMARK SMILES IDX 83 44 77 45 79 46 30 47 82 48 76 49 75 50 31 52 63 53 43 54
REMARK SMILES IDX 62 55 44 56 47 57 61 58 80 59 45 60 46 61 60 63 81 64 48 65
REMARK SMILES IDX 32 66 33 67 41 68 34 69 40 70 42 71 39 72 35 73 36 74 37 75
REMARK SMILES IDX 38 76 64 77 65 78 73 79 66 80 72 81 74 82 71 83 67 84 68 85
REMARK SMILES IDX 69 86 70 87 49 88 50 89 58 90 51 91 57 92 59 93 56 94 52 95
REMARK SMILES IDX 53 96 54 97 55 98
REMARK H PARENT 79 51 47 62
REMARK Flexibility Score: inf
ROOT
ATOM      1  O   UNL A   1      32.253  29.278  26.917  1.00  0.00    -0.374 OA
ENDROOT
BRANCH   1   2
ATOM      2  C   UNL A   1      31.908  29.402  25.551  1.00  0.00     0.202 C 
BRANCH   2   3
ATOM      3  C   UNL A   1      31.378  28.117  24.898  1.00  0.00     0.261 C 
BRANCH   3   4
ATOM      4  O   UNL A   1      31.516  28.085  23.455  1.00  0.00    -0.462 OA
BRANCH   4   5
ATOM      5  C   UNL A   1      32.353  27.154  22.936  1.00  0.00     0.326 C 
ATOM      6  O   UNL A   1      32.694  27.133  21.755  1.00  0.00    -0.250 OA
BRANCH   5   7
ATOM      7  C   UNL A   1      32.912  26.138  23.913  1.00  0.00     0.246 C 
BRANCH   7   8
ATOM      8  N   UNL A   1      32.412  24.768  23.901  1.00  0.00    -0.319 N 
ATOM      9  C   UNL A   1      32.203  22.589  23.854  1.00  0.00     0.096 A 
ATOM     10  N   UNL A   1      31.007  23.103  23.430  1.00  0.00    -0.236 NA
ATOM     11  C   UNL A   1      33.136  23.596  24.099  1.00  0.00     0.076 A 
ATOM     12  C   UNL A   1      31.167  24.407  23.449  1.00  0.00     0.201 A 
BRANCH   9  13
ATOM     13  C   UNL A   1      32.464  21.185  24.094  1.00  0.00     0.003 A 
ATOM     14  C   UNL A   1      32.566  18.410  24.496  1.00  0.00     0.118 A 
ATOM     15  C   UNL A   1      32.395  18.934  23.217  1.00  0.00     0.047 A 
ATOM     16  C   UNL A   1      32.744  19.277  25.573  1.00  0.00     0.047 A 
ATOM     17  C   UNL A   1      32.383  20.305  23.013  1.00  0.00     0.014 A 
ATOM     18  C   UNL A   1      32.684  20.669  25.374  1.00  0.00     0.014 A 
BRANCH  14  19
ATOM     19  O   UNL A   1      32.552  17.048  24.523  1.00  0.00    -0.497 OA
ATOM     20  C   UNL A   1      33.486  16.342  23.725  1.00  0.00     0.278 C 
ENDBRANCH  14  19
ENDBRANCH   9  13
BRANCH  11  21
ATOM     21  C   UNL A   1      34.534  23.477  24.537  1.00  0.00     0.001 A 
ATOM     22  C   UNL A   1      34.846  23.484  25.899  1.00  0.00     0.014 A 
ATOM     23  C   UNL A   1      35.577  23.251  23.636  1.00  0.00     0.014 A 
ATOM     24  C   UNL A   1      36.153  23.410  26.371  1.00  0.00     0.047 A 
ATOM     25  C   UNL A   1      36.900  23.137  24.099  1.00  0.00     0.047 A 
ATOM     26  C   UNL A   1      37.180  23.246  25.460  1.00  0.00     0.118 A 
BRANCH  26  27
ATOM     27  O   UNL A   1      38.471  23.289  25.900  1.00  0.00    -0.497 OA
ATOM     28  C   UNL A   1      38.710  24.436  26.715  1.00  0.00     0.278 C 
ENDBRANCH  26  27
ENDBRANCH  11  21
ENDBRANCH   7   8
ENDBRANCH   5   7
ENDBRANCH   4   5
ENDBRANCH   3   4
ENDBRANCH   2   3
ENDBRANCH   1   2
BRANCH   1  29
ATOM     29  C   UNL A   1      33.616  29.084  27.271  1.00  0.00     0.202 C 
BRANCH  29  30
ATOM     30  C   UNL A   1      34.607  30.245  27.424  1.00  0.00     0.261 C 
BRANCH  30  31
ATOM     31  O   UNL A   1      35.981  29.890  27.345  1.00  0.00    -0.460 OA
BRANCH  31  32
ATOM     32  C   UNL A   1      36.540  29.768  28.559  1.00  0.00     0.338 C 
ATOM     33  O   UNL A   1      35.970  30.108  29.595  1.00  0.00    -0.246 OA
BRANCH  32  34
ATOM     34  C   UNL A   1      37.896  29.186  28.477  1.00  0.00     0.060 A 
ATOM     35  C   UNL A   1      38.676  29.545  27.379  1.00  0.00     0.016 A 
ATOM     36  C   UNL A   1      38.373  28.259  29.425  1.00  0.00     0.016 A 
ATOM     37  C   UNL A   1      39.922  28.965  27.217  1.00  0.00     0.010 A 
ATOM     38  C   UNL A   1      39.595  27.639  29.234  1.00  0.00     0.010 A 
ATOM     39  C   UNL A   1      40.368  28.011  28.139  1.00  0.00    -0.014 A 
BRANCH  39  40
ATOM     40  C   UNL A   1      41.775  27.658  28.115  1.00  0.00     0.031 A 
ATOM     41  C   UNL A   1      42.051  26.431  27.344  1.00  0.00     0.074 A 
ATOM     42  C   UNL A   1      42.780  28.360  28.657  1.00  0.00     0.049 A 
ATOM     43  N   UNL A   1      42.324  25.273  27.839  1.00  0.00    -0.248 NA
ATOM     44  C   UNL A   1      41.828  26.433  25.894  1.00  0.00     0.031 C 
ATOM     45  C   UNL A   1      42.711  29.668  29.279  1.00  0.00     0.029 A 
ATOM     46  N   UNL A   1      44.108  28.063  28.690  1.00  0.00    -0.354 N 
ATOM     47  C   UNL A   1      42.554  24.449  26.752  1.00  0.00     0.074 A 
ATOM     48  C   UNL A   1      42.021  25.144  25.611  1.00  0.00     0.031 C 
ATOM     49  C   UNL A   1      43.959  30.160  29.430  1.00  0.00     0.029 A 
ATOM     50  C   UNL A   1      44.910  29.132  29.057  1.00  0.00     0.049 A 
ATOM     51  H   UNL A   1      44.466  27.172  28.472  1.00  0.00     0.167 HD
ATOM     52  C   UNL A   1      43.395  23.384  26.859  1.00  0.00     0.034 A 
ATOM     53  C   UNL A   1      46.263  29.188  29.059  1.00  0.00     0.034 A 
ATOM     54  C   UNL A   1      43.627  23.044  28.250  1.00  0.00     0.049 A 
ATOM     55  C   UNL A   1      46.744  27.799  29.247  1.00  0.00     0.074 A 
ATOM     56  C   UNL A   1      42.803  22.714  29.312  1.00  0.00     0.029 A 
ATOM     57  N   UNL A   1      44.831  23.395  28.819  1.00  0.00    -0.354 N 
ATOM     58  N   UNL A   1      46.528  27.121  30.343  1.00  0.00    -0.248 NA
ATOM     59  C   UNL A   1      47.040  26.991  28.075  1.00  0.00     0.031 C 
ATOM     60  C   UNL A   1      43.387  23.349  30.449  1.00  0.00     0.029 A 
ATOM     61  C   UNL A   1      44.567  23.972  30.039  1.00  0.00     0.049 A 
ATOM     62  H   UNL A   1      45.723  23.257  28.423  1.00  0.00     0.167 HD
ATOM     63  C   UNL A   1      46.204  25.844  29.912  1.00  0.00     0.074 A 
ATOM     64  C   UNL A   1      46.664  25.791  28.527  1.00  0.00     0.031 C 
ATOM     65  C   UNL A   1      45.346  25.052  30.623  1.00  0.00     0.034 A 
BRANCH  52  66
ATOM     66  C   UNL A   1      44.285  22.893  25.740  1.00  0.00     0.023 A 
ATOM     67  C   UNL A   1      44.172  21.539  25.383  1.00  0.00     0.031 A 
ATOM     68  C   UNL A   1      45.402  23.576  25.202  1.00  0.00     0.131 A 
ATOM     69  C   UNL A   1      45.176  20.902  24.635  1.00  0.00     0.055 A 
ATOM     70  C   UNL A   1      46.360  22.954  24.396  1.00  0.00     0.041 A 
ATOM     71  F   UNL A   1      45.693  24.849  25.492  1.00  0.00    -0.206 F 
ATOM     72  C   UNL A   1      46.270  21.600  24.137  1.00  0.00     0.022 A 
BRANCH  69  73
ATOM     73  S   UNL A   1      45.119  19.098  24.495  1.00  0.00     0.124 S 
ATOM     74  O   UNL A   1      45.774  18.688  25.733  1.00  0.00    -0.237 OA
ATOM     75  O   UNL A   1      43.683  18.852  24.412  1.00  0.00    -0.237 OA
ATOM     76  O   UNL A   1      45.871  18.832  23.272  1.00  0.00    -0.744 OA
ENDBRANCH  69  73
ENDBRANCH  52  66
BRANCH  53  77
ATOM     77  C   UNL A   1      47.090  30.334  28.600  1.00  0.00     0.023 A 
ATOM     78  C   UNL A   1      48.276  30.726  29.249  1.00  0.00     0.031 A 
ATOM     79  C   UNL A   1      46.820  30.936  27.347  1.00  0.00     0.131 A 
ATOM     80  C   UNL A   1      49.131  31.678  28.647  1.00  0.00     0.055 A 
ATOM     81  C   UNL A   1      47.664  31.880  26.762  1.00  0.00     0.041 A 
ATOM     82  F   UNL A   1      45.761  30.566  26.609  1.00  0.00    -0.206 F 
ATOM     83  C   UNL A   1      48.832  32.249  27.407  1.00  0.00     0.022 A 
BRANCH  80  84
ATOM     84  S   UNL A   1      50.712  32.116  29.435  1.00  0.00     0.124 S 
ATOM     85  O   UNL A   1      51.582  31.027  29.005  1.00  0.00    -0.237 OA
ATOM     86  O   UNL A   1      50.992  33.431  28.871  1.00  0.00    -0.237 OA
ATOM     87  O   UNL A   1      50.392  32.118  30.863  1.00  0.00    -0.744 OA
ENDBRANCH  80  84
ENDBRANCH  53  77
BRANCH  65  88
ATOM     88  C   UNL A   1      45.008  25.451  32.049  1.00  0.00     0.023 A 
ATOM     89  C   UNL A   1      45.753  25.080  33.193  1.00  0.00     0.031 A 
ATOM     90  C   UNL A   1      43.942  26.351  32.233  1.00  0.00     0.131 A 
ATOM     91  C   UNL A   1      45.412  25.601  34.459  1.00  0.00     0.055 A 
ATOM     92  C   UNL A   1      43.619  26.878  33.485  1.00  0.00     0.041 A 
ATOM     93  F   UNL A   1      43.213  26.766  31.185  1.00  0.00    -0.206 F 
ATOM     94  C   UNL A   1      44.350  26.499  34.604  1.00  0.00     0.022 A 
BRANCH  91  95
ATOM     95  S   UNL A   1      46.340  25.111  35.950  1.00  0.00     0.124 S 
ATOM     96  O   UNL A   1      45.477  25.533  37.047  1.00  0.00    -0.237 OA
ATOM     97  O   UNL A   1      46.489  23.669  35.769  1.00  0.00    -0.237 OA
ATOM     98  O   UNL A   1      47.590  25.866  35.836  1.00  0.00    -0.744 OA
ENDBRANCH  91  95
ENDBRANCH  65  88
ENDBRANCH  39  40
ENDBRANCH  32  34
ENDBRANCH  31  32
ENDBRANCH  30  31
ENDBRANCH  29  30
ENDBRANCH   1  29
TORSDOF 22
ENDMDL
MODEL 3
REMARK VINA RESULT:     -11.3      2.206      7.001
REMARK SMILES COc1ccc(-c2ncn(CC(=O)OCCOCCOC(=O)c3ccc(-c4c5nc(c(-c6cc(S(=O)(=O)[O-])ccc6F)c6ccc([nH]6)c(-c6cc(S(=O)(=O)[O-])ccc6F)c6nc(c(-c7cc(S(=O)(=O)[O-])ccc7F)c7ccc4[nH]7)C=C6)C=C5)cc3)c2-c2ccc(OC)cc2)cc1
REMARK SMILES IDX 17 1 16 2 15 3 14 4 12 5 13 6 11 7 10 8 7 9 8 10 86 11 9 12
REMARK SMILES IDX 6 13 3 14 4 15 96 16 5 17 95 18 2 19 1 20 87 21 88 22 94 23
REMARK SMILES IDX 89 24 93 25 90 26 91 27 92 28 18 29 19 30 20 31 21 32 22 33
REMARK SMILES IDX 23 34 24 35 85 36 25 37 84 38 26 39 27 40 28 41 78 42 29 43
REMARK SMILES IDX 83 44 77 45 79 46 30 47 82 48 76 49 75 50 31 52 63 53 43 54
REMARK SMILES IDX 62 55 44 56 47 57 61 58 80 59 45 60 46 61 60 63 81 64 48 65
REMARK SMILES IDX 32 66 33 67 41 68 34 69 40 70 42 71 39 72 35 73 36 74 37 75
REMARK SMILES IDX 38 76 64 77 65 78 73 79 66 80 72 81 74 82 71 83 67 84 68 85
REMARK SMILES IDX 69 86 70 87 49 88 50 89 58 90 51 91 57 92 59 93 56 94 52 95
REMARK SMILES IDX 53 96 54 97 55 98
REMARK H PARENT 79 51 47 62
REMARK Flexibility Score: inf
ROOT
ATOM      1  O   UNL A   1      31.840  30.554  25.388  1.00  0.00    -0.374 OA
ENDROOT
BRANCH   1   2
ATOM      2  C   UNL A   1      32.409  29.478  24.667  1.00  0.00     0.202 C 
BRANCH   2   3
ATOM      3  C   UNL A   1      31.400  28.594  23.920  1.00  0.00     0.261 C 
BRANCH   3   4
ATOM      4  O   UNL A   1      31.846  28.163  22.610  1.00  0.00    -0.462 OA
BRANCH   4   5
ATOM      5  C   UNL A   1      32.872  27.278  22.569  1.00  0.00     0.326 C 
ATOM      6  O   UNL A   1      33.701  27.243  21.661  1.00  0.00    -0.250 OA
BRANCH   5   7
ATOM      7  C   UNL A   1      32.992  26.337  23.752  1.00  0.00     0.246 C 
BRANCH   7   8
ATOM      8  N   UNL A   1      32.388  25.010  23.689  1.00  0.00    -0.319 N 
ATOM      9  C   UNL A   1      32.015  22.855  23.604  1.00  0.00     0.096 A 
ATOM     10  N   UNL A   1      30.898  23.464  23.095  1.00  0.00    -0.236 NA
ATOM     11  C   UNL A   1      33.001  23.785  23.929  1.00  0.00     0.076 A 
ATOM     12  C   UNL A   1      31.157  24.751  23.140  1.00  0.00     0.201 A 
BRANCH   9  13
ATOM     13  C   UNL A   1      32.146  21.433  23.850  1.00  0.00     0.003 A 
ATOM     14  C   UNL A   1      32.800  18.759  24.388  1.00  0.00     0.118 A 
ATOM     15  C   UNL A   1      32.764  19.699  25.415  1.00  0.00     0.047 A 
ATOM     16  C   UNL A   1      32.452  19.145  23.094  1.00  0.00     0.047 A 
ATOM     17  C   UNL A   1      32.403  21.012  25.156  1.00  0.00     0.014 A 
ATOM     18  C   UNL A   1      32.133  20.488  22.821  1.00  0.00     0.014 A 
BRANCH  14  19
ATOM     19  O   UNL A   1      33.174  17.519  24.810  1.00  0.00    -0.497 OA
ATOM     20  C   UNL A   1      33.815  16.652  23.890  1.00  0.00     0.278 C 
ENDBRANCH  14  19
ENDBRANCH   9  13
BRANCH  11  21
ATOM     21  C   UNL A   1      34.349  23.555  24.471  1.00  0.00     0.001 A 
ATOM     22  C   UNL A   1      35.432  23.377  23.606  1.00  0.00     0.014 A 
ATOM     23  C   UNL A   1      34.616  23.608  25.841  1.00  0.00     0.014 A 
ATOM     24  C   UNL A   1      36.722  23.122  24.061  1.00  0.00     0.047 A 
ATOM     25  C   UNL A   1      35.921  23.389  26.316  1.00  0.00     0.047 A 
ATOM     26  C   UNL A   1      36.958  23.119  25.424  1.00  0.00     0.118 A 
BRANCH  26  27
ATOM     27  O   UNL A   1      38.190  22.756  25.883  1.00  0.00    -0.497 OA
ATOM     28  C   UNL A   1      38.904  23.871  26.414  1.00  0.00     0.278 C 
ENDBRANCH  26  27
ENDBRANCH  11  21
ENDBRANCH   7   8
ENDBRANCH   5   7
ENDBRANCH   4   5
ENDBRANCH   3   4
ENDBRANCH   2   3
ENDBRANCH   1   2
BRANCH   1  29
ATOM     29  C   UNL A   1      31.960  30.578  26.804  1.00  0.00     0.202 C 
BRANCH  29  30
ATOM     30  C   UNL A   1      33.268  30.242  27.532  1.00  0.00     0.261 C 
BRANCH  30  31
ATOM     31  O   UNL A   1      34.320  31.183  27.364  1.00  0.00    -0.460 OA
BRANCH  31  32
ATOM     32  C   UNL A   1      34.933  31.465  28.524  1.00  0.00     0.338 C 
ATOM     33  O   UNL A   1      34.440  32.199  29.380  1.00  0.00    -0.246 OA
BRANCH  32  34
ATOM     34  C   UNL A   1      36.244  30.789  28.626  1.00  0.00     0.060 A 
ATOM     35  C   UNL A   1      37.307  31.538  29.131  1.00  0.00     0.016 A 
ATOM     36  C   UNL A   1      36.444  29.469  28.177  1.00  0.00     0.016 A 
ATOM     37  C   UNL A   1      38.569  30.975  29.171  1.00  0.00     0.010 A 
ATOM     38  C   UNL A   1      37.717  28.926  28.167  1.00  0.00     0.010 A 
ATOM     39  C   UNL A   1      38.768  29.678  28.681  1.00  0.00    -0.014 A 
BRANCH  39  40
ATOM     40  C   UNL A   1      40.014  29.016  29.015  1.00  0.00     0.031 A 
ATOM     41  C   UNL A   1      40.237  28.900  30.468  1.00  0.00     0.074 A 
ATOM     42  C   UNL A   1      40.887  28.481  28.149  1.00  0.00     0.049 A 
ATOM     43  N   UNL A   1      41.056  29.611  31.166  1.00  0.00    -0.248 NA
ATOM     44  C   UNL A   1      39.347  28.047  31.262  1.00  0.00     0.031 C 
ATOM     45  C   UNL A   1      40.735  28.339  26.713  1.00  0.00     0.029 A 
ATOM     46  N   UNL A   1      42.079  27.876  28.403  1.00  0.00    -0.354 N 
ATOM     47  C   UNL A   1      40.964  29.123  32.457  1.00  0.00     0.074 A 
ATOM     48  C   UNL A   1      39.759  28.338  32.497  1.00  0.00     0.031 C 
ATOM     49  C   UNL A   1      41.681  27.497  26.243  1.00  0.00     0.029 A 
ATOM     50  C   UNL A   1      42.589  27.171  27.324  1.00  0.00     0.049 A 
ATOM     51  H   UNL A   1      42.537  27.934  29.273  1.00  0.00     0.167 HD
ATOM     52  C   UNL A   1      42.028  29.202  33.301  1.00  0.00     0.034 A 
ATOM     53  C   UNL A   1      43.680  26.368  27.301  1.00  0.00     0.034 A 
ATOM     54  C   UNL A   1      43.001  30.166  32.822  1.00  0.00     0.049 A 
ATOM     55  C   UNL A   1      44.588  26.859  28.365  1.00  0.00     0.074 A 
ATOM     56  C   UNL A   1      42.945  31.510  32.495  1.00  0.00     0.029 A 
ATOM     57  N   UNL A   1      44.157  29.697  32.237  1.00  0.00    -0.354 N 
ATOM     58  N   UNL A   1      45.153  28.036  28.321  1.00  0.00    -0.248 NA
ATOM     59  C   UNL A   1      44.504  26.268  29.690  1.00  0.00     0.031 C 
ATOM     60  C   UNL A   1      43.785  31.650  31.349  1.00  0.00     0.029 A 
ATOM     61  C   UNL A   1      44.360  30.408  31.078  1.00  0.00     0.049 A 
ATOM     62  H   UNL A   1      44.735  28.980  32.587  1.00  0.00     0.167 HD
ATOM     63  C   UNL A   1      45.066  28.520  29.618  1.00  0.00     0.074 A 
ATOM     64  C   UNL A   1      44.783  27.342  30.435  1.00  0.00     0.031 C 
ATOM     65  C   UNL A   1      44.953  29.858  29.870  1.00  0.00     0.034 A 
BRANCH  52  66
ATOM     66  C   UNL A   1      42.360  28.159  34.344  1.00  0.00     0.023 A 
ATOM     67  C   UNL A   1      43.136  27.064  33.926  1.00  0.00     0.031 A 
ATOM     68  C   UNL A   1      41.753  28.027  35.616  1.00  0.00     0.131 A 
ATOM     69  C   UNL A   1      43.194  25.886  34.688  1.00  0.00     0.055 A 
ATOM     70  C   UNL A   1      41.875  26.880  36.404  1.00  0.00     0.041 A 
ATOM     71  F   UNL A   1      40.933  28.947  36.136  1.00  0.00    -0.206 F 
ATOM     72  C   UNL A   1      42.570  25.785  35.926  1.00  0.00     0.022 A 
BRANCH  69  73
ATOM     73  S   UNL A   1      43.941  24.420  33.934  1.00  0.00     0.124 S 
ATOM     74  O   UNL A   1      44.028  24.823  32.534  1.00  0.00    -0.237 OA
ATOM     75  O   UNL A   1      45.204  24.324  34.658  1.00  0.00    -0.237 OA
ATOM     76  O   UNL A   1      42.973  23.364  34.221  1.00  0.00    -0.744 OA
ENDBRANCH  69  73
ENDBRANCH  52  66
BRANCH  53  77
ATOM     77  C   UNL A   1      43.783  25.055  26.615  1.00  0.00     0.023 A 
ATOM     78  C   UNL A   1      43.042  23.926  27.013  1.00  0.00     0.031 A 
ATOM     79  C   UNL A   1      44.475  24.960  25.383  1.00  0.00     0.131 A 
ATOM     80  C   UNL A   1      43.016  22.772  26.197  1.00  0.00     0.055 A 
ATOM     81  C   UNL A   1      44.450  23.817  24.585  1.00  0.00     0.041 A 
ATOM     82  F   UNL A   1      45.137  26.011  24.872  1.00  0.00    -0.206 F 
ATOM     83  C   UNL A   1      43.711  22.717  24.985  1.00  0.00     0.022 A 
BRANCH  80  84
ATOM     84  S   UNL A   1      41.983  21.346  26.661  1.00  0.00     0.124 S 
ATOM     85  O   UNL A   1      41.401  21.787  27.923  1.00  0.00    -0.237 OA
ATOM     86  O   UNL A   1      41.071  21.236  25.528  1.00  0.00    -0.237 OA
ATOM     87  O   UNL A   1      42.948  20.251  26.779  1.00  0.00    -0.744 OA
ENDBRANCH  80  84
ENDBRANCH  53  77
BRANCH  65  88
ATOM     88  C   UNL A   1      45.251  30.833  28.744  1.00  0.00     0.023 A 
ATOM     89  C   UNL A   1      46.536  31.322  28.414  1.00  0.00     0.031 A 
ATOM     90  C   UNL A   1      44.186  31.185  27.895  1.00  0.00     0.131 A 
ATOM     91  C   UNL A   1      46.713  32.137  27.277  1.00  0.00     0.055 A 
ATOM     92  C   UNL A   1      44.367  31.978  26.761  1.00  0.00     0.041 A 
ATOM     93  F   UNL A   1      42.945  30.732  28.136  1.00  0.00    -0.206 F 
ATOM     94  C   UNL A   1      45.632  32.462  26.450  1.00  0.00     0.022 A 
BRANCH  91  95
ATOM     95  S   UNL A   1      48.357  32.803  26.851  1.00  0.00     0.124 S 
ATOM     96  O   UNL A   1      48.076  33.756  25.784  1.00  0.00    -0.237 OA
ATOM     97  O   UNL A   1      48.804  33.372  28.120  1.00  0.00    -0.237 OA
ATOM     98  O   UNL A   1      49.104  31.617  26.425  1.00  0.00    -0.744 OA
ENDBRANCH  91  95
ENDBRANCH  65  88
ENDBRANCH  39  40
ENDBRANCH  32  34
ENDBRANCH  31  32
ENDBRANCH  30  31
ENDBRANCH  29  30
ENDBRANCH   1  29
TORSDOF 22
ENDMDL
