MODEL 1
REMARK VINA RESULT:     -11.6      0.000      0.000
REMARK SMILES C[N@@H+]1CCN(C(=O)c2cnn3c2CCCC3)C[C@@H]1C(=O)OCCOCCOC(=O)c1ccc(-c2c3nc(c(-c4cc(S(=O)(=O)[O-])ccc4F)c4ccc([nH]4)c(-c4cc(S(=O)(=O)[O-])ccc4F)c4nc(c(-c5cc(S(=O)(=O)[O-])ccc5F)c5ccc2[nH]5)C=C4)C=C3)cc1
REMARK SMILES IDX 25 1 24 2 23 3 22 4 21 5 19 6 20 7 18 8 1 9 2 10 3 11 4 13
REMARK SMILES IDX 17 14 5 15 6 16 7 17 8 18 9 19 12 20 10 21 11 22 13 23 16 24
REMARK SMILES IDX 14 25 15 26 26 27 27 28 28 29 29 30 30 31 31 32 92 33 32 34
REMARK SMILES IDX 91 35 33 36 34 37 35 38 85 39 36 40 90 41 84 42 86 43 37 44
REMARK SMILES IDX 89 45 83 46 82 47 38 49 70 50 50 51 69 52 51 53 54 54 68 55
REMARK SMILES IDX 87 56 52 57 53 58 67 60 88 61 55 62 39 63 40 64 48 65 41 66
REMARK SMILES IDX 47 67 49 68 46 69 42 70 43 71 44 72 45 73 71 74 72 75 80 76
REMARK SMILES IDX 73 77 79 78 81 79 78 80 74 81 75 82 76 83 77 84 56 85 57 86
REMARK SMILES IDX 65 87 58 88 64 89 66 90 63 91 59 92 60 93 61 94 62 95
REMARK H PARENT 2 12 86 48 54 59
REMARK Flexibility Score: inf
ROOT
ATOM      1  C   UNL A   1      33.990  30.281  27.159  1.00  0.00     0.202 C 
ENDROOT
BRANCH   1   2
ATOM      2  O   UNL A   1      33.139  29.950  26.069  1.00  0.00    -0.374 OA
BRANCH   2   3
ATOM      3  C   UNL A   1      32.706  28.600  25.924  1.00  0.00     0.202 C 
BRANCH   3   4
ATOM      4  C   UNL A   1      33.353  27.723  24.844  1.00  0.00     0.261 C 
BRANCH   4   5
ATOM      5  O   UNL A   1      32.943  26.335  24.843  1.00  0.00    -0.459 OA
BRANCH   5   6
ATOM      6  C   UNL A   1      32.789  25.828  23.591  1.00  0.00     0.366 C 
ATOM      7  O   UNL A   1      33.724  25.807  22.799  1.00  0.00    -0.245 OA
BRANCH   6   8
ATOM      8  C   UNL A   1      31.374  25.372  23.205  1.00  0.00     0.314 C 
ATOM      9  C   UNL A   1      30.241  27.565  22.968  1.00  0.00     0.333 C 
ATOM     10  N   UNL A   1      30.225  26.245  23.576  1.00  0.00    -0.323 N 
ATOM     11  C   UNL A   1      29.919  26.297  25.015  1.00  0.00     0.284 C 
ATOM     12  H   UNL A   1      29.439  25.755  23.151  1.00  0.00     0.348 HD
ATOM     13  C   UNL A   1      29.934  24.936  25.740  1.00  0.00     0.181 C 
ATOM     14  C   UNL A   1      31.169  23.967  23.848  1.00  0.00     0.197 C 
ATOM     15  N   UNL A   1      31.032  24.075  25.311  1.00  0.00    -0.326 N 
BRANCH  15  16
ATOM     16  C   UNL A   1      31.852  23.468  26.267  1.00  0.00     0.257 C 
ATOM     17  O   UNL A   1      31.760  23.742  27.463  1.00  0.00    -0.269 OA
BRANCH  16  18
ATOM     18  C   UNL A   1      32.727  22.386  25.839  1.00  0.00     0.081 A 
ATOM     19  C   UNL A   1      32.444  21.078  25.374  1.00  0.00     0.149 A 
ATOM     20  C   UNL A   1      34.092  22.499  25.650  1.00  0.00     0.051 A 
ATOM     21  N   UNL A   1      33.544  20.375  25.077  1.00  0.00    -0.180 NA
ATOM     22  N   UNL A   1      34.522  21.270  25.239  1.00  0.00    -0.269 N 
ATOM     23  C   UNL A   1      35.013  23.662  25.742  1.00  0.00     0.057 C 
ATOM     24  C   UNL A   1      35.901  20.902  24.996  1.00  0.00     0.144 C 
ATOM     25  C   UNL A   1      36.478  23.222  25.785  1.00  0.00     0.008 C 
ATOM     26  C   UNL A   1      36.766  22.135  24.743  1.00  0.00     0.024 C 
ENDBRANCH  16  18
ENDBRANCH  15  16
ENDBRANCH   6   8
ENDBRANCH   5   6
ENDBRANCH   4   5
ENDBRANCH   3   4
ENDBRANCH   2   3
ENDBRANCH   1   2
BRANCH   1  27
ATOM     27  C   UNL A   1      35.107  29.309  27.517  1.00  0.00     0.261 C 
BRANCH  27  28
ATOM     28  O   UNL A   1      36.310  29.998  27.840  1.00  0.00    -0.460 OA
BRANCH  28  29
ATOM     29  C   UNL A   1      36.956  29.512  28.930  1.00  0.00     0.338 C 
ATOM     30  O   UNL A   1      36.658  29.670  30.090  1.00  0.00    -0.246 OA
BRANCH  29  31
ATOM     31  C   UNL A   1      38.183  28.850  28.464  1.00  0.00     0.060 A 
ATOM     32  C   UNL A   1      38.709  27.889  29.320  1.00  0.00     0.016 A 
ATOM     33  C   UNL A   1      38.903  29.330  27.358  1.00  0.00     0.016 A 
ATOM     34  C   UNL A   1      40.043  27.583  29.195  1.00  0.00     0.010 A 
ATOM     35  C   UNL A   1      40.237  29.014  27.227  1.00  0.00     0.010 A 
ATOM     36  C   UNL A   1      40.811  28.211  28.199  1.00  0.00    -0.014 A 
BRANCH  36  37
ATOM     37  C   UNL A   1      42.209  27.849  28.128  1.00  0.00     0.031 A 
ATOM     38  C   UNL A   1      42.404  26.618  27.339  1.00  0.00     0.074 A 
ATOM     39  C   UNL A   1      43.217  28.518  28.716  1.00  0.00     0.049 A 
ATOM     40  N   UNL A   1      42.560  25.431  27.816  1.00  0.00    -0.248 NA
ATOM     41  C   UNL A   1      42.140  26.661  25.895  1.00  0.00     0.031 C 
ATOM     42  C   UNL A   1      43.211  29.838  29.342  1.00  0.00     0.029 A 
ATOM     43  N   UNL A   1      44.516  28.130  28.828  1.00  0.00    -0.354 N 
ATOM     44  C   UNL A   1      42.662  24.599  26.715  1.00  0.00     0.074 A 
ATOM     45  C   UNL A   1      42.189  25.363  25.591  1.00  0.00     0.031 C 
ATOM     46  C   UNL A   1      44.489  30.226  29.580  1.00  0.00     0.029 A 
ATOM     47  C   UNL A   1      45.386  29.124  29.261  1.00  0.00     0.049 A 
ATOM     48  H   UNL A   1      44.817  27.217  28.619  1.00  0.00     0.167 HD
ATOM     49  C   UNL A   1      43.378  23.447  26.795  1.00  0.00     0.034 A 
ATOM     50  C   UNL A   1      46.745  29.046  29.316  1.00  0.00     0.034 A 
ATOM     51  C   UNL A   1      43.587  23.060  28.174  1.00  0.00     0.049 A 
ATOM     52  C   UNL A   1      47.078  27.602  29.430  1.00  0.00     0.074 A 
ATOM     53  C   UNL A   1      42.753  22.729  29.226  1.00  0.00     0.029 A 
ATOM     54  N   UNL A   1      44.803  23.365  28.747  1.00  0.00    -0.354 N 
ATOM     55  N   UNL A   1      46.763  26.880  30.473  1.00  0.00    -0.248 NA
ATOM     56  C   UNL A   1      47.306  26.848  28.207  1.00  0.00     0.031 C 
ATOM     57  C   UNL A   1      43.358  23.315  30.378  1.00  0.00     0.029 A 
ATOM     58  C   UNL A   1      44.564  23.904  29.989  1.00  0.00     0.049 A 
ATOM     59  H   UNL A   1      45.686  23.222  28.338  1.00  0.00     0.167 HD
ATOM     60  C   UNL A   1      46.323  25.670  29.955  1.00  0.00     0.074 A 
ATOM     61  C   UNL A   1      46.765  25.677  28.561  1.00  0.00     0.031 C 
ATOM     62  C   UNL A   1      45.410  24.902  30.623  1.00  0.00     0.034 A 
BRANCH  49  63
ATOM     63  C   UNL A   1      44.220  22.912  25.666  1.00  0.00     0.023 A 
ATOM     64  C   UNL A   1      44.145  21.532  25.410  1.00  0.00     0.031 A 
ATOM     65  C   UNL A   1      45.289  23.600  25.045  1.00  0.00     0.131 A 
ATOM     66  C   UNL A   1      45.145  20.886  24.666  1.00  0.00     0.055 A 
ATOM     67  C   UNL A   1      46.243  22.963  24.250  1.00  0.00     0.041 A 
ATOM     68  F   UNL A   1      45.537  24.899  25.250  1.00  0.00    -0.206 F 
ATOM     69  C   UNL A   1      46.194  21.592  24.083  1.00  0.00     0.022 A 
BRANCH  66  70
ATOM     70  S   UNL A   1      45.147  19.077  24.628  1.00  0.00     0.124 S 
ATOM     71  O   UNL A   1      45.111  18.815  23.194  1.00  0.00    -0.237 OA
ATOM     72  O   UNL A   1      46.398  18.765  25.311  1.00  0.00    -0.237 OA
ATOM     73  O   UNL A   1      43.932  18.724  25.360  1.00  0.00    -0.744 OA
ENDBRANCH  66  70
ENDBRANCH  49  63
BRANCH  50  74
ATOM     74  C   UNL A   1      47.711  30.076  28.828  1.00  0.00     0.023 A 
ATOM     75  C   UNL A   1      47.364  31.078  27.892  1.00  0.00     0.031 A 
ATOM     76  C   UNL A   1      48.949  30.237  29.491  1.00  0.00     0.131 A 
ATOM     77  C   UNL A   1      48.234  32.173  27.660  1.00  0.00     0.055 A 
ATOM     78  C   UNL A   1      49.800  31.320  29.261  1.00  0.00     0.041 A 
ATOM     79  F   UNL A   1      49.339  29.389  30.455  1.00  0.00    -0.206 F 
ATOM     80  C   UNL A   1      49.441  32.299  28.350  1.00  0.00     0.022 A 
BRANCH  77  81
ATOM     81  S   UNL A   1      47.774  33.508  26.502  1.00  0.00     0.124 S 
ATOM     82  O   UNL A   1      46.500  33.035  25.974  1.00  0.00    -0.237 OA
ATOM     83  O   UNL A   1      47.723  34.676  27.374  1.00  0.00    -0.237 OA
ATOM     84  O   UNL A   1      48.873  33.516  25.535  1.00  0.00    -0.744 OA
ENDBRANCH  77  81
ENDBRANCH  50  74
BRANCH  62  85
ATOM     85  C   UNL A   1      45.134  25.218  32.083  1.00  0.00     0.023 A 
ATOM     86  C   UNL A   1      45.859  24.711  33.188  1.00  0.00     0.031 A 
ATOM     87  C   UNL A   1      44.131  26.169  32.348  1.00  0.00     0.131 A 
ATOM     88  C   UNL A   1      45.554  25.152  34.494  1.00  0.00     0.055 A 
ATOM     89  C   UNL A   1      43.851  26.620  33.637  1.00  0.00     0.041 A 
ATOM     90  F   UNL A   1      43.417  26.704  31.343  1.00  0.00    -0.206 F 
ATOM     91  C   UNL A   1      44.558  26.107  34.717  1.00  0.00     0.022 A 
BRANCH  88  92
ATOM     92  S   UNL A   1      46.430  24.469  35.942  1.00  0.00     0.124 S 
ATOM     93  O   UNL A   1      47.555  23.751  35.353  1.00  0.00    -0.237 OA
ATOM     94  O   UNL A   1      46.766  25.670  36.703  1.00  0.00    -0.237 OA
ATOM     95  O   UNL A   1      45.425  23.612  36.574  1.00  0.00    -0.744 OA
ENDBRANCH  88  92
ENDBRANCH  62  85
ENDBRANCH  36  37
ENDBRANCH  29  31
ENDBRANCH  28  29
ENDBRANCH  27  28
ENDBRANCH   1  27
TORSDOF 19
ENDMDL
MODEL 2
REMARK VINA RESULT:     -11.5      1.555      3.029
REMARK SMILES C[N@@H+]1CCN(C(=O)c2cnn3c2CCCC3)C[C@@H]1C(=O)OCCOCCOC(=O)c1ccc(-c2c3nc(c(-c4cc(S(=O)(=O)[O-])ccc4F)c4ccc([nH]4)c(-c4cc(S(=O)(=O)[O-])ccc4F)c4nc(c(-c5cc(S(=O)(=O)[O-])ccc5F)c5ccc2[nH]5)C=C4)C=C3)cc1
REMARK SMILES IDX 25 1 24 2 23 3 22 4 21 5 19 6 20 7 18 8 1 9 2 10 3 11 4 13
REMARK SMILES IDX 17 14 5 15 6 16 7 17 8 18 9 19 12 20 10 21 11 22 13 23 16 24
REMARK SMILES IDX 14 25 15 26 26 27 27 28 28 29 29 30 30 31 31 32 92 33 32 34
REMARK SMILES IDX 91 35 33 36 34 37 35 38 85 39 36 40 90 41 84 42 86 43 37 44
REMARK SMILES IDX 89 45 83 46 82 47 38 49 70 50 50 51 69 52 51 53 54 54 68 55
REMARK SMILES IDX 87 56 52 57 53 58 67 60 88 61 55 62 39 63 40 64 48 65 41 66
REMARK SMILES IDX 47 67 49 68 46 69 42 70 43 71 44 72 45 73 71 74 72 75 80 76
REMARK SMILES IDX 73 77 79 78 81 79 78 80 74 81 75 82 76 83 77 84 56 85 57 86
REMARK SMILES IDX 65 87 58 88 64 89 66 90 63 91 59 92 60 93 61 94 62 95
REMARK H PARENT 2 12 86 48 54 59
REMARK Flexibility Score: inf
ROOT
ATOM      1  C   UNL A   1      34.759  29.099  26.614  1.00  0.00     0.202 C 
ENDROOT
BRANCH   1   2
ATOM      2  O   UNL A   1      33.800  28.080  26.867  1.00  0.00    -0.374 OA
BRANCH   2   3
ATOM      3  C   UNL A   1      33.174  27.438  25.760  1.00  0.00     0.202 C 
BRANCH   3   4
ATOM      4  C   UNL A   1      33.830  26.188  25.157  1.00  0.00     0.261 C 
BRANCH   4   5
ATOM      5  O   UNL A   1      34.211  25.166  26.108  1.00  0.00    -0.459 OA
BRANCH   5   6
ATOM      6  C   UNL A   1      34.995  24.199  25.563  1.00  0.00     0.366 C 
ATOM      7  O   UNL A   1      35.266  24.205  24.368  1.00  0.00    -0.245 OA
BRANCH   6   8
ATOM      8  C   UNL A   1      35.443  23.068  26.501  1.00  0.00     0.314 C 
ATOM      9  C   UNL A   1      37.781  22.747  25.737  1.00  0.00     0.333 C 
ATOM     10  N   UNL A   1      36.496  22.129  26.021  1.00  0.00    -0.323 N 
ATOM     11  C   UNL A   1      36.073  21.207  24.955  1.00  0.00     0.284 C 
ATOM     12  H   UNL A   1      36.648  21.542  26.840  1.00  0.00     0.348 HD
ATOM     13  C   UNL A   1      34.693  20.551  25.163  1.00  0.00     0.181 C 
ATOM     14  C   UNL A   1      34.164  22.252  26.856  1.00  0.00     0.197 C 
ATOM     15  N   UNL A   1      33.696  21.476  25.695  1.00  0.00    -0.326 N 
BRANCH  15  16
ATOM     16  C   UNL A   1      32.445  21.578  25.079  1.00  0.00     0.257 C 
ATOM     17  O   UNL A   1      31.516  20.830  25.379  1.00  0.00    -0.269 OA
BRANCH  16  18
ATOM     18  C   UNL A   1      32.212  22.692  24.172  1.00  0.00     0.081 A 
ATOM     19  C   UNL A   1      32.569  22.889  22.815  1.00  0.00     0.149 A 
ATOM     20  C   UNL A   1      31.404  23.781  24.446  1.00  0.00     0.051 A 
ATOM     21  N   UNL A   1      32.165  24.069  22.329  1.00  0.00    -0.180 NA
ATOM     22  N   UNL A   1      31.449  24.576  23.337  1.00  0.00    -0.269 N 
ATOM     23  C   UNL A   1      30.539  24.106  25.610  1.00  0.00     0.057 C 
ATOM     24  C   UNL A   1      30.810  25.868  23.206  1.00  0.00     0.144 C 
ATOM     25  C   UNL A   1      30.116  25.576  25.608  1.00  0.00     0.008 C 
ATOM     26  C   UNL A   1      29.673  26.028  24.212  1.00  0.00     0.024 C 
ENDBRANCH  16  18
ENDBRANCH  15  16
ENDBRANCH   6   8
ENDBRANCH   5   6
ENDBRANCH   4   5
ENDBRANCH   3   4
ENDBRANCH   2   3
ENDBRANCH   1   2
BRANCH   1  27
ATOM     27  C   UNL A   1      34.992  30.148  27.693  1.00  0.00     0.261 C 
BRANCH  27  28
ATOM     28  O   UNL A   1      36.376  30.288  27.990  1.00  0.00    -0.460 OA
BRANCH  28  29
ATOM     29  C   UNL A   1      36.808  29.518  29.021  1.00  0.00     0.338 C 
ATOM     30  O   UNL A   1      36.327  29.437  30.127  1.00  0.00    -0.246 OA
BRANCH  29  31
ATOM     31  C   UNL A   1      38.062  28.875  28.605  1.00  0.00     0.060 A 
ATOM     32  C   UNL A   1      38.557  27.907  29.471  1.00  0.00     0.016 A 
ATOM     33  C   UNL A   1      38.831  29.381  27.543  1.00  0.00     0.016 A 
ATOM     34  C   UNL A   1      39.898  27.616  29.408  1.00  0.00     0.010 A 
ATOM     35  C   UNL A   1      40.173  29.081  27.473  1.00  0.00     0.010 A 
ATOM     36  C   UNL A   1      40.707  28.268  28.460  1.00  0.00    -0.014 A 
BRANCH  36  37
ATOM     37  C   UNL A   1      42.111  27.921  28.452  1.00  0.00     0.031 A 
ATOM     38  C   UNL A   1      42.362  26.721  27.631  1.00  0.00     0.074 A 
ATOM     39  C   UNL A   1      43.078  28.577  29.117  1.00  0.00     0.049 A 
ATOM     40  N   UNL A   1      42.505  25.519  28.073  1.00  0.00    -0.248 NA
ATOM     41  C   UNL A   1      42.176  26.814  26.177  1.00  0.00     0.031 C 
ATOM     42  C   UNL A   1      43.024  29.874  29.790  1.00  0.00     0.029 A 
ATOM     43  N   UNL A   1      44.374  28.197  29.286  1.00  0.00    -0.354 N 
ATOM     44  C   UNL A   1      42.675  24.729  26.950  1.00  0.00     0.074 A 
ATOM     45  C   UNL A   1      42.255  25.529  25.830  1.00  0.00     0.031 C 
ATOM     46  C   UNL A   1      44.284  30.263  30.110  1.00  0.00     0.029 A 
ATOM     47  C   UNL A   1      45.208  29.182  29.801  1.00  0.00     0.049 A 
ATOM     48  H   UNL A   1      44.696  27.295  29.060  1.00  0.00     0.167 HD
ATOM     49  C   UNL A   1      43.398  23.581  27.028  1.00  0.00     0.034 A 
ATOM     50  C   UNL A   1      46.563  29.115  29.926  1.00  0.00     0.034 A 
ATOM     51  C   UNL A   1      43.537  23.146  28.401  1.00  0.00     0.049 A 
ATOM     52  C   UNL A   1      46.905  27.670  30.006  1.00  0.00     0.074 A 
ATOM     53  C   UNL A   1      42.651  22.770  29.393  1.00  0.00     0.029 A 
ATOM     54  N   UNL A   1      44.716  23.441  29.050  1.00  0.00    -0.354 N 
ATOM     55  N   UNL A   1      46.542  26.908  31.004  1.00  0.00    -0.248 NA
ATOM     56  C   UNL A   1      47.207  26.963  28.771  1.00  0.00     0.031 C 
ATOM     57  C   UNL A   1      43.187  23.319  30.597  1.00  0.00     0.029 A 
ATOM     58  C   UNL A   1      44.405  23.933  30.295  1.00  0.00     0.049 A 
ATOM     59  H   UNL A   1      45.622  23.321  28.685  1.00  0.00     0.167 HD
ATOM     60  C   UNL A   1      46.144  25.714  30.420  1.00  0.00     0.074 A 
ATOM     61  C   UNL A   1      46.660  25.776  29.053  1.00  0.00     0.031 C 
ATOM     62  C   UNL A   1      45.205  24.914  31.010  1.00  0.00     0.034 A 
BRANCH  49  63
ATOM     63  C   UNL A   1      44.306  23.095  25.927  1.00  0.00     0.023 A 
ATOM     64  C   UNL A   1      44.057  21.811  25.413  1.00  0.00     0.031 A 
ATOM     65  C   UNL A   1      45.548  23.673  25.576  1.00  0.00     0.131 A 
ATOM     66  C   UNL A   1      45.044  21.126  24.687  1.00  0.00     0.055 A 
ATOM     67  C   UNL A   1      46.500  23.014  24.797  1.00  0.00     0.041 A 
ATOM     68  F   UNL A   1      45.962  24.856  26.046  1.00  0.00    -0.206 F 
ATOM     69  C   UNL A   1      46.264  21.720  24.374  1.00  0.00     0.022 A 
BRANCH  66  70
ATOM     70  S   UNL A   1      44.772  19.377  24.315  1.00  0.00     0.124 S 
ATOM     71  O   UNL A   1      43.641  19.066  25.181  1.00  0.00    -0.237 OA
ATOM     72  O   UNL A   1      44.496  19.415  22.882  1.00  0.00    -0.237 OA
ATOM     73  O   UNL A   1      46.039  18.752  24.690  1.00  0.00    -0.744 OA
ENDBRANCH  66  70
ENDBRANCH  49  63
BRANCH  50  74
ATOM     74  C   UNL A   1      47.543  30.170  29.529  1.00  0.00     0.023 A 
ATOM     75  C   UNL A   1      47.373  30.992  28.390  1.00  0.00     0.031 A 
ATOM     76  C   UNL A   1      48.556  30.556  30.437  1.00  0.00     0.131 A 
ATOM     77  C   UNL A   1      48.190  32.135  28.204  1.00  0.00     0.055 A 
ATOM     78  C   UNL A   1      49.355  31.686  30.250  1.00  0.00     0.041 A 
ATOM     79  F   UNL A   1      48.747  29.895  31.589  1.00  0.00    -0.206 F 
ATOM     80  C   UNL A   1      49.169  32.487  29.135  1.00  0.00     0.022 A 
BRANCH  77  81
ATOM     81  S   UNL A   1      47.943  33.241  26.772  1.00  0.00     0.124 S 
ATOM     82  O   UNL A   1      46.763  32.668  26.137  1.00  0.00    -0.237 OA
ATOM     83  O   UNL A   1      47.772  34.543  27.408  1.00  0.00    -0.237 OA
ATOM     84  O   UNL A   1      49.183  33.094  26.008  1.00  0.00    -0.744 OA
ENDBRANCH  77  81
ENDBRANCH  50  74
BRANCH  62  85
ATOM     85  C   UNL A   1      44.847  25.174  32.463  1.00  0.00     0.023 A 
ATOM     86  C   UNL A   1      43.979  26.190  32.929  1.00  0.00     0.031 A 
ATOM     87  C   UNL A   1      45.352  24.267  33.413  1.00  0.00     0.131 A 
ATOM     88  C   UNL A   1      43.662  26.272  34.302  1.00  0.00     0.055 A 
ATOM     89  C   UNL A   1      45.015  24.336  34.764  1.00  0.00     0.041 A 
ATOM     90  F   UNL A   1      46.167  23.268  33.034  1.00  0.00    -0.206 F 
ATOM     91  C   UNL A   1      44.173  25.344  35.215  1.00  0.00     0.022 A 
BRANCH  88  92
ATOM     92  S   UNL A   1      42.595  27.608  34.940  1.00  0.00     0.124 S 
ATOM     93  O   UNL A   1      43.129  27.864  36.273  1.00  0.00    -0.237 OA
ATOM     94  O   UNL A   1      42.796  28.669  33.957  1.00  0.00    -0.237 OA
ATOM     95  O   UNL A   1      41.258  27.012  34.924  1.00  0.00    -0.744 OA
ENDBRANCH  88  92
ENDBRANCH  62  85
ENDBRANCH  36  37
ENDBRANCH  29  31
ENDBRANCH  28  29
ENDBRANCH  27  28
ENDBRANCH   1  27
TORSDOF 19
ENDMDL
MODEL 3
REMARK VINA RESULT:     -11.5      4.082      9.061
REMARK SMILES C[N@@H+]1CCN(C(=O)c2cnn3c2CCCC3)C[C@@H]1C(=O)OCCOCCOC(=O)c1ccc(-c2c3nc(c(-c4cc(S(=O)(=O)[O-])ccc4F)c4ccc([nH]4)c(-c4cc(S(=O)(=O)[O-])ccc4F)c4nc(c(-c5cc(S(=O)(=O)[O-])ccc5F)c5ccc2[nH]5)C=C4)C=C3)cc1
REMARK SMILES IDX 25 1 24 2 23 3 22 4 21 5 19 6 20 7 18 8 1 9 2 10 3 11 4 13
REMARK SMILES IDX 17 14 5 15 6 16 7 17 8 18 9 19 12 20 10 21 11 22 13 23 16 24
REMARK SMILES IDX 14 25 15 26 26 27 27 28 28 29 29 30 30 31 31 32 92 33 32 34
REMARK SMILES IDX 91 35 33 36 34 37 35 38 85 39 36 40 90 41 84 42 86 43 37 44
REMARK SMILES IDX 89 45 83 46 82 47 38 49 70 50 50 51 69 52 51 53 54 54 68 55
REMARK SMILES IDX 87 56 52 57 53 58 67 60 88 61 55 62 39 63 40 64 48 65 41 66
REMARK SMILES IDX 47 67 49 68 46 69 42 70 43 71 44 72 45 73 71 74 72 75 80 76
REMARK SMILES IDX 73 77 79 78 81 79 78 80 74 81 75 82 76 83 77 84 56 85 57 86
REMARK SMILES IDX 65 87 58 88 64 89 66 90 63 91 59 92 60 93 61 94 62 95
REMARK H PARENT 2 12 86 48 54 59
REMARK Flexibility Score: inf
ROOT
ATOM      1  C   UNL A   1      39.800  20.734  26.154  1.00  0.00     0.202 C 
ENDROOT
BRANCH   1   2
ATOM      2  O   UNL A   1      38.607  21.505  26.093  1.00  0.00    -0.374 OA
BRANCH   2   3
ATOM      3  C   UNL A   1      37.726  21.318  24.989  1.00  0.00     0.202 C 
BRANCH   3   4
ATOM      4  C   UNL A   1      36.269  21.781  25.113  1.00  0.00     0.261 C 
BRANCH   4   5
ATOM      5  O   UNL A   1      35.803  22.659  24.061  1.00  0.00    -0.459 OA
BRANCH   5   6
ATOM      6  C   UNL A   1      34.448  22.710  23.973  1.00  0.00     0.366 C 
ATOM      7  O   UNL A   1      33.888  22.787  22.886  1.00  0.00    -0.245 OA
BRANCH   6   8
ATOM      8  C   UNL A   1      33.675  22.755  25.300  1.00  0.00     0.314 C 
ATOM      9  C   UNL A   1      32.269  20.724  25.073  1.00  0.00     0.333 C 
ATOM     10  N   UNL A   1      32.313  22.152  25.344  1.00  0.00    -0.323 N 
ATOM     11  C   UNL A   1      31.277  22.892  24.605  1.00  0.00     0.284 C 
ATOM     12  H   UNL A   1      32.066  22.253  26.328  1.00  0.00     0.348 HD
ATOM     13  C   UNL A   1      31.294  24.421  24.804  1.00  0.00     0.181 C 
ATOM     14  C   UNL A   1      33.575  24.257  25.705  1.00  0.00     0.197 C 
ATOM     15  N   UNL A   1      32.644  24.978  24.822  1.00  0.00    -0.326 N 
BRANCH  15  16
ATOM     16  C   UNL A   1      32.949  26.081  24.018  1.00  0.00     0.257 C 
ATOM     17  O   UNL A   1      33.588  25.960  22.973  1.00  0.00    -0.269 OA
BRANCH  16  18
ATOM     18  C   UNL A   1      32.367  27.369  24.364  1.00  0.00     0.081 A 
ATOM     19  C   UNL A   1      31.160  27.993  23.960  1.00  0.00     0.149 A 
ATOM     20  C   UNL A   1      32.849  28.219  25.342  1.00  0.00     0.051 A 
ATOM     21  N   UNL A   1      30.981  29.200  24.509  1.00  0.00    -0.180 NA
ATOM     22  N   UNL A   1      32.013  29.299  25.353  1.00  0.00    -0.269 N 
ATOM     23  C   UNL A   1      33.963  28.081  26.315  1.00  0.00     0.057 C 
ATOM     24  C   UNL A   1      32.180  30.481  26.172  1.00  0.00     0.144 C 
ATOM     25  C   UNL A   1      34.325  29.422  26.956  1.00  0.00     0.008 C 
ATOM     26  C   UNL A   1      33.071  30.196  27.378  1.00  0.00     0.024 C 
ENDBRANCH  16  18
ENDBRANCH  15  16
ENDBRANCH   6   8
ENDBRANCH   5   6
ENDBRANCH   4   5
ENDBRANCH   3   4
ENDBRANCH   2   3
ENDBRANCH   1   2
BRANCH   1  27
ATOM     27  C   UNL A   1      40.772  21.006  27.295  1.00  0.00     0.261 C 
BRANCH  27  28
ATOM     28  O   UNL A   1      40.747  22.375  27.681  1.00  0.00    -0.460 OA
BRANCH  28  29
ATOM     29  C   UNL A   1      41.928  22.843  28.158  1.00  0.00     0.338 C 
ATOM     30  O   UNL A   1      42.809  22.206  28.686  1.00  0.00    -0.246 OA
BRANCH  29  31
ATOM     31  C   UNL A   1      41.909  24.308  28.040  1.00  0.00     0.060 A 
ATOM     32  C   UNL A   1      42.740  24.992  28.919  1.00  0.00     0.016 A 
ATOM     33  C   UNL A   1      40.939  24.971  27.270  1.00  0.00     0.016 A 
ATOM     34  C   UNL A   1      42.441  26.305  29.192  1.00  0.00     0.010 A 
ATOM     35  C   UNL A   1      40.647  26.290  27.536  1.00  0.00     0.010 A 
ATOM     36  C   UNL A   1      41.346  26.916  28.556  1.00  0.00    -0.014 A 
BRANCH  36  37
ATOM     37  C   UNL A   1      41.081  28.297  28.894  1.00  0.00     0.031 A 
ATOM     38  C   UNL A   1      42.111  29.192  28.334  1.00  0.00     0.074 A 
ATOM     39  C   UNL A   1      40.051  28.731  29.641  1.00  0.00     0.049 A 
ATOM     40  N   UNL A   1      43.123  29.674  28.972  1.00  0.00    -0.248 NA
ATOM     41  C   UNL A   1      42.179  29.358  26.876  1.00  0.00     0.031 C 
ATOM     42  C   UNL A   1      38.859  28.010  30.084  1.00  0.00     0.029 A 
ATOM     43  N   UNL A   1      39.852  29.984  30.133  1.00  0.00    -0.354 N 
ATOM     44  C   UNL A   1      43.829  30.415  28.041  1.00  0.00     0.074 A 
ATOM     45  C   UNL A   1      43.333  30.014  26.751  1.00  0.00     0.031 C 
ATOM     46  C   UNL A   1      37.968  28.894  30.599  1.00  0.00     0.029 A 
ATOM     47  C   UNL A   1      38.585  30.211  30.657  1.00  0.00     0.049 A 
ATOM     48  H   UNL A   1      40.551  30.677  30.118  1.00  0.00     0.167 HD
ATOM     49  C   UNL A   1      44.569  31.482  28.441  1.00  0.00     0.034 A 
ATOM     50  C   UNL A   1      38.080  31.406  31.072  1.00  0.00     0.034 A 
ATOM     51  C   UNL A   1      44.836  31.427  29.862  1.00  0.00     0.049 A 
ATOM     52  C   UNL A   1      39.248  32.250  31.438  1.00  0.00     0.074 A 
ATOM     53  C   UNL A   1      45.493  30.538  30.692  1.00  0.00     0.029 A 
ATOM     54  N   UNL A   1      44.047  32.194  30.692  1.00  0.00    -0.354 N 
ATOM     55  N   UNL A   1      40.039  31.973  32.441  1.00  0.00    -0.248 NA
ATOM     56  C   UNL A   1      39.830  33.104  30.414  1.00  0.00     0.031 C 
ATOM     57  C   UNL A   1      44.710  30.495  31.884  1.00  0.00     0.029 A 
ATOM     58  C   UNL A   1      43.664  31.413  31.756  1.00  0.00     0.049 A 
ATOM     59  H   UNL A   1      43.801  33.136  30.546  1.00  0.00     0.167 HD
ATOM     60  C   UNL A   1      41.320  32.231  31.973  1.00  0.00     0.074 A 
ATOM     61  C   UNL A   1      41.121  33.010  30.751  1.00  0.00     0.031 C 
ATOM     62  C   UNL A   1      42.404  31.560  32.466  1.00  0.00     0.034 A 
BRANCH  49  63
ATOM     63  C   UNL A   1      44.693  32.753  27.640  1.00  0.00     0.023 A 
ATOM     64  C   UNL A   1      43.986  33.874  28.107  1.00  0.00     0.031 A 
ATOM     65  C   UNL A   1      45.200  32.844  26.323  1.00  0.00     0.131 A 
ATOM     66  C   UNL A   1      43.723  34.960  27.257  1.00  0.00     0.055 A 
ATOM     67  C   UNL A   1      44.993  33.956  25.505  1.00  0.00     0.041 A 
ATOM     68  F   UNL A   1      45.830  31.834  25.712  1.00  0.00    -0.206 F 
ATOM     69  C   UNL A   1      44.224  35.009  25.959  1.00  0.00     0.022 A 
BRANCH  66  70
ATOM     70  S   UNL A   1      42.562  36.226  27.823  1.00  0.00     0.124 S 
ATOM     71  O   UNL A   1      41.301  35.727  27.289  1.00  0.00    -0.237 OA
ATOM     72  O   UNL A   1      42.724  36.154  29.272  1.00  0.00    -0.237 OA
ATOM     73  O   UNL A   1      43.066  37.448  27.200  1.00  0.00    -0.744 OA
ENDBRANCH  66  70
ENDBRANCH  49  63
BRANCH  50  74
ATOM     74  C   UNL A   1      36.737  31.965  30.734  1.00  0.00     0.023 A 
ATOM     75  C   UNL A   1      35.953  32.700  31.655  1.00  0.00     0.031 A 
ATOM     76  C   UNL A   1      36.315  31.995  29.386  1.00  0.00     0.131 A 
ATOM     77  C   UNL A   1      34.815  33.419  31.212  1.00  0.00     0.055 A 
ATOM     78  C   UNL A   1      35.194  32.709  28.955  1.00  0.00     0.041 A 
ATOM     79  F   UNL A   1      37.030  31.401  28.418  1.00  0.00    -0.206 F 
ATOM     80  C   UNL A   1      34.444  33.433  29.866  1.00  0.00     0.022 A 
BRANCH  77  81
ATOM     81  S   UNL A   1      33.828  34.424  32.375  1.00  0.00     0.124 S 
ATOM     82  O   UNL A   1      33.307  33.416  33.290  1.00  0.00    -0.237 OA
ATOM     83  O   UNL A   1      34.823  35.342  32.918  1.00  0.00    -0.237 OA
ATOM     84  O   UNL A   1      32.822  35.051  31.517  1.00  0.00    -0.744 OA
ENDBRANCH  77  81
ENDBRANCH  50  74
BRANCH  62  85
ATOM     85  C   UNL A   1      42.240  30.775  33.756  1.00  0.00     0.023 A 
ATOM     86  C   UNL A   1      42.027  29.379  33.850  1.00  0.00     0.031 A 
ATOM     87  C   UNL A   1      42.407  31.487  34.958  1.00  0.00     0.131 A 
ATOM     88  C   UNL A   1      41.976  28.757  35.116  1.00  0.00     0.055 A 
ATOM     89  C   UNL A   1      42.381  30.865  36.205  1.00  0.00     0.041 A 
ATOM     90  F   UNL A   1      42.630  32.812  34.939  1.00  0.00    -0.206 F 
ATOM     91  C   UNL A   1      42.159  29.496  36.289  1.00  0.00     0.022 A 
BRANCH  88  92
ATOM     92  S   UNL A   1      41.641  26.970  35.270  1.00  0.00     0.124 S 
ATOM     93  O   UNL A   1      40.577  26.736  34.300  1.00  0.00    -0.237 OA
ATOM     94  O   UNL A   1      42.938  26.377  34.951  1.00  0.00    -0.237 OA
ATOM     95  O   UNL A   1      41.233  26.819  36.668  1.00  0.00    -0.744 OA
ENDBRANCH  88  92
ENDBRANCH  62  85
ENDBRANCH  36  37
ENDBRANCH  29  31
ENDBRANCH  28  29
ENDBRANCH  27  28
ENDBRANCH   1  27
TORSDOF 19
ENDMDL
