MODEL 1
REMARK VINA RESULT:     -11.5      0.000      0.000
REMARK SMILES CCC[C@H]1CCc2c(sc(NC(=O)[C@H]3[C@@H](C(=O)OCCOCCOC(=O)c4ccc(-c5c6nc(c(-c7cc(S(=O)(=O)[O-])ccc7F)c7ccc([nH]7)c(-c7cc(S(=O)(=O)[O-])ccc7F)c7nc(c(-c8cc(S(=O)(=O)[O-])ccc8F)c8ccc5[nH]8)C=C7)C=C6)cc4)[C@H]4CC[C@@H]3O4)c2C(N)=O)C1
REMARK SMILES IDX 20 1 19 2 18 3 16 4 17 5 15 6 14 7 93 8 90 9 92 10 94 11
REMARK SMILES IDX 91 12 12 13 11 14 13 16 10 17 4 18 5 19 99 20 6 21 8 22 7 23
REMARK SMILES IDX 9 24 95 25 3 26 2 27 1 28 96 29 97 30 98 31 21 34 22 35
REMARK SMILES IDX 23 36 24 37 25 38 26 39 27 40 28 41 89 42 29 43 88 44 30 45
REMARK SMILES IDX 31 46 32 47 82 48 33 49 87 50 81 51 83 52 34 53 86 54 80 55
REMARK SMILES IDX 79 56 35 58 67 59 47 60 66 61 48 62 51 63 65 64 84 65 49 66
REMARK SMILES IDX 50 67 64 69 85 70 52 71 36 72 37 73 45 74 38 75 44 76 46 77
REMARK SMILES IDX 43 78 39 79 40 80 41 81 42 82 68 83 69 84 77 85 70 86 76 87
REMARK SMILES IDX 78 88 75 89 71 90 72 91 73 92 74 93 53 94 54 95 62 96 55 97
REMARK SMILES IDX 61 98 63 99 60 100 56 101 57 102 58 103 59 104
REMARK H PARENT 11 15 97 32 97 33 83 57 51 68
REMARK Flexibility Score: inf
ROOT
ATOM      1  C   UNL A   1      33.010  29.176  27.134  1.00  0.00     0.202 C 
ENDROOT
BRANCH   1   2
ATOM      2  C   UNL A   1      33.760  28.818  25.848  1.00  0.00     0.261 C 
BRANCH   2   3
ATOM      3  O   UNL A   1      32.904  28.771  24.711  1.00  0.00    -0.463 OA
BRANCH   3   4
ATOM      4  C   UNL A   1      33.024  27.638  23.978  1.00  0.00     0.312 C 
ATOM      5  O   UNL A   1      33.832  27.447  23.080  1.00  0.00    -0.252 OA
BRANCH   4   6
ATOM      6  C   UNL A   1      31.964  26.670  24.389  1.00  0.00     0.143 C 
ATOM      7  C   UNL A   1      31.321  25.776  23.293  1.00  0.00     0.124 C 
ATOM      8  C   UNL A   1      30.005  26.469  23.205  1.00  0.00     0.132 C 
ATOM      9  C   UNL A   1      30.771  27.514  24.910  1.00  0.00     0.133 C 
ATOM     10  C   UNL A   1      30.132  27.915  22.706  1.00  0.00     0.035 C 
ATOM     11  O   UNL A   1      29.661  26.650  24.595  1.00  0.00    -0.373 OA
ATOM     12  C   UNL A   1      30.418  28.676  23.988  1.00  0.00     0.036 C 
BRANCH   7  13
ATOM     13  C   UNL A   1      31.985  25.324  21.980  1.00  0.00     0.231 C 
ATOM     14  N   UNL A   1      32.712  24.197  21.712  1.00  0.00    -0.317 N 
ATOM     15  H   UNL A   1      33.017  24.164  20.776  1.00  0.00     0.170 HD
ATOM     16  O   UNL A   1      31.882  26.103  21.014  1.00  0.00    -0.274 OA
BRANCH  14  17
ATOM     17  C   UNL A   1      33.120  23.093  22.436  1.00  0.00     0.108 A 
ATOM     18  C   UNL A   1      32.607  19.158  25.337  1.00  0.00    -0.006 C 
ATOM     19  C   UNL A   1      33.898  19.893  25.732  1.00  0.00     0.009 C 
ATOM     20  C   UNL A   1      32.178  19.507  23.854  1.00  0.00     0.050 C 
ATOM     21  C   UNL A   1      33.699  21.373  25.619  1.00  0.00     0.038 C 
ATOM     22  C   UNL A   1      32.632  20.900  23.443  1.00  0.00     0.011 A 
ATOM     23  C   UNL A   1      33.442  21.718  24.206  1.00  0.00    -0.019 A 
ATOM     24  S   UNL A   1      32.264  21.659  21.961  1.00  0.00    -0.122 S 
ATOM     25  C   UNL A   1      34.036  22.768  23.427  1.00  0.00     0.077 A 
BRANCH  18  26
ATOM     26  C   UNL A   1      32.707  17.637  25.631  1.00  0.00     0.004 C 
BRANCH  26  27
ATOM     27  C   UNL A   1      33.161  16.733  24.462  1.00  0.00    -0.003 C 
ATOM     28  C   UNL A   1      34.516  17.072  23.840  1.00  0.00     0.004 C 
ENDBRANCH  26  27
ENDBRANCH  18  26
BRANCH  25  29
ATOM     29  C   UNL A   1      35.330  23.398  23.697  1.00  0.00     0.251 C 
ATOM     30  N   UNL A   1      36.404  22.940  22.972  1.00  0.00    -0.365 N 
ATOM     31  O   UNL A   1      35.489  24.274  24.539  1.00  0.00    -0.269 OA
ATOM     32  H   UNL A   1      36.275  22.236  22.296  1.00  0.00     0.159 HD
ATOM     33  H   UNL A   1      37.300  23.315  23.128  1.00  0.00     0.159 HD
ENDBRANCH  25  29
ENDBRANCH  14  17
ENDBRANCH   7  13
ENDBRANCH   4   6
ENDBRANCH   3   4
ENDBRANCH   2   3
ENDBRANCH   1   2
BRANCH   1  34
ATOM     34  O   UNL A   1      31.908  30.066  27.139  1.00  0.00    -0.374 OA
BRANCH  34  35
ATOM     35  C   UNL A   1      31.867  31.241  26.340  1.00  0.00     0.202 C 
BRANCH  35  36
ATOM     36  C   UNL A   1      31.909  32.686  26.879  1.00  0.00     0.261 C 
BRANCH  36  37
ATOM     37  O   UNL A   1      32.666  32.901  28.070  1.00  0.00    -0.460 OA
BRANCH  37  38
ATOM     38  C   UNL A   1      33.743  33.701  27.886  1.00  0.00     0.338 C 
ATOM     39  O   UNL A   1      33.740  34.908  27.669  1.00  0.00    -0.246 OA
BRANCH  38  40
ATOM     40  C   UNL A   1      34.961  32.949  28.195  1.00  0.00     0.060 A 
ATOM     41  C   UNL A   1      34.818  31.606  28.573  1.00  0.00     0.016 A 
ATOM     42  C   UNL A   1      36.210  33.570  28.198  1.00  0.00     0.016 A 
ATOM     43  C   UNL A   1      35.925  30.874  28.961  1.00  0.00     0.010 A 
ATOM     44  C   UNL A   1      37.319  32.844  28.633  1.00  0.00     0.010 A 
ATOM     45  C   UNL A   1      37.167  31.506  29.044  1.00  0.00    -0.014 A 
BRANCH  45  46
ATOM     46  C   UNL A   1      38.250  30.814  29.769  1.00  0.00     0.031 A 
ATOM     47  C   UNL A   1      38.447  31.145  31.220  1.00  0.00     0.074 A 
ATOM     48  C   UNL A   1      38.979  29.868  29.155  1.00  0.00     0.049 A 
ATOM     49  N   UNL A   1      39.352  30.708  32.052  1.00  0.00    -0.248 NA
ATOM     50  C   UNL A   1      37.492  32.098  31.811  1.00  0.00     0.031 C 
ATOM     51  C   UNL A   1      38.791  29.422  27.774  1.00  0.00     0.029 A 
ATOM     52  N   UNL A   1      40.024  29.113  29.615  1.00  0.00    -0.354 N 
ATOM     53  C   UNL A   1      39.093  31.349  33.258  1.00  0.00     0.074 A 
ATOM     54  C   UNL A   1      37.956  32.216  33.046  1.00  0.00     0.031 C 
ATOM     55  C   UNL A   1      39.705  28.478  27.495  1.00  0.00     0.029 A 
ATOM     56  C   UNL A   1      40.570  28.293  28.657  1.00  0.00     0.049 A 
ATOM     57  H   UNL A   1      40.352  29.154  30.542  1.00  0.00     0.167 HD
ATOM     58  C   UNL A   1      39.757  31.222  34.431  1.00  0.00     0.034 A 
ATOM     59  C   UNL A   1      41.669  27.516  28.713  1.00  0.00     0.034 A 
ATOM     60  C   UNL A   1      40.887  30.344  34.606  1.00  0.00     0.049 A 
ATOM     61  C   UNL A   1      42.449  27.469  30.007  1.00  0.00     0.074 A 
ATOM     62  C   UNL A   1      41.624  30.110  35.751  1.00  0.00     0.029 A 
ATOM     63  N   UNL A   1      41.455  29.571  33.600  1.00  0.00    -0.354 N 
ATOM     64  N   UNL A   1      42.196  28.073  31.147  1.00  0.00    -0.248 NA
ATOM     65  C   UNL A   1      43.655  26.634  30.026  1.00  0.00     0.031 C 
ATOM     66  C   UNL A   1      42.690  29.271  35.418  1.00  0.00     0.029 A 
ATOM     67  C   UNL A   1      42.562  28.898  34.089  1.00  0.00     0.049 A 
ATOM     68  H   UNL A   1      41.120  29.511  32.676  1.00  0.00     0.167 HD
ATOM     69  C   UNL A   1      43.191  27.655  32.028  1.00  0.00     0.074 A 
ATOM     70  C   UNL A   1      44.037  26.740  31.289  1.00  0.00     0.031 C 
ATOM     71  C   UNL A   1      43.388  27.988  33.330  1.00  0.00     0.034 A 
BRANCH  58  72
ATOM     72  C   UNL A   1      39.332  32.101  35.580  1.00  0.00     0.023 A 
ATOM     73  C   UNL A   1      39.857  33.389  35.777  1.00  0.00     0.031 A 
ATOM     74  C   UNL A   1      38.383  31.628  36.505  1.00  0.00     0.131 A 
ATOM     75  C   UNL A   1      39.465  34.140  36.896  1.00  0.00     0.055 A 
ATOM     76  C   UNL A   1      37.939  32.409  37.572  1.00  0.00     0.041 A 
ATOM     77  F   UNL A   1      37.872  30.392  36.387  1.00  0.00    -0.206 F 
ATOM     78  C   UNL A   1      38.488  33.670  37.779  1.00  0.00     0.022 A 
BRANCH  75  79
ATOM     79  S   UNL A   1      40.337  35.689  37.256  1.00  0.00     0.124 S 
ATOM     80  O   UNL A   1      39.712  36.608  36.310  1.00  0.00    -0.237 OA
ATOM     81  O   UNL A   1      40.023  35.908  38.664  1.00  0.00    -0.237 OA
ATOM     82  O   UNL A   1      41.735  35.369  36.972  1.00  0.00    -0.744 OA
ENDBRANCH  75  79
ENDBRANCH  58  72
BRANCH  59  83
ATOM     83  C   UNL A   1      42.136  26.765  27.512  1.00  0.00     0.023 A 
ATOM     84  C   UNL A   1      41.913  25.386  27.391  1.00  0.00     0.031 A 
ATOM     85  C   UNL A   1      42.887  27.400  26.505  1.00  0.00     0.131 A 
ATOM     86  C   UNL A   1      42.490  24.673  26.329  1.00  0.00     0.055 A 
ATOM     87  C   UNL A   1      43.399  26.698  25.412  1.00  0.00     0.041 A 
ATOM     88  F   UNL A   1      43.137  28.717  26.569  1.00  0.00    -0.206 F 
ATOM     89  C   UNL A   1      43.218  25.322  25.329  1.00  0.00     0.022 A 
BRANCH  86  90
ATOM     90  S   UNL A   1      42.385  22.863  26.346  1.00  0.00     0.124 S 
ATOM     91  O   UNL A   1      43.448  22.516  27.284  1.00  0.00    -0.237 OA
ATOM     92  O   UNL A   1      41.020  22.645  26.812  1.00  0.00    -0.237 OA
ATOM     93  O   UNL A   1      42.635  22.495  24.955  1.00  0.00    -0.744 OA
ENDBRANCH  86  90
ENDBRANCH  59  83
BRANCH  71  94
ATOM     94  C   UNL A   1      44.526  27.307  34.050  1.00  0.00     0.023 A 
ATOM     95  C   UNL A   1      44.365  26.067  34.691  1.00  0.00     0.031 A 
ATOM     96  C   UNL A   1      45.796  27.912  34.086  1.00  0.00     0.131 A 
ATOM     97  C   UNL A   1      45.440  25.499  35.390  1.00  0.00     0.055 A 
ATOM     98  C   UNL A   1      46.880  27.307  34.721  1.00  0.00     0.041 A 
ATOM     99  F   UNL A   1      46.005  29.099  33.493  1.00  0.00    -0.206 F 
ATOM    100  C   UNL A   1      46.703  26.100  35.389  1.00  0.00     0.022 A 
BRANCH  97 101
ATOM    101  S   UNL A   1      45.144  24.012  36.385  1.00  0.00     0.124 S 
ATOM    102  O   UNL A   1      46.402  23.288  36.228  1.00  0.00    -0.237 OA
ATOM    103  O   UNL A   1      44.889  24.567  37.709  1.00  0.00    -0.237 OA
ATOM    104  O   UNL A   1      43.987  23.393  35.739  1.00  0.00    -0.744 OA
ENDBRANCH  97 101
ENDBRANCH  71  94
ENDBRANCH  45  46
ENDBRANCH  38  40
ENDBRANCH  37  38
ENDBRANCH  36  37
ENDBRANCH  35  36
ENDBRANCH  34  35
ENDBRANCH   1  34
TORSDOF 22
ENDMDL
MODEL 2
REMARK VINA RESULT:     -11.1      2.517      8.873
REMARK SMILES CCC[C@H]1CCc2c(sc(NC(=O)[C@H]3[C@@H](C(=O)OCCOCCOC(=O)c4ccc(-c5c6nc(c(-c7cc(S(=O)(=O)[O-])ccc7F)c7ccc([nH]7)c(-c7cc(S(=O)(=O)[O-])ccc7F)c7nc(c(-c8cc(S(=O)(=O)[O-])ccc8F)c8ccc5[nH]8)C=C7)C=C6)cc4)[C@H]4CC[C@@H]3O4)c2C(N)=O)C1
REMARK SMILES IDX 20 1 19 2 18 3 16 4 17 5 15 6 14 7 93 8 90 9 92 10 94 11
REMARK SMILES IDX 91 12 12 13 11 14 13 16 10 17 4 18 5 19 99 20 6 21 8 22 7 23
REMARK SMILES IDX 9 24 95 25 3 26 2 27 1 28 96 29 97 30 98 31 21 34 22 35
REMARK SMILES IDX 23 36 24 37 25 38 26 39 27 40 28 41 89 42 29 43 88 44 30 45
REMARK SMILES IDX 31 46 32 47 82 48 33 49 87 50 81 51 83 52 34 53 86 54 80 55
REMARK SMILES IDX 79 56 35 58 67 59 47 60 66 61 48 62 51 63 65 64 84 65 49 66
REMARK SMILES IDX 50 67 64 69 85 70 52 71 36 72 37 73 45 74 38 75 44 76 46 77
REMARK SMILES IDX 43 78 39 79 40 80 41 81 42 82 68 83 69 84 77 85 70 86 76 87
REMARK SMILES IDX 78 88 75 89 71 90 72 91 73 92 74 93 53 94 54 95 62 96 55 97
REMARK SMILES IDX 61 98 63 99 60 100 56 101 57 102 58 103 59 104
REMARK H PARENT 11 15 97 32 97 33 83 57 51 68
REMARK Flexibility Score: inf
ROOT
ATOM      1  C   UNL A   1      40.501  20.408  26.402  1.00  0.00     0.202 C 
ENDROOT
BRANCH   1   2
ATOM      2  C   UNL A   1      39.295  21.265  26.010  1.00  0.00     0.261 C 
BRANCH   2   3
ATOM      3  O   UNL A   1      38.407  20.589  25.127  1.00  0.00    -0.463 OA
BRANCH   3   4
ATOM      4  C   UNL A   1      37.301  21.303  24.804  1.00  0.00     0.312 C 
ATOM      5  O   UNL A   1      36.962  21.628  23.675  1.00  0.00    -0.252 OA
BRANCH   4   6
ATOM      6  C   UNL A   1      36.586  21.696  26.055  1.00  0.00     0.143 C 
ATOM      7  C   UNL A   1      35.032  21.713  26.037  1.00  0.00     0.124 C 
ATOM      8  C   UNL A   1      34.841  23.190  26.013  1.00  0.00     0.132 C 
ATOM      9  C   UNL A   1      36.958  23.176  26.331  1.00  0.00     0.133 C 
ATOM     10  C   UNL A   1      35.394  23.836  24.736  1.00  0.00     0.035 C 
ATOM     11  O   UNL A   1      35.776  23.636  27.017  1.00  0.00    -0.373 OA
ATOM     12  C   UNL A   1      36.853  24.058  25.091  1.00  0.00     0.036 C 
BRANCH   7  13
ATOM     13  C   UNL A   1      34.121  20.854  25.141  1.00  0.00     0.231 C 
ATOM     14  N   UNL A   1      32.944  21.180  24.527  1.00  0.00    -0.317 N 
ATOM     15  H   UNL A   1      32.573  20.429  24.008  1.00  0.00     0.170 HD
ATOM     16  O   UNL A   1      34.477  19.675  24.964  1.00  0.00    -0.274 OA
BRANCH  14  17
ATOM     17  C   UNL A   1      32.148  22.307  24.456  1.00  0.00     0.108 A 
ATOM     18  C   UNL A   1      30.935  26.901  23.192  1.00  0.00    -0.006 C 
ATOM     19  C   UNL A   1      30.429  26.635  24.620  1.00  0.00     0.009 C 
ATOM     20  C   UNL A   1      31.144  25.549  22.396  1.00  0.00     0.050 C 
ATOM     21  C   UNL A   1      31.412  25.781  25.360  1.00  0.00     0.038 C 
ATOM     22  C   UNL A   1      31.496  24.392  23.320  1.00  0.00     0.011 A 
ATOM     23  C   UNL A   1      31.499  24.463  24.700  1.00  0.00    -0.019 A 
ATOM     24  S   UNL A   1      31.893  22.813  22.814  1.00  0.00    -0.122 S 
ATOM     25  C   UNL A   1      31.461  23.162  25.306  1.00  0.00     0.077 A 
BRANCH  18  26
ATOM     26  C   UNL A   1      30.048  27.942  22.460  1.00  0.00     0.004 C 
BRANCH  26  27
ATOM     27  C   UNL A   1      29.268  28.938  23.350  1.00  0.00    -0.003 C 
ATOM     28  C   UNL A   1      30.065  30.132  23.876  1.00  0.00     0.004 C 
ENDBRANCH  26  27
ENDBRANCH  18  26
BRANCH  25  29
ATOM     29  C   UNL A   1      30.864  22.849  26.607  1.00  0.00     0.251 C 
ATOM     30  N   UNL A   1      29.531  22.518  26.611  1.00  0.00    -0.365 N 
ATOM     31  O   UNL A   1      31.486  22.895  27.661  1.00  0.00    -0.269 OA
ATOM     32  H   UNL A   1      29.030  22.481  25.763  1.00  0.00     0.159 HD
ATOM     33  H   UNL A   1      29.075  22.317  27.460  1.00  0.00     0.159 HD
ENDBRANCH  25  29
ENDBRANCH  14  17
ENDBRANCH   7  13
ENDBRANCH   4   6
ENDBRANCH   3   4
ENDBRANCH   2   3
ENDBRANCH   1   2
BRANCH   1  34
ATOM     34  O   UNL A   1      41.767  20.977  26.687  1.00  0.00    -0.374 OA
BRANCH  34  35
ATOM     35  C   UNL A   1      42.938  20.649  25.952  1.00  0.00     0.202 C 
BRANCH  35  36
ATOM     36  C   UNL A   1      43.750  21.632  25.083  1.00  0.00     0.261 C 
BRANCH  36  37
ATOM     37  O   UNL A   1      43.093  22.842  24.705  1.00  0.00    -0.460 OA
BRANCH  37  38
ATOM     38  C   UNL A   1      43.832  23.952  24.940  1.00  0.00     0.338 C 
ATOM     39  O   UNL A   1      44.875  24.278  24.385  1.00  0.00    -0.246 OA
BRANCH  38  40
ATOM     40  C   UNL A   1      43.087  24.847  25.830  1.00  0.00     0.060 A 
ATOM     41  C   UNL A   1      43.448  26.202  25.839  1.00  0.00     0.016 A 
ATOM     42  C   UNL A   1      42.114  24.354  26.698  1.00  0.00     0.016 A 
ATOM     43  C   UNL A   1      42.840  27.075  26.723  1.00  0.00     0.010 A 
ATOM     44  C   UNL A   1      41.534  25.225  27.620  1.00  0.00     0.010 A 
ATOM     45  C   UNL A   1      41.922  26.579  27.650  1.00  0.00    -0.014 A 
BRANCH  45  46
ATOM     46  C   UNL A   1      41.545  27.444  28.783  1.00  0.00     0.031 A 
ATOM     47  C   UNL A   1      42.379  27.374  30.030  1.00  0.00     0.074 A 
ATOM     48  C   UNL A   1      40.530  28.314  28.662  1.00  0.00     0.049 A 
ATOM     49  N   UNL A   1      42.223  27.997  31.166  1.00  0.00    -0.248 NA
ATOM     50  C   UNL A   1      43.549  26.480  29.987  1.00  0.00     0.031 C 
ATOM     51  C   UNL A   1      39.727  28.510  27.454  1.00  0.00     0.029 A 
ATOM     52  N   UNL A   1      40.001  29.196  29.565  1.00  0.00    -0.354 N 
ATOM     53  C   UNL A   1      43.257  27.554  31.982  1.00  0.00     0.074 A 
ATOM     54  C   UNL A   1      44.027  26.599  31.217  1.00  0.00     0.031 C 
ATOM     55  C   UNL A   1      38.795  29.445  27.700  1.00  0.00     0.029 A 
ATOM     56  C   UNL A   1      38.903  29.873  29.092  1.00  0.00     0.049 A 
ATOM     57  H   UNL A   1      40.371  29.331  30.468  1.00  0.00     0.167 HD
ATOM     58  C   UNL A   1      43.528  27.915  33.258  1.00  0.00     0.034 A 
ATOM     59  C   UNL A   1      38.065  30.712  29.733  1.00  0.00     0.034 A 
ATOM     60  C   UNL A   1      42.738  28.874  33.990  1.00  0.00     0.049 A 
ATOM     61  C   UNL A   1      38.335  31.021  31.188  1.00  0.00     0.074 A 
ATOM     62  C   UNL A   1      42.929  29.340  35.277  1.00  0.00     0.029 A 
ATOM     63  N   UNL A   1      41.596  29.498  33.503  1.00  0.00    -0.354 N 
ATOM     64  N   UNL A   1      39.318  30.603  31.954  1.00  0.00    -0.248 NA
ATOM     65  C   UNL A   1      37.388  31.916  31.862  1.00  0.00     0.031 C 
ATOM     66  C   UNL A   1      41.854  30.172  35.601  1.00  0.00     0.029 A 
ATOM     67  C   UNL A   1      41.046  30.308  34.482  1.00  0.00     0.049 A 
ATOM     68  H   UNL A   1      41.232  29.383  32.596  1.00  0.00     0.167 HD
ATOM     69  C   UNL A   1      39.128  31.220  33.188  1.00  0.00     0.074 A 
ATOM     70  C   UNL A   1      37.945  32.046  33.057  1.00  0.00     0.031 C 
ATOM     71  C   UNL A   1      39.864  31.123  34.324  1.00  0.00     0.034 A 
BRANCH  58  72
ATOM     72  C   UNL A   1      44.665  27.219  33.962  1.00  0.00     0.023 A 
ATOM     73  C   UNL A   1      45.976  27.723  33.957  1.00  0.00     0.031 A 
ATOM     74  C   UNL A   1      44.425  26.014  34.648  1.00  0.00     0.131 A 
ATOM     75  C   UNL A   1      47.005  27.002  34.584  1.00  0.00     0.055 A 
ATOM     76  C   UNL A   1      45.436  25.341  35.334  1.00  0.00     0.041 A 
ATOM     77  F   UNL A   1      43.199  25.466  34.658  1.00  0.00    -0.206 F 
ATOM     78  C   UNL A   1      46.738  25.829  35.296  1.00  0.00     0.022 A 
BRANCH  75  79
ATOM     79  S   UNL A   1      48.719  27.548  34.352  1.00  0.00     0.124 S 
ATOM     80  O   UNL A   1      48.991  27.097  32.990  1.00  0.00    -0.237 OA
ATOM     81  O   UNL A   1      48.618  28.992  34.539  1.00  0.00    -0.237 OA
ATOM     82  O   UNL A   1      49.451  26.834  35.396  1.00  0.00    -0.744 OA
ENDBRANCH  75  79
ENDBRANCH  58  72
BRANCH  59  83
ATOM     83  C   UNL A   1      36.871  31.276  29.040  1.00  0.00     0.023 A 
ATOM     84  C   UNL A   1      35.823  30.445  28.616  1.00  0.00     0.031 A 
ATOM     85  C   UNL A   1      36.797  32.644  28.718  1.00  0.00     0.131 A 
ATOM     86  C   UNL A   1      34.784  30.974  27.835  1.00  0.00     0.055 A 
ATOM     87  C   UNL A   1      35.724  33.177  28.001  1.00  0.00     0.041 A 
ATOM     88  F   UNL A   1      37.772  33.486  29.093  1.00  0.00    -0.206 F 
ATOM     89  C   UNL A   1      34.718  32.336  27.538  1.00  0.00     0.022 A 
BRANCH  86  90
ATOM     90  S   UNL A   1      33.587  29.825  27.101  1.00  0.00     0.124 S 
ATOM     91  O   UNL A   1      33.657  28.698  28.024  1.00  0.00    -0.237 OA
ATOM     92  O   UNL A   1      32.357  30.609  27.137  1.00  0.00    -0.237 OA
ATOM     93  O   UNL A   1      34.129  29.577  25.768  1.00  0.00    -0.744 OA
ENDBRANCH  86  90
ENDBRANCH  59  83
BRANCH  71  94
ATOM     94  C   UNL A   1      39.443  31.982  35.493  1.00  0.00     0.023 A 
ATOM     95  C   UNL A   1      40.016  33.241  35.736  1.00  0.00     0.031 A 
ATOM     96  C   UNL A   1      38.442  31.527  36.372  1.00  0.00     0.131 A 
ATOM     97  C   UNL A   1      39.626  33.978  36.864  1.00  0.00     0.055 A 
ATOM     98  C   UNL A   1      38.007  32.297  37.450  1.00  0.00     0.041 A 
ATOM     99  F   UNL A   1      37.863  30.330  36.188  1.00  0.00    -0.206 F 
ATOM    100  C   UNL A   1      38.609  33.524  37.710  1.00  0.00     0.022 A 
BRANCH  97 101
ATOM    101  S   UNL A   1      40.535  35.494  37.271  1.00  0.00     0.124 S 
ATOM    102  O   UNL A   1      41.686  35.405  36.377  1.00  0.00    -0.237 OA
ATOM    103  O   UNL A   1      39.563  36.534  36.956  1.00  0.00    -0.237 OA
ATOM    104  O   UNL A   1      40.839  35.340  38.692  1.00  0.00    -0.744 OA
ENDBRANCH  97 101
ENDBRANCH  71  94
ENDBRANCH  45  46
ENDBRANCH  38  40
ENDBRANCH  37  38
ENDBRANCH  36  37
ENDBRANCH  35  36
ENDBRANCH  34  35
ENDBRANCH   1  34
TORSDOF 22
ENDMDL
MODEL 3
REMARK VINA RESULT:     -10.7      1.180      7.458
REMARK SMILES CCC[C@H]1CCc2c(sc(NC(=O)[C@H]3[C@@H](C(=O)OCCOCCOC(=O)c4ccc(-c5c6nc(c(-c7cc(S(=O)(=O)[O-])ccc7F)c7ccc([nH]7)c(-c7cc(S(=O)(=O)[O-])ccc7F)c7nc(c(-c8cc(S(=O)(=O)[O-])ccc8F)c8ccc5[nH]8)C=C7)C=C6)cc4)[C@H]4CC[C@@H]3O4)c2C(N)=O)C1
REMARK SMILES IDX 20 1 19 2 18 3 16 4 17 5 15 6 14 7 93 8 90 9 92 10 94 11
REMARK SMILES IDX 91 12 12 13 11 14 13 16 10 17 4 18 5 19 99 20 6 21 8 22 7 23
REMARK SMILES IDX 9 24 95 25 3 26 2 27 1 28 96 29 97 30 98 31 21 34 22 35
REMARK SMILES IDX 23 36 24 37 25 38 26 39 27 40 28 41 89 42 29 43 88 44 30 45
REMARK SMILES IDX 31 46 32 47 82 48 33 49 87 50 81 51 83 52 34 53 86 54 80 55
REMARK SMILES IDX 79 56 35 58 67 59 47 60 66 61 48 62 51 63 65 64 84 65 49 66
REMARK SMILES IDX 50 67 64 69 85 70 52 71 36 72 37 73 45 74 38 75 44 76 46 77
REMARK SMILES IDX 43 78 39 79 40 80 41 81 42 82 68 83 69 84 77 85 70 86 76 87
REMARK SMILES IDX 78 88 75 89 71 90 72 91 73 92 74 93 53 94 54 95 62 96 55 97
REMARK SMILES IDX 61 98 63 99 60 100 56 101 57 102 58 103 59 104
REMARK H PARENT 11 15 97 32 97 33 83 57 51 68
REMARK Flexibility Score: inf
ROOT
ATOM      1  C   UNL A   1      33.157  29.260  27.061  1.00  0.00     0.202 C 
ENDROOT
BRANCH   1   2
ATOM      2  C   UNL A   1      33.840  29.026  25.711  1.00  0.00     0.261 C 
BRANCH   2   3
ATOM      3  O   UNL A   1      33.004  29.360  24.609  1.00  0.00    -0.463 OA
BRANCH   3   4
ATOM      4  C   UNL A   1      32.838  28.353  23.717  1.00  0.00     0.312 C 
ATOM      5  O   UNL A   1      33.424  28.236  22.650  1.00  0.00    -0.252 OA
BRANCH   4   6
ATOM      6  C   UNL A   1      31.770  27.432  24.208  1.00  0.00     0.143 C 
ATOM      7  C   UNL A   1      31.137  26.437  23.195  1.00  0.00     0.124 C 
ATOM      8  C   UNL A   1      29.825  27.121  23.024  1.00  0.00     0.132 C 
ATOM      9  C   UNL A   1      30.574  28.324  24.629  1.00  0.00     0.133 C 
ATOM     10  C   UNL A   1      29.963  28.511  22.388  1.00  0.00     0.035 C 
ATOM     11  O   UNL A   1      29.465  27.436  24.385  1.00  0.00    -0.373 OA
ATOM     12  C   UNL A   1      30.235  29.393  23.594  1.00  0.00     0.036 C 
BRANCH   7  13
ATOM     13  C   UNL A   1      31.816  25.857  21.941  1.00  0.00     0.231 C 
ATOM     14  N   UNL A   1      32.563  24.721  21.798  1.00  0.00    -0.317 N 
ATOM     15  H   UNL A   1      32.874  24.593  20.872  1.00  0.00     0.170 HD
ATOM     16  O   UNL A   1      31.706  26.527  20.897  1.00  0.00    -0.274 OA
BRANCH  14  17
ATOM     17  C   UNL A   1      32.985  23.708  22.637  1.00  0.00     0.108 A 
ATOM     18  C   UNL A   1      32.555  19.667  25.404  1.00  0.00    -0.006 C 
ATOM     19  C   UNL A   1      33.503  20.648  26.113  1.00  0.00     0.009 C 
ATOM     20  C   UNL A   1      32.479  19.962  23.851  1.00  0.00     0.050 C 
ATOM     21  C   UNL A   1      33.031  22.054  25.907  1.00  0.00     0.038 C 
ATOM     22  C   UNL A   1      32.720  21.432  23.538  1.00  0.00     0.011 A 
ATOM     23  C   UNL A   1      33.099  22.380  24.468  1.00  0.00    -0.019 A 
ATOM     24  S   UNL A   1      32.615  22.140  21.990  1.00  0.00    -0.122 S 
ATOM     25  C   UNL A   1      33.645  23.555  23.848  1.00  0.00     0.077 A 
BRANCH  18  26
ATOM     26  C   UNL A   1      32.892  18.194  25.758  1.00  0.00     0.004 C 
BRANCH  26  27
ATOM     27  C   UNL A   1      32.848  17.174  24.598  1.00  0.00    -0.003 C 
ATOM     28  C   UNL A   1      33.633  15.879  24.813  1.00  0.00     0.004 C 
ENDBRANCH  26  27
ENDBRANCH  18  26
BRANCH  25  29
ATOM     29  C   UNL A   1      34.652  24.438  24.442  1.00  0.00     0.251 C 
ATOM     30  N   UNL A   1      35.776  23.835  24.955  1.00  0.00    -0.365 N 
ATOM     31  O   UNL A   1      34.521  25.653  24.517  1.00  0.00    -0.269 OA
ATOM     32  H   UNL A   1      35.881  22.858  24.894  1.00  0.00     0.159 HD
ATOM     33  H   UNL A   1      36.475  24.380  25.382  1.00  0.00     0.159 HD
ENDBRANCH  25  29
ENDBRANCH  14  17
ENDBRANCH   7  13
ENDBRANCH   4   6
ENDBRANCH   3   4
ENDBRANCH   2   3
ENDBRANCH   1   2
BRANCH   1  34
ATOM     34  O   UNL A   1      32.503  30.478  27.370  1.00  0.00    -0.374 OA
BRANCH  34  35
ATOM     35  C   UNL A   1      32.938  31.732  26.863  1.00  0.00     0.202 C 
BRANCH  35  36
ATOM     36  C   UNL A   1      32.208  33.077  27.065  1.00  0.00     0.261 C 
BRANCH  36  37
ATOM     37  O   UNL A   1      32.236  33.628  28.381  1.00  0.00    -0.460 OA
BRANCH  37  38
ATOM     38  C   UNL A   1      33.276  34.469  28.590  1.00  0.00     0.338 C 
ATOM     39  O   UNL A   1      33.242  35.694  28.630  1.00  0.00    -0.246 OA
BRANCH  38  40
ATOM     40  C   UNL A   1      34.455  33.690  28.981  1.00  0.00     0.060 A 
ATOM     41  C   UNL A   1      34.262  32.620  29.865  1.00  0.00     0.016 A 
ATOM     42  C   UNL A   1      35.732  34.056  28.557  1.00  0.00     0.016 A 
ATOM     43  C   UNL A   1      35.349  31.907  30.337  1.00  0.00     0.010 A 
ATOM     44  C   UNL A   1      36.831  33.366  29.069  1.00  0.00     0.010 A 
ATOM     45  C   UNL A   1      36.638  32.312  29.983  1.00  0.00    -0.014 A 
BRANCH  45  46
ATOM     46  C   UNL A   1      37.772  31.763  30.749  1.00  0.00     0.031 A 
ATOM     47  C   UNL A   1      38.637  30.733  30.083  1.00  0.00     0.074 A 
ATOM     48  C   UNL A   1      38.052  32.234  31.975  1.00  0.00     0.049 A 
ATOM     49  N   UNL A   1      39.657  30.074  30.562  1.00  0.00    -0.248 NA
ATOM     50  C   UNL A   1      38.307  30.402  28.686  1.00  0.00     0.031 C 
ATOM     51  C   UNL A   1      37.317  33.299  32.658  1.00  0.00     0.029 A 
ATOM     52  N   UNL A   1      39.030  31.876  32.863  1.00  0.00    -0.354 N 
ATOM     53  C   UNL A   1      40.076  29.233  29.537  1.00  0.00     0.074 A 
ATOM     54  C   UNL A   1      39.192  29.455  28.414  1.00  0.00     0.031 C 
ATOM     55  C   UNL A   1      37.865  33.497  33.868  1.00  0.00     0.029 A 
ATOM     56  C   UNL A   1      38.951  32.540  34.063  1.00  0.00     0.049 A 
ATOM     57  H   UNL A   1      39.724  31.207  32.661  1.00  0.00     0.167 HD
ATOM     58  C   UNL A   1      41.105  28.355  29.545  1.00  0.00     0.034 A 
ATOM     59  C   UNL A   1      39.656  32.360  35.197  1.00  0.00     0.034 A 
ATOM     60  C   UNL A   1      41.968  28.163  30.684  1.00  0.00     0.049 A 
ATOM     61  C   UNL A   1      40.735  31.302  35.209  1.00  0.00     0.074 A 
ATOM     62  C   UNL A   1      43.059  27.322  30.803  1.00  0.00     0.029 A 
ATOM     63  N   UNL A   1      41.824  28.807  31.906  1.00  0.00    -0.354 N 
ATOM     64  N   UNL A   1      41.131  30.513  34.234  1.00  0.00    -0.248 NA
ATOM     65  C   UNL A   1      41.465  31.113  36.467  1.00  0.00     0.031 C 
ATOM     66  C   UNL A   1      43.516  27.389  32.121  1.00  0.00     0.029 A 
ATOM     67  C   UNL A   1      42.778  28.346  32.799  1.00  0.00     0.049 A 
ATOM     68  H   UNL A   1      41.146  29.491  32.108  1.00  0.00     0.167 HD
ATOM     69  C   UNL A   1      42.185  29.765  34.754  1.00  0.00     0.074 A 
ATOM     70  C   UNL A   1      42.368  30.208  36.121  1.00  0.00     0.031 C 
ATOM     71  C   UNL A   1      42.939  28.806  34.158  1.00  0.00     0.034 A 
BRANCH  58  72
ATOM     72  C   UNL A   1      41.301  27.487  28.327  1.00  0.00     0.023 A 
ATOM     73  C   UNL A   1      40.911  26.138  28.292  1.00  0.00     0.031 A 
ATOM     74  C   UNL A   1      41.903  28.029  27.176  1.00  0.00     0.131 A 
ATOM     75  C   UNL A   1      41.169  25.365  27.150  1.00  0.00     0.055 A 
ATOM     76  C   UNL A   1      42.087  27.277  26.016  1.00  0.00     0.041 A 
ATOM     77  F   UNL A   1      42.327  29.303  27.162  1.00  0.00    -0.206 F 
ATOM     78  C   UNL A   1      41.729  25.933  26.001  1.00  0.00     0.022 A 
BRANCH  75  79
ATOM     79  S   UNL A   1      40.880  23.576  27.224  1.00  0.00     0.124 S 
ATOM     80  O   UNL A   1      41.523  23.225  28.487  1.00  0.00    -0.237 OA
ATOM     81  O   UNL A   1      39.424  23.491  27.203  1.00  0.00    -0.237 OA
ATOM     82  O   UNL A   1      41.552  23.070  26.029  1.00  0.00    -0.744 OA
ENDBRANCH  75  79
ENDBRANCH  58  72
BRANCH  59  83
ATOM     83  C   UNL A   1      39.341  33.145  36.426  1.00  0.00     0.023 A 
ATOM     84  C   UNL A   1      39.972  34.371  36.680  1.00  0.00     0.031 A 
ATOM     85  C   UNL A   1      38.466  32.641  37.406  1.00  0.00     0.131 A 
ATOM     86  C   UNL A   1      39.776  35.018  37.910  1.00  0.00     0.055 A 
ATOM     87  C   UNL A   1      38.219  33.323  38.598  1.00  0.00     0.041 A 
ATOM     88  F   UNL A   1      37.837  31.469  37.220  1.00  0.00    -0.206 F 
ATOM     89  C   UNL A   1      38.891  34.511  38.865  1.00  0.00     0.022 A 
BRANCH  86  90
ATOM     90  S   UNL A   1      40.798  36.465  38.297  1.00  0.00     0.124 S 
ATOM     91  O   UNL A   1      39.783  37.472  38.590  1.00  0.00    -0.237 OA
ATOM     92  O   UNL A   1      41.577  35.988  39.434  1.00  0.00    -0.237 OA
ATOM     93  O   UNL A   1      41.557  36.683  37.068  1.00  0.00    -0.744 OA
ENDBRANCH  86  90
ENDBRANCH  59  83
BRANCH  71  94
ATOM     94  C   UNL A   1      44.071  28.220  34.967  1.00  0.00     0.023 A 
ATOM     95  C   UNL A   1      43.899  27.080  35.770  1.00  0.00     0.031 A 
ATOM     96  C   UNL A   1      45.345  28.815  34.924  1.00  0.00     0.131 A 
ATOM     97  C   UNL A   1      44.969  26.604  36.543  1.00  0.00     0.055 A 
ATOM     98  C   UNL A   1      46.424  28.293  35.638  1.00  0.00     0.041 A 
ATOM     99  F   UNL A   1      45.564  29.909  34.177  1.00  0.00    -0.206 F 
ATOM    100  C   UNL A   1      46.237  27.190  36.464  1.00  0.00     0.022 A 
BRANCH  97 101
ATOM    101  S   UNL A   1      44.660  25.268  37.729  1.00  0.00     0.124 S 
ATOM    102  O   UNL A   1      43.329  24.817  37.335  1.00  0.00    -0.237 OA
ATOM    103  O   UNL A   1      45.754  24.344  37.451  1.00  0.00    -0.237 OA
ATOM    104  O   UNL A   1      44.730  25.938  39.026  1.00  0.00    -0.744 OA
ENDBRANCH  97 101
ENDBRANCH  71  94
ENDBRANCH  45  46
ENDBRANCH  38  40
ENDBRANCH  37  38
ENDBRANCH  36  37
ENDBRANCH  35  36
ENDBRANCH  34  35
ENDBRANCH   1  34
TORSDOF 22
ENDMDL
