MODEL 1
REMARK VINA RESULT:     -11.0      0.000      0.000
REMARK SMILES O=C(Cn1c(=O)c2c3c(sc2n(Cc2ccc(Cl)cc2Cl)c1=O)CCCC3)OCCOCCOC(=O)c1ccc(-c2c3nc(c(-c4cc(S(=O)(=O)[O-])ccc4F)c4ccc([nH]4)c(-c4cc(S(=O)(=O)[O-])ccc4F)c4nc(c(-c5cc(S(=O)(=O)[O-])ccc5F)c5ccc2[nH]5)C=C4)C=C3)cc1
REMARK SMILES IDX 31 1 30 2 29 3 28 4 2 5 1 6 3 7 4 8 5 9 22 10 6 11 7 12
REMARK SMILES IDX 12 13 23 14 8 15 11 16 9 17 27 18 10 19 24 20 26 21 25 22
REMARK SMILES IDX 13 23 14 24 15 25 20 26 16 27 19 28 21 29 17 30 18 31 32 32
REMARK SMILES IDX 33 33 34 34 35 35 36 36 37 37 38 38 99 39 39 40 98 41 40 42
REMARK SMILES IDX 41 43 42 44 92 45 43 46 97 47 91 48 93 49 44 50 96 51 90 52
REMARK SMILES IDX 89 53 45 55 77 56 57 57 76 58 58 59 61 60 75 61 94 62 59 63
REMARK SMILES IDX 60 64 74 66 95 67 62 68 46 69 47 70 55 71 48 72 54 73 56 74
REMARK SMILES IDX 53 75 49 76 50 77 51 78 52 79 78 80 79 81 87 82 80 83 86 84
REMARK SMILES IDX 88 85 85 86 81 87 82 88 83 89 84 90 63 91 64 92 72 93 65 94
REMARK SMILES IDX 71 95 73 96 70 97 66 98 67 99 68 100 69 101
REMARK H PARENT 93 54 61 65
REMARK Flexibility Score: inf
ROOT
ATOM      1  O   UNL A   1      39.610  34.022  30.320  1.00  0.00    -0.374 OA
ENDROOT
BRANCH   1   2
ATOM      2  C   UNL A   1      38.653  34.055  31.359  1.00  0.00     0.202 C 
BRANCH   2   3
ATOM      3  C   UNL A   1      38.886  33.248  32.635  1.00  0.00     0.261 C 
BRANCH   3   4
ATOM      4  O   UNL A   1      39.044  31.833  32.511  1.00  0.00    -0.462 OA
BRANCH   4   5
ATOM      5  C   UNL A   1      38.165  30.859  32.810  1.00  0.00     0.326 C 
ATOM      6  O   UNL A   1      38.320  30.236  33.866  1.00  0.00    -0.250 OA
BRANCH   5   7
ATOM      7  C   UNL A   1      37.144  30.338  31.807  1.00  0.00     0.253 C 
BRANCH   7   8
ATOM      8  N   UNL A   1      36.148  31.141  31.114  1.00  0.00    -0.248 N 
ATOM      9  C   UNL A   1      35.467  32.057  31.927  1.00  0.00     0.265 A 
ATOM     10  C   UNL A   1      36.241  31.246  29.720  1.00  0.00     0.332 A 
ATOM     11  O   UNL A   1      35.486  32.032  33.160  1.00  0.00    -0.268 OA
ATOM     12  C   UNL A   1      34.831  33.135  31.206  1.00  0.00     0.079 A 
ATOM     13  N   UNL A   1      35.266  32.010  29.072  1.00  0.00    -0.280 N 
ATOM     14  O   UNL A   1      37.121  30.659  29.089  1.00  0.00    -0.247 OA
ATOM     15  C   UNL A   1      34.266  34.372  31.685  1.00  0.00    -0.019 A 
ATOM     16  C   UNL A   1      34.754  33.045  29.839  1.00  0.00     0.113 A 
ATOM     17  C   UNL A   1      33.824  35.147  30.629  1.00  0.00     0.011 A 
ATOM     18  C   UNL A   1      34.138  34.850  33.103  1.00  0.00     0.037 C 
ATOM     19  S   UNL A   1      34.111  34.429  29.133  1.00  0.00    -0.122 S 
ATOM     20  C   UNL A   1      33.212  36.506  30.722  1.00  0.00     0.047 C 
ATOM     21  C   UNL A   1      33.881  36.369  33.163  1.00  0.00     0.005 C 
ATOM     22  C   UNL A   1      32.799  36.807  32.165  1.00  0.00     0.006 C 
BRANCH  13  23
ATOM     23  C   UNL A   1      35.036  31.794  27.623  1.00  0.00     0.165 C 
BRANCH  23  24
ATOM     24  C   UNL A   1      34.102  30.629  27.307  1.00  0.00    -0.009 A 
ATOM     25  C   UNL A   1      34.642  29.340  27.122  1.00  0.00     0.008 A 
ATOM     26  C   UNL A   1      32.703  30.761  27.191  1.00  0.00     0.047 A 
ATOM     27  C   UNL A   1      33.812  28.226  26.929  1.00  0.00     0.021 A 
ATOM     28  C   UNL A   1      31.872  29.638  27.120  1.00  0.00     0.041 A 
ATOM     29  Cl  UNL A   1      31.924  32.292  26.970  1.00  0.00    -0.084 Cl
ATOM     30  C   UNL A   1      32.430  28.374  26.987  1.00  0.00     0.042 A 
ATOM     31  Cl  UNL A   1      31.402  27.004  26.838  1.00  0.00    -0.084 Cl
ENDBRANCH  23  24
ENDBRANCH  13  23
ENDBRANCH   7   8
ENDBRANCH   5   7
ENDBRANCH   4   5
ENDBRANCH   3   4
ENDBRANCH   2   3
ENDBRANCH   1   2
BRANCH   1  32
ATOM     32  C   UNL A   1      40.994  34.168  30.609  1.00  0.00     0.202 C 
BRANCH  32  33
ATOM     33  C   UNL A   1      42.063  34.283  29.516  1.00  0.00     0.261 C 
BRANCH  33  34
ATOM     34  O   UNL A   1      43.088  33.285  29.499  1.00  0.00    -0.460 OA
BRANCH  34  35
ATOM     35  C   UNL A   1      43.824  33.317  28.364  1.00  0.00     0.338 C 
ATOM     36  O   UNL A   1      44.276  34.319  27.813  1.00  0.00    -0.246 OA
BRANCH  35  37
ATOM     37  C   UNL A   1      44.070  31.976  27.837  1.00  0.00     0.060 A 
ATOM     38  C   UNL A   1      43.434  31.559  26.662  1.00  0.00     0.016 A 
ATOM     39  C   UNL A   1      44.721  31.066  28.659  1.00  0.00     0.016 A 
ATOM     40  C   UNL A   1      43.427  30.203  26.317  1.00  0.00     0.010 A 
ATOM     41  C   UNL A   1      44.672  29.716  28.330  1.00  0.00     0.010 A 
ATOM     42  C   UNL A   1      44.027  29.260  27.162  1.00  0.00    -0.014 A 
BRANCH  42  43
ATOM     43  C   UNL A   1      44.051  27.817  26.786  1.00  0.00     0.031 A 
ATOM     44  C   UNL A   1      45.401  27.336  26.366  1.00  0.00     0.074 A 
ATOM     45  C   UNL A   1      43.186  26.897  27.280  1.00  0.00     0.049 A 
ATOM     46  N   UNL A   1      46.327  27.130  27.254  1.00  0.00    -0.248 NA
ATOM     47  C   UNL A   1      45.907  27.381  24.996  1.00  0.00     0.031 C 
ATOM     48  C   UNL A   1      42.412  27.099  28.511  1.00  0.00     0.029 A 
ATOM     49  N   UNL A   1      42.992  25.561  26.980  1.00  0.00    -0.354 N 
ATOM     50  C   UNL A   1      47.539  27.144  26.606  1.00  0.00     0.074 A 
ATOM     51  C   UNL A   1      47.230  27.235  25.195  1.00  0.00     0.031 C 
ATOM     52  C   UNL A   1      41.986  25.899  28.958  1.00  0.00     0.029 A 
ATOM     53  C   UNL A   1      42.330  24.851  27.992  1.00  0.00     0.049 A 
ATOM     54  H   UNL A   1      43.291  25.147  26.138  1.00  0.00     0.167 HD
ATOM     55  C   UNL A   1      48.713  27.147  27.290  1.00  0.00     0.034 A 
ATOM     56  C   UNL A   1      42.645  23.582  28.389  1.00  0.00     0.034 A 
ATOM     57  C   UNL A   1      48.598  27.225  28.720  1.00  0.00     0.049 A 
ATOM     58  C   UNL A   1      44.041  23.750  28.932  1.00  0.00     0.074 A 
ATOM     59  C   UNL A   1      48.635  28.216  29.679  1.00  0.00     0.029 A 
ATOM     60  N   UNL A   1      48.278  26.084  29.421  1.00  0.00    -0.354 N 
ATOM     61  N   UNL A   1      44.370  24.261  30.088  1.00  0.00    -0.248 NA
ATOM     62  C   UNL A   1      45.145  23.628  27.980  1.00  0.00     0.031 C 
ATOM     63  C   UNL A   1      47.865  27.714  30.776  1.00  0.00     0.029 A 
ATOM     64  C   UNL A   1      47.387  26.462  30.396  1.00  0.00     0.049 A 
ATOM     65  H   UNL A   1      48.621  25.177  29.255  1.00  0.00     0.167 HD
ATOM     66  C   UNL A   1      45.662  24.756  29.923  1.00  0.00     0.074 A 
ATOM     67  C   UNL A   1      46.095  24.295  28.618  1.00  0.00     0.031 C 
ATOM     68  C   UNL A   1      46.242  25.659  30.766  1.00  0.00     0.034 A 
BRANCH  55  69
ATOM     69  C   UNL A   1      50.037  26.963  26.678  1.00  0.00     0.023 A 
ATOM     70  C   UNL A   1      50.529  28.038  25.928  1.00  0.00     0.031 A 
ATOM     71  C   UNL A   1      50.716  25.742  26.634  1.00  0.00     0.131 A 
ATOM     72  C   UNL A   1      51.651  27.871  25.117  1.00  0.00     0.055 A 
ATOM     73  C   UNL A   1      51.852  25.583  25.835  1.00  0.00     0.041 A 
ATOM     74  F   UNL A   1      50.263  24.682  27.322  1.00  0.00    -0.206 F 
ATOM     75  C   UNL A   1      52.318  26.647  25.059  1.00  0.00     0.022 A 
BRANCH  72  76
ATOM     76  S   UNL A   1      52.159  29.274  24.094  1.00  0.00     0.124 S 
ATOM     77  O   UNL A   1      53.592  29.038  23.951  1.00  0.00    -0.237 OA
ATOM     78  O   UNL A   1      51.355  29.068  22.892  1.00  0.00    -0.237 OA
ATOM     79  O   UNL A   1      51.791  30.433  24.901  1.00  0.00    -0.744 OA
ENDBRANCH  72  76
ENDBRANCH  55  69
BRANCH  56  80
ATOM     80  C   UNL A   1      42.258  22.424  27.516  1.00  0.00     0.023 A 
ATOM     81  C   UNL A   1      43.267  21.710  26.838  1.00  0.00     0.031 A 
ATOM     82  C   UNL A   1      40.933  22.025  27.250  1.00  0.00     0.131 A 
ATOM     83  C   UNL A   1      42.954  20.603  26.026  1.00  0.00     0.055 A 
ATOM     84  C   UNL A   1      40.624  20.894  26.483  1.00  0.00     0.041 A 
ATOM     85  F   UNL A   1      39.886  22.715  27.723  1.00  0.00    -0.206 F 
ATOM     86  C   UNL A   1      41.639  20.167  25.878  1.00  0.00     0.022 A 
BRANCH  83  87
ATOM     87  S   UNL A   1      44.294  19.723  25.177  1.00  0.00     0.124 S 
ATOM     88  O   UNL A   1      44.068  18.345  25.599  1.00  0.00    -0.237 OA
ATOM     89  O   UNL A   1      44.022  20.015  23.773  1.00  0.00    -0.237 OA
ATOM     90  O   UNL A   1      45.504  20.348  25.710  1.00  0.00    -0.744 OA
ENDBRANCH  83  87
ENDBRANCH  56  80
BRANCH  68  91
ATOM     91  C   UNL A   1      45.490  25.978  32.017  1.00  0.00     0.023 A 
ATOM     92  C   UNL A   1      44.446  26.913  31.981  1.00  0.00     0.031 A 
ATOM     93  C   UNL A   1      45.748  25.310  33.226  1.00  0.00     0.131 A 
ATOM     94  C   UNL A   1      43.665  27.132  33.123  1.00  0.00     0.055 A 
ATOM     95  C   UNL A   1      44.958  25.517  34.358  1.00  0.00     0.041 A 
ATOM     96  F   UNL A   1      46.746  24.415  33.323  1.00  0.00    -0.206 F 
ATOM     97  C   UNL A   1      43.903  26.426  34.307  1.00  0.00     0.022 A 
BRANCH  94  98
ATOM     98  S   UNL A   1      42.276  28.293  33.027  1.00  0.00     0.124 S 
ATOM     99  O   UNL A   1      42.110  28.469  31.589  1.00  0.00    -0.237 OA
ATOM    100  O   UNL A   1      41.206  27.572  33.711  1.00  0.00    -0.237 OA
ATOM    101  O   UNL A   1      42.769  29.471  33.741  1.00  0.00    -0.744 OA
ENDBRANCH  94  98
ENDBRANCH  68  91
ENDBRANCH  42  43
ENDBRANCH  35  37
ENDBRANCH  34  35
ENDBRANCH  33  34
ENDBRANCH  32  33
ENDBRANCH   1  32
TORSDOF 20
ENDMDL
MODEL 2
REMARK VINA RESULT:     -10.9      4.515     12.914
REMARK SMILES O=C(Cn1c(=O)c2c3c(sc2n(Cc2ccc(Cl)cc2Cl)c1=O)CCCC3)OCCOCCOC(=O)c1ccc(-c2c3nc(c(-c4cc(S(=O)(=O)[O-])ccc4F)c4ccc([nH]4)c(-c4cc(S(=O)(=O)[O-])ccc4F)c4nc(c(-c5cc(S(=O)(=O)[O-])ccc5F)c5ccc2[nH]5)C=C4)C=C3)cc1
REMARK SMILES IDX 31 1 30 2 29 3 28 4 2 5 1 6 3 7 4 8 5 9 22 10 6 11 7 12
REMARK SMILES IDX 12 13 23 14 8 15 11 16 9 17 27 18 10 19 24 20 26 21 25 22
REMARK SMILES IDX 13 23 14 24 15 25 20 26 16 27 19 28 21 29 17 30 18 31 32 32
REMARK SMILES IDX 33 33 34 34 35 35 36 36 37 37 38 38 99 39 39 40 98 41 40 42
REMARK SMILES IDX 41 43 42 44 92 45 43 46 97 47 91 48 93 49 44 50 96 51 90 52
REMARK SMILES IDX 89 53 45 55 77 56 57 57 76 58 58 59 61 60 75 61 94 62 59 63
REMARK SMILES IDX 60 64 74 66 95 67 62 68 46 69 47 70 55 71 48 72 54 73 56 74
REMARK SMILES IDX 53 75 49 76 50 77 51 78 52 79 78 80 79 81 87 82 80 83 86 84
REMARK SMILES IDX 88 85 85 86 81 87 82 88 83 89 84 90 63 91 64 92 72 93 65 94
REMARK SMILES IDX 71 95 73 96 70 97 66 98 67 99 68 100 69 101
REMARK H PARENT 93 54 61 65
REMARK Flexibility Score: inf
ROOT
ATOM      1  O   UNL A   1      46.820  27.777  30.647  1.00  0.00    -0.374 OA
ENDROOT
BRANCH   1   2
ATOM      2  C   UNL A   1      45.821  27.735  29.649  1.00  0.00     0.202 C 
BRANCH   2   3
ATOM      3  C   UNL A   1      45.242  26.393  29.205  1.00  0.00     0.261 C 
BRANCH   3   4
ATOM      4  O   UNL A   1      44.032  26.407  28.445  1.00  0.00    -0.462 OA
BRANCH   4   5
ATOM      5  C   UNL A   1      43.866  26.637  27.130  1.00  0.00     0.326 C 
ATOM      6  O   UNL A   1      44.613  27.455  26.581  1.00  0.00    -0.250 OA
BRANCH   5   7
ATOM      7  C   UNL A   1      42.663  26.121  26.351  1.00  0.00     0.253 C 
BRANCH   7   8
ATOM      8  N   UNL A   1      42.354  24.723  26.094  1.00  0.00    -0.248 N 
ATOM      9  C   UNL A   1      43.319  24.037  25.346  1.00  0.00     0.265 A 
ATOM     10  C   UNL A   1      41.408  24.097  26.918  1.00  0.00     0.332 A 
ATOM     11  O   UNL A   1      44.226  24.591  24.718  1.00  0.00    -0.268 OA
ATOM     12  C   UNL A   1      43.258  22.600  25.468  1.00  0.00     0.079 A 
ATOM     13  N   UNL A   1      41.114  22.758  26.646  1.00  0.00    -0.280 N 
ATOM     14  O   UNL A   1      40.833  24.711  27.817  1.00  0.00    -0.247 OA
ATOM     15  C   UNL A   1      44.204  21.588  25.068  1.00  0.00    -0.019 A 
ATOM     16  C   UNL A   1      42.167  22.047  26.089  1.00  0.00     0.113 A 
ATOM     17  C   UNL A   1      43.765  20.332  25.445  1.00  0.00     0.011 A 
ATOM     18  C   UNL A   1      45.511  21.767  24.349  1.00  0.00     0.037 C 
ATOM     19  S   UNL A   1      42.299  20.382  26.274  1.00  0.00    -0.122 S 
ATOM     20  C   UNL A   1      44.484  19.041  25.237  1.00  0.00     0.047 C 
ATOM     21  C   UNL A   1      46.404  20.518  24.488  1.00  0.00     0.005 C 
ATOM     22  C   UNL A   1      45.621  19.222  24.228  1.00  0.00     0.006 C 
BRANCH  13  23
ATOM     23  C   UNL A   1      39.842  22.189  27.152  1.00  0.00     0.165 C 
BRANCH  23  24
ATOM     24  C   UNL A   1      38.656  22.376  26.210  1.00  0.00    -0.009 A 
ATOM     25  C   UNL A   1      37.927  23.583  26.246  1.00  0.00     0.008 A 
ATOM     26  C   UNL A   1      38.237  21.401  25.282  1.00  0.00     0.047 A 
ATOM     27  C   UNL A   1      36.896  23.835  25.331  1.00  0.00     0.021 A 
ATOM     28  C   UNL A   1      37.292  21.699  24.294  1.00  0.00     0.041 A 
ATOM     29  Cl  UNL A   1      38.725  19.743  25.384  1.00  0.00    -0.084 Cl
ATOM     30  C   UNL A   1      36.623  22.915  24.324  1.00  0.00     0.042 A 
ATOM     31  Cl  UNL A   1      35.419  23.250  23.143  1.00  0.00    -0.084 Cl
ENDBRANCH  23  24
ENDBRANCH  13  23
ENDBRANCH   7   8
ENDBRANCH   5   7
ENDBRANCH   4   5
ENDBRANCH   3   4
ENDBRANCH   2   3
ENDBRANCH   1   2
BRANCH   1  32
ATOM     32  C   UNL A   1      46.637  27.095  31.880  1.00  0.00     0.202 C 
BRANCH  32  33
ATOM     33  C   UNL A   1      45.989  27.751  33.105  1.00  0.00     0.261 C 
BRANCH  33  34
ATOM     34  O   UNL A   1      45.009  26.987  33.812  1.00  0.00    -0.460 OA
BRANCH  34  35
ATOM     35  C   UNL A   1      43.958  26.642  33.032  1.00  0.00     0.338 C 
ATOM     36  O   UNL A   1      43.827  25.594  32.403  1.00  0.00    -0.246 OA
BRANCH  35  37
ATOM     37  C   UNL A   1      42.924  27.674  33.025  1.00  0.00     0.060 A 
ATOM     38  C   UNL A   1      41.798  27.543  33.846  1.00  0.00     0.016 A 
ATOM     39  C   UNL A   1      42.962  28.622  32.011  1.00  0.00     0.016 A 
ATOM     40  C   UNL A   1      40.681  28.357  33.632  1.00  0.00     0.010 A 
ATOM     41  C   UNL A   1      41.831  29.398  31.779  1.00  0.00     0.010 A 
ATOM     42  C   UNL A   1      40.676  29.280  32.578  1.00  0.00    -0.014 A 
BRANCH  42  43
ATOM     43  C   UNL A   1      39.500  30.173  32.363  1.00  0.00     0.031 A 
ATOM     44  C   UNL A   1      39.305  31.171  33.458  1.00  0.00     0.074 A 
ATOM     45  C   UNL A   1      39.006  30.485  31.140  1.00  0.00     0.049 A 
ATOM     46  N   UNL A   1      40.087  32.205  33.547  1.00  0.00    -0.248 NA
ATOM     47  C   UNL A   1      38.513  30.934  34.662  1.00  0.00     0.031 C 
ATOM     48  C   UNL A   1      39.776  30.334  29.898  1.00  0.00     0.029 A 
ATOM     49  N   UNL A   1      37.887  31.200  30.753  1.00  0.00    -0.354 N 
ATOM     50  C   UNL A   1      40.002  32.685  34.833  1.00  0.00     0.074 A 
ATOM     51  C   UNL A   1      38.962  31.909  35.474  1.00  0.00     0.031 C 
ATOM     52  C   UNL A   1      39.205  31.091  28.938  1.00  0.00     0.029 A 
ATOM     53  C   UNL A   1      37.957  31.678  29.437  1.00  0.00     0.049 A 
ATOM     54  H   UNL A   1      37.116  31.359  31.345  1.00  0.00     0.167 HD
ATOM     55  C   UNL A   1      40.848  33.644  35.292  1.00  0.00     0.034 A 
ATOM     56  C   UNL A   1      37.531  32.912  29.031  1.00  0.00     0.034 A 
ATOM     57  C   UNL A   1      41.879  34.052  34.379  1.00  0.00     0.049 A 
ATOM     58  C   UNL A   1      38.446  33.837  29.791  1.00  0.00     0.074 A 
ATOM     59  C   UNL A   1      43.201  33.731  34.148  1.00  0.00     0.029 A 
ATOM     60  N   UNL A   1      41.558  34.925  33.365  1.00  0.00    -0.354 N 
ATOM     61  N   UNL A   1      39.693  34.104  29.506  1.00  0.00    -0.248 NA
ATOM     62  C   UNL A   1      38.027  34.234  31.135  1.00  0.00     0.031 C 
ATOM     63  C   UNL A   1      43.431  34.030  32.768  1.00  0.00     0.029 A 
ATOM     64  C   UNL A   1      42.222  34.484  32.246  1.00  0.00     0.049 A 
ATOM     65  H   UNL A   1      40.969  35.710  33.430  1.00  0.00     0.167 HD
ATOM     66  C   UNL A   1      40.281  34.472  30.715  1.00  0.00     0.074 A 
ATOM     67  C   UNL A   1      39.191  34.573  31.667  1.00  0.00     0.031 C 
ATOM     68  C   UNL A   1      41.629  34.498  30.927  1.00  0.00     0.034 A 
BRANCH  55  69
ATOM     69  C   UNL A   1      40.697  34.345  36.575  1.00  0.00     0.023 A 
ATOM     70  C   UNL A   1      41.153  33.664  37.711  1.00  0.00     0.031 A 
ATOM     71  C   UNL A   1      39.962  35.521  36.743  1.00  0.00     0.131 A 
ATOM     72  C   UNL A   1      40.835  34.135  38.985  1.00  0.00     0.055 A 
ATOM     73  C   UNL A   1      39.661  36.002  38.022  1.00  0.00     0.041 A 
ATOM     74  F   UNL A   1      39.488  36.191  35.680  1.00  0.00    -0.206 F 
ATOM     75  C   UNL A   1      40.086  35.300  39.152  1.00  0.00     0.022 A 
BRANCH  72  76
ATOM     76  S   UNL A   1      41.367  33.142  40.400  1.00  0.00     0.124 S 
ATOM     77  O   UNL A   1      40.156  33.106  41.214  1.00  0.00    -0.237 OA
ATOM     78  O   UNL A   1      41.740  31.886  39.755  1.00  0.00    -0.237 OA
ATOM     79  O   UNL A   1      42.475  33.912  40.958  1.00  0.00    -0.744 OA
ENDBRANCH  72  76
ENDBRANCH  55  69
BRANCH  56  80
ATOM     80  C   UNL A   1      36.058  33.170  28.900  1.00  0.00     0.023 A 
ATOM     81  C   UNL A   1      35.461  34.157  29.711  1.00  0.00     0.031 A 
ATOM     82  C   UNL A   1      35.185  32.444  28.066  1.00  0.00     0.131 A 
ATOM     83  C   UNL A   1      34.088  34.451  29.607  1.00  0.00     0.055 A 
ATOM     84  C   UNL A   1      33.829  32.769  27.926  1.00  0.00     0.041 A 
ATOM     85  F   UNL A   1      35.610  31.390  27.356  1.00  0.00    -0.206 F 
ATOM     86  C   UNL A   1      33.276  33.788  28.688  1.00  0.00     0.022 A 
BRANCH  83  87
ATOM     87  S   UNL A   1      33.374  35.730  30.678  1.00  0.00     0.124 S 
ATOM     88  O   UNL A   1      32.060  35.175  30.981  1.00  0.00    -0.237 OA
ATOM     89  O   UNL A   1      34.321  35.776  31.787  1.00  0.00    -0.237 OA
ATOM     90  O   UNL A   1      33.366  36.920  29.827  1.00  0.00    -0.744 OA
ENDBRANCH  83  87
ENDBRANCH  56  80
BRANCH  68  91
ATOM     91  C   UNL A   1      42.493  34.285  29.727  1.00  0.00     0.023 A 
ATOM     92  C   UNL A   1      42.979  33.001  29.439  1.00  0.00     0.031 A 
ATOM     93  C   UNL A   1      42.777  35.325  28.825  1.00  0.00     0.131 A 
ATOM     94  C   UNL A   1      43.694  32.774  28.256  1.00  0.00     0.055 A 
ATOM     95  C   UNL A   1      43.476  35.092  27.639  1.00  0.00     0.041 A 
ATOM     96  F   UNL A   1      42.351  36.578  29.057  1.00  0.00    -0.206 F 
ATOM     97  C   UNL A   1      43.930  33.809  27.345  1.00  0.00     0.022 A 
BRANCH  94  98
ATOM     98  S   UNL A   1      44.248  31.091  27.875  1.00  0.00     0.124 S 
ATOM     99  O   UNL A   1      43.076  30.289  28.211  1.00  0.00    -0.237 OA
ATOM    100  O   UNL A   1      44.580  31.174  26.455  1.00  0.00    -0.237 OA
ATOM    101  O   UNL A   1      45.399  30.904  28.759  1.00  0.00    -0.744 OA
ENDBRANCH  94  98
ENDBRANCH  68  91
ENDBRANCH  42  43
ENDBRANCH  35  37
ENDBRANCH  34  35
ENDBRANCH  33  34
ENDBRANCH  32  33
ENDBRANCH   1  32
TORSDOF 20
ENDMDL
MODEL 3
REMARK VINA RESULT:     -10.5      4.837     13.314
REMARK SMILES O=C(Cn1c(=O)c2c3c(sc2n(Cc2ccc(Cl)cc2Cl)c1=O)CCCC3)OCCOCCOC(=O)c1ccc(-c2c3nc(c(-c4cc(S(=O)(=O)[O-])ccc4F)c4ccc([nH]4)c(-c4cc(S(=O)(=O)[O-])ccc4F)c4nc(c(-c5cc(S(=O)(=O)[O-])ccc5F)c5ccc2[nH]5)C=C4)C=C3)cc1
REMARK SMILES IDX 31 1 30 2 29 3 28 4 2 5 1 6 3 7 4 8 5 9 22 10 6 11 7 12
REMARK SMILES IDX 12 13 23 14 8 15 11 16 9 17 27 18 10 19 24 20 26 21 25 22
REMARK SMILES IDX 13 23 14 24 15 25 20 26 16 27 19 28 21 29 17 30 18 31 32 32
REMARK SMILES IDX 33 33 34 34 35 35 36 36 37 37 38 38 99 39 39 40 98 41 40 42
REMARK SMILES IDX 41 43 42 44 92 45 43 46 97 47 91 48 93 49 44 50 96 51 90 52
REMARK SMILES IDX 89 53 45 55 77 56 57 57 76 58 58 59 61 60 75 61 94 62 59 63
REMARK SMILES IDX 60 64 74 66 95 67 62 68 46 69 47 70 55 71 48 72 54 73 56 74
REMARK SMILES IDX 53 75 49 76 50 77 51 78 52 79 78 80 79 81 87 82 80 83 86 84
REMARK SMILES IDX 88 85 85 86 81 87 82 88 83 89 84 90 63 91 64 92 72 93 65 94
REMARK SMILES IDX 71 95 73 96 70 97 66 98 67 99 68 100 69 101
REMARK H PARENT 93 54 61 65
REMARK Flexibility Score: inf
ROOT
ATOM      1  O   UNL A   1      43.113  26.690  30.595  1.00  0.00    -0.374 OA
ENDROOT
BRANCH   1   2
ATOM      2  C   UNL A   1      42.446  27.371  29.552  1.00  0.00     0.202 C 
BRANCH   2   3
ATOM      3  C   UNL A   1      40.921  27.341  29.476  1.00  0.00     0.261 C 
BRANCH   3   4
ATOM      4  O   UNL A   1      40.291  28.062  28.414  1.00  0.00    -0.462 OA
BRANCH   4   5
ATOM      5  C   UNL A   1      40.495  27.955  27.088  1.00  0.00     0.326 C 
ATOM      6  O   UNL A   1      40.495  28.989  26.412  1.00  0.00    -0.250 OA
BRANCH   5   7
ATOM      7  C   UNL A   1      40.485  26.616  26.362  1.00  0.00     0.253 C 
BRANCH   7   8
ATOM      8  N   UNL A   1      41.581  25.662  26.325  1.00  0.00    -0.248 N 
ATOM      9  C   UNL A   1      41.244  24.367  26.740  1.00  0.00     0.265 A 
ATOM     10  C   UNL A   1      42.692  25.966  25.527  1.00  0.00     0.332 A 
ATOM     11  O   UNL A   1      40.204  24.084  27.339  1.00  0.00    -0.268 OA
ATOM     12  C   UNL A   1      42.158  23.341  26.294  1.00  0.00     0.079 A 
ATOM     13  N   UNL A   1      43.742  25.043  25.517  1.00  0.00    -0.280 N 
ATOM     14  O   UNL A   1      42.757  27.020  24.892  1.00  0.00    -0.247 OA
ATOM     15  C   UNL A   1      42.025  21.906  26.300  1.00  0.00    -0.019 A 
ATOM     16  C   UNL A   1      43.346  23.731  25.729  1.00  0.00     0.113 A 
ATOM     17  C   UNL A   1      43.123  21.311  25.707  1.00  0.00     0.011 A 
ATOM     18  C   UNL A   1      40.893  21.077  26.839  1.00  0.00     0.037 C 
ATOM     19  S   UNL A   1      44.240  22.436  25.140  1.00  0.00    -0.122 S 
ATOM     20  C   UNL A   1      43.334  19.847  25.497  1.00  0.00     0.047 C 
ATOM     21  C   UNL A   1      40.931  19.641  26.280  1.00  0.00     0.005 C 
ATOM     22  C   UNL A   1      42.344  19.041  26.341  1.00  0.00     0.006 C 
BRANCH  13  23
ATOM     23  C   UNL A   1      45.086  25.495  25.085  1.00  0.00     0.165 C 
BRANCH  23  24
ATOM     24  C   UNL A   1      45.836  26.313  26.133  1.00  0.00    -0.009 A 
ATOM     25  C   UNL A   1      46.086  27.680  25.894  1.00  0.00     0.008 A 
ATOM     26  C   UNL A   1      46.299  25.781  27.353  1.00  0.00     0.047 A 
ATOM     27  C   UNL A   1      46.681  28.491  26.871  1.00  0.00     0.021 A 
ATOM     28  C   UNL A   1      46.781  26.611  28.370  1.00  0.00     0.041 A 
ATOM     29  Cl  UNL A   1      46.457  24.078  27.629  1.00  0.00    -0.084 Cl
ATOM     30  C   UNL A   1      46.973  27.963  28.125  1.00  0.00     0.042 A 
ATOM     31  Cl  UNL A   1      47.623  28.967  29.360  1.00  0.00    -0.084 Cl
ENDBRANCH  23  24
ENDBRANCH  13  23
ENDBRANCH   7   8
ENDBRANCH   5   7
ENDBRANCH   4   5
ENDBRANCH   3   4
ENDBRANCH   2   3
ENDBRANCH   1   2
BRANCH   1  32
ATOM     32  C   UNL A   1      44.307  27.220  31.156  1.00  0.00     0.202 C 
BRANCH  32  33
ATOM     33  C   UNL A   1      44.897  26.719  32.479  1.00  0.00     0.261 C 
BRANCH  33  34
ATOM     34  O   UNL A   1      44.000  26.081  33.393  1.00  0.00    -0.460 OA
BRANCH  34  35
ATOM     35  C   UNL A   1      43.830  26.790  34.533  1.00  0.00     0.338 C 
ATOM     36  O   UNL A   1      44.571  26.784  35.515  1.00  0.00    -0.246 OA
BRANCH  35  37
ATOM     37  C   UNL A   1      42.636  27.629  34.480  1.00  0.00     0.060 A 
ATOM     38  C   UNL A   1      41.437  27.110  33.975  1.00  0.00     0.016 A 
ATOM     39  C   UNL A   1      42.792  28.992  34.688  1.00  0.00     0.016 A 
ATOM     40  C   UNL A   1      40.388  27.974  33.647  1.00  0.00     0.010 A 
ATOM     41  C   UNL A   1      41.759  29.847  34.320  1.00  0.00     0.010 A 
ATOM     42  C   UNL A   1      40.545  29.359  33.794  1.00  0.00    -0.014 A 
BRANCH  42  43
ATOM     43  C   UNL A   1      39.420  30.284  33.475  1.00  0.00     0.031 A 
ATOM     44  C   UNL A   1      39.128  31.261  34.567  1.00  0.00     0.074 A 
ATOM     45  C   UNL A   1      39.068  30.635  32.214  1.00  0.00     0.049 A 
ATOM     46  N   UNL A   1      39.918  32.274  34.766  1.00  0.00    -0.248 NA
ATOM     47  C   UNL A   1      38.205  31.017  35.672  1.00  0.00     0.031 C 
ATOM     48  C   UNL A   1      39.965  30.493  31.059  1.00  0.00     0.029 A 
ATOM     49  N   UNL A   1      38.013  31.385  31.726  1.00  0.00    -0.354 N 
ATOM     50  C   UNL A   1      39.704  32.727  36.046  1.00  0.00     0.074 A 
ATOM     51  C   UNL A   1      38.584  31.962  36.552  1.00  0.00     0.031 C 
ATOM     52  C   UNL A   1      39.518  31.285  30.063  1.00  0.00     0.029 A 
ATOM     53  C   UNL A   1      38.236  31.891  30.437  1.00  0.00     0.049 A 
ATOM     54  H   UNL A   1      37.186  31.549  32.235  1.00  0.00     0.167 HD
ATOM     55  C   UNL A   1      40.514  33.656  36.618  1.00  0.00     0.034 A 
ATOM     56  C   UNL A   1      37.883  33.143  30.019  1.00  0.00     0.034 A 
ATOM     57  C   UNL A   1      41.648  34.059  35.832  1.00  0.00     0.049 A 
ATOM     58  C   UNL A   1      38.730  34.028  30.896  1.00  0.00     0.074 A 
ATOM     59  C   UNL A   1      42.980  33.712  35.738  1.00  0.00     0.029 A 
ATOM     60  N   UNL A   1      41.458  34.961  34.811  1.00  0.00    -0.354 N 
ATOM     61  N   UNL A   1      40.005  34.272  30.754  1.00  0.00    -0.248 NA
ATOM     62  C   UNL A   1      38.175  34.405  32.196  1.00  0.00     0.031 C 
ATOM     63  C   UNL A   1      43.364  34.036  34.398  1.00  0.00     0.029 A 
ATOM     64  C   UNL A   1      42.229  34.530  33.760  1.00  0.00     0.049 A 
ATOM     65  H   UNL A   1      40.882  35.759  34.831  1.00  0.00     0.167 HD
ATOM     66  C   UNL A   1      40.466  34.599  32.028  1.00  0.00     0.074 A 
ATOM     67  C   UNL A   1      39.282  34.705  32.859  1.00  0.00     0.031 C 
ATOM     68  C   UNL A   1      41.783  34.588  32.385  1.00  0.00     0.034 A 
BRANCH  55  69
ATOM     69  C   UNL A   1      40.240  34.331  37.894  1.00  0.00     0.023 A 
ATOM     70  C   UNL A   1      40.356  33.547  39.049  1.00  0.00     0.031 A 
ATOM     71  C   UNL A   1      39.688  35.610  38.001  1.00  0.00     0.131 A 
ATOM     72  C   UNL A   1      39.885  34.025  40.271  1.00  0.00     0.055 A 
ATOM     73  C   UNL A   1      39.234  36.095  39.231  1.00  0.00     0.041 A 
ATOM     74  F   UNL A   1      39.539  36.384  36.913  1.00  0.00    -0.206 F 
ATOM     75  C   UNL A   1      39.318  35.295  40.373  1.00  0.00     0.022 A 
BRANCH  72  76
ATOM     76  S   UNL A   1      39.971  32.910  41.694  1.00  0.00     0.124 S 
ATOM     77  O   UNL A   1      39.495  31.655  41.122  1.00  0.00    -0.237 OA
ATOM     78  O   UNL A   1      41.392  32.964  42.024  1.00  0.00    -0.237 OA
ATOM     79  O   UNL A   1      39.079  33.535  42.667  1.00  0.00    -0.744 OA
ENDBRANCH  72  76
ENDBRANCH  55  69
BRANCH  56  80
ATOM     80  C   UNL A   1      36.439  33.440  29.735  1.00  0.00     0.023 A 
ATOM     81  C   UNL A   1      35.707  34.218  30.655  1.00  0.00     0.031 A 
ATOM     82  C   UNL A   1      35.714  32.935  28.638  1.00  0.00     0.131 A 
ATOM     83  C   UNL A   1      34.356  34.541  30.421  1.00  0.00     0.055 A 
ATOM     84  C   UNL A   1      34.385  33.297  28.379  1.00  0.00     0.041 A 
ATOM     85  F   UNL A   1      36.264  32.070  27.774  1.00  0.00    -0.206 F 
ATOM     86  C   UNL A   1      33.703  34.117  29.265  1.00  0.00     0.022 A 
BRANCH  83  87
ATOM     87  S   UNL A   1      33.463  35.544  31.641  1.00  0.00     0.124 S 
ATOM     88  O   UNL A   1      34.550  36.245  32.314  1.00  0.00    -0.237 OA
ATOM     89  O   UNL A   1      32.597  36.365  30.799  1.00  0.00    -0.237 OA
ATOM     90  O   UNL A   1      32.764  34.550  32.454  1.00  0.00    -0.744 OA
ENDBRANCH  83  87
ENDBRANCH  56  80
BRANCH  68  91
ATOM     91  C   UNL A   1      42.769  34.381  31.281  1.00  0.00     0.023 A 
ATOM     92  C   UNL A   1      43.021  33.085  30.807  1.00  0.00     0.031 A 
ATOM     93  C   UNL A   1      43.402  35.460  30.643  1.00  0.00     0.131 A 
ATOM     94  C   UNL A   1      43.856  32.896  29.699  1.00  0.00     0.055 A 
ATOM     95  C   UNL A   1      44.221  35.272  29.527  1.00  0.00     0.041 A 
ATOM     96  F   UNL A   1      43.210  36.723  31.063  1.00  0.00    -0.206 F 
ATOM     97  C   UNL A   1      44.443  33.984  29.044  1.00  0.00     0.022 A 
BRANCH  94  98
ATOM     98  S   UNL A   1      44.106  31.217  29.064  1.00  0.00     0.124 S 
ATOM     99  O   UNL A   1      44.991  31.438  27.927  1.00  0.00    -0.237 OA
ATOM    100  O   UNL A   1      44.694  30.525  30.208  1.00  0.00    -0.237 OA
ATOM    101  O   UNL A   1      42.753  30.780  28.720  1.00  0.00    -0.744 OA
ENDBRANCH  94  98
ENDBRANCH  68  91
ENDBRANCH  42  43
ENDBRANCH  35  37
ENDBRANCH  34  35
ENDBRANCH  33  34
ENDBRANCH  32  33
ENDBRANCH   1  32
TORSDOF 20
ENDMDL
