MODEL 1
REMARK VINA RESULT:     -11.3      0.000      0.000
REMARK SMILES COc1ccc2c(c1)c(CC(=O)OCCOCCOC(=O)c1ccc(-c3c4nc(c(-c5cc(S(=O)(=O)[O-])ccc5F)c5ccc([nH]5)c(-c5cc(S(=O)(=O)[O-])ccc5F)c5nc(c(-c6cc(S(=O)(=O)[O-])ccc6F)c6ccc3[nH]6)C=C5)C=C4)cc1)c(C)n2Cc1ccn(C(F)F)c(=O)c1
REMARK SMILES IDX 15 1 14 2 13 3 11 4 12 5 10 6 9 7 3 8 4 9 8 10 5 11 7 12
REMARK SMILES IDX 6 13 87 14 85 15 86 16 2 17 1 18 88 19 89 20 90 21 98 22
REMARK SMILES IDX 91 23 96 24 92 25 97 26 93 27 94 28 95 29 16 30 17 31 18 32
REMARK SMILES IDX 19 33 20 34 21 35 22 36 23 37 84 38 24 39 83 40 25 41 26 42
REMARK SMILES IDX 27 43 77 44 28 45 82 46 76 47 78 48 29 49 81 50 75 51 74 52
REMARK SMILES IDX 30 54 62 55 42 56 61 57 43 58 46 59 60 60 79 61 44 62 45 63
REMARK SMILES IDX 59 65 80 66 47 67 31 68 32 69 40 70 33 71 39 72 41 73 38 74
REMARK SMILES IDX 34 75 35 76 36 77 37 78 63 79 64 80 72 81 65 82 71 83 73 84
REMARK SMILES IDX 70 85 66 86 67 87 68 88 69 89 48 90 49 91 57 92 50 93 56 94
REMARK SMILES IDX 58 95 55 96 51 97 52 98 53 99 54 100
REMARK H PARENT 78 53 46 64
REMARK Flexibility Score: inf
ROOT
ATOM      1  C   UNL A   1      31.453  28.819  25.481  1.00  0.00     0.202 C 
ENDROOT
BRANCH   1   2
ATOM      2  C   UNL A   1      31.584  27.824  24.312  1.00  0.00     0.261 C 
BRANCH   2   3
ATOM      3  O   UNL A   1      32.653  26.868  24.436  1.00  0.00    -0.463 OA
BRANCH   3   4
ATOM      4  C   UNL A   1      33.510  26.842  23.383  1.00  0.00     0.310 C 
ATOM      5  O   UNL A   1      33.998  27.847  22.867  1.00  0.00    -0.252 OA
BRANCH   4   6
ATOM      6  C   UNL A   1      33.883  25.472  22.855  1.00  0.00     0.160 C 
BRANCH   6   7
ATOM      7  C   UNL A   1      33.735  24.258  23.733  1.00  0.00    -0.008 A 
ATOM      8  C   UNL A   1      36.965  23.007  25.352  1.00  0.00     0.119 A 
ATOM      9  C   UNL A   1      36.376  22.021  26.134  1.00  0.00     0.048 A 
ATOM     10  C   UNL A   1      36.181  23.749  24.468  1.00  0.00     0.057 A 
ATOM     11  C   UNL A   1      34.999  21.749  26.032  1.00  0.00     0.031 A 
ATOM     12  C   UNL A   1      34.783  23.565  24.413  1.00  0.00     0.007 A 
ATOM     13  C   UNL A   1      34.211  22.532  25.160  1.00  0.00     0.049 A 
ATOM     14  N   UNL A   1      32.857  22.500  24.835  1.00  0.00    -0.340 N 
ATOM     15  C   UNL A   1      32.600  23.470  23.873  1.00  0.00     0.020 A 
ATOM     16  C   UNL A   1      31.327  23.604  23.114  1.00  0.00     0.065 C 
BRANCH   8  17
ATOM     17  O   UNL A   1      38.240  23.481  25.503  1.00  0.00    -0.497 OA
ATOM     18  C   UNL A   1      38.483  24.286  26.646  1.00  0.00     0.278 C 
ENDBRANCH   8  17
BRANCH  14  19
ATOM     19  C   UNL A   1      31.919  21.456  25.288  1.00  0.00     0.158 C 
BRANCH  19  20
ATOM     20  C   UNL A   1      32.268  20.045  24.862  1.00  0.00    -0.021 A 
ATOM     21  C   UNL A   1      32.563  19.052  25.876  1.00  0.00     0.024 A 
ATOM     22  C   UNL A   1      32.249  19.641  23.579  1.00  0.00     0.077 A 
ATOM     23  C   UNL A   1      33.041  17.848  25.548  1.00  0.00     0.095 A 
ATOM     24  C   UNL A   1      32.651  18.251  23.198  1.00  0.00     0.255 A 
ATOM     25  N   UNL A   1      33.145  17.467  24.227  1.00  0.00    -0.258 N 
ATOM     26  O   UNL A   1      32.526  17.909  22.027  1.00  0.00    -0.269 OA
BRANCH  25  27
ATOM     27  C   UNL A   1      33.685  16.173  23.892  1.00  0.00     0.451 C 
ATOM     28  F   UNL A   1      34.996  16.102  24.229  1.00  0.00    -0.185 F 
ATOM     29  F   UNL A   1      33.028  15.188  24.547  1.00  0.00    -0.185 F 
ENDBRANCH  25  27
ENDBRANCH  19  20
ENDBRANCH  14  19
ENDBRANCH   6   7
ENDBRANCH   4   6
ENDBRANCH   3   4
ENDBRANCH   2   3
ENDBRANCH   1   2
BRANCH   1  30
ATOM     30  O   UNL A   1      32.607  29.391  26.081  1.00  0.00    -0.374 OA
BRANCH  30  31
ATOM     31  C   UNL A   1      32.406  30.433  27.030  1.00  0.00     0.202 C 
BRANCH  31  32
ATOM     32  C   UNL A   1      33.558  31.390  27.389  1.00  0.00     0.261 C 
BRANCH  32  33
ATOM     33  O   UNL A   1      34.501  30.823  28.292  1.00  0.00    -0.460 OA
BRANCH  33  34
ATOM     34  C   UNL A   1      35.383  31.716  28.815  1.00  0.00     0.338 C 
ATOM     35  O   UNL A   1      35.166  32.591  29.639  1.00  0.00    -0.246 OA
BRANCH  34  36
ATOM     36  C   UNL A   1      36.691  31.125  28.509  1.00  0.00     0.060 A 
ATOM     37  C   UNL A   1      36.757  29.821  28.012  1.00  0.00     0.016 A 
ATOM     38  C   UNL A   1      37.793  31.744  29.119  1.00  0.00     0.016 A 
ATOM     39  C   UNL A   1      37.912  29.090  28.236  1.00  0.00     0.010 A 
ATOM     40  C   UNL A   1      38.939  31.000  29.359  1.00  0.00     0.010 A 
ATOM     41  C   UNL A   1      38.975  29.662  28.961  1.00  0.00    -0.014 A 
BRANCH  41  42
ATOM     42  C   UNL A   1      40.217  28.897  29.049  1.00  0.00     0.031 A 
ATOM     43  C   UNL A   1      40.588  28.651  30.469  1.00  0.00     0.074 A 
ATOM     44  C   UNL A   1      40.880  28.329  28.021  1.00  0.00     0.049 A 
ATOM     45  N   UNL A   1      41.603  29.112  31.124  1.00  0.00    -0.248 NA
ATOM     46  C   UNL A   1      39.573  27.991  31.311  1.00  0.00     0.031 C 
ATOM     47  C   UNL A   1      40.467  28.218  26.621  1.00  0.00     0.029 A 
ATOM     48  N   UNL A   1      42.051  27.628  28.041  1.00  0.00    -0.354 N 
ATOM     49  C   UNL A   1      41.454  28.621  32.421  1.00  0.00     0.074 A 
ATOM     50  C   UNL A   1      40.101  28.144  32.523  1.00  0.00     0.031 C 
ATOM     51  C   UNL A   1      41.244  27.305  25.992  1.00  0.00     0.029 A 
ATOM     52  C   UNL A   1      42.289  26.868  26.902  1.00  0.00     0.049 A 
ATOM     53  H   UNL A   1      42.676  27.658  28.801  1.00  0.00     0.167 HD
ATOM     54  C   UNL A   1      42.522  28.407  33.238  1.00  0.00     0.034 A 
ATOM     55  C   UNL A   1      43.224  25.893  26.745  1.00  0.00     0.034 A 
ATOM     56  C   UNL A   1      43.686  29.106  32.769  1.00  0.00     0.049 A 
ATOM     57  C   UNL A   1      44.237  26.058  27.813  1.00  0.00     0.074 A 
ATOM     58  C   UNL A   1      44.027  30.433  32.614  1.00  0.00     0.029 A 
ATOM     59  N   UNL A   1      44.584  28.388  32.020  1.00  0.00    -0.354 N 
ATOM     60  N   UNL A   1      45.063  27.062  27.887  1.00  0.00    -0.248 NA
ATOM     61  C   UNL A   1      44.021  25.328  29.052  1.00  0.00     0.031 C 
ATOM     62  C   UNL A   1      44.823  30.473  31.435  1.00  0.00     0.029 A 
ATOM     63  C   UNL A   1      44.977  29.167  30.964  1.00  0.00     0.049 A 
ATOM     64  H   UNL A   1      44.893  27.473  32.209  1.00  0.00     0.167 HD
ATOM     65  C   UNL A   1      45.105  27.374  29.237  1.00  0.00     0.074 A 
ATOM     66  C   UNL A   1      44.522  26.215  29.913  1.00  0.00     0.031 C 
ATOM     67  C   UNL A   1      45.341  28.649  29.659  1.00  0.00     0.034 A 
BRANCH  54  68
ATOM     68  C   UNL A   1      42.588  27.263  34.224  1.00  0.00     0.023 A 
ATOM     69  C   UNL A   1      43.302  26.075  33.974  1.00  0.00     0.031 A 
ATOM     70  C   UNL A   1      42.125  27.429  35.543  1.00  0.00     0.131 A 
ATOM     71  C   UNL A   1      43.515  25.113  34.966  1.00  0.00     0.055 A 
ATOM     72  C   UNL A   1      42.401  26.502  36.557  1.00  0.00     0.041 A 
ATOM     73  F   UNL A   1      41.444  28.529  35.902  1.00  0.00    -0.206 F 
ATOM     74  C   UNL A   1      43.099  25.335  36.271  1.00  0.00     0.022 A 
BRANCH  71  75
ATOM     75  S   UNL A   1      44.357  23.558  34.562  1.00  0.00     0.124 S 
ATOM     76  O   UNL A   1      44.469  22.928  35.874  1.00  0.00    -0.237 OA
ATOM     77  O   UNL A   1      43.408  22.940  33.640  1.00  0.00    -0.237 OA
ATOM     78  O   UNL A   1      45.612  23.995  33.956  1.00  0.00    -0.744 OA
ENDBRANCH  71  75
ENDBRANCH  54  68
BRANCH  55  79
ATOM     79  C   UNL A   1      43.012  24.571  26.098  1.00  0.00     0.023 A 
ATOM     80  C   UNL A   1      42.101  23.665  26.671  1.00  0.00     0.031 A 
ATOM     81  C   UNL A   1      43.915  24.061  25.147  1.00  0.00     0.131 A 
ATOM     82  C   UNL A   1      42.138  22.305  26.334  1.00  0.00     0.055 A 
ATOM     83  C   UNL A   1      43.936  22.704  24.795  1.00  0.00     0.041 A 
ATOM     84  F   UNL A   1      44.846  24.855  24.596  1.00  0.00    -0.206 F 
ATOM     85  C   UNL A   1      43.052  21.815  25.402  1.00  0.00     0.022 A 
BRANCH  82  86
ATOM     86  S   UNL A   1      41.062  21.121  27.191  1.00  0.00     0.124 S 
ATOM     87  O   UNL A   1      40.055  20.831  26.173  1.00  0.00    -0.237 OA
ATOM     88  O   UNL A   1      41.990  20.035  27.484  1.00  0.00    -0.237 OA
ATOM     89  O   UNL A   1      40.577  21.873  28.344  1.00  0.00    -0.744 OA
ENDBRANCH  82  86
ENDBRANCH  55  79
BRANCH  67  90
ATOM     90  C   UNL A   1      45.796  29.679  28.647  1.00  0.00     0.023 A 
ATOM     91  C   UNL A   1      47.183  29.829  28.481  1.00  0.00     0.031 A 
ATOM     92  C   UNL A   1      44.962  30.651  28.063  1.00  0.00     0.131 A 
ATOM     93  C   UNL A   1      47.699  30.952  27.825  1.00  0.00     0.055 A 
ATOM     94  C   UNL A   1      45.479  31.728  27.334  1.00  0.00     0.041 A 
ATOM     95  F   UNL A   1      43.637  30.645  28.254  1.00  0.00    -0.206 F 
ATOM     96  C   UNL A   1      46.856  31.895  27.232  1.00  0.00     0.022 A 
BRANCH  93  97
ATOM     97  S   UNL A   1      49.472  31.304  27.893  1.00  0.00     0.124 S 
ATOM     98  O   UNL A   1      49.563  32.230  29.018  1.00  0.00    -0.237 OA
ATOM     99  O   UNL A   1      50.040  29.977  28.126  1.00  0.00    -0.237 OA
ATOM    100  O   UNL A   1      49.770  31.880  26.584  1.00  0.00    -0.744 OA
ENDBRANCH  93  97
ENDBRANCH  67  90
ENDBRANCH  41  42
ENDBRANCH  34  36
ENDBRANCH  33  34
ENDBRANCH  32  33
ENDBRANCH  31  32
ENDBRANCH  30  31
ENDBRANCH   1  30
TORSDOF 22
ENDMDL
MODEL 2
REMARK VINA RESULT:     -10.3      5.554     11.770
REMARK SMILES COc1ccc2c(c1)c(CC(=O)OCCOCCOC(=O)c1ccc(-c3c4nc(c(-c5cc(S(=O)(=O)[O-])ccc5F)c5ccc([nH]5)c(-c5cc(S(=O)(=O)[O-])ccc5F)c5nc(c(-c6cc(S(=O)(=O)[O-])ccc6F)c6ccc3[nH]6)C=C5)C=C4)cc1)c(C)n2Cc1ccn(C(F)F)c(=O)c1
REMARK SMILES IDX 15 1 14 2 13 3 11 4 12 5 10 6 9 7 3 8 4 9 8 10 5 11 7 12
REMARK SMILES IDX 6 13 87 14 85 15 86 16 2 17 1 18 88 19 89 20 90 21 98 22
REMARK SMILES IDX 91 23 96 24 92 25 97 26 93 27 94 28 95 29 16 30 17 31 18 32
REMARK SMILES IDX 19 33 20 34 21 35 22 36 23 37 84 38 24 39 83 40 25 41 26 42
REMARK SMILES IDX 27 43 77 44 28 45 82 46 76 47 78 48 29 49 81 50 75 51 74 52
REMARK SMILES IDX 30 54 62 55 42 56 61 57 43 58 46 59 60 60 79 61 44 62 45 63
REMARK SMILES IDX 59 65 80 66 47 67 31 68 32 69 40 70 33 71 39 72 41 73 38 74
REMARK SMILES IDX 34 75 35 76 36 77 37 78 63 79 64 80 72 81 65 82 71 83 73 84
REMARK SMILES IDX 70 85 66 86 67 87 68 88 69 89 48 90 49 91 57 92 50 93 56 94
REMARK SMILES IDX 58 95 55 96 51 97 52 98 53 99 54 100
REMARK H PARENT 78 53 46 64
REMARK Flexibility Score: inf
ROOT
ATOM      1  C   UNL A   1      46.364  22.759  24.643  1.00  0.00     0.202 C 
ENDROOT
BRANCH   1   2
ATOM      2  C   UNL A   1      46.261  24.039  25.493  1.00  0.00     0.261 C 
BRANCH   2   3
ATOM      3  O   UNL A   1      47.394  24.307  26.340  1.00  0.00    -0.463 OA
BRANCH   3   4
ATOM      4  C   UNL A   1      48.163  25.352  25.938  1.00  0.00     0.310 C 
ATOM      5  O   UNL A   1      48.924  25.315  24.972  1.00  0.00    -0.252 OA
BRANCH   4   6
ATOM      6  C   UNL A   1      48.031  26.630  26.740  1.00  0.00     0.160 C 
BRANCH   6   7
ATOM      7  C   UNL A   1      47.482  26.589  28.142  1.00  0.00    -0.008 A 
ATOM      8  C   UNL A   1      49.958  25.485  30.838  1.00  0.00     0.119 A 
ATOM      9  C   UNL A   1      49.121  25.714  31.922  1.00  0.00     0.048 A 
ATOM     10  C   UNL A   1      49.478  25.675  29.541  1.00  0.00     0.057 A 
ATOM     11  C   UNL A   1      47.786  26.117  31.728  1.00  0.00     0.031 A 
ATOM     12  C   UNL A   1      48.176  26.171  29.318  1.00  0.00     0.007 A 
ATOM     13  C   UNL A   1      47.325  26.340  30.412  1.00  0.00     0.049 A 
ATOM     14  N   UNL A   1      46.085  26.721  29.904  1.00  0.00    -0.340 N 
ATOM     15  C   UNL A   1      46.154  26.748  28.516  1.00  0.00     0.020 A 
ATOM     16  C   UNL A   1      44.986  26.893  27.605  1.00  0.00     0.065 C 
BRANCH   8  17
ATOM     17  O   UNL A   1      51.309  25.279  30.911  1.00  0.00    -0.497 OA
ATOM     18  C   UNL A   1      52.133  26.417  30.715  1.00  0.00     0.278 C 
ENDBRANCH   8  17
BRANCH  14  19
ATOM     19  C   UNL A   1      44.860  26.852  30.716  1.00  0.00     0.158 C 
BRANCH  19  20
ATOM     20  C   UNL A   1      44.731  25.861  31.855  1.00  0.00    -0.021 A 
ATOM     21  C   UNL A   1      44.629  24.447  31.554  1.00  0.00     0.024 A 
ATOM     22  C   UNL A   1      44.778  26.223  33.150  1.00  0.00     0.077 A 
ATOM     23  C   UNL A   1      44.342  23.556  32.507  1.00  0.00     0.095 A 
ATOM     24  C   UNL A   1      44.594  25.217  34.242  1.00  0.00     0.255 A 
ATOM     25  N   UNL A   1      44.262  23.938  33.829  1.00  0.00    -0.258 N 
ATOM     26  O   UNL A   1      44.738  25.586  35.403  1.00  0.00    -0.269 OA
BRANCH  25  27
ATOM     27  C   UNL A   1      43.928  22.966  34.841  1.00  0.00     0.451 C 
ATOM     28  F   UNL A   1      42.662  23.159  35.285  1.00  0.00    -0.185 F 
ATOM     29  F   UNL A   1      44.016  21.707  34.353  1.00  0.00    -0.185 F 
ENDBRANCH  25  27
ENDBRANCH  19  20
ENDBRANCH  14  19
ENDBRANCH   6   7
ENDBRANCH   4   6
ENDBRANCH   3   4
ENDBRANCH   2   3
ENDBRANCH   1   2
BRANCH   1  30
ATOM     30  O   UNL A   1      45.463  21.679  24.845  1.00  0.00    -0.374 OA
BRANCH  30  31
ATOM     31  C   UNL A   1      44.543  21.784  25.926  1.00  0.00     0.202 C 
BRANCH  31  32
ATOM     32  C   UNL A   1      43.039  21.976  25.653  1.00  0.00     0.261 C 
BRANCH  32  33
ATOM     33  O   UNL A   1      42.462  23.042  26.398  1.00  0.00    -0.460 OA
BRANCH  33  34
ATOM     34  C   UNL A   1      41.110  22.973  26.518  1.00  0.00     0.338 C 
ATOM     35  O   UNL A   1      40.375  22.045  26.215  1.00  0.00    -0.246 OA
BRANCH  34  36
ATOM     36  C   UNL A   1      40.795  24.048  27.465  1.00  0.00     0.060 A 
ATOM     37  C   UNL A   1      39.747  24.929  27.181  1.00  0.00     0.016 A 
ATOM     38  C   UNL A   1      41.814  24.375  28.373  1.00  0.00     0.016 A 
ATOM     39  C   UNL A   1      39.788  26.199  27.732  1.00  0.00     0.010 A 
ATOM     40  C   UNL A   1      41.861  25.656  28.904  1.00  0.00     0.010 A 
ATOM     41  C   UNL A   1      40.877  26.578  28.542  1.00  0.00    -0.014 A 
BRANCH  41  42
ATOM     42  C   UNL A   1      40.801  27.878  29.204  1.00  0.00     0.031 A 
ATOM     43  C   UNL A   1      41.785  28.829  28.618  1.00  0.00     0.074 A 
ATOM     44  C   UNL A   1      39.876  28.262  30.108  1.00  0.00     0.049 A 
ATOM     45  N   UNL A   1      42.829  29.347  29.176  1.00  0.00    -0.248 NA
ATOM     46  C   UNL A   1      41.709  29.042  27.161  1.00  0.00     0.031 C 
ATOM     47  C   UNL A   1      38.672  27.550  30.537  1.00  0.00     0.029 A 
ATOM     48  N   UNL A   1      39.772  29.449  30.773  1.00  0.00    -0.354 N 
ATOM     49  C   UNL A   1      43.427  30.122  28.183  1.00  0.00     0.074 A 
ATOM     50  C   UNL A   1      42.833  29.716  26.937  1.00  0.00     0.031 C 
ATOM     51  C   UNL A   1      37.853  28.403  31.197  1.00  0.00     0.029 A 
ATOM     52  C   UNL A   1      38.529  29.680  31.352  1.00  0.00     0.049 A 
ATOM     53  H   UNL A   1      40.516  30.090  30.837  1.00  0.00     0.167 HD
ATOM     54  C   UNL A   1      44.182  31.216  28.478  1.00  0.00     0.034 A 
ATOM     55  C   UNL A   1      38.060  30.855  31.849  1.00  0.00     0.034 A 
ATOM     56  C   UNL A   1      44.596  31.209  29.853  1.00  0.00     0.049 A 
ATOM     57  C   UNL A   1      39.220  31.747  32.081  1.00  0.00     0.074 A 
ATOM     58  C   UNL A   1      45.407  30.400  30.620  1.00  0.00     0.029 A 
ATOM     59  N   UNL A   1      43.845  31.946  30.734  1.00  0.00    -0.354 N 
ATOM     60  N   UNL A   1      40.129  31.540  32.990  1.00  0.00    -0.248 NA
ATOM     61  C   UNL A   1      39.608  32.630  30.993  1.00  0.00     0.031 C 
ATOM     62  C   UNL A   1      44.790  30.368  31.902  1.00  0.00     0.029 A 
ATOM     63  C   UNL A   1      43.670  31.203  31.871  1.00  0.00     0.049 A 
ATOM     64  H   UNL A   1      43.494  32.852  30.576  1.00  0.00     0.167 HD
ATOM     65  C   UNL A   1      41.321  31.874  32.367  1.00  0.00     0.074 A 
ATOM     66  C   UNL A   1      40.929  32.628  31.177  1.00  0.00     0.031 C 
ATOM     67  C   UNL A   1      42.493  31.269  32.715  1.00  0.00     0.034 A 
BRANCH  54  68
ATOM     68  C   UNL A   1      44.203  32.458  27.617  1.00  0.00     0.023 A 
ATOM     69  C   UNL A   1      43.609  33.674  28.009  1.00  0.00     0.031 A 
ATOM     70  C   UNL A   1      45.023  32.522  26.474  1.00  0.00     0.131 A 
ATOM     71  C   UNL A   1      43.803  34.860  27.295  1.00  0.00     0.055 A 
ATOM     72  C   UNL A   1      45.279  33.724  25.801  1.00  0.00     0.041 A 
ATOM     73  F   UNL A   1      45.653  31.429  26.015  1.00  0.00    -0.206 F 
ATOM     74  C   UNL A   1      44.666  34.903  26.209  1.00  0.00     0.022 A 
BRANCH  71  75
ATOM     75  S   UNL A   1      42.935  36.374  27.790  1.00  0.00     0.124 S 
ATOM     76  O   UNL A   1      44.010  37.151  28.397  1.00  0.00    -0.237 OA
ATOM     77  O   UNL A   1      42.445  36.866  26.504  1.00  0.00    -0.237 OA
ATOM     78  O   UNL A   1      41.901  35.895  28.702  1.00  0.00    -0.744 OA
ENDBRANCH  71  75
ENDBRANCH  54  68
BRANCH  55  79
ATOM     79  C   UNL A   1      36.702  31.419  31.631  1.00  0.00     0.023 A 
ATOM     80  C   UNL A   1      36.211  31.538  30.317  1.00  0.00     0.031 A 
ATOM     81  C   UNL A   1      36.031  32.140  32.636  1.00  0.00     0.131 A 
ATOM     82  C   UNL A   1      35.129  32.382  30.032  1.00  0.00     0.055 A 
ATOM     83  C   UNL A   1      34.934  32.967  32.352  1.00  0.00     0.041 A 
ATOM     84  F   UNL A   1      36.473  32.115  33.903  1.00  0.00    -0.206 F 
ATOM     85  C   UNL A   1      34.488  33.102  31.040  1.00  0.00     0.022 A 
BRANCH  82  86
ATOM     86  S   UNL A   1      34.603  32.645  28.315  1.00  0.00     0.124 S 
ATOM     87  O   UNL A   1      33.992  31.360  27.983  1.00  0.00    -0.237 OA
ATOM     88  O   UNL A   1      33.677  33.763  28.457  1.00  0.00    -0.237 OA
ATOM     89  O   UNL A   1      35.851  32.936  27.616  1.00  0.00    -0.744 OA
ENDBRANCH  82  86
ENDBRANCH  55  79
BRANCH  67  90
ATOM     90  C   UNL A   1      42.524  30.400  33.955  1.00  0.00     0.023 A 
ATOM     91  C   UNL A   1      43.119  30.957  35.100  1.00  0.00     0.031 A 
ATOM     92  C   UNL A   1      42.241  29.021  33.974  1.00  0.00     0.131 A 
ATOM     93  C   UNL A   1      43.481  30.140  36.176  1.00  0.00     0.055 A 
ATOM     94  C   UNL A   1      42.528  28.222  35.087  1.00  0.00     0.041 A 
ATOM     95  F   UNL A   1      41.769  28.387  32.894  1.00  0.00    -0.206 F 
ATOM     96  C   UNL A   1      43.173  28.777  36.187  1.00  0.00     0.022 A 
BRANCH  93  97
ATOM     97  S   UNL A   1      44.527  30.796  37.498  1.00  0.00     0.124 S 
ATOM     98  O   UNL A   1      45.810  30.968  36.825  1.00  0.00    -0.237 OA
ATOM     99  O   UNL A   1      43.833  32.035  37.851  1.00  0.00    -0.237 OA
ATOM    100  O   UNL A   1      44.493  29.759  38.525  1.00  0.00    -0.744 OA
ENDBRANCH  93  97
ENDBRANCH  67  90
ENDBRANCH  41  42
ENDBRANCH  34  36
ENDBRANCH  33  34
ENDBRANCH  32  33
ENDBRANCH  31  32
ENDBRANCH  30  31
ENDBRANCH   1  30
TORSDOF 22
ENDMDL
MODEL 3
REMARK VINA RESULT:     -10.3      4.210      9.444
REMARK SMILES COc1ccc2c(c1)c(CC(=O)OCCOCCOC(=O)c1ccc(-c3c4nc(c(-c5cc(S(=O)(=O)[O-])ccc5F)c5ccc([nH]5)c(-c5cc(S(=O)(=O)[O-])ccc5F)c5nc(c(-c6cc(S(=O)(=O)[O-])ccc6F)c6ccc3[nH]6)C=C5)C=C4)cc1)c(C)n2Cc1ccn(C(F)F)c(=O)c1
REMARK SMILES IDX 15 1 14 2 13 3 11 4 12 5 10 6 9 7 3 8 4 9 8 10 5 11 7 12
REMARK SMILES IDX 6 13 87 14 85 15 86 16 2 17 1 18 88 19 89 20 90 21 98 22
REMARK SMILES IDX 91 23 96 24 92 25 97 26 93 27 94 28 95 29 16 30 17 31 18 32
REMARK SMILES IDX 19 33 20 34 21 35 22 36 23 37 84 38 24 39 83 40 25 41 26 42
REMARK SMILES IDX 27 43 77 44 28 45 82 46 76 47 78 48 29 49 81 50 75 51 74 52
REMARK SMILES IDX 30 54 62 55 42 56 61 57 43 58 46 59 60 60 79 61 44 62 45 63
REMARK SMILES IDX 59 65 80 66 47 67 31 68 32 69 40 70 33 71 39 72 41 73 38 74
REMARK SMILES IDX 34 75 35 76 36 77 37 78 63 79 64 80 72 81 65 82 71 83 73 84
REMARK SMILES IDX 70 85 66 86 67 87 68 88 69 89 48 90 49 91 57 92 50 93 56 94
REMARK SMILES IDX 58 95 55 96 51 97 52 98 53 99 54 100
REMARK H PARENT 78 53 46 64
REMARK Flexibility Score: inf
ROOT
ATOM      1  C   UNL A   1      35.599  22.058  25.759  1.00  0.00     0.202 C 
ENDROOT
BRANCH   1   2
ATOM      2  C   UNL A   1      34.812  22.084  27.082  1.00  0.00     0.261 C 
BRANCH   2   3
ATOM      3  O   UNL A   1      33.940  23.216  27.257  1.00  0.00    -0.463 OA
BRANCH   3   4
ATOM      4  C   UNL A   1      32.673  22.900  27.628  1.00  0.00     0.310 C 
ATOM      5  O   UNL A   1      32.393  22.032  28.455  1.00  0.00    -0.252 OA
BRANCH   4   6
ATOM      6  C   UNL A   1      31.563  23.701  26.980  1.00  0.00     0.160 C 
BRANCH   6   7
ATOM      7  C   UNL A   1      31.825  24.461  25.706  1.00  0.00    -0.008 A 
ATOM      8  C   UNL A   1      32.632  22.306  22.652  1.00  0.00     0.119 A 
ATOM      9  C   UNL A   1      32.662  23.346  21.731  1.00  0.00     0.048 A 
ATOM     10  C   UNL A   1      32.436  22.587  24.006  1.00  0.00     0.057 A 
ATOM     11  C   UNL A   1      32.517  24.682  22.150  1.00  0.00     0.031 A 
ATOM     12  C   UNL A   1      32.192  23.906  24.442  1.00  0.00     0.007 A 
ATOM     13  C   UNL A   1      32.284  24.948  23.517  1.00  0.00     0.049 A 
ATOM     14  N   UNL A   1      32.116  26.135  24.226  1.00  0.00    -0.340 N 
ATOM     15  C   UNL A   1      31.963  25.837  25.575  1.00  0.00     0.020 A 
ATOM     16  C   UNL A   1      31.979  26.836  26.678  1.00  0.00     0.065 C 
BRANCH   8  17
ATOM     17  O   UNL A   1      32.572  20.975  22.341  1.00  0.00    -0.497 OA
ATOM     18  C   UNL A   1      32.348  20.084  23.422  1.00  0.00     0.278 C 
ENDBRANCH   8  17
BRANCH  14  19
ATOM     19  C   UNL A   1      32.296  27.480  23.648  1.00  0.00     0.158 C 
BRANCH  19  20
ATOM     20  C   UNL A   1      31.027  28.149  23.162  1.00  0.00    -0.021 A 
ATOM     21  C   UNL A   1      31.118  29.198  22.164  1.00  0.00     0.024 A 
ATOM     22  C   UNL A   1      29.799  27.768  23.558  1.00  0.00     0.077 A 
ATOM     23  C   UNL A   1      30.052  29.931  21.832  1.00  0.00     0.095 A 
ATOM     24  C   UNL A   1      28.576  28.491  23.090  1.00  0.00     0.255 A 
ATOM     25  N   UNL A   1      28.804  29.628  22.332  1.00  0.00    -0.258 N 
ATOM     26  O   UNL A   1      27.478  28.045  23.409  1.00  0.00    -0.269 OA
BRANCH  25  27
ATOM     27  C   UNL A   1      27.669  30.445  21.981  1.00  0.00     0.451 C 
ATOM     28  F   UNL A   1      27.436  31.373  22.942  1.00  0.00    -0.185 F 
ATOM     29  F   UNL A   1      27.881  31.093  20.812  1.00  0.00    -0.185 F 
ENDBRANCH  25  27
ENDBRANCH  19  20
ENDBRANCH  14  19
ENDBRANCH   6   7
ENDBRANCH   4   6
ENDBRANCH   3   4
ENDBRANCH   2   3
ENDBRANCH   1   2
BRANCH   1  30
ATOM     30  O   UNL A   1      36.826  21.346  25.658  1.00  0.00    -0.374 OA
BRANCH  30  31
ATOM     31  C   UNL A   1      38.003  22.101  25.390  1.00  0.00     0.202 C 
BRANCH  31  32
ATOM     32  C   UNL A   1      39.266  21.901  26.248  1.00  0.00     0.261 C 
BRANCH  32  33
ATOM     33  O   UNL A   1      39.764  23.111  26.808  1.00  0.00    -0.460 OA
BRANCH  33  34
ATOM     34  C   UNL A   1      41.090  23.085  27.107  1.00  0.00     0.338 C 
ATOM     35  O   UNL A   1      41.902  22.211  26.845  1.00  0.00    -0.246 OA
BRANCH  34  36
ATOM     36  C   UNL A   1      41.401  24.487  27.408  1.00  0.00     0.060 A 
ATOM     37  C   UNL A   1      42.405  24.785  28.333  1.00  0.00     0.016 A 
ATOM     38  C   UNL A   1      40.404  25.416  27.069  1.00  0.00     0.016 A 
ATOM     39  C   UNL A   1      42.337  25.992  29.011  1.00  0.00     0.010 A 
ATOM     40  C   UNL A   1      40.330  26.612  27.767  1.00  0.00     0.010 A 
ATOM     41  C   UNL A   1      41.266  26.874  28.768  1.00  0.00    -0.014 A 
BRANCH  41  42
ATOM     42  C   UNL A   1      41.319  28.186  29.409  1.00  0.00     0.031 A 
ATOM     43  C   UNL A   1      42.499  28.959  28.936  1.00  0.00     0.074 A 
ATOM     44  C   UNL A   1      40.369  28.730  30.197  1.00  0.00     0.049 A 
ATOM     45  N   UNL A   1      43.541  29.324  29.608  1.00  0.00    -0.248 NA
ATOM     46  C   UNL A   1      42.624  29.147  27.478  1.00  0.00     0.031 C 
ATOM     47  C   UNL A   1      39.027  28.221  30.487  1.00  0.00     0.029 A 
ATOM     48  N   UNL A   1      40.375  29.934  30.838  1.00  0.00    -0.354 N 
ATOM     49  C   UNL A   1      44.362  29.974  28.687  1.00  0.00     0.074 A 
ATOM     50  C   UNL A   1      43.857  29.635  27.383  1.00  0.00     0.031 C 
ATOM     51  C   UNL A   1      38.281  29.207  31.042  1.00  0.00     0.029 A 
ATOM     52  C   UNL A   1      39.126  30.367  31.268  1.00  0.00     0.049 A 
ATOM     53  H   UNL A   1      41.198  30.454  30.985  1.00  0.00     0.167 HD
ATOM     54  C   UNL A   1      45.239  30.945  29.061  1.00  0.00     0.034 A 
ATOM     55  C   UNL A   1      38.792  31.612  31.699  1.00  0.00     0.034 A 
ATOM     56  C   UNL A   1      45.488  30.907  30.476  1.00  0.00     0.049 A 
ATOM     57  C   UNL A   1      40.042  32.320  32.060  1.00  0.00     0.074 A 
ATOM     58  C   UNL A   1      46.070  30.002  31.337  1.00  0.00     0.029 A 
ATOM     59  N   UNL A   1      44.765  31.772  31.259  1.00  0.00    -0.354 N 
ATOM     60  N   UNL A   1      40.798  31.997  33.070  1.00  0.00    -0.248 NA
ATOM     61  C   UNL A   1      40.684  33.107  31.019  1.00  0.00     0.031 C 
ATOM     62  C   UNL A   1      45.313  30.096  32.538  1.00  0.00     0.029 A 
ATOM     63  C   UNL A   1      44.347  31.092  32.372  1.00  0.00     0.049 A 
ATOM     64  H   UNL A   1      44.580  32.717  31.056  1.00  0.00     0.167 HD
ATOM     65  C   UNL A   1      42.091  32.129  32.588  1.00  0.00     0.074 A 
ATOM     66  C   UNL A   1      41.960  32.906  31.355  1.00  0.00     0.031 C 
ATOM     67  C   UNL A   1      43.107  31.359  33.073  1.00  0.00     0.034 A 
BRANCH  54  68
ATOM     68  C   UNL A   1      45.551  32.148  28.201  1.00  0.00     0.023 A 
ATOM     69  C   UNL A   1      46.843  32.429  27.714  1.00  0.00     0.031 A 
ATOM     70  C   UNL A   1      44.513  32.923  27.652  1.00  0.00     0.131 A 
ATOM     71  C   UNL A   1      47.079  33.428  26.766  1.00  0.00     0.055 A 
ATOM     72  C   UNL A   1      44.736  33.874  26.648  1.00  0.00     0.041 A 
ATOM     73  F   UNL A   1      43.237  32.735  28.029  1.00  0.00    -0.206 F 
ATOM     74  C   UNL A   1      46.026  34.133  26.199  1.00  0.00     0.022 A 
BRANCH  71  75
ATOM     75  S   UNL A   1      48.775  33.812  26.248  1.00  0.00     0.124 S 
ATOM     76  O   UNL A   1      49.240  34.656  27.344  1.00  0.00    -0.237 OA
ATOM     77  O   UNL A   1      49.370  32.479  26.178  1.00  0.00    -0.237 OA
ATOM     78  O   UNL A   1      48.598  34.477  24.961  1.00  0.00    -0.744 OA
ENDBRANCH  71  75
ENDBRANCH  54  68
BRANCH  55  79
ATOM     79  C   UNL A   1      37.572  32.373  31.322  1.00  0.00     0.023 A 
ATOM     80  C   UNL A   1      36.750  32.899  32.336  1.00  0.00     0.031 A 
ATOM     81  C   UNL A   1      37.029  32.304  30.025  1.00  0.00     0.131 A 
ATOM     82  C   UNL A   1      35.432  33.286  32.059  1.00  0.00     0.055 A 
ATOM     83  C   UNL A   1      35.717  32.713  29.746  1.00  0.00     0.041 A 
ATOM     84  F   UNL A   1      37.736  31.769  29.018  1.00  0.00    -0.206 F 
ATOM     85  C   UNL A   1      34.906  33.194  30.770  1.00  0.00     0.022 A 
BRANCH  82  86
ATOM     86  S   UNL A   1      34.334  33.818  33.403  1.00  0.00     0.124 S 
ATOM     87  O   UNL A   1      35.129  33.506  34.588  1.00  0.00    -0.237 OA
ATOM     88  O   UNL A   1      34.172  35.238  33.110  1.00  0.00    -0.237 OA
ATOM     89  O   UNL A   1      33.145  32.990  33.220  1.00  0.00    -0.744 OA
ENDBRANCH  82  86
ENDBRANCH  55  79
BRANCH  67  90
ATOM     90  C   UNL A   1      42.861  30.526  34.313  1.00  0.00     0.023 A 
ATOM     91  C   UNL A   1      43.389  31.018  35.519  1.00  0.00     0.031 A 
ATOM     92  C   UNL A   1      42.378  29.203  34.307  1.00  0.00     0.131 A 
ATOM     93  C   UNL A   1      43.494  30.185  36.636  1.00  0.00     0.055 A 
ATOM     94  C   UNL A   1      42.409  28.399  35.452  1.00  0.00     0.041 A 
ATOM     95  F   UNL A   1      41.952  28.617  33.181  1.00  0.00    -0.206 F 
ATOM     96  C   UNL A   1      42.991  28.882  36.619  1.00  0.00     0.022 A 
BRANCH  93  97
ATOM     97  S   UNL A   1      44.458  30.716  38.073  1.00  0.00     0.124 S 
ATOM     98  O   UNL A   1      45.257  31.808  37.525  1.00  0.00    -0.237 OA
ATOM     99  O   UNL A   1      43.411  31.114  39.013  1.00  0.00    -0.237 OA
ATOM    100  O   UNL A   1      45.208  29.523  38.457  1.00  0.00    -0.744 OA
ENDBRANCH  93  97
ENDBRANCH  67  90
ENDBRANCH  41  42
ENDBRANCH  34  36
ENDBRANCH  33  34
ENDBRANCH  32  33
ENDBRANCH  31  32
ENDBRANCH  30  31
ENDBRANCH   1  30
TORSDOF 22
ENDMDL
