MODEL 1
REMARK VINA RESULT:     -10.0      0.000      0.000
REMARK SMILES O=C(CC1=c2ccccc2=NC1)OCCOCCOC(=O)c1ccc(-c2c3nc(c(-c4cc(S(=O)(=O)[O-])ccc4F)c4ccc([nH]4)c(-c4cc(S(=O)(=O)[O-])ccc4F)c4nc(c(-c5cc(S(=O)(=O)[O-])ccc5F)c5ccc2[nH]5)C=C4)C=C3)cc1
REMARK SMILES IDX 17 1 16 2 15 3 14 4 13 5 2 6 1 7 3 8 4 9 5 10 12 11 6 12
REMARK SMILES IDX 10 13 11 14 7 15 9 16 8 17 18 18 19 19 20 20 21 21 22 22
REMARK SMILES IDX 23 23 84 24 24 25 83 26 25 27 26 28 27 29 77 30 28 31 82 32
REMARK SMILES IDX 76 33 78 34 29 35 81 36 75 37 74 38 30 40 62 41 42 42 61 43
REMARK SMILES IDX 43 44 46 45 60 46 79 47 44 48 45 49 59 51 80 52 47 53 31 54
REMARK SMILES IDX 32 55 40 56 33 57 39 58 41 59 38 60 34 61 35 62 36 63 37 64
REMARK SMILES IDX 63 65 64 66 72 67 65 68 71 69 73 70 70 71 66 72 67 73 68 74
REMARK SMILES IDX 69 75 48 76 49 77 57 78 50 79 56 80 58 81 55 82 51 83 52 84
REMARK SMILES IDX 53 85 54 86
REMARK H PARENT 78 39 46 50
REMARK Flexibility Score: inf
ROOT
ATOM      1  C   UNL A   1      42.003  19.022  26.146  1.00  0.00     0.202 C 
ENDROOT
BRANCH   1   2
ATOM      2  O   UNL A   1      42.744  19.239  24.936  1.00  0.00    -0.374 OA
BRANCH   2   3
ATOM      3  C   UNL A   1      44.160  19.157  25.068  1.00  0.00     0.202 C 
BRANCH   3   4
ATOM      4  C   UNL A   1      44.927  20.406  24.656  1.00  0.00     0.261 C 
BRANCH   4   5
ATOM      5  O   UNL A   1      44.063  21.517  24.354  1.00  0.00    -0.463 OA
BRANCH   5   6
ATOM      6  C   UNL A   1      43.682  22.485  25.214  1.00  0.00     0.310 C 
ATOM      7  O   UNL A   1      43.049  23.455  24.795  1.00  0.00    -0.252 OA
BRANCH   6   8
ATOM      8  C   UNL A   1      44.092  22.426  26.675  1.00  0.00     0.156 C 
BRANCH   8   9
ATOM      9  C   UNL A   1      45.234  23.285  27.087  1.00  0.00    -0.028 C 
ATOM     10  C   UNL A   1      45.375  23.948  28.233  1.00  0.00     0.001 A 
ATOM     11  C   UNL A   1      46.399  23.539  26.179  1.00  0.00     0.175 C 
ATOM     12  C   UNL A   1      44.595  24.100  29.419  1.00  0.00     0.010 A 
ATOM     13  C   UNL A   1      46.665  24.630  28.057  1.00  0.00     0.065 A 
ATOM     14  N   UNL A   1      47.296  24.444  26.939  1.00  0.00    -0.280 NA
ATOM     15  C   UNL A   1      45.077  24.867  30.410  1.00  0.00     0.001 A 
ATOM     16  C   UNL A   1      47.125  25.464  29.188  1.00  0.00     0.028 A 
ATOM     17  C   UNL A   1      46.357  25.547  30.288  1.00  0.00     0.002 A 
ENDBRANCH   8   9
ENDBRANCH   6   8
ENDBRANCH   5   6
ENDBRANCH   4   5
ENDBRANCH   3   4
ENDBRANCH   2   3
ENDBRANCH   1   2
BRANCH   1  18
ATOM     18  C   UNL A   1      40.636  19.720  26.217  1.00  0.00     0.261 C 
BRANCH  18  19
ATOM     19  O   UNL A   1      40.789  21.104  26.582  1.00  0.00    -0.460 OA
BRANCH  19  20
ATOM     20  C   UNL A   1      39.714  21.906  26.367  1.00  0.00     0.338 C 
ATOM     21  O   UNL A   1      38.592  21.552  26.051  1.00  0.00    -0.246 OA
BRANCH  20  22
ATOM     22  C   UNL A   1      40.051  23.260  26.863  1.00  0.00     0.060 A 
ATOM     23  C   UNL A   1      40.852  23.446  27.993  1.00  0.00     0.016 A 
ATOM     24  C   UNL A   1      39.491  24.363  26.202  1.00  0.00     0.016 A 
ATOM     25  C   UNL A   1      41.106  24.741  28.449  1.00  0.00     0.010 A 
ATOM     26  C   UNL A   1      39.742  25.655  26.662  1.00  0.00     0.010 A 
ATOM     27  C   UNL A   1      40.565  25.852  27.779  1.00  0.00    -0.014 A 
BRANCH  27  28
ATOM     28  C   UNL A   1      41.016  27.217  28.135  1.00  0.00     0.031 A 
ATOM     29  C   UNL A   1      40.091  28.232  28.728  1.00  0.00     0.074 A 
ATOM     30  C   UNL A   1      42.296  27.536  27.869  1.00  0.00     0.049 A 
ATOM     31  N   UNL A   1      40.371  29.433  29.162  1.00  0.00    -0.248 NA
ATOM     32  C   UNL A   1      38.674  27.861  28.843  1.00  0.00     0.031 C 
ATOM     33  C   UNL A   1      43.257  26.626  27.245  1.00  0.00     0.029 A 
ATOM     34  N   UNL A   1      43.009  28.687  28.081  1.00  0.00    -0.354 N 
ATOM     35  C   UNL A   1      39.169  29.966  29.611  1.00  0.00     0.074 A 
ATOM     36  C   UNL A   1      38.151  28.969  29.358  1.00  0.00     0.031 C 
ATOM     37  C   UNL A   1      44.439  27.246  27.141  1.00  0.00     0.029 A 
ATOM     38  C   UNL A   1      44.315  28.607  27.660  1.00  0.00     0.049 A 
ATOM     39  H   UNL A   1      42.623  29.493  28.495  1.00  0.00     0.167 HD
ATOM     40  C   UNL A   1      38.954  31.172  30.190  1.00  0.00     0.034 A 
ATOM     41  C   UNL A   1      45.307  29.521  27.686  1.00  0.00     0.034 A 
ATOM     42  C   UNL A   1      39.995  32.146  30.418  1.00  0.00     0.049 A 
ATOM     43  C   UNL A   1      45.045  30.856  28.326  1.00  0.00     0.074 A 
ATOM     44  C   UNL A   1      39.897  33.357  31.081  1.00  0.00     0.029 A 
ATOM     45  N   UNL A   1      41.307  32.042  29.975  1.00  0.00    -0.354 N 
ATOM     46  N   UNL A   1      43.937  31.295  28.878  1.00  0.00    -0.248 NA
ATOM     47  C   UNL A   1      46.155  31.815  28.368  1.00  0.00     0.031 C 
ATOM     48  C   UNL A   1      41.117  34.021  30.958  1.00  0.00     0.029 A 
ATOM     49  C   UNL A   1      42.012  33.189  30.302  1.00  0.00     0.049 A 
ATOM     50  H   UNL A   1      41.682  31.266  29.498  1.00  0.00     0.167 HD
ATOM     51  C   UNL A   1      44.221  32.572  29.351  1.00  0.00     0.074 A 
ATOM     52  C   UNL A   1      45.611  32.829  29.033  1.00  0.00     0.031 C 
ATOM     53  C   UNL A   1      43.400  33.445  29.988  1.00  0.00     0.034 A 
BRANCH  40  54
ATOM     54  C   UNL A   1      37.557  31.530  30.638  1.00  0.00     0.023 A 
ATOM     55  C   UNL A   1      36.693  32.220  29.765  1.00  0.00     0.031 A 
ATOM     56  C   UNL A   1      37.132  31.324  31.963  1.00  0.00     0.131 A 
ATOM     57  C   UNL A   1      35.465  32.706  30.234  1.00  0.00     0.055 A 
ATOM     58  C   UNL A   1      35.888  31.773  32.414  1.00  0.00     0.041 A 
ATOM     59  F   UNL A   1      37.921  30.685  32.841  1.00  0.00    -0.206 F 
ATOM     60  C   UNL A   1      35.055  32.478  31.551  1.00  0.00     0.022 A 
BRANCH  57  61
ATOM     61  S   UNL A   1      34.391  33.718  29.179  1.00  0.00     0.124 S 
ATOM     62  O   UNL A   1      35.352  34.633  28.566  1.00  0.00    -0.237 OA
ATOM     63  O   UNL A   1      33.817  32.722  28.280  1.00  0.00    -0.237 OA
ATOM     64  O   UNL A   1      33.458  34.335  30.116  1.00  0.00    -0.744 OA
ENDBRANCH  57  61
ENDBRANCH  40  54
BRANCH  41  65
ATOM     65  C   UNL A   1      46.641  29.125  27.152  1.00  0.00     0.023 A 
ATOM     66  C   UNL A   1      46.801  28.822  25.786  1.00  0.00     0.031 A 
ATOM     67  C   UNL A   1      47.710  28.858  28.021  1.00  0.00     0.131 A 
ATOM     68  C   UNL A   1      47.964  28.176  25.350  1.00  0.00     0.055 A 
ATOM     69  C   UNL A   1      48.900  28.286  27.566  1.00  0.00     0.041 A 
ATOM     70  F   UNL A   1      47.596  29.115  29.332  1.00  0.00    -0.206 F 
ATOM     71  C   UNL A   1      49.021  27.919  26.229  1.00  0.00     0.022 A 
BRANCH  68  72
ATOM     72  S   UNL A   1      48.073  27.497  23.670  1.00  0.00     0.124 S 
ATOM     73  O   UNL A   1      49.449  27.811  23.301  1.00  0.00    -0.237 OA
ATOM     74  O   UNL A   1      47.789  26.083  23.905  1.00  0.00    -0.237 OA
ATOM     75  O   UNL A   1      47.043  28.224  22.936  1.00  0.00    -0.744 OA
ENDBRANCH  68  72
ENDBRANCH  41  65
BRANCH  53  76
ATOM     76  C   UNL A   1      43.947  34.791  30.404  1.00  0.00     0.023 A 
ATOM     77  C   UNL A   1      44.358  34.999  31.736  1.00  0.00     0.031 A 
ATOM     78  C   UNL A   1      43.873  35.904  29.550  1.00  0.00     0.131 A 
ATOM     79  C   UNL A   1      44.608  36.298  32.193  1.00  0.00     0.055 A 
ATOM     80  C   UNL A   1      44.178  37.191  29.997  1.00  0.00     0.041 A 
ATOM     81  F   UNL A   1      43.480  35.761  28.274  1.00  0.00    -0.206 F 
ATOM     82  C   UNL A   1      44.528  37.394  31.330  1.00  0.00     0.022 A 
BRANCH  79  83
ATOM     83  S   UNL A   1      44.940  36.622  33.948  1.00  0.00     0.124 S 
ATOM     84  O   UNL A   1      46.400  36.680  33.974  1.00  0.00    -0.237 OA
ATOM     85  O   UNL A   1      44.262  37.898  34.156  1.00  0.00    -0.237 OA
ATOM     86  O   UNL A   1      44.352  35.477  34.635  1.00  0.00    -0.744 OA
ENDBRANCH  79  83
ENDBRANCH  53  76
ENDBRANCH  27  28
ENDBRANCH  20  22
ENDBRANCH  19  20
ENDBRANCH  18  19
ENDBRANCH   1  18
TORSDOF 18
ENDMDL
MODEL 2
REMARK VINA RESULT:      -9.5      4.119     11.743
REMARK SMILES O=C(CC1=c2ccccc2=NC1)OCCOCCOC(=O)c1ccc(-c2c3nc(c(-c4cc(S(=O)(=O)[O-])ccc4F)c4ccc([nH]4)c(-c4cc(S(=O)(=O)[O-])ccc4F)c4nc(c(-c5cc(S(=O)(=O)[O-])ccc5F)c5ccc2[nH]5)C=C4)C=C3)cc1
REMARK SMILES IDX 17 1 16 2 15 3 14 4 13 5 2 6 1 7 3 8 4 9 5 10 12 11 6 12
REMARK SMILES IDX 10 13 11 14 7 15 9 16 8 17 18 18 19 19 20 20 21 21 22 22
REMARK SMILES IDX 23 23 84 24 24 25 83 26 25 27 26 28 27 29 77 30 28 31 82 32
REMARK SMILES IDX 76 33 78 34 29 35 81 36 75 37 74 38 30 40 62 41 42 42 61 43
REMARK SMILES IDX 43 44 46 45 60 46 79 47 44 48 45 49 59 51 80 52 47 53 31 54
REMARK SMILES IDX 32 55 40 56 33 57 39 58 41 59 38 60 34 61 35 62 36 63 37 64
REMARK SMILES IDX 63 65 64 66 72 67 65 68 71 69 73 70 70 71 66 72 67 73 68 74
REMARK SMILES IDX 69 75 48 76 49 77 57 78 50 79 56 80 58 81 55 82 51 83 52 84
REMARK SMILES IDX 53 85 54 86
REMARK H PARENT 78 39 46 50
REMARK Flexibility Score: inf
ROOT
ATOM      1  C   UNL A   1      33.784  34.916  28.986  1.00  0.00     0.202 C 
ENDROOT
BRANCH   1   2
ATOM      2  O   UNL A   1      32.773  34.896  30.005  1.00  0.00    -0.374 OA
BRANCH   2   3
ATOM      3  C   UNL A   1      32.723  36.056  30.832  1.00  0.00     0.202 C 
BRANCH   3   4
ATOM      4  C   UNL A   1      32.936  35.804  32.319  1.00  0.00     0.261 C 
BRANCH   4   5
ATOM      5  O   UNL A   1      34.067  34.954  32.585  1.00  0.00    -0.463 OA
BRANCH   5   6
ATOM      6  C   UNL A   1      34.036  33.611  32.720  1.00  0.00     0.310 C 
ATOM      7  O   UNL A   1      33.071  33.079  33.270  1.00  0.00    -0.252 OA
BRANCH   6   8
ATOM      8  C   UNL A   1      35.211  32.761  32.271  1.00  0.00     0.156 C 
BRANCH   8   9
ATOM      9  C   UNL A   1      36.550  33.409  32.277  1.00  0.00    -0.028 C 
ATOM     10  C   UNL A   1      37.314  33.697  31.226  1.00  0.00     0.001 A 
ATOM     11  C   UNL A   1      37.237  33.791  33.554  1.00  0.00     0.175 C 
ATOM     12  C   UNL A   1      37.194  33.538  29.811  1.00  0.00     0.010 A 
ATOM     13  C   UNL A   1      38.509  34.289  31.845  1.00  0.00     0.065 A 
ATOM     14  N   UNL A   1      38.534  34.378  33.138  1.00  0.00    -0.280 NA
ATOM     15  C   UNL A   1      38.196  33.972  29.031  1.00  0.00     0.001 A 
ATOM     16  C   UNL A   1      39.572  34.735  30.919  1.00  0.00     0.028 A 
ATOM     17  C   UNL A   1      39.390  34.581  29.597  1.00  0.00     0.002 A 
ENDBRANCH   8   9
ENDBRANCH   6   8
ENDBRANCH   5   6
ENDBRANCH   4   5
ENDBRANCH   3   4
ENDBRANCH   2   3
ENDBRANCH   1   2
BRANCH   1  18
ATOM     18  C   UNL A   1      33.796  33.701  28.046  1.00  0.00     0.261 C 
BRANCH  18  19
ATOM     19  O   UNL A   1      34.134  32.502  28.767  1.00  0.00    -0.460 OA
BRANCH  19  20
ATOM     20  C   UNL A   1      34.271  31.372  28.027  1.00  0.00     0.338 C 
ATOM     21  O   UNL A   1      33.608  31.051  27.056  1.00  0.00    -0.246 OA
BRANCH  20  22
ATOM     22  C   UNL A   1      35.549  30.730  28.412  1.00  0.00     0.060 A 
ATOM     23  C   UNL A   1      36.671  30.781  27.581  1.00  0.00     0.016 A 
ATOM     24  C   UNL A   1      35.588  30.008  29.614  1.00  0.00     0.016 A 
ATOM     25  C   UNL A   1      37.841  30.123  27.966  1.00  0.00     0.010 A 
ATOM     26  C   UNL A   1      36.756  29.346  29.994  1.00  0.00     0.010 A 
ATOM     27  C   UNL A   1      37.895  29.415  29.179  1.00  0.00    -0.014 A 
BRANCH  27  28
ATOM     28  C   UNL A   1      39.193  28.909  29.681  1.00  0.00     0.031 A 
ATOM     29  C   UNL A   1      39.903  27.760  29.039  1.00  0.00     0.074 A 
ATOM     30  C   UNL A   1      39.708  29.502  30.774  1.00  0.00     0.049 A 
ATOM     31  N   UNL A   1      41.081  27.269  29.322  1.00  0.00    -0.248 NA
ATOM     32  C   UNL A   1      39.204  27.066  27.948  1.00  0.00     0.031 C 
ATOM     33  C   UNL A   1      39.062  30.598  31.497  1.00  0.00     0.029 A 
ATOM     34  N   UNL A   1      40.871  29.281  31.465  1.00  0.00    -0.354 N 
ATOM     35  C   UNL A   1      41.275  26.212  28.442  1.00  0.00     0.074 A 
ATOM     36  C   UNL A   1      40.073  26.109  27.643  1.00  0.00     0.031 C 
ATOM     37  C   UNL A   1      39.844  30.967  32.519  1.00  0.00     0.029 A 
ATOM     38  C   UNL A   1      41.031  30.115  32.546  1.00  0.00     0.049 A 
ATOM     39  H   UNL A   1      41.527  28.592  31.212  1.00  0.00     0.167 HD
ATOM     40  C   UNL A   1      42.366  25.419  28.317  1.00  0.00     0.034 A 
ATOM     41  C   UNL A   1      42.021  30.192  33.460  1.00  0.00     0.034 A 
ATOM     42  C   UNL A   1      43.546  25.546  29.140  1.00  0.00     0.049 A 
ATOM     43  C   UNL A   1      43.219  29.296  33.307  1.00  0.00     0.074 A 
ATOM     44  C   UNL A   1      44.739  24.853  29.031  1.00  0.00     0.029 A 
ATOM     45  N   UNL A   1      43.678  26.394  30.232  1.00  0.00    -0.354 N 
ATOM     46  N   UNL A   1      43.455  28.396  32.382  1.00  0.00    -0.248 NA
ATOM     47  C   UNL A   1      44.293  29.429  34.299  1.00  0.00     0.031 C 
ATOM     48  C   UNL A   1      45.551  25.213  30.105  1.00  0.00     0.029 A 
ATOM     49  C   UNL A   1      44.911  26.202  30.836  1.00  0.00     0.049 A 
ATOM     50  H   UNL A   1      42.996  27.037  30.533  1.00  0.00     0.167 HD
ATOM     51  C   UNL A   1      44.710  27.868  32.667  1.00  0.00     0.074 A 
ATOM     52  C   UNL A   1      45.191  28.563  33.843  1.00  0.00     0.031 C 
ATOM     53  C   UNL A   1      45.393  26.897  32.009  1.00  0.00     0.034 A 
BRANCH  40  54
ATOM     54  C   UNL A   1      42.372  24.343  27.256  1.00  0.00     0.023 A 
ATOM     55  C   UNL A   1      41.724  23.115  27.496  1.00  0.00     0.031 A 
ATOM     56  C   UNL A   1      43.133  24.471  26.080  1.00  0.00     0.131 A 
ATOM     57  C   UNL A   1      41.874  22.056  26.591  1.00  0.00     0.055 A 
ATOM     58  C   UNL A   1      43.244  23.427  25.160  1.00  0.00     0.041 A 
ATOM     59  F   UNL A   1      43.782  25.615  25.809  1.00  0.00    -0.206 F 
ATOM     60  C   UNL A   1      42.624  22.209  25.420  1.00  0.00     0.022 A 
BRANCH  57  61
ATOM     61  S   UNL A   1      41.173  20.419  26.935  1.00  0.00     0.124 S 
ATOM     62  O   UNL A   1      39.975  20.427  26.097  1.00  0.00    -0.237 OA
ATOM     63  O   UNL A   1      42.239  19.528  26.489  1.00  0.00    -0.237 OA
ATOM     64  O   UNL A   1      40.925  20.437  28.372  1.00  0.00    -0.744 OA
ENDBRANCH  57  61
ENDBRANCH  40  54
BRANCH  41  65
ATOM     65  C   UNL A   1      41.911  31.225  34.529  1.00  0.00     0.023 A 
ATOM     66  C   UNL A   1      40.882  31.152  35.488  1.00  0.00     0.031 A 
ATOM     67  C   UNL A   1      42.699  32.385  34.488  1.00  0.00     0.131 A 
ATOM     68  C   UNL A   1      40.606  32.262  36.296  1.00  0.00     0.055 A 
ATOM     69  C   UNL A   1      42.470  33.458  35.351  1.00  0.00     0.041 A 
ATOM     70  F   UNL A   1      43.679  32.505  33.580  1.00  0.00    -0.206 F 
ATOM     71  C   UNL A   1      41.403  33.409  36.243  1.00  0.00     0.022 A 
BRANCH  68  72
ATOM     72  S   UNL A   1      39.104  32.316  37.315  1.00  0.00     0.124 S 
ATOM     73  O   UNL A   1      39.654  32.419  38.662  1.00  0.00    -0.237 OA
ATOM     74  O   UNL A   1      38.447  33.518  36.807  1.00  0.00    -0.237 OA
ATOM     75  O   UNL A   1      38.430  31.060  37.004  1.00  0.00    -0.744 OA
ENDBRANCH  68  72
ENDBRANCH  41  65
BRANCH  53  76
ATOM     76  C   UNL A   1      46.755  26.487  32.521  1.00  0.00     0.023 A 
ATOM     77  C   UNL A   1      47.914  27.067  31.967  1.00  0.00     0.031 A 
ATOM     78  C   UNL A   1      46.908  25.400  33.396  1.00  0.00     0.131 A 
ATOM     79  C   UNL A   1      49.169  26.509  32.238  1.00  0.00     0.055 A 
ATOM     80  C   UNL A   1      48.168  24.883  33.706  1.00  0.00     0.041 A 
ATOM     81  F   UNL A   1      45.835  24.808  33.944  1.00  0.00    -0.206 F 
ATOM     82  C   UNL A   1      49.303  25.426  33.110  1.00  0.00     0.022 A 
BRANCH  79  83
ATOM     83  S   UNL A   1      50.657  27.101  31.384  1.00  0.00     0.124 S 
ATOM     84  O   UNL A   1      50.089  27.811  30.241  1.00  0.00    -0.237 OA
ATOM     85  O   UNL A   1      51.275  27.948  32.400  1.00  0.00    -0.237 OA
ATOM     86  O   UNL A   1      51.385  25.879  31.056  1.00  0.00    -0.744 OA
ENDBRANCH  79  83
ENDBRANCH  53  76
ENDBRANCH  27  28
ENDBRANCH  20  22
ENDBRANCH  19  20
ENDBRANCH  18  19
ENDBRANCH   1  18
TORSDOF 18
ENDMDL
MODEL 3
REMARK VINA RESULT:      -9.4      3.323      9.633
REMARK SMILES O=C(CC1=c2ccccc2=NC1)OCCOCCOC(=O)c1ccc(-c2c3nc(c(-c4cc(S(=O)(=O)[O-])ccc4F)c4ccc([nH]4)c(-c4cc(S(=O)(=O)[O-])ccc4F)c4nc(c(-c5cc(S(=O)(=O)[O-])ccc5F)c5ccc2[nH]5)C=C4)C=C3)cc1
REMARK SMILES IDX 17 1 16 2 15 3 14 4 13 5 2 6 1 7 3 8 4 9 5 10 12 11 6 12
REMARK SMILES IDX 10 13 11 14 7 15 9 16 8 17 18 18 19 19 20 20 21 21 22 22
REMARK SMILES IDX 23 23 84 24 24 25 83 26 25 27 26 28 27 29 77 30 28 31 82 32
REMARK SMILES IDX 76 33 78 34 29 35 81 36 75 37 74 38 30 40 62 41 42 42 61 43
REMARK SMILES IDX 43 44 46 45 60 46 79 47 44 48 45 49 59 51 80 52 47 53 31 54
REMARK SMILES IDX 32 55 40 56 33 57 39 58 41 59 38 60 34 61 35 62 36 63 37 64
REMARK SMILES IDX 63 65 64 66 72 67 65 68 71 69 73 70 70 71 66 72 67 73 68 74
REMARK SMILES IDX 69 75 48 76 49 77 57 78 50 79 56 80 58 81 55 82 51 83 52 84
REMARK SMILES IDX 53 85 54 86
REMARK H PARENT 78 39 46 50
REMARK Flexibility Score: inf
ROOT
ATOM      1  C   UNL A   1      36.150  20.159  24.970  1.00  0.00     0.202 C 
ENDROOT
BRANCH   1   2
ATOM      2  O   UNL A   1      35.531  21.086  25.874  1.00  0.00    -0.374 OA
BRANCH   2   3
ATOM      3  C   UNL A   1      34.118  21.217  25.735  1.00  0.00     0.202 C 
BRANCH   3   4
ATOM      4  C   UNL A   1      33.655  22.004  24.516  1.00  0.00     0.261 C 
BRANCH   4   5
ATOM      5  O   UNL A   1      34.593  23.019  24.117  1.00  0.00    -0.463 OA
BRANCH   5   6
ATOM      6  C   UNL A   1      34.783  24.209  24.726  1.00  0.00     0.310 C 
ATOM      7  O   UNL A   1      35.547  24.282  25.690  1.00  0.00    -0.252 OA
BRANCH   6   8
ATOM      8  C   UNL A   1      34.009  25.438  24.282  1.00  0.00     0.156 C 
BRANCH   8   9
ATOM      9  C   UNL A   1      33.039  26.007  25.255  1.00  0.00    -0.028 C 
ATOM     10  C   UNL A   1      33.081  27.207  25.830  1.00  0.00     0.001 A 
ATOM     11  C   UNL A   1      31.862  25.221  25.749  1.00  0.00     0.175 C 
ATOM     12  C   UNL A   1      33.958  28.332  25.767  1.00  0.00     0.010 A 
ATOM     13  C   UNL A   1      31.896  27.192  26.700  1.00  0.00     0.065 A 
ATOM     14  N   UNL A   1      31.166  26.119  26.703  1.00  0.00    -0.280 NA
ATOM     15  C   UNL A   1      33.667  29.414  26.506  1.00  0.00     0.001 A 
ATOM     16  C   UNL A   1      31.647  28.417  27.489  1.00  0.00     0.028 A 
ATOM     17  C   UNL A   1      32.496  29.452  27.367  1.00  0.00     0.002 A 
ENDBRANCH   8   9
ENDBRANCH   6   8
ENDBRANCH   5   6
ENDBRANCH   4   5
ENDBRANCH   3   4
ENDBRANCH   2   3
ENDBRANCH   1   2
BRANCH   1  18
ATOM     18  C   UNL A   1      37.677  20.279  24.846  1.00  0.00     0.261 C 
BRANCH  18  19
ATOM     19  O   UNL A   1      38.179  21.313  25.714  1.00  0.00    -0.460 OA
BRANCH  19  20
ATOM     20  C   UNL A   1      39.410  21.108  26.246  1.00  0.00     0.338 C 
ATOM     21  O   UNL A   1      40.087  20.099  26.152  1.00  0.00    -0.246 OA
BRANCH  20  22
ATOM     22  C   UNL A   1      39.926  22.415  26.716  1.00  0.00     0.060 A 
ATOM     23  C   UNL A   1      40.883  22.501  27.730  1.00  0.00     0.016 A 
ATOM     24  C   UNL A   1      39.379  23.579  26.155  1.00  0.00     0.016 A 
ATOM     25  C   UNL A   1      41.307  23.756  28.170  1.00  0.00     0.010 A 
ATOM     26  C   UNL A   1      39.800  24.832  26.600  1.00  0.00     0.010 A 
ATOM     27  C   UNL A   1      40.779  24.928  27.598  1.00  0.00    -0.014 A 
BRANCH  27  28
ATOM     28  C   UNL A   1      41.389  26.240  27.913  1.00  0.00     0.031 A 
ATOM     29  C   UNL A   1      42.784  26.589  27.503  1.00  0.00     0.074 A 
ATOM     30  C   UNL A   1      40.649  27.112  28.623  1.00  0.00     0.049 A 
ATOM     31  N   UNL A   1      43.412  27.727  27.640  1.00  0.00    -0.248 NA
ATOM     32  C   UNL A   1      43.580  25.530  26.869  1.00  0.00     0.031 C 
ATOM     33  C   UNL A   1      39.297  26.839  29.110  1.00  0.00     0.029 A 
ATOM     34  N   UNL A   1      40.914  28.384  29.059  1.00  0.00    -0.354 N 
ATOM     35  C   UNL A   1      44.678  27.531  27.102  1.00  0.00     0.074 A 
ATOM     36  C   UNL A   1      44.740  26.150  26.674  1.00  0.00     0.031 C 
ATOM     37  C   UNL A   1      38.842  27.917  29.760  1.00  0.00     0.029 A 
ATOM     38  C   UNL A   1      39.879  28.946  29.768  1.00  0.00     0.049 A 
ATOM     39  H   UNL A   1      41.763  28.850  28.882  1.00  0.00     0.167 HD
ATOM     40  C   UNL A   1      45.680  28.434  26.973  1.00  0.00     0.034 A 
ATOM     41  C   UNL A   1      39.769  30.154  30.359  1.00  0.00     0.034 A 
ATOM     42  C   UNL A   1      45.585  29.804  27.421  1.00  0.00     0.049 A 
ATOM     43  C   UNL A   1      40.897  31.138  30.211  1.00  0.00     0.074 A 
ATOM     44  C   UNL A   1      46.509  30.820  27.253  1.00  0.00     0.029 A 
ATOM     45  N   UNL A   1      44.528  30.343  28.143  1.00  0.00    -0.354 N 
ATOM     46  N   UNL A   1      42.035  30.988  29.574  1.00  0.00    -0.248 NA
ATOM     47  C   UNL A   1      40.731  32.455  30.837  1.00  0.00     0.031 C 
ATOM     48  C   UNL A   1      46.055  31.940  27.948  1.00  0.00     0.029 A 
ATOM     49  C   UNL A   1      44.802  31.661  28.472  1.00  0.00     0.049 A 
ATOM     50  H   UNL A   1      43.704  29.861  28.384  1.00  0.00     0.167 HD
ATOM     51  C   UNL A   1      42.713  32.195  29.706  1.00  0.00     0.074 A 
ATOM     52  C   UNL A   1      41.849  33.071  30.470  1.00  0.00     0.031 C 
ATOM     53  C   UNL A   1      43.938  32.538  29.233  1.00  0.00     0.034 A 
BRANCH  40  54
ATOM     54  C   UNL A   1      46.972  28.005  26.318  1.00  0.00     0.023 A 
ATOM     55  C   UNL A   1      47.119  28.104  24.920  1.00  0.00     0.031 A 
ATOM     56  C   UNL A   1      47.992  27.368  27.047  1.00  0.00     0.131 A 
ATOM     57  C   UNL A   1      48.242  27.548  24.294  1.00  0.00     0.055 A 
ATOM     58  C   UNL A   1      49.130  26.853  26.422  1.00  0.00     0.041 A 
ATOM     59  F   UNL A   1      47.897  27.234  28.380  1.00  0.00    -0.206 F 
ATOM     60  C   UNL A   1      49.251  26.931  25.039  1.00  0.00     0.022 A 
BRANCH  57  61
ATOM     61  S   UNL A   1      48.397  27.531  22.487  1.00  0.00     0.124 S 
ATOM     62  O   UNL A   1      47.107  28.080  22.072  1.00  0.00    -0.237 OA
ATOM     63  O   UNL A   1      49.545  28.406  22.269  1.00  0.00    -0.237 OA
ATOM     64  O   UNL A   1      48.606  26.124  22.164  1.00  0.00    -0.744 OA
ENDBRANCH  57  61
ENDBRANCH  40  54
BRANCH  41  65
ATOM     65  C   UNL A   1      38.495  30.480  31.059  1.00  0.00     0.023 A 
ATOM     66  C   UNL A   1      37.436  31.097  30.362  1.00  0.00     0.031 A 
ATOM     67  C   UNL A   1      38.392  30.363  32.453  1.00  0.00     0.131 A 
ATOM     68  C   UNL A   1      36.372  31.662  31.076  1.00  0.00     0.055 A 
ATOM     69  C   UNL A   1      37.290  30.859  33.152  1.00  0.00     0.041 A 
ATOM     70  F   UNL A   1      39.383  29.799  33.159  1.00  0.00    -0.206 F 
ATOM     71  C   UNL A   1      36.285  31.534  32.465  1.00  0.00     0.022 A 
BRANCH  68  72
ATOM     72  S   UNL A   1      35.160  32.725  30.242  1.00  0.00     0.124 S 
ATOM     73  O   UNL A   1      35.999  33.805  29.734  1.00  0.00    -0.237 OA
ATOM     74  O   UNL A   1      34.617  31.819  29.234  1.00  0.00    -0.237 OA
ATOM     75  O   UNL A   1      34.234  33.095  31.308  1.00  0.00    -0.744 OA
ENDBRANCH  68  72
ENDBRANCH  41  65
BRANCH  53  76
ATOM     76  C   UNL A   1      44.468  33.925  29.514  1.00  0.00     0.023 A 
ATOM     77  C   UNL A   1      44.156  34.984  28.638  1.00  0.00     0.031 A 
ATOM     78  C   UNL A   1      45.427  34.152  30.515  1.00  0.00     0.131 A 
ATOM     79  C   UNL A   1      44.849  36.196  28.734  1.00  0.00     0.055 A 
ATOM     80  C   UNL A   1      46.075  35.382  30.642  1.00  0.00     0.041 A 
ATOM     81  F   UNL A   1      45.765  33.173  31.370  1.00  0.00    -0.206 F 
ATOM     82  C   UNL A   1      45.802  36.403  29.736  1.00  0.00     0.022 A 
BRANCH  79  83
ATOM     83  S   UNL A   1      44.618  37.505  27.499  1.00  0.00     0.124 S 
ATOM     84  O   UNL A   1      45.845  37.400  26.713  1.00  0.00    -0.237 OA
ATOM     85  O   UNL A   1      43.402  37.071  26.817  1.00  0.00    -0.237 OA
ATOM     86  O   UNL A   1      44.494  38.723  28.294  1.00  0.00    -0.744 OA
ENDBRANCH  79  83
ENDBRANCH  53  76
ENDBRANCH  27  28
ENDBRANCH  20  22
ENDBRANCH  19  20
ENDBRANCH  18  19
ENDBRANCH   1  18
TORSDOF 18
ENDMDL
