MODEL 1
REMARK VINA RESULT:     -11.2      0.000      0.000
REMARK SMILES Cn1ccnc(N[C@H]2C=C[C@H](C(=O)OCCOCCOC(=O)c3ccc(-c4c5nc(c(-c6cc(S(=O)(=O)[O-])ccc6F)c6ccc([nH]6)c(-c6cc(S(=O)(=O)[O-])ccc6F)c6nc(c(-c7cc(S(=O)(=O)[O-])ccc7F)c7ccc4[nH]7)C=C6)C=C5)cc3)C2)c1=O
REMARK SMILES IDX 18 1 17 2 16 3 15 4 14 5 12 6 13 7 11 8 8 9 9 10 86 11 10 12
REMARK SMILES IDX 7 13 6 15 1 16 2 17 3 18 87 19 4 20 88 21 5 22 19 23 20 24
REMARK SMILES IDX 21 25 22 26 23 27 24 28 85 29 25 30 84 31 26 32 27 33 28 34
REMARK SMILES IDX 78 35 29 36 83 37 77 38 79 39 30 40 82 41 76 42 75 43 31 45
REMARK SMILES IDX 63 46 43 47 62 48 44 49 47 50 61 51 80 52 45 53 46 54 60 56
REMARK SMILES IDX 81 57 48 58 32 59 33 60 41 61 34 62 40 63 42 64 39 65 35 66
REMARK SMILES IDX 36 67 37 68 38 69 64 70 65 71 73 72 66 73 72 74 74 75 71 76
REMARK SMILES IDX 67 77 68 78 69 79 70 80 49 81 50 82 58 83 51 84 57 85 59 86
REMARK SMILES IDX 56 87 52 88 53 89 54 90 55 91
REMARK H PARENT 7 14 79 44 47 55
REMARK Flexibility Score: inf
ROOT
ATOM      1  C   UNL A   1      31.276  29.804  24.837  1.00  0.00     0.202 C 
ENDROOT
BRANCH   1   2
ATOM      2  O   UNL A   1      30.276  29.894  23.820  1.00  0.00    -0.374 OA
BRANCH   2   3
ATOM      3  C   UNL A   1      30.390  29.022  22.695  1.00  0.00     0.202 C 
BRANCH   3   4
ATOM      4  C   UNL A   1      31.472  27.944  22.780  1.00  0.00     0.261 C 
BRANCH   4   5
ATOM      5  O   UNL A   1      30.875  26.641  22.768  1.00  0.00    -0.463 OA
BRANCH   5   6
ATOM      6  C   UNL A   1      30.610  26.102  23.988  1.00  0.00     0.312 C 
ATOM      7  O   UNL A   1      29.598  26.292  24.650  1.00  0.00    -0.252 OA
BRANCH   6   8
ATOM      8  C   UNL A   1      31.723  25.146  24.381  1.00  0.00     0.124 C 
ATOM      9  C   UNL A   1      30.973  23.292  25.761  1.00  0.00     0.105 C 
ATOM     10  C   UNL A   1      31.695  24.310  26.573  1.00  0.00    -0.006 C 
ATOM     11  C   UNL A   1      31.208  23.696  24.306  1.00  0.00     0.048 C 
ATOM     12  C   UNL A   1      32.094  25.339  25.819  1.00  0.00    -0.014 C 
BRANCH   9  13
ATOM     13  N   UNL A   1      31.391  21.957  26.079  1.00  0.00    -0.359 N 
ATOM     14  H   UNL A   1      30.864  21.540  26.800  1.00  0.00     0.162 HD
BRANCH  13  15
ATOM     15  C   UNL A   1      32.381  21.140  25.580  1.00  0.00     0.193 A 
ATOM     16  C   UNL A   1      36.164  20.688  25.088  1.00  0.00     0.153 C 
ATOM     17  N   UNL A   1      34.732  20.472  25.082  1.00  0.00    -0.314 N 
ATOM     18  C   UNL A   1      34.186  19.338  24.535  1.00  0.00     0.109 A 
ATOM     19  C   UNL A   1      33.915  21.461  25.625  1.00  0.00     0.293 A 
ATOM     20  C   UNL A   1      32.863  19.157  24.521  1.00  0.00     0.131 A 
ATOM     21  O   UNL A   1      34.353  22.509  26.080  1.00  0.00    -0.265 OA
ATOM     22  N   UNL A   1      31.942  20.027  25.033  1.00  0.00    -0.233 NA
ENDBRANCH  13  15
ENDBRANCH   9  13
ENDBRANCH   6   8
ENDBRANCH   5   6
ENDBRANCH   4   5
ENDBRANCH   3   4
ENDBRANCH   2   3
ENDBRANCH   1   2
BRANCH   1  23
ATOM     23  C   UNL A   1      31.393  30.971  25.827  1.00  0.00     0.261 C 
BRANCH  23  24
ATOM     24  O   UNL A   1      32.369  30.724  26.855  1.00  0.00    -0.460 OA
BRANCH  24  25
ATOM     25  C   UNL A   1      33.040  31.830  27.265  1.00  0.00     0.338 C 
ATOM     26  O   UNL A   1      32.578  32.944  27.436  1.00  0.00    -0.246 OA
BRANCH  25  27
ATOM     27  C   UNL A   1      34.407  31.465  27.687  1.00  0.00     0.060 A 
ATOM     28  C   UNL A   1      34.666  30.109  27.925  1.00  0.00     0.016 A 
ATOM     29  C   UNL A   1      35.385  32.430  27.935  1.00  0.00     0.016 A 
ATOM     30  C   UNL A   1      35.883  29.717  28.476  1.00  0.00     0.010 A 
ATOM     31  C   UNL A   1      36.604  32.035  28.496  1.00  0.00     0.010 A 
ATOM     32  C   UNL A   1      36.839  30.683  28.811  1.00  0.00    -0.014 A 
BRANCH  32  33
ATOM     33  C   UNL A   1      37.988  30.297  29.668  1.00  0.00     0.031 A 
ATOM     34  C   UNL A   1      39.012  29.344  29.109  1.00  0.00     0.074 A 
ATOM     35  C   UNL A   1      38.147  30.821  30.896  1.00  0.00     0.049 A 
ATOM     36  N   UNL A   1      40.074  28.835  29.676  1.00  0.00    -0.248 NA
ATOM     37  C   UNL A   1      38.801  28.902  27.720  1.00  0.00     0.031 C 
ATOM     38  C   UNL A   1      37.251  31.796  31.517  1.00  0.00     0.029 A 
ATOM     39  N   UNL A   1      39.118  30.604  31.840  1.00  0.00    -0.354 N 
ATOM     40  C   UNL A   1      40.656  28.008  28.720  1.00  0.00     0.074 A 
ATOM     41  C   UNL A   1      39.803  28.053  27.552  1.00  0.00     0.031 C 
ATOM     42  C   UNL A   1      37.713  32.087  32.746  1.00  0.00     0.029 A 
ATOM     43  C   UNL A   1      38.910  31.292  33.012  1.00  0.00     0.049 A 
ATOM     44  H   UNL A   1      39.890  30.012  31.693  1.00  0.00     0.167 HD
ATOM     45  C   UNL A   1      41.801  27.288  28.806  1.00  0.00     0.034 A 
ATOM     46  C   UNL A   1      39.595  31.261  34.174  1.00  0.00     0.034 A 
ATOM     47  C   UNL A   1      42.635  27.249  29.981  1.00  0.00     0.049 A 
ATOM     48  C   UNL A   1      40.820  30.382  34.277  1.00  0.00     0.074 A 
ATOM     49  C   UNL A   1      43.819  26.561  30.178  1.00  0.00     0.029 A 
ATOM     50  N   UNL A   1      42.368  27.923  31.168  1.00  0.00    -0.354 N 
ATOM     51  N   UNL A   1      41.359  29.603  33.368  1.00  0.00    -0.248 NA
ATOM     52  C   UNL A   1      41.533  30.389  35.562  1.00  0.00     0.031 C 
ATOM     53  C   UNL A   1      44.226  26.756  31.502  1.00  0.00     0.029 A 
ATOM     54  C   UNL A   1      43.347  27.638  32.108  1.00  0.00     0.049 A 
ATOM     55  H   UNL A   1      41.598  28.517  31.319  1.00  0.00     0.167 HD
ATOM     56  C   UNL A   1      42.495  29.057  33.961  1.00  0.00     0.074 A 
ATOM     57  C   UNL A   1      42.568  29.604  35.299  1.00  0.00     0.031 C 
ATOM     58  C   UNL A   1      43.404  28.189  33.444  1.00  0.00     0.034 A 
BRANCH  45  59
ATOM     59  C   UNL A   1      42.178  26.440  27.613  1.00  0.00     0.023 A 
ATOM     60  C   UNL A   1      41.743  25.110  27.479  1.00  0.00     0.031 A 
ATOM     61  C   UNL A   1      43.019  26.961  26.612  1.00  0.00     0.131 A 
ATOM     62  C   UNL A   1      42.206  24.325  26.410  1.00  0.00     0.055 A 
ATOM     63  C   UNL A   1      43.408  26.200  25.508  1.00  0.00     0.041 A 
ATOM     64  F   UNL A   1      43.488  28.215  26.698  1.00  0.00    -0.206 F 
ATOM     65  C   UNL A   1      43.014  24.869  25.411  1.00  0.00     0.022 A 
BRANCH  62  66
ATOM     66  S   UNL A   1      41.860  22.544  26.428  1.00  0.00     0.124 S 
ATOM     67  O   UNL A   1      42.467  22.139  27.693  1.00  0.00    -0.237 OA
ATOM     68  O   UNL A   1      40.403  22.506  26.377  1.00  0.00    -0.237 OA
ATOM     69  O   UNL A   1      42.541  22.052  25.232  1.00  0.00    -0.744 OA
ENDBRANCH  62  66
ENDBRANCH  45  59
BRANCH  46  70
ATOM     70  C   UNL A   1      39.125  32.051  35.349  1.00  0.00     0.023 A 
ATOM     71  C   UNL A   1      38.509  31.430  36.447  1.00  0.00     0.031 A 
ATOM     72  C   UNL A   1      39.233  33.454  35.363  1.00  0.00     0.131 A 
ATOM     73  C   UNL A   1      37.980  32.210  37.488  1.00  0.00     0.055 A 
ATOM     74  C   UNL A   1      38.757  34.221  36.427  1.00  0.00     0.041 A 
ATOM     75  F   UNL A   1      39.811  34.101  34.337  1.00  0.00    -0.206 F 
ATOM     76  C   UNL A   1      38.113  33.600  37.492  1.00  0.00     0.022 A 
BRANCH  73  77
ATOM     77  S   UNL A   1      37.032  31.386  38.796  1.00  0.00     0.124 S 
ATOM     78  O   UNL A   1      37.920  31.534  39.944  1.00  0.00    -0.237 OA
ATOM     79  O   UNL A   1      35.807  32.176  38.825  1.00  0.00    -0.237 OA
ATOM     80  O   UNL A   1      36.880  30.021  38.296  1.00  0.00    -0.744 OA
ENDBRANCH  73  77
ENDBRANCH  46  70
BRANCH  58  81
ATOM     81  C   UNL A   1      44.585  27.826  34.312  1.00  0.00     0.023 A 
ATOM     82  C   UNL A   1      44.570  26.709  35.165  1.00  0.00     0.031 A 
ATOM     83  C   UNL A   1      45.747  28.622  34.287  1.00  0.00     0.131 A 
ATOM     84  C   UNL A   1      45.669  26.451  36.000  1.00  0.00     0.055 A 
ATOM     85  C   UNL A   1      46.861  28.323  35.071  1.00  0.00     0.041 A 
ATOM     86  F   UNL A   1      45.818  29.702  33.493  1.00  0.00    -0.206 F 
ATOM     87  C   UNL A   1      46.820  27.241  35.945  1.00  0.00     0.022 A 
BRANCH  84  88
ATOM     88  S   UNL A   1      45.536  25.127  37.233  1.00  0.00     0.124 S 
ATOM     89  O   UNL A   1      44.306  25.485  37.931  1.00  0.00    -0.237 OA
ATOM     90  O   UNL A   1      45.471  23.931  36.400  1.00  0.00    -0.237 OA
ATOM     91  O   UNL A   1      46.760  25.268  38.020  1.00  0.00    -0.744 OA
ENDBRANCH  84  88
ENDBRANCH  58  81
ENDBRANCH  32  33
ENDBRANCH  25  27
ENDBRANCH  24  25
ENDBRANCH  23  24
ENDBRANCH   1  23
TORSDOF 19
ENDMDL
MODEL 2
REMARK VINA RESULT:     -11.0      2.585      4.183
REMARK SMILES Cn1ccnc(N[C@H]2C=C[C@H](C(=O)OCCOCCOC(=O)c3ccc(-c4c5nc(c(-c6cc(S(=O)(=O)[O-])ccc6F)c6ccc([nH]6)c(-c6cc(S(=O)(=O)[O-])ccc6F)c6nc(c(-c7cc(S(=O)(=O)[O-])ccc7F)c7ccc4[nH]7)C=C6)C=C5)cc3)C2)c1=O
REMARK SMILES IDX 18 1 17 2 16 3 15 4 14 5 12 6 13 7 11 8 8 9 9 10 86 11 10 12
REMARK SMILES IDX 7 13 6 15 1 16 2 17 3 18 87 19 4 20 88 21 5 22 19 23 20 24
REMARK SMILES IDX 21 25 22 26 23 27 24 28 85 29 25 30 84 31 26 32 27 33 28 34
REMARK SMILES IDX 78 35 29 36 83 37 77 38 79 39 30 40 82 41 76 42 75 43 31 45
REMARK SMILES IDX 63 46 43 47 62 48 44 49 47 50 61 51 80 52 45 53 46 54 60 56
REMARK SMILES IDX 81 57 48 58 32 59 33 60 41 61 34 62 40 63 42 64 39 65 35 66
REMARK SMILES IDX 36 67 37 68 38 69 64 70 65 71 73 72 66 73 72 74 74 75 71 76
REMARK SMILES IDX 67 77 68 78 69 79 70 80 49 81 50 82 58 83 51 84 57 85 59 86
REMARK SMILES IDX 56 87 52 88 53 89 54 90 55 91
REMARK H PARENT 7 14 79 44 47 55
REMARK Flexibility Score: inf
ROOT
ATOM      1  C   UNL A   1      31.906  30.491  26.693  1.00  0.00     0.202 C 
ENDROOT
BRANCH   1   2
ATOM      2  O   UNL A   1      33.077  30.086  25.983  1.00  0.00    -0.374 OA
BRANCH   2   3
ATOM      3  C   UNL A   1      32.900  29.402  24.741  1.00  0.00     0.202 C 
BRANCH   3   4
ATOM      4  C   UNL A   1      33.382  27.950  24.693  1.00  0.00     0.261 C 
BRANCH   4   5
ATOM      5  O   UNL A   1      33.138  27.391  23.396  1.00  0.00    -0.463 OA
BRANCH   5   6
ATOM      6  C   UNL A   1      32.625  26.131  23.383  1.00  0.00     0.312 C 
ATOM      7  O   UNL A   1      33.127  25.149  23.914  1.00  0.00    -0.252 OA
BRANCH   6   8
ATOM      8  C   UNL A   1      31.278  26.132  22.681  1.00  0.00     0.124 C 
ATOM      9  C   UNL A   1      29.805  27.924  23.405  1.00  0.00     0.105 C 
ATOM     10  C   UNL A   1      29.390  26.618  23.987  1.00  0.00    -0.006 C 
ATOM     11  C   UNL A   1      30.865  27.581  22.359  1.00  0.00     0.048 C 
ATOM     12  C   UNL A   1      30.209  25.633  23.604  1.00  0.00    -0.014 C 
BRANCH   9  13
ATOM     13  N   UNL A   1      28.687  28.663  22.894  1.00  0.00    -0.359 N 
ATOM     14  H   UNL A   1      27.846  28.151  22.889  1.00  0.00     0.162 HD
BRANCH  13  15
ATOM     15  C   UNL A   1      28.553  29.944  22.407  1.00  0.00     0.193 A 
ATOM     16  C   UNL A   1      29.073  33.679  23.138  1.00  0.00     0.153 C 
ATOM     17  N   UNL A   1      28.740  32.430  22.485  1.00  0.00    -0.314 N 
ATOM     18  C   UNL A   1      28.218  32.408  21.216  1.00  0.00     0.109 A 
ATOM     19  C   UNL A   1      28.938  31.246  23.192  1.00  0.00     0.293 A 
ATOM     20  C   UNL A   1      27.900  31.250  20.631  1.00  0.00     0.131 A 
ATOM     21  O   UNL A   1      29.355  31.219  24.341  1.00  0.00    -0.265 OA
ATOM     22  N   UNL A   1      28.055  30.013  21.191  1.00  0.00    -0.233 NA
ENDBRANCH  13  15
ENDBRANCH   9  13
ENDBRANCH   6   8
ENDBRANCH   5   6
ENDBRANCH   4   5
ENDBRANCH   3   4
ENDBRANCH   2   3
ENDBRANCH   1   2
BRANCH   1  23
ATOM     23  C   UNL A   1      31.706  31.992  26.941  1.00  0.00     0.261 C 
BRANCH  23  24
ATOM     24  O   UNL A   1      32.911  32.749  26.735  1.00  0.00    -0.460 OA
BRANCH  24  25
ATOM     25  C   UNL A   1      33.400  33.338  27.855  1.00  0.00     0.338 C 
ATOM     26  O   UNL A   1      32.827  34.144  28.568  1.00  0.00    -0.246 OA
BRANCH  25  27
ATOM     27  C   UNL A   1      34.684  32.716  28.235  1.00  0.00     0.060 A 
ATOM     28  C   UNL A   1      34.641  31.411  28.739  1.00  0.00     0.016 A 
ATOM     29  C   UNL A   1      35.888  33.422  28.190  1.00  0.00     0.016 A 
ATOM     30  C   UNL A   1      35.791  30.826  29.263  1.00  0.00     0.010 A 
ATOM     31  C   UNL A   1      37.041  32.837  28.724  1.00  0.00     0.010 A 
ATOM     32  C   UNL A   1      36.986  31.555  29.304  1.00  0.00    -0.014 A 
BRANCH  32  33
ATOM     33  C   UNL A   1      38.112  31.051  30.129  1.00  0.00     0.031 A 
ATOM     34  C   UNL A   1      39.019  30.002  29.543  1.00  0.00     0.074 A 
ATOM     35  C   UNL A   1      38.355  31.552  31.354  1.00  0.00     0.049 A 
ATOM     36  N   UNL A   1      40.039  29.386  30.081  1.00  0.00    -0.248 NA
ATOM     37  C   UNL A   1      38.728  29.589  28.160  1.00  0.00     0.031 C 
ATOM     38  C   UNL A   1      37.580  32.611  31.999  1.00  0.00     0.029 A 
ATOM     39  N   UNL A   1      39.324  31.235  32.271  1.00  0.00    -0.354 N 
ATOM     40  C   UNL A   1      40.509  28.508  29.109  1.00  0.00     0.074 A 
ATOM     41  C   UNL A   1      39.634  28.643  27.964  1.00  0.00     0.031 C 
ATOM     42  C   UNL A   1      38.100  32.850  33.216  1.00  0.00     0.029 A 
ATOM     43  C   UNL A   1      39.218  31.936  33.449  1.00  0.00     0.049 A 
ATOM     44  H   UNL A   1      40.029  30.568  32.103  1.00  0.00     0.167 HD
ATOM     45  C   UNL A   1      41.577  27.676  29.164  1.00  0.00     0.034 A 
ATOM     46  C   UNL A   1      39.926  31.832  34.592  1.00  0.00     0.034 A 
ATOM     47  C   UNL A   1      42.434  27.549  30.317  1.00  0.00     0.049 A 
ATOM     48  C   UNL A   1      41.058  30.834  34.662  1.00  0.00     0.074 A 
ATOM     49  C   UNL A   1      43.547  26.743  30.481  1.00  0.00     0.029 A 
ATOM     50  N   UNL A   1      42.268  28.242  31.511  1.00  0.00    -0.354 N 
ATOM     51  N   UNL A   1      41.492  30.007  33.738  1.00  0.00    -0.248 NA
ATOM     52  C   UNL A   1      41.802  30.764  35.927  1.00  0.00     0.031 C 
ATOM     53  C   UNL A   1      44.006  26.891  31.795  1.00  0.00     0.029 A 
ATOM     54  C   UNL A   1      43.237  27.856  32.425  1.00  0.00     0.049 A 
ATOM     55  H   UNL A   1      41.565  28.910  31.682  1.00  0.00     0.167 HD
ATOM     56  C   UNL A   1      42.583  29.347  34.300  1.00  0.00     0.074 A 
ATOM     57  C   UNL A   1      42.745  29.879  35.637  1.00  0.00     0.031 C 
ATOM     58  C   UNL A   1      43.384  28.393  33.758  1.00  0.00     0.034 A 
BRANCH  45  59
ATOM     59  C   UNL A   1      41.835  26.798  27.961  1.00  0.00     0.023 A 
ATOM     60  C   UNL A   1      41.500  25.433  27.951  1.00  0.00     0.031 A 
ATOM     61  C   UNL A   1      42.462  27.329  26.819  1.00  0.00     0.131 A 
ATOM     62  C   UNL A   1      41.857  24.631  26.854  1.00  0.00     0.055 A 
ATOM     63  C   UNL A   1      42.738  26.545  25.697  1.00  0.00     0.041 A 
ATOM     64  F   UNL A   1      42.829  28.620  26.778  1.00  0.00    -0.206 F 
ATOM     65  C   UNL A   1      42.449  25.183  25.717  1.00  0.00     0.022 A 
BRANCH  62  66
ATOM     66  S   UNL A   1      41.671  22.832  26.997  1.00  0.00     0.124 S 
ATOM     67  O   UNL A   1      42.892  22.467  27.712  1.00  0.00    -0.237 OA
ATOM     68  O   UNL A   1      40.428  22.702  27.748  1.00  0.00    -0.237 OA
ATOM     69  O   UNL A   1      41.613  22.383  25.608  1.00  0.00    -0.744 OA
ENDBRANCH  62  66
ENDBRANCH  45  59
BRANCH  46  70
ATOM     70  C   UNL A   1      39.570  32.662  35.780  1.00  0.00     0.023 A 
ATOM     71  C   UNL A   1      38.729  32.167  36.790  1.00  0.00     0.031 A 
ATOM     72  C   UNL A   1      40.020  33.990  35.892  1.00  0.00     0.131 A 
ATOM     73  C   UNL A   1      38.325  33.008  37.839  1.00  0.00     0.055 A 
ATOM     74  C   UNL A   1      39.662  34.804  36.967  1.00  0.00     0.041 A 
ATOM     75  F   UNL A   1      40.824  34.516  34.953  1.00  0.00    -0.206 F 
ATOM     76  C   UNL A   1      38.797  34.318  37.942  1.00  0.00     0.022 A 
BRANCH  73  77
ATOM     77  S   UNL A   1      37.095  32.391  39.021  1.00  0.00     0.124 S 
ATOM     78  O   UNL A   1      37.398  30.964  39.046  1.00  0.00    -0.237 OA
ATOM     79  O   UNL A   1      37.432  33.141  40.226  1.00  0.00    -0.237 OA
ATOM     80  O   UNL A   1      35.820  32.748  38.403  1.00  0.00    -0.744 OA
ENDBRANCH  73  77
ENDBRANCH  46  70
BRANCH  58  81
ATOM     81  C   UNL A   1      44.545  27.910  34.595  1.00  0.00     0.023 A 
ATOM     82  C   UNL A   1      44.441  26.795  35.444  1.00  0.00     0.031 A 
ATOM     83  C   UNL A   1      45.779  28.586  34.542  1.00  0.00     0.131 A 
ATOM     84  C   UNL A   1      45.529  26.425  36.249  1.00  0.00     0.055 A 
ATOM     85  C   UNL A   1      46.878  28.174  35.296  1.00  0.00     0.041 A 
ATOM     86  F   UNL A   1      45.938  29.659  33.750  1.00  0.00    -0.206 F 
ATOM     87  C   UNL A   1      46.752  27.096  36.167  1.00  0.00     0.022 A 
BRANCH  84  88
ATOM     88  S   UNL A   1      45.297  25.113  37.481  1.00  0.00     0.124 S 
ATOM     89  O   UNL A   1      44.342  25.725  38.399  1.00  0.00    -0.237 OA
ATOM     90  O   UNL A   1      44.787  24.012  36.672  1.00  0.00    -0.237 OA
ATOM     91  O   UNL A   1      46.639  24.913  38.026  1.00  0.00    -0.744 OA
ENDBRANCH  84  88
ENDBRANCH  58  81
ENDBRANCH  32  33
ENDBRANCH  25  27
ENDBRANCH  24  25
ENDBRANCH  23  24
ENDBRANCH   1  23
TORSDOF 19
ENDMDL
MODEL 3
REMARK VINA RESULT:     -10.9      1.277      7.740
REMARK SMILES Cn1ccnc(N[C@H]2C=C[C@H](C(=O)OCCOCCOC(=O)c3ccc(-c4c5nc(c(-c6cc(S(=O)(=O)[O-])ccc6F)c6ccc([nH]6)c(-c6cc(S(=O)(=O)[O-])ccc6F)c6nc(c(-c7cc(S(=O)(=O)[O-])ccc7F)c7ccc4[nH]7)C=C6)C=C5)cc3)C2)c1=O
REMARK SMILES IDX 18 1 17 2 16 3 15 4 14 5 12 6 13 7 11 8 8 9 9 10 86 11 10 12
REMARK SMILES IDX 7 13 6 15 1 16 2 17 3 18 87 19 4 20 88 21 5 22 19 23 20 24
REMARK SMILES IDX 21 25 22 26 23 27 24 28 85 29 25 30 84 31 26 32 27 33 28 34
REMARK SMILES IDX 78 35 29 36 83 37 77 38 79 39 30 40 82 41 76 42 75 43 31 45
REMARK SMILES IDX 63 46 43 47 62 48 44 49 47 50 61 51 80 52 45 53 46 54 60 56
REMARK SMILES IDX 81 57 48 58 32 59 33 60 41 61 34 62 40 63 42 64 39 65 35 66
REMARK SMILES IDX 36 67 37 68 38 69 64 70 65 71 73 72 66 73 72 74 74 75 71 76
REMARK SMILES IDX 67 77 68 78 69 79 70 80 49 81 50 82 58 83 51 84 57 85 59 86
REMARK SMILES IDX 56 87 52 88 53 89 54 90 55 91
REMARK H PARENT 7 14 79 44 47 55
REMARK Flexibility Score: inf
ROOT
ATOM      1  C   UNL A   1      31.334  31.674  26.415  1.00  0.00     0.202 C 
ENDROOT
BRANCH   1   2
ATOM      2  O   UNL A   1      31.949  30.537  27.024  1.00  0.00    -0.374 OA
BRANCH   2   3
ATOM      3  C   UNL A   1      32.232  29.409  26.194  1.00  0.00     0.202 C 
BRANCH   3   4
ATOM      4  C   UNL A   1      32.175  29.647  24.684  1.00  0.00     0.261 C 
BRANCH   4   5
ATOM      5  O   UNL A   1      30.906  29.231  24.165  1.00  0.00    -0.463 OA
BRANCH   5   6
ATOM      6  C   UNL A   1      30.939  28.203  23.275  1.00  0.00     0.312 C 
ATOM      7  O   UNL A   1      30.331  28.157  22.213  1.00  0.00    -0.252 OA
BRANCH   6   8
ATOM      8  C   UNL A   1      31.921  27.145  23.748  1.00  0.00     0.124 C 
ATOM      9  C   UNL A   1      31.839  25.092  22.450  1.00  0.00     0.105 C 
ATOM     10  C   UNL A   1      31.171  24.922  23.770  1.00  0.00    -0.006 C 
ATOM     11  C   UNL A   1      32.550  26.443  22.529  1.00  0.00     0.048 C 
ATOM     12  C   UNL A   1      31.199  26.055  24.479  1.00  0.00    -0.014 C 
BRANCH   9  13
ATOM     13  N   UNL A   1      32.700  23.989  22.138  1.00  0.00    -0.359 N 
ATOM     14  H   UNL A   1      32.666  23.717  21.192  1.00  0.00     0.162 HD
BRANCH  13  15
ATOM     15  C   UNL A   1      33.566  23.232  22.895  1.00  0.00     0.193 A 
ATOM     16  C   UNL A   1      33.935  20.124  25.123  1.00  0.00     0.153 C 
ATOM     17  N   UNL A   1      34.219  21.325  24.366  1.00  0.00    -0.314 N 
ATOM     18  C   UNL A   1      35.481  21.861  24.329  1.00  0.00     0.109 A 
ATOM     19  C   UNL A   1      33.166  21.941  23.692  1.00  0.00     0.293 A 
ATOM     20  C   UNL A   1      35.727  22.978  23.639  1.00  0.00     0.131 A 
ATOM     21  O   UNL A   1      32.016  21.527  23.734  1.00  0.00    -0.265 OA
ATOM     22  N   UNL A   1      34.803  23.679  22.917  1.00  0.00    -0.233 NA
ENDBRANCH  13  15
ENDBRANCH   9  13
ENDBRANCH   6   8
ENDBRANCH   5   6
ENDBRANCH   4   5
ENDBRANCH   3   4
ENDBRANCH   2   3
ENDBRANCH   1   2
BRANCH   1  23
ATOM     23  C   UNL A   1      31.738  33.063  26.926  1.00  0.00     0.261 C 
BRANCH  23  24
ATOM     24  O   UNL A   1      33.162  33.268  26.894  1.00  0.00    -0.460 OA
BRANCH  24  25
ATOM     25  C   UNL A   1      33.703  33.618  28.089  1.00  0.00     0.338 C 
ATOM     26  O   UNL A   1      33.189  34.312  28.948  1.00  0.00    -0.246 OA
BRANCH  25  27
ATOM     27  C   UNL A   1      34.954  32.869  28.317  1.00  0.00     0.060 A 
ATOM     28  C   UNL A   1      34.842  31.505  28.612  1.00  0.00     0.016 A 
ATOM     29  C   UNL A   1      36.199  33.501  28.336  1.00  0.00     0.016 A 
ATOM     30  C   UNL A   1      35.966  30.778  28.993  1.00  0.00     0.010 A 
ATOM     31  C   UNL A   1      37.327  32.771  28.728  1.00  0.00     0.010 A 
ATOM     32  C   UNL A   1      37.206  31.419  29.102  1.00  0.00    -0.014 A 
BRANCH  32  33
ATOM     33  C   UNL A   1      38.321  30.725  29.795  1.00  0.00     0.031 A 
ATOM     34  C   UNL A   1      38.589  31.060  31.238  1.00  0.00     0.074 A 
ATOM     35  C   UNL A   1      39.046  29.781  29.170  1.00  0.00     0.049 A 
ATOM     36  N   UNL A   1      39.523  30.615  32.037  1.00  0.00    -0.248 NA
ATOM     37  C   UNL A   1      37.679  32.035  31.861  1.00  0.00     0.031 C 
ATOM     38  C   UNL A   1      38.838  29.333  27.793  1.00  0.00     0.029 A 
ATOM     39  N   UNL A   1      40.104  29.029  29.614  1.00  0.00    -0.354 N 
ATOM     40  C   UNL A   1      39.321  31.260  33.254  1.00  0.00     0.074 A 
ATOM     41  C   UNL A   1      38.200  32.157  33.072  1.00  0.00     0.031 C 
ATOM     42  C   UNL A   1      39.749  28.388  27.502  1.00  0.00     0.029 A 
ATOM     43  C   UNL A   1      40.626  28.193  28.656  1.00  0.00     0.049 A 
ATOM     44  H   UNL A   1      40.456  29.083  30.531  1.00  0.00     0.167 HD
ATOM     45  C   UNL A   1      40.000  31.108  34.417  1.00  0.00     0.034 A 
ATOM     46  C   UNL A   1      41.704  27.383  28.699  1.00  0.00     0.034 A 
ATOM     47  C   UNL A   1      41.120  30.214  34.578  1.00  0.00     0.049 A 
ATOM     48  C   UNL A   1      42.501  27.295  29.980  1.00  0.00     0.074 A 
ATOM     49  C   UNL A   1      41.879  29.975  35.710  1.00  0.00     0.029 A 
ATOM     50  N   UNL A   1      41.652  29.416  33.571  1.00  0.00    -0.354 N 
ATOM     51  N   UNL A   1      42.302  27.911  31.123  1.00  0.00    -0.248 NA
ATOM     52  C   UNL A   1      43.662  26.395  29.977  1.00  0.00     0.031 C 
ATOM     53  C   UNL A   1      42.911  29.094  35.370  1.00  0.00     0.029 A 
ATOM     54  C   UNL A   1      42.746  28.711  34.049  1.00  0.00     0.049 A 
ATOM     55  H   UNL A   1      41.301  29.358  32.653  1.00  0.00     0.167 HD
ATOM     56  C   UNL A   1      43.291  27.442  31.985  1.00  0.00     0.074 A 
ATOM     57  C   UNL A   1      44.077  26.487  31.232  1.00  0.00     0.031 C 
ATOM     58  C   UNL A   1      43.525  27.763  33.284  1.00  0.00     0.034 A 
BRANCH  45  59
ATOM     59  C   UNL A   1      39.582  31.974  35.583  1.00  0.00     0.023 A 
ATOM     60  C   UNL A   1      38.800  31.472  36.638  1.00  0.00     0.031 A 
ATOM     61  C   UNL A   1      39.941  33.333  35.620  1.00  0.00     0.131 A 
ATOM     62  C   UNL A   1      38.343  32.338  37.645  1.00  0.00     0.055 A 
ATOM     63  C   UNL A   1      39.554  34.170  36.668  1.00  0.00     0.041 A 
ATOM     64  F   UNL A   1      40.664  33.877  34.628  1.00  0.00    -0.206 F 
ATOM     65  C   UNL A   1      38.737  33.676  37.681  1.00  0.00     0.022 A 
BRANCH  62  66
ATOM     66  S   UNL A   1      37.107  31.724  38.822  1.00  0.00     0.124 S 
ATOM     67  O   UNL A   1      35.995  32.642  38.587  1.00  0.00    -0.237 OA
ATOM     68  O   UNL A   1      36.905  30.350  38.380  1.00  0.00    -0.237 OA
ATOM     69  O   UNL A   1      37.765  31.873  40.119  1.00  0.00    -0.744 OA
ENDBRANCH  62  66
ENDBRANCH  45  59
BRANCH  46  70
ATOM     70  C   UNL A   1      42.124  26.618  27.489  1.00  0.00     0.023 A 
ATOM     71  C   UNL A   1      41.843  25.248  27.358  1.00  0.00     0.031 A 
ATOM     72  C   UNL A   1      42.869  27.237  26.469  1.00  0.00     0.131 A 
ATOM     73  C   UNL A   1      42.345  24.532  26.260  1.00  0.00     0.055 A 
ATOM     74  C   UNL A   1      43.317  26.533  25.350  1.00  0.00     0.041 A 
ATOM     75  F   UNL A   1      43.169  28.543  26.544  1.00  0.00    -0.206 F 
ATOM     76  C   UNL A   1      43.067  25.168  25.248  1.00  0.00     0.022 A 
BRANCH  73  77
ATOM     77  S   UNL A   1      42.118  22.733  26.219  1.00  0.00     0.124 S 
ATOM     78  O   UNL A   1      42.874  22.313  27.394  1.00  0.00    -0.237 OA
ATOM     79  O   UNL A   1      40.668  22.609  26.309  1.00  0.00    -0.237 OA
ATOM     80  O   UNL A   1      42.696  22.347  24.933  1.00  0.00    -0.744 OA
ENDBRANCH  73  77
ENDBRANCH  46  70
BRANCH  58  81
ATOM     81  C   UNL A   1      44.641  27.029  33.987  1.00  0.00     0.023 A 
ATOM     82  C   UNL A   1      44.470  25.737  34.513  1.00  0.00     0.031 A 
ATOM     83  C   UNL A   1      45.901  27.640  34.137  1.00  0.00     0.131 A 
ATOM     84  C   UNL A   1      45.519  25.122  35.214  1.00  0.00     0.055 A 
ATOM     85  C   UNL A   1      46.960  26.999  34.778  1.00  0.00     0.041 A 
ATOM     86  F   UNL A   1      46.122  28.875  33.656  1.00  0.00    -0.206 F 
ATOM     87  C   UNL A   1      46.768  25.737  35.334  1.00  0.00     0.022 A 
BRANCH  84  88
ATOM     88  S   UNL A   1      45.201  23.546  36.056  1.00  0.00     0.124 S 
ATOM     89  O   UNL A   1      45.190  23.949  37.458  1.00  0.00    -0.237 OA
ATOM     90  O   UNL A   1      43.914  23.148  35.496  1.00  0.00    -0.237 OA
ATOM     91  O   UNL A   1      46.334  22.711  35.659  1.00  0.00    -0.744 OA
ENDBRANCH  84  88
ENDBRANCH  58  81
ENDBRANCH  32  33
ENDBRANCH  25  27
ENDBRANCH  24  25
ENDBRANCH  23  24
ENDBRANCH   1  23
TORSDOF 19
ENDMDL
