MODEL 1
REMARK VINA RESULT:     -12.8      0.000      0.000
REMARK SMILES C[C@H]1CCCC[C@H]1[N@H+]1[C@@H](C(=O)OCCOCCOC(=O)c2ccc(-c3c4nc(c(-c5cc(S(=O)(=O)[O-])ccc5F)c5ccc([nH]5)c(-c5cc(S(=O)(=O)[O-])ccc5F)c5nc(c(-c6cc(S(=O)(=O)[O-])ccc6F)c6ccc3[nH]6)C=C5)C=C4)cc2)CC[C@H]2CCCC[C@H]21
REMARK SMILES IDX 16 1 15 2 14 3 13 4 12 5 10 6 11 7 9 8 8 9 91 10 84 12 86 13
REMARK SMILES IDX 90 14 85 15 87 16 89 17 88 18 7 19 1 20 2 21 3 22 4 23 6 24
REMARK SMILES IDX 5 25 17 26 18 27 19 28 20 29 21 30 22 31 83 32 23 33 82 34
REMARK SMILES IDX 24 35 25 36 26 37 76 38 27 39 81 40 75 41 77 42 28 43 80 44
REMARK SMILES IDX 74 45 73 46 29 48 61 49 41 50 60 51 42 52 45 53 59 54 78 55
REMARK SMILES IDX 43 56 44 57 58 59 79 60 46 61 30 62 31 63 39 64 32 65 38 66
REMARK SMILES IDX 40 67 37 68 33 69 34 70 35 71 36 72 62 73 63 74 71 75 64 76
REMARK SMILES IDX 70 77 72 78 69 79 65 80 66 81 67 82 68 83 47 84 48 85 56 86
REMARK SMILES IDX 49 87 55 88 57 89 54 90 50 91 51 92 52 93 53 94
REMARK H PARENT 8 11 77 47 45 58
REMARK Flexibility Score: inf
ROOT
ATOM      1  C   UNL A   1      35.297  21.831  24.540  1.00  0.00     0.202 C 
ENDROOT
BRANCH   1   2
ATOM      2  O   UNL A   1      35.238  23.255  24.369  1.00  0.00    -0.374 OA
BRANCH   2   3
ATOM      3  C   UNL A   1      34.407  23.921  23.406  1.00  0.00     0.202 C 
BRANCH   3   4
ATOM      4  C   UNL A   1      34.028  25.401  23.721  1.00  0.00     0.261 C 
BRANCH   4   5
ATOM      5  O   UNL A   1      33.540  26.115  22.530  1.00  0.00    -0.459 OA
BRANCH   5   6
ATOM      6  C   UNL A   1      33.364  27.467  22.631  1.00  0.00     0.365 C 
ATOM      7  O   UNL A   1      34.305  28.230  22.857  1.00  0.00    -0.245 OA
BRANCH   6   8
ATOM      8  C   UNL A   1      31.916  28.034  22.433  1.00  0.00     0.295 C 
ATOM      9  N   UNL A   1      31.427  29.271  23.106  1.00  0.00    -0.318 N 
ATOM     10  C   UNL A   1      30.068  29.598  22.190  1.00  0.00     0.188 C 
ATOM     11  H   UNL A   1      32.039  30.088  23.128  1.00  0.00     0.349 HD
ATOM     12  C   UNL A   1      30.759  27.048  22.679  1.00  0.00     0.078 C 
ATOM     13  C   UNL A   1      29.095  29.359  23.266  1.00  0.00     0.048 C 
ATOM     14  C   UNL A   1      29.302  30.691  21.331  1.00  0.00     0.065 C 
ATOM     15  C   UNL A   1      29.350  27.711  23.142  1.00  0.00     0.016 C 
ATOM     16  C   UNL A   1      29.507  30.830  24.002  1.00  0.00     0.010 C 
ATOM     17  C   UNL A   1      28.655  31.940  21.947  1.00  0.00     0.006 C 
ATOM     18  C   UNL A   1      28.778  32.041  23.446  1.00  0.00     0.001 C 
BRANCH   9  19
ATOM     19  C   UNL A   1      31.231  28.987  24.780  1.00  0.00     0.187 C 
ATOM     20  C   UNL A   1      30.639  26.356  25.872  1.00  0.00     0.014 C 
ATOM     21  C   UNL A   1      31.392  27.710  25.906  1.00  0.00     0.044 C 
ATOM     22  C   UNL A   1      32.805  27.509  26.528  1.00  0.00     0.009 C 
ATOM     23  C   UNL A   1      33.326  28.811  27.104  1.00  0.00     0.001 C 
ATOM     24  C   UNL A   1      31.762  30.154  25.608  1.00  0.00     0.065 C 
ATOM     25  C   UNL A   1      33.183  29.896  26.068  1.00  0.00     0.006 C 
ENDBRANCH   9  19
ENDBRANCH   6   8
ENDBRANCH   5   6
ENDBRANCH   4   5
ENDBRANCH   3   4
ENDBRANCH   2   3
ENDBRANCH   1   2
BRANCH   1  26
ATOM     26  C   UNL A   1      36.540  21.067  25.069  1.00  0.00     0.261 C 
BRANCH  26  27
ATOM     27  O   UNL A   1      37.782  21.740  24.891  1.00  0.00    -0.460 OA
BRANCH  27  28
ATOM     28  C   UNL A   1      38.727  21.309  25.739  1.00  0.00     0.338 C 
ATOM     29  O   UNL A   1      39.234  20.182  25.751  1.00  0.00    -0.246 OA
BRANCH  28  30
ATOM     30  C   UNL A   1      39.265  22.434  26.508  1.00  0.00     0.060 A 
ATOM     31  C   UNL A   1      38.628  23.660  26.306  1.00  0.00     0.016 A 
ATOM     32  C   UNL A   1      40.396  22.338  27.326  1.00  0.00     0.016 A 
ATOM     33  C   UNL A   1      39.191  24.823  26.807  1.00  0.00     0.010 A 
ATOM     34  C   UNL A   1      40.961  23.515  27.837  1.00  0.00     0.010 A 
ATOM     35  C   UNL A   1      40.399  24.766  27.513  1.00  0.00    -0.014 A 
BRANCH  35  36
ATOM     36  C   UNL A   1      41.167  26.027  27.674  1.00  0.00     0.031 A 
ATOM     37  C   UNL A   1      40.528  27.165  28.430  1.00  0.00     0.074 A 
ATOM     38  C   UNL A   1      42.449  26.116  27.277  1.00  0.00     0.049 A 
ATOM     39  N   UNL A   1      41.006  28.349  28.714  1.00  0.00    -0.248 NA
ATOM     40  C   UNL A   1      39.168  26.929  28.941  1.00  0.00     0.031 C 
ATOM     41  C   UNL A   1      43.207  25.048  26.627  1.00  0.00     0.029 A 
ATOM     42  N   UNL A   1      43.347  27.149  27.383  1.00  0.00    -0.354 N 
ATOM     43  C   UNL A   1      40.003  29.003  29.424  1.00  0.00     0.074 A 
ATOM     44  C   UNL A   1      38.878  28.097  29.494  1.00  0.00     0.031 C 
ATOM     45  C   UNL A   1      44.458  25.480  26.398  1.00  0.00     0.029 A 
ATOM     46  C   UNL A   1      44.577  26.871  26.835  1.00  0.00     0.049 A 
ATOM     47  H   UNL A   1      43.130  28.009  27.811  1.00  0.00     0.167 HD
ATOM     48  C   UNL A   1      40.022  30.242  29.973  1.00  0.00     0.034 A 
ATOM     49  C   UNL A   1      45.663  27.656  26.681  1.00  0.00     0.034 A 
ATOM     50  C   UNL A   1      41.155  31.132  29.898  1.00  0.00     0.049 A 
ATOM     51  C   UNL A   1      45.620  29.076  27.196  1.00  0.00     0.074 A 
ATOM     52  C   UNL A   1      41.281  32.408  30.418  1.00  0.00     0.029 A 
ATOM     53  N   UNL A   1      42.352  30.846  29.254  1.00  0.00    -0.354 N 
ATOM     54  N   UNL A   1      44.655  29.696  27.836  1.00  0.00    -0.248 NA
ATOM     55  C   UNL A   1      46.814  29.902  26.971  1.00  0.00     0.031 C 
ATOM     56  C   UNL A   1      42.514  32.926  30.013  1.00  0.00     0.029 A 
ATOM     57  C   UNL A   1      43.203  31.937  29.329  1.00  0.00     0.049 A 
ATOM     58  H   UNL A   1      42.564  29.994  28.809  1.00  0.00     0.167 HD
ATOM     59  C   UNL A   1      45.147  30.966  28.131  1.00  0.00     0.074 A 
ATOM     60  C   UNL A   1      46.491  31.025  27.597  1.00  0.00     0.031 C 
ATOM     61  C   UNL A   1      44.546  31.985  28.796  1.00  0.00     0.034 A 
BRANCH  48  62
ATOM     62  C   UNL A   1      38.757  30.730  30.638  1.00  0.00     0.023 A 
ATOM     63  C   UNL A   1      37.694  31.291  29.909  1.00  0.00     0.031 A 
ATOM     64  C   UNL A   1      38.627  30.656  32.038  1.00  0.00     0.131 A 
ATOM     65  C   UNL A   1      36.583  31.819  30.586  1.00  0.00     0.055 A 
ATOM     66  C   UNL A   1      37.482  31.102  32.697  1.00  0.00     0.041 A 
ATOM     67  F   UNL A   1      39.619  30.157  32.790  1.00  0.00    -0.206 F 
ATOM     68  C   UNL A   1      36.456  31.702  31.972  1.00  0.00     0.022 A 
BRANCH  65  69
ATOM     69  S   UNL A   1      35.376  32.797  29.648  1.00  0.00     0.124 S 
ATOM     70  O   UNL A   1      35.055  31.891  28.547  1.00  0.00    -0.237 OA
ATOM     71  O   UNL A   1      34.318  33.014  30.627  1.00  0.00    -0.237 OA
ATOM     72  O   UNL A   1      36.126  33.990  29.263  1.00  0.00    -0.744 OA
ENDBRANCH  65  69
ENDBRANCH  48  62
BRANCH  49  73
ATOM     73  C   UNL A   1      46.868  27.145  25.965  1.00  0.00     0.023 A 
ATOM     74  C   UNL A   1      47.926  26.535  26.657  1.00  0.00     0.031 A 
ATOM     75  C   UNL A   1      47.006  27.319  24.575  1.00  0.00     0.131 A 
ATOM     76  C   UNL A   1      49.094  26.169  25.969  1.00  0.00     0.055 A 
ATOM     77  C   UNL A   1      48.142  26.894  23.885  1.00  0.00     0.041 A 
ATOM     78  F   UNL A   1      46.030  27.904  23.863  1.00  0.00    -0.206 F 
ATOM     79  C   UNL A   1      49.202  26.329  24.585  1.00  0.00     0.022 A 
BRANCH  76  80
ATOM     80  S   UNL A   1      50.516  25.576  26.924  1.00  0.00     0.124 S 
ATOM     81  O   UNL A   1      49.939  24.444  27.641  1.00  0.00    -0.237 OA
ATOM     82  O   UNL A   1      51.474  25.249  25.874  1.00  0.00    -0.237 OA
ATOM     83  O   UNL A   1      50.872  26.724  27.755  1.00  0.00    -0.744 OA
ENDBRANCH  76  80
ENDBRANCH  49  73
BRANCH  61  84
ATOM     84  C   UNL A   1      45.363  33.229  29.060  1.00  0.00     0.023 A 
ATOM     85  C   UNL A   1      45.420  34.298  28.150  1.00  0.00     0.031 A 
ATOM     86  C   UNL A   1      46.078  33.351  30.267  1.00  0.00     0.131 A 
ATOM     87  C   UNL A   1      46.211  35.423  28.442  1.00  0.00     0.055 A 
ATOM     88  C   UNL A   1      46.809  34.496  30.580  1.00  0.00     0.041 A 
ATOM     89  F   UNL A   1      46.063  32.358  31.171  1.00  0.00    -0.206 F 
ATOM     90  C   UNL A   1      46.887  35.537  29.660  1.00  0.00     0.022 A 
BRANCH  87  91
ATOM     91  S   UNL A   1      46.409  36.706  27.176  1.00  0.00     0.124 S 
ATOM     92  O   UNL A   1      45.268  37.576  27.443  1.00  0.00    -0.237 OA
ATOM     93  O   UNL A   1      47.721  37.260  27.493  1.00  0.00    -0.237 OA
ATOM     94  O   UNL A   1      46.340  35.963  25.919  1.00  0.00    -0.744 OA
ENDBRANCH  87  91
ENDBRANCH  61  84
ENDBRANCH  35  36
ENDBRANCH  28  30
ENDBRANCH  27  28
ENDBRANCH  26  27
ENDBRANCH   1  26
TORSDOF 18
ENDMDL
MODEL 2
REMARK VINA RESULT:     -12.7      4.942     10.558
REMARK SMILES C[C@H]1CCCC[C@H]1[N@H+]1[C@@H](C(=O)OCCOCCOC(=O)c2ccc(-c3c4nc(c(-c5cc(S(=O)(=O)[O-])ccc5F)c5ccc([nH]5)c(-c5cc(S(=O)(=O)[O-])ccc5F)c5nc(c(-c6cc(S(=O)(=O)[O-])ccc6F)c6ccc3[nH]6)C=C5)C=C4)cc2)CC[C@H]2CCCC[C@H]21
REMARK SMILES IDX 16 1 15 2 14 3 13 4 12 5 10 6 11 7 9 8 8 9 91 10 84 12 86 13
REMARK SMILES IDX 90 14 85 15 87 16 89 17 88 18 7 19 1 20 2 21 3 22 4 23 6 24
REMARK SMILES IDX 5 25 17 26 18 27 19 28 20 29 21 30 22 31 83 32 23 33 82 34
REMARK SMILES IDX 24 35 25 36 26 37 76 38 27 39 81 40 75 41 77 42 28 43 80 44
REMARK SMILES IDX 74 45 73 46 29 48 61 49 41 50 60 51 42 52 45 53 59 54 78 55
REMARK SMILES IDX 43 56 44 57 58 59 79 60 46 61 30 62 31 63 39 64 32 65 38 66
REMARK SMILES IDX 40 67 37 68 33 69 34 70 35 71 36 72 62 73 63 74 71 75 64 76
REMARK SMILES IDX 70 77 72 78 69 79 65 80 66 81 67 82 68 83 47 84 48 85 56 86
REMARK SMILES IDX 49 87 55 88 57 89 54 90 50 91 51 92 52 93 53 94
REMARK H PARENT 8 11 77 47 45 58
REMARK Flexibility Score: inf
ROOT
ATOM      1  C   UNL A   1      31.518  28.295  27.427  1.00  0.00     0.202 C 
ENDROOT
BRANCH   1   2
ATOM      2  O   UNL A   1      31.294  27.252  26.465  1.00  0.00    -0.374 OA
BRANCH   2   3
ATOM      3  C   UNL A   1      32.242  26.218  26.158  1.00  0.00     0.202 C 
BRANCH   3   4
ATOM      4  C   UNL A   1      31.812  24.759  26.504  1.00  0.00     0.261 C 
BRANCH   4   5
ATOM      5  O   UNL A   1      32.901  23.793  26.284  1.00  0.00    -0.459 OA
BRANCH   5   6
ATOM      6  C   UNL A   1      32.853  22.618  26.981  1.00  0.00     0.365 C 
ATOM      7  O   UNL A   1      32.957  22.585  28.208  1.00  0.00    -0.245 OA
BRANCH   6   8
ATOM      8  C   UNL A   1      32.645  21.293  26.169  1.00  0.00     0.295 C 
ATOM      9  N   UNL A   1      33.749  20.337  25.872  1.00  0.00    -0.318 N 
ATOM     10  C   UNL A   1      32.871  18.987  25.425  1.00  0.00     0.188 C 
ATOM     11  H   UNL A   1      34.400  20.098  26.621  1.00  0.00     0.349 HD
ATOM     12  C   UNL A   1      31.957  21.434  24.798  1.00  0.00     0.078 C 
ATOM     13  C   UNL A   1      33.305  18.978  24.021  1.00  0.00     0.048 C 
ATOM     14  C   UNL A   1      32.637  17.437  25.676  1.00  0.00     0.065 C 
ATOM     15  C   UNL A   1      32.324  20.295  23.701  1.00  0.00     0.016 C 
ATOM     16  C   UNL A   1      34.833  18.394  24.468  1.00  0.00     0.010 C 
ATOM     17  C   UNL A   1      33.663  16.361  25.291  1.00  0.00     0.006 C 
ATOM     18  C   UNL A   1      34.910  16.886  24.628  1.00  0.00     0.001 C 
BRANCH   9  19
ATOM     19  C   UNL A   1      34.825  21.022  24.734  1.00  0.00     0.187 C 
ATOM     20  C   UNL A   1      34.012  23.071  22.834  1.00  0.00     0.014 C 
ATOM     21  C   UNL A   1      35.021  22.469  23.844  1.00  0.00     0.044 C 
ATOM     22  C   UNL A   1      35.803  23.615  24.551  1.00  0.00     0.009 C 
ATOM     23  C   UNL A   1      37.134  23.113  25.073  1.00  0.00     0.001 C 
ATOM     24  C   UNL A   1      36.277  20.713  25.086  1.00  0.00     0.065 C 
ATOM     25  C   UNL A   1      36.904  21.852  25.867  1.00  0.00     0.006 C 
ENDBRANCH   9  19
ENDBRANCH   6   8
ENDBRANCH   5   6
ENDBRANCH   4   5
ENDBRANCH   3   4
ENDBRANCH   2   3
ENDBRANCH   1   2
BRANCH   1  26
ATOM     26  C   UNL A   1      31.728  29.788  27.061  1.00  0.00     0.261 C 
BRANCH  26  27
ATOM     27  O   UNL A   1      33.037  30.120  26.610  1.00  0.00    -0.460 OA
BRANCH  27  28
ATOM     28  C   UNL A   1      33.512  31.235  27.182  1.00  0.00     0.338 C 
ATOM     29  O   UNL A   1      32.848  32.226  27.505  1.00  0.00    -0.246 OA
BRANCH  28  30
ATOM     30  C   UNL A   1      34.900  31.033  27.605  1.00  0.00     0.060 A 
ATOM     31  C   UNL A   1      35.325  29.704  27.657  1.00  0.00     0.016 A 
ATOM     32  C   UNL A   1      35.739  32.072  28.022  1.00  0.00     0.016 A 
ATOM     33  C   UNL A   1      36.537  29.388  28.252  1.00  0.00     0.010 A 
ATOM     34  C   UNL A   1      36.966  31.751  28.618  1.00  0.00     0.010 A 
ATOM     35  C   UNL A   1      37.331  30.402  28.801  1.00  0.00    -0.014 A 
BRANCH  35  36
ATOM     36  C   UNL A   1      38.389  30.008  29.766  1.00  0.00     0.031 A 
ATOM     37  C   UNL A   1      39.441  29.026  29.315  1.00  0.00     0.074 A 
ATOM     38  C   UNL A   1      38.492  30.605  30.967  1.00  0.00     0.049 A 
ATOM     39  N   UNL A   1      40.468  28.548  29.969  1.00  0.00    -0.248 NA
ATOM     40  C   UNL A   1      39.320  28.524  27.938  1.00  0.00     0.031 C 
ATOM     41  C   UNL A   1      37.594  31.642  31.473  1.00  0.00     0.029 A 
ATOM     42  N   UNL A   1      39.414  30.439  31.970  1.00  0.00    -0.354 N 
ATOM     43  C   UNL A   1      41.108  27.680  29.089  1.00  0.00     0.074 A 
ATOM     44  C   UNL A   1      40.330  27.670  27.869  1.00  0.00     0.031 C 
ATOM     45  C   UNL A   1      38.014  32.025  32.691  1.00  0.00     0.029 A 
ATOM     46  C   UNL A   1      39.177  31.224  33.074  1.00  0.00     0.049 A 
ATOM     47  H   UNL A   1      40.172  29.815  31.906  1.00  0.00     0.167 HD
ATOM     48  C   UNL A   1      42.242  26.964  29.278  1.00  0.00     0.034 A 
ATOM     49  C   UNL A   1      39.809  31.271  34.264  1.00  0.00     0.034 A 
ATOM     50  C   UNL A   1      43.009  26.988  30.500  1.00  0.00     0.049 A 
ATOM     51  C   UNL A   1      41.004  30.375  34.497  1.00  0.00     0.074 A 
ATOM     52  C   UNL A   1      44.172  26.302  30.798  1.00  0.00     0.029 A 
ATOM     53  N   UNL A   1      42.684  27.729  31.629  1.00  0.00    -0.354 N 
ATOM     54  N   UNL A   1      41.580  29.533  33.669  1.00  0.00    -0.248 NA
ATOM     55  C   UNL A   1      41.635  30.437  35.822  1.00  0.00     0.031 C 
ATOM     56  C   UNL A   1      44.500  26.555  32.134  1.00  0.00     0.029 A 
ATOM     57  C   UNL A   1      43.603  27.482  32.638  1.00  0.00     0.049 A 
ATOM     58  H   UNL A   1      41.915  28.339  31.703  1.00  0.00     0.167 HD
ATOM     59  C   UNL A   1      42.669  29.005  34.361  1.00  0.00     0.074 A 
ATOM     60  C   UNL A   1      42.667  29.619  35.671  1.00  0.00     0.031 C 
ATOM     61  C   UNL A   1      43.595  28.104  33.943  1.00  0.00     0.034 A 
BRANCH  48  62
ATOM     62  C   UNL A   1      42.680  26.041  28.165  1.00  0.00     0.023 A 
ATOM     63  C   UNL A   1      42.044  24.813  27.915  1.00  0.00     0.031 A 
ATOM     64  C   UNL A   1      43.776  26.391  27.354  1.00  0.00     0.131 A 
ATOM     65  C   UNL A   1      42.552  23.950  26.931  1.00  0.00     0.055 A 
ATOM     66  C   UNL A   1      44.222  25.567  26.320  1.00  0.00     0.041 A 
ATOM     67  F   UNL A   1      44.441  27.537  27.563  1.00  0.00    -0.206 F 
ATOM     68  C   UNL A   1      43.619  24.331  26.113  1.00  0.00     0.022 A 
BRANCH  65  69
ATOM     69  S   UNL A   1      41.901  22.259  26.836  1.00  0.00     0.124 S 
ATOM     70  O   UNL A   1      42.641  21.598  27.910  1.00  0.00    -0.237 OA
ATOM     71  O   UNL A   1      40.476  22.456  27.068  1.00  0.00    -0.237 OA
ATOM     72  O   UNL A   1      42.261  21.827  25.487  1.00  0.00    -0.744 OA
ENDBRANCH  65  69
ENDBRANCH  48  62
BRANCH  49  73
ATOM     73  C   UNL A   1      39.303  32.158  35.353  1.00  0.00     0.023 A 
ATOM     74  C   UNL A   1      39.775  33.470  35.506  1.00  0.00     0.031 A 
ATOM     75  C   UNL A   1      38.379  31.677  36.300  1.00  0.00     0.131 A 
ATOM     76  C   UNL A   1      39.364  34.238  36.607  1.00  0.00     0.055 A 
ATOM     77  C   UNL A   1      37.924  32.467  37.357  1.00  0.00     0.041 A 
ATOM     78  F   UNL A   1      37.900  30.427  36.208  1.00  0.00    -0.206 F 
ATOM     79  C   UNL A   1      38.429  33.751  37.524  1.00  0.00     0.022 A 
BRANCH  76  80
ATOM     80  S   UNL A   1      40.150  35.849  36.887  1.00  0.00     0.124 S 
ATOM     81  O   UNL A   1      39.595  36.227  38.181  1.00  0.00    -0.237 OA
ATOM     82  O   UNL A   1      41.567  35.503  36.872  1.00  0.00    -0.237 OA
ATOM     83  O   UNL A   1      39.693  36.652  35.754  1.00  0.00    -0.744 OA
ENDBRANCH  76  80
ENDBRANCH  49  73
BRANCH  61  84
ATOM     84  C   UNL A   1      44.736  27.784  34.881  1.00  0.00     0.023 A 
ATOM     85  C   UNL A   1      44.666  26.744  35.823  1.00  0.00     0.031 A 
ATOM     86  C   UNL A   1      45.929  28.527  34.805  1.00  0.00     0.131 A 
ATOM     87  C   UNL A   1      45.753  26.504  36.680  1.00  0.00     0.055 A 
ATOM     88  C   UNL A   1      47.028  28.243  35.615  1.00  0.00     0.041 A 
ATOM     89  F   UNL A   1      46.050  29.536  33.927  1.00  0.00    -0.206 F 
ATOM     90  C   UNL A   1      46.941  27.232  36.567  1.00  0.00     0.022 A 
BRANCH  87  91
ATOM     91  S   UNL A   1      45.570  25.276  38.003  1.00  0.00     0.124 S 
ATOM     92  O   UNL A   1      46.858  25.369  38.684  1.00  0.00    -0.237 OA
ATOM     93  O   UNL A   1      44.419  25.782  38.744  1.00  0.00    -0.237 OA
ATOM     94  O   UNL A   1      45.339  24.026  37.282  1.00  0.00    -0.744 OA
ENDBRANCH  87  91
ENDBRANCH  61  84
ENDBRANCH  35  36
ENDBRANCH  28  30
ENDBRANCH  27  28
ENDBRANCH  26  27
ENDBRANCH   1  26
TORSDOF 18
ENDMDL
MODEL 3
REMARK VINA RESULT:     -12.5      1.868      2.608
REMARK SMILES C[C@H]1CCCC[C@H]1[N@H+]1[C@@H](C(=O)OCCOCCOC(=O)c2ccc(-c3c4nc(c(-c5cc(S(=O)(=O)[O-])ccc5F)c5ccc([nH]5)c(-c5cc(S(=O)(=O)[O-])ccc5F)c5nc(c(-c6cc(S(=O)(=O)[O-])ccc6F)c6ccc3[nH]6)C=C5)C=C4)cc2)CC[C@H]2CCCC[C@H]21
REMARK SMILES IDX 16 1 15 2 14 3 13 4 12 5 10 6 11 7 9 8 8 9 91 10 84 12 86 13
REMARK SMILES IDX 90 14 85 15 87 16 89 17 88 18 7 19 1 20 2 21 3 22 4 23 6 24
REMARK SMILES IDX 5 25 17 26 18 27 19 28 20 29 21 30 22 31 83 32 23 33 82 34
REMARK SMILES IDX 24 35 25 36 26 37 76 38 27 39 81 40 75 41 77 42 28 43 80 44
REMARK SMILES IDX 74 45 73 46 29 48 61 49 41 50 60 51 42 52 45 53 59 54 78 55
REMARK SMILES IDX 43 56 44 57 58 59 79 60 46 61 30 62 31 63 39 64 32 65 38 66
REMARK SMILES IDX 40 67 37 68 33 69 34 70 35 71 36 72 62 73 63 74 71 75 64 76
REMARK SMILES IDX 70 77 72 78 69 79 65 80 66 81 67 82 68 83 47 84 48 85 56 86
REMARK SMILES IDX 49 87 55 88 57 89 54 90 50 91 51 92 52 93 53 94
REMARK H PARENT 8 11 77 47 45 58
REMARK Flexibility Score: inf
ROOT
ATOM      1  C   UNL A   1      35.521  20.833  25.299  1.00  0.00     0.202 C 
ENDROOT
BRANCH   1   2
ATOM      2  O   UNL A   1      34.353  20.307  24.649  1.00  0.00    -0.374 OA
BRANCH   2   3
ATOM      3  C   UNL A   1      33.240  21.104  24.218  1.00  0.00     0.202 C 
BRANCH   3   4
ATOM      4  C   UNL A   1      32.112  21.347  25.268  1.00  0.00     0.261 C 
BRANCH   4   5
ATOM      5  O   UNL A   1      31.746  22.770  25.370  1.00  0.00    -0.459 OA
BRANCH   5   6
ATOM      6  C   UNL A   1      31.093  23.332  24.308  1.00  0.00     0.365 C 
ATOM      7  O   UNL A   1      30.865  22.699  23.276  1.00  0.00    -0.245 OA
BRANCH   6   8
ATOM      8  C   UNL A   1      30.618  24.820  24.445  1.00  0.00     0.295 C 
ATOM      9  N   UNL A   1      31.050  25.902  23.515  1.00  0.00    -0.318 N 
ATOM     10  C   UNL A   1      29.913  27.076  23.866  1.00  0.00     0.188 C 
ATOM     11  H   UNL A   1      31.055  25.709  22.513  1.00  0.00     0.349 HD
ATOM     12  C   UNL A   1      30.818  25.475  25.824  1.00  0.00     0.078 C 
ATOM     13  C   UNL A   1      30.859  28.037  24.451  1.00  0.00     0.048 C 
ATOM     14  C   UNL A   1      28.821  28.058  23.266  1.00  0.00     0.065 C 
ATOM     15  C   UNL A   1      30.985  27.090  25.824  1.00  0.00     0.016 C 
ATOM     16  C   UNL A   1      31.454  28.430  22.912  1.00  0.00     0.010 C 
ATOM     17  C   UNL A   1      29.173  29.275  22.398  1.00  0.00     0.006 C 
ATOM     18  C   UNL A   1      30.648  29.486  22.175  1.00  0.00     0.001 C 
BRANCH   9  19
ATOM     19  C   UNL A   1      32.701  26.265  23.769  1.00  0.00     0.187 C 
ATOM     20  C   UNL A   1      33.732  27.206  26.322  1.00  0.00     0.014 C 
ATOM     21  C   UNL A   1      33.832  26.328  25.049  1.00  0.00     0.044 C 
ATOM     22  C   UNL A   1      34.571  24.999  25.386  1.00  0.00     0.009 C 
ATOM     23  C   UNL A   1      35.192  24.401  24.139  1.00  0.00     0.001 C 
ATOM     24  C   UNL A   1      33.573  25.693  22.656  1.00  0.00     0.065 C 
ATOM     25  C   UNL A   1      34.151  24.348  23.052  1.00  0.00     0.006 C 
ENDBRANCH   9  19
ENDBRANCH   6   8
ENDBRANCH   5   6
ENDBRANCH   4   5
ENDBRANCH   3   4
ENDBRANCH   2   3
ENDBRANCH   1   2
BRANCH   1  26
ATOM     26  C   UNL A   1      36.968  20.348  25.018  1.00  0.00     0.261 C 
BRANCH  26  27
ATOM     27  O   UNL A   1      37.958  21.371  25.022  1.00  0.00    -0.460 OA
BRANCH  27  28
ATOM     28  C   UNL A   1      39.018  21.059  25.781  1.00  0.00     0.338 C 
ATOM     29  O   UNL A   1      39.671  20.012  25.723  1.00  0.00    -0.246 OA
BRANCH  28  30
ATOM     30  C   UNL A   1      39.461  22.234  26.536  1.00  0.00     0.060 A 
ATOM     31  C   UNL A   1      38.812  23.430  26.222  1.00  0.00     0.016 A 
ATOM     32  C   UNL A   1      40.521  22.210  27.449  1.00  0.00     0.016 A 
ATOM     33  C   UNL A   1      39.302  24.632  26.710  1.00  0.00     0.010 A 
ATOM     34  C   UNL A   1      41.010  23.425  27.946  1.00  0.00     0.010 A 
ATOM     35  C   UNL A   1      40.446  24.643  27.516  1.00  0.00    -0.014 A 
BRANCH  35  36
ATOM     36  C   UNL A   1      41.167  25.932  27.678  1.00  0.00     0.031 A 
ATOM     37  C   UNL A   1      40.509  27.024  28.485  1.00  0.00     0.074 A 
ATOM     38  C   UNL A   1      42.427  26.085  27.236  1.00  0.00     0.049 A 
ATOM     39  N   UNL A   1      40.947  28.221  28.778  1.00  0.00    -0.248 NA
ATOM     40  C   UNL A   1      39.182  26.718  29.041  1.00  0.00     0.031 C 
ATOM     41  C   UNL A   1      43.204  25.065  26.532  1.00  0.00     0.029 A 
ATOM     42  N   UNL A   1      43.284  27.153  27.333  1.00  0.00    -0.354 N 
ATOM     43  C   UNL A   1      39.946  28.816  29.540  1.00  0.00     0.074 A 
ATOM     44  C   UNL A   1      38.863  27.860  29.631  1.00  0.00     0.031 C 
ATOM     45  C   UNL A   1      44.427  25.556  26.267  1.00  0.00     0.029 A 
ATOM     46  C   UNL A   1      44.503  26.941  26.732  1.00  0.00     0.049 A 
ATOM     47  H   UNL A   1      43.047  27.993  27.788  1.00  0.00     0.167 HD
ATOM     48  C   UNL A   1      39.933  30.041  30.118  1.00  0.00     0.034 A 
ATOM     49  C   UNL A   1      45.548  27.775  26.556  1.00  0.00     0.034 A 
ATOM     50  C   UNL A   1      41.024  30.981  30.022  1.00  0.00     0.049 A 
ATOM     51  C   UNL A   1      45.465  29.180  27.106  1.00  0.00     0.074 A 
ATOM     52  C   UNL A   1      41.116  32.250  30.567  1.00  0.00     0.029 A 
ATOM     53  N   UNL A   1      42.206  30.761  29.327  1.00  0.00    -0.354 N 
ATOM     54  N   UNL A   1      44.500  29.743  27.797  1.00  0.00    -0.248 NA
ATOM     55  C   UNL A   1      46.614  30.062  26.856  1.00  0.00     0.031 C 
ATOM     56  C   UNL A   1      42.310  32.830  30.128  1.00  0.00     0.029 A 
ATOM     57  C   UNL A   1      43.013  31.887  29.396  1.00  0.00     0.049 A 
ATOM     58  H   UNL A   1      42.437  29.929  28.854  1.00  0.00     0.167 HD
ATOM     59  C   UNL A   1      44.949  31.027  28.103  1.00  0.00     0.074 A 
ATOM     60  C   UNL A   1      46.267  31.155  27.521  1.00  0.00     0.031 C 
ATOM     61  C   UNL A   1      44.331  32.004  28.815  1.00  0.00     0.034 A 
BRANCH  48  62
ATOM     62  C   UNL A   1      38.675  30.460  30.841  1.00  0.00     0.023 A 
ATOM     63  C   UNL A   1      37.600  31.080  30.181  1.00  0.00     0.031 A 
ATOM     64  C   UNL A   1      38.564  30.257  32.230  1.00  0.00     0.131 A 
ATOM     65  C   UNL A   1      36.496  31.537  30.918  1.00  0.00     0.055 A 
ATOM     66  C   UNL A   1      37.426  30.635  32.942  1.00  0.00     0.041 A 
ATOM     67  F   UNL A   1      39.569  29.697  32.920  1.00  0.00    -0.206 F 
ATOM     68  C   UNL A   1      36.389  31.293  32.289  1.00  0.00     0.022 A 
BRANCH  65  69
ATOM     69  S   UNL A   1      35.273  32.590  30.089  1.00  0.00     0.124 S 
ATOM     70  O   UNL A   1      34.799  31.708  29.024  1.00  0.00    -0.237 OA
ATOM     71  O   UNL A   1      34.322  32.870  31.159  1.00  0.00    -0.237 OA
ATOM     72  O   UNL A   1      36.058  33.736  29.635  1.00  0.00    -0.744 OA
ENDBRANCH  65  69
ENDBRANCH  48  62
BRANCH  49  73
ATOM     73  C   UNL A   1      46.745  27.332  25.783  1.00  0.00     0.023 A 
ATOM     74  C   UNL A   1      46.977  27.781  24.474  1.00  0.00     0.031 A 
ATOM     75  C   UNL A   1      47.645  26.396  26.326  1.00  0.00     0.131 A 
ATOM     76  C   UNL A   1      48.050  27.258  23.734  1.00  0.00     0.055 A 
ATOM     77  C   UNL A   1      48.747  25.927  25.610  1.00  0.00     0.041 A 
ATOM     78  F   UNL A   1      47.467  25.925  27.570  1.00  0.00    -0.206 F 
ATOM     79  C   UNL A   1      48.946  26.347  24.299  1.00  0.00     0.022 A 
BRANCH  76  80
ATOM     80  S   UNL A   1      48.198  27.705  21.983  1.00  0.00     0.124 S 
ATOM     81  O   UNL A   1      49.371  28.572  21.998  1.00  0.00    -0.237 OA
ATOM     82  O   UNL A   1      48.371  26.402  21.350  1.00  0.00    -0.237 OA
ATOM     83  O   UNL A   1      46.931  28.373  21.693  1.00  0.00    -0.744 OA
ENDBRANCH  76  80
ENDBRANCH  49  73
BRANCH  61  84
ATOM     84  C   UNL A   1      45.104  33.276  29.077  1.00  0.00     0.023 A 
ATOM     85  C   UNL A   1      45.102  34.357  28.179  1.00  0.00     0.031 A 
ATOM     86  C   UNL A   1      45.838  33.412  30.271  1.00  0.00     0.131 A 
ATOM     87  C   UNL A   1      45.854  35.508  28.469  1.00  0.00     0.055 A 
ATOM     88  C   UNL A   1      46.530  34.582  30.583  1.00  0.00     0.041 A 
ATOM     89  F   UNL A   1      45.879  32.409  31.164  1.00  0.00    -0.206 F 
ATOM     90  C   UNL A   1      46.549  35.635  29.675  1.00  0.00     0.022 A 
BRANCH  87  91
ATOM     91  S   UNL A   1      45.978  36.812  27.214  1.00  0.00     0.124 S 
ATOM     92  O   UNL A   1      46.973  37.705  27.801  1.00  0.00    -0.237 OA
ATOM     93  O   UNL A   1      46.404  36.071  26.032  1.00  0.00    -0.237 OA
ATOM     94  O   UNL A   1      44.622  37.354  27.147  1.00  0.00    -0.744 OA
ENDBRANCH  87  91
ENDBRANCH  61  84
ENDBRANCH  35  36
ENDBRANCH  28  30
ENDBRANCH  27  28
ENDBRANCH  26  27
ENDBRANCH   1  26
TORSDOF 18
ENDMDL
