MODEL 1
REMARK VINA RESULT:     -10.5      0.000      0.000
REMARK SMILES C[C@@H](C(=O)OCCOCCOC(=O)c1ccc(-c2c3nc(c(-c4cc(S(=O)(=O)[O-])ccc4F)c4ccc([nH]4)c(-c4cc(S(=O)(=O)[O-])ccc4F)c4nc(c(-c5cc(S(=O)(=O)[O-])ccc5F)c5ccc2[nH]5)C=C4)C=C3)cc1)[C@@H](C)C(=O)c1cccc(Cl)c1
REMARK SMILES IDX 8 1 7 2 6 3 5 4 3 5 4 6 2 7 1 8 77 9 78 10 79 11 80 12 81 13
REMARK SMILES IDX 82 14 87 15 83 16 85 17 84 18 86 19 9 20 10 21 11 22 12 23
REMARK SMILES IDX 13 24 14 25 15 26 76 27 16 28 75 29 17 30 18 31 19 32 69 33
REMARK SMILES IDX 20 34 74 35 68 36 70 37 21 38 73 39 67 40 66 41 22 43 54 44
REMARK SMILES IDX 34 45 53 46 35 47 38 48 52 49 71 50 36 51 37 52 51 54 72 55
REMARK SMILES IDX 39 56 23 57 24 58 32 59 25 60 31 61 33 62 30 63 26 64 27 65
REMARK SMILES IDX 28 66 29 67 55 68 56 69 64 70 57 71 63 72 65 73 62 74 58 75
REMARK SMILES IDX 59 76 60 77 61 78 40 79 41 80 49 81 42 82 48 83 50 84 47 85
REMARK SMILES IDX 43 86 44 87 45 88 46 89
REMARK H PARENT 70 42 38 53
REMARK Flexibility Score: inf
ROOT
ATOM      1  O   UNL A   1      35.462  21.611  25.565  1.00  0.00    -0.374 OA
ENDROOT
BRANCH   1   2
ATOM      2  C   UNL A   1      34.528  21.356  26.608  1.00  0.00     0.202 C 
BRANCH   2   3
ATOM      3  C   UNL A   1      34.071  22.529  27.484  1.00  0.00     0.261 C 
BRANCH   3   4
ATOM      4  O   UNL A   1      33.736  23.710  26.740  1.00  0.00    -0.463 OA
BRANCH   4   5
ATOM      5  C   UNL A   1      32.404  23.903  26.559  1.00  0.00     0.309 C 
ATOM      6  O   UNL A   1      31.563  23.699  27.424  1.00  0.00    -0.252 OA
BRANCH   5   7
ATOM      7  C   UNL A   1      32.044  24.369  25.144  1.00  0.00     0.106 C 
ATOM      8  C   UNL A   1      32.747  23.571  24.031  1.00  0.00     0.021 C 
BRANCH   7   9
ATOM      9  C   UNL A   1      32.312  25.890  24.997  1.00  0.00     0.072 C 
ATOM     10  C   UNL A   1      32.049  26.431  23.589  1.00  0.00     0.017 C 
BRANCH   9  11
ATOM     11  C   UNL A   1      31.719  26.909  25.993  1.00  0.00     0.166 C 
ATOM     12  O   UNL A   1      30.616  26.648  26.493  1.00  0.00    -0.294 OA
BRANCH  11  13
ATOM     13  C   UNL A   1      32.443  28.120  26.523  1.00  0.00     0.019 A 
ATOM     14  C   UNL A   1      31.705  29.315  26.614  1.00  0.00     0.012 A 
ATOM     15  C   UNL A   1      33.793  28.159  26.875  1.00  0.00     0.032 A 
ATOM     16  C   UNL A   1      32.302  30.510  27.028  1.00  0.00     0.002 A 
ATOM     17  C   UNL A   1      34.394  29.360  27.264  1.00  0.00     0.041 A 
ATOM     18  C   UNL A   1      33.655  30.535  27.346  1.00  0.00     0.020 A 
ATOM     19  Cl  UNL A   1      36.077  29.385  27.627  1.00  0.00    -0.084 Cl
ENDBRANCH  11  13
ENDBRANCH   9  11
ENDBRANCH   7   9
ENDBRANCH   5   7
ENDBRANCH   4   5
ENDBRANCH   3   4
ENDBRANCH   2   3
ENDBRANCH   1   2
BRANCH   1  20
ATOM     20  C   UNL A   1      35.953  20.511  24.801  1.00  0.00     0.202 C 
BRANCH  20  21
ATOM     21  C   UNL A   1      37.400  20.046  25.014  1.00  0.00     0.261 C 
BRANCH  21  22
ATOM     22  O   UNL A   1      38.334  21.138  25.122  1.00  0.00    -0.460 OA
BRANCH  22  23
ATOM     23  C   UNL A   1      39.358  20.913  25.980  1.00  0.00     0.338 C 
ATOM     24  O   UNL A   1      40.016  19.882  26.083  1.00  0.00    -0.246 OA
BRANCH  23  25
ATOM     25  C   UNL A   1      39.740  22.153  26.672  1.00  0.00     0.060 A 
ATOM     26  C   UNL A   1      39.131  23.344  26.251  1.00  0.00     0.016 A 
ATOM     27  C   UNL A   1      40.756  22.175  27.629  1.00  0.00     0.016 A 
ATOM     28  C   UNL A   1      39.570  24.568  26.752  1.00  0.00     0.010 A 
ATOM     29  C   UNL A   1      41.204  23.408  28.121  1.00  0.00     0.010 A 
ATOM     30  C   UNL A   1      40.638  24.610  27.656  1.00  0.00    -0.014 A 
BRANCH  30  31
ATOM     31  C   UNL A   1      41.264  25.918  27.975  1.00  0.00     0.031 A 
ATOM     32  C   UNL A   1      42.662  26.192  27.487  1.00  0.00     0.074 A 
ATOM     33  C   UNL A   1      40.581  26.864  28.643  1.00  0.00     0.049 A 
ATOM     34  N   UNL A   1      43.410  27.251  27.661  1.00  0.00    -0.248 NA
ATOM     35  C   UNL A   1      43.299  25.127  26.699  1.00  0.00     0.031 C 
ATOM     36  C   UNL A   1      39.203  26.733  29.114  1.00  0.00     0.029 A 
ATOM     37  N   UNL A   1      40.953  28.124  29.041  1.00  0.00    -0.354 N 
ATOM     38  C   UNL A   1      44.608  26.978  27.007  1.00  0.00     0.074 A 
ATOM     39  C   UNL A   1      44.496  25.641  26.465  1.00  0.00     0.031 C 
ATOM     40  C   UNL A   1      38.848  27.867  29.743  1.00  0.00     0.029 A 
ATOM     41  C   UNL A   1      39.982  28.788  29.753  1.00  0.00     0.049 A 
ATOM     42  H   UNL A   1      41.833  28.514  28.835  1.00  0.00     0.167 HD
ATOM     43  C   UNL A   1      45.697  27.775  26.866  1.00  0.00     0.034 A 
ATOM     44  C   UNL A   1      40.017  29.991  30.361  1.00  0.00     0.034 A 
ATOM     45  C   UNL A   1      45.796  29.103  27.420  1.00  0.00     0.049 A 
ATOM     46  C   UNL A   1      41.275  30.821  30.270  1.00  0.00     0.074 A 
ATOM     47  C   UNL A   1      46.844  30.002  27.323  1.00  0.00     0.029 A 
ATOM     48  N   UNL A   1      44.815  29.721  28.186  1.00  0.00    -0.354 N 
ATOM     49  N   UNL A   1      42.399  30.556  29.644  1.00  0.00    -0.248 NA
ATOM     50  C   UNL A   1      41.265  32.117  30.963  1.00  0.00     0.031 C 
ATOM     51  C   UNL A   1      46.528  31.129  28.090  1.00  0.00     0.029 A 
ATOM     52  C   UNL A   1      45.250  30.970  28.601  1.00  0.00     0.049 A 
ATOM     53  H   UNL A   1      43.939  29.327  28.404  1.00  0.00     0.167 HD
ATOM     54  C   UNL A   1      43.216  31.667  29.841  1.00  0.00     0.074 A 
ATOM     55  C   UNL A   1      42.451  32.608  30.633  1.00  0.00     0.031 C 
ATOM     56  C   UNL A   1      44.480  31.895  29.401  1.00  0.00     0.034 A 
BRANCH  43  57
ATOM     57  C   UNL A   1      46.887  27.201  26.136  1.00  0.00     0.023 A 
ATOM     58  C   UNL A   1      47.915  26.516  26.809  1.00  0.00     0.031 A 
ATOM     59  C   UNL A   1      47.008  27.366  24.744  1.00  0.00     0.131 A 
ATOM     60  C   UNL A   1      49.048  26.084  26.102  1.00  0.00     0.055 A 
ATOM     61  C   UNL A   1      48.101  26.865  24.035  1.00  0.00     0.041 A 
ATOM     62  F   UNL A   1      46.071  28.031  24.051  1.00  0.00    -0.206 F 
ATOM     63  C   UNL A   1      49.136  26.232  24.715  1.00  0.00     0.022 A 
BRANCH  60  64
ATOM     64  S   UNL A   1      50.466  25.448  27.038  1.00  0.00     0.124 S 
ATOM     65  O   UNL A   1      51.423  25.168  25.971  1.00  0.00    -0.237 OA
ATOM     66  O   UNL A   1      50.793  26.567  27.914  1.00  0.00    -0.237 OA
ATOM     67  O   UNL A   1      49.931  24.265  27.709  1.00  0.00    -0.744 OA
ENDBRANCH  60  64
ENDBRANCH  43  57
BRANCH  44  68
ATOM     68  C   UNL A   1      38.846  30.475  31.150  1.00  0.00     0.023 A 
ATOM     69  C   UNL A   1      37.838  31.248  30.555  1.00  0.00     0.031 A 
ATOM     70  C   UNL A   1      38.754  30.219  32.531  1.00  0.00     0.131 A 
ATOM     71  C   UNL A   1      36.805  31.778  31.344  1.00  0.00     0.055 A 
ATOM     72  C   UNL A   1      37.696  30.704  33.301  1.00  0.00     0.041 A 
ATOM     73  F   UNL A   1      39.693  29.487  33.150  1.00  0.00    -0.206 F 
ATOM     74  C   UNL A   1      36.721  31.499  32.711  1.00  0.00     0.022 A 
BRANCH  71  75
ATOM     75  S   UNL A   1      35.618  32.913  30.575  1.00  0.00     0.124 S 
ATOM     76  O   UNL A   1      36.124  34.210  31.007  1.00  0.00    -0.237 OA
ATOM     77  O   UNL A   1      35.776  32.600  29.159  1.00  0.00    -0.237 OA
ATOM     78  O   UNL A   1      34.339  32.514  31.160  1.00  0.00    -0.744 OA
ENDBRANCH  71  75
ENDBRANCH  44  68
BRANCH  56  79
ATOM     79  C   UNL A   1      45.092  33.235  29.731  1.00  0.00     0.023 A 
ATOM     80  C   UNL A   1      44.977  34.337  28.865  1.00  0.00     0.031 A 
ATOM     81  C   UNL A   1      45.810  33.407  30.928  1.00  0.00     0.131 A 
ATOM     82  C   UNL A   1      45.618  35.544  29.182  1.00  0.00     0.055 A 
ATOM     83  C   UNL A   1      46.393  34.628  31.266  1.00  0.00     0.041 A 
ATOM     84  F   UNL A   1      45.953  32.389  31.791  1.00  0.00    -0.206 F 
ATOM     85  C   UNL A   1      46.311  35.702  30.385  1.00  0.00     0.022 A 
BRANCH  82  86
ATOM     86  S   UNL A   1      45.608  36.884  27.959  1.00  0.00     0.124 S 
ATOM     87  O   UNL A   1      45.371  38.057  28.796  1.00  0.00    -0.237 OA
ATOM     88  O   UNL A   1      46.938  36.781  27.370  1.00  0.00    -0.237 OA
ATOM     89  O   UNL A   1      44.507  36.527  27.066  1.00  0.00    -0.744 OA
ENDBRANCH  82  86
ENDBRANCH  56  79
ENDBRANCH  30  31
ENDBRANCH  23  25
ENDBRANCH  22  23
ENDBRANCH  21  22
ENDBRANCH  20  21
ENDBRANCH   1  20
TORSDOF 20
ENDMDL
MODEL 2
REMARK VINA RESULT:     -10.4      2.048      7.929
REMARK SMILES C[C@@H](C(=O)OCCOCCOC(=O)c1ccc(-c2c3nc(c(-c4cc(S(=O)(=O)[O-])ccc4F)c4ccc([nH]4)c(-c4cc(S(=O)(=O)[O-])ccc4F)c4nc(c(-c5cc(S(=O)(=O)[O-])ccc5F)c5ccc2[nH]5)C=C4)C=C3)cc1)[C@@H](C)C(=O)c1cccc(Cl)c1
REMARK SMILES IDX 8 1 7 2 6 3 5 4 3 5 4 6 2 7 1 8 77 9 78 10 79 11 80 12 81 13
REMARK SMILES IDX 82 14 87 15 83 16 85 17 84 18 86 19 9 20 10 21 11 22 12 23
REMARK SMILES IDX 13 24 14 25 15 26 76 27 16 28 75 29 17 30 18 31 19 32 69 33
REMARK SMILES IDX 20 34 74 35 68 36 70 37 21 38 73 39 67 40 66 41 22 43 54 44
REMARK SMILES IDX 34 45 53 46 35 47 38 48 52 49 71 50 36 51 37 52 51 54 72 55
REMARK SMILES IDX 39 56 23 57 24 58 32 59 25 60 31 61 33 62 30 63 26 64 27 65
REMARK SMILES IDX 28 66 29 67 55 68 56 69 64 70 57 71 63 72 65 73 62 74 58 75
REMARK SMILES IDX 59 76 60 77 61 78 40 79 41 80 49 81 42 82 48 83 50 84 47 85
REMARK SMILES IDX 43 86 44 87 45 88 46 89
REMARK H PARENT 70 42 38 53
REMARK Flexibility Score: inf
ROOT
ATOM      1  O   UNL A   1      35.027  21.380  25.465  1.00  0.00    -0.374 OA
ENDROOT
BRANCH   1   2
ATOM      2  C   UNL A   1      33.667  21.273  25.873  1.00  0.00     0.202 C 
BRANCH   2   3
ATOM      3  C   UNL A   1      32.725  22.452  25.596  1.00  0.00     0.261 C 
BRANCH   3   4
ATOM      4  O   UNL A   1      33.379  23.592  25.021  1.00  0.00    -0.463 OA
BRANCH   4   5
ATOM      5  C   UNL A   1      33.140  23.769  23.695  1.00  0.00     0.309 C 
ATOM      6  O   UNL A   1      33.504  22.986  22.828  1.00  0.00    -0.252 OA
BRANCH   5   7
ATOM      7  C   UNL A   1      32.397  25.072  23.379  1.00  0.00     0.106 C 
ATOM      8  C   UNL A   1      30.921  24.866  22.998  1.00  0.00     0.021 C 
BRANCH   7   9
ATOM      9  C   UNL A   1      33.154  25.866  22.282  1.00  0.00     0.072 C 
ATOM     10  C   UNL A   1      32.625  25.620  20.866  1.00  0.00     0.017 C 
BRANCH   9  11
ATOM     11  C   UNL A   1      33.401  27.383  22.417  1.00  0.00     0.166 C 
ATOM     12  O   UNL A   1      34.286  27.886  21.710  1.00  0.00    -0.294 OA
BRANCH  11  13
ATOM     13  C   UNL A   1      32.550  28.327  23.227  1.00  0.00     0.019 A 
ATOM     14  C   UNL A   1      33.098  28.805  24.432  1.00  0.00     0.012 A 
ATOM     15  C   UNL A   1      31.250  28.718  22.901  1.00  0.00     0.032 A 
ATOM     16  C   UNL A   1      32.364  29.631  25.289  1.00  0.00     0.002 A 
ATOM     17  C   UNL A   1      30.509  29.523  23.772  1.00  0.00     0.041 A 
ATOM     18  C   UNL A   1      31.060  29.984  24.962  1.00  0.00     0.020 A 
ATOM     19  Cl  UNL A   1      28.884  29.929  23.371  1.00  0.00    -0.084 Cl
ENDBRANCH  11  13
ENDBRANCH   9  11
ENDBRANCH   7   9
ENDBRANCH   5   7
ENDBRANCH   4   5
ENDBRANCH   3   4
ENDBRANCH   2   3
ENDBRANCH   1   2
BRANCH   1  20
ATOM     20  C   UNL A   1      35.660  20.240  24.887  1.00  0.00     0.202 C 
BRANCH  20  21
ATOM     21  C   UNL A   1      37.173  20.058  25.071  1.00  0.00     0.261 C 
BRANCH  21  22
ATOM     22  O   UNL A   1      37.842  21.269  25.472  1.00  0.00    -0.460 OA
BRANCH  22  23
ATOM     23  C   UNL A   1      39.074  21.076  26.002  1.00  0.00     0.338 C 
ATOM     24  O   UNL A   1      39.787  20.087  25.861  1.00  0.00    -0.246 OA
BRANCH  23  25
ATOM     25  C   UNL A   1      39.569  22.309  26.635  1.00  0.00     0.060 A 
ATOM     26  C   UNL A   1      39.012  23.523  26.210  1.00  0.00     0.016 A 
ATOM     27  C   UNL A   1      40.634  22.293  27.536  1.00  0.00     0.016 A 
ATOM     28  C   UNL A   1      39.551  24.731  26.649  1.00  0.00     0.010 A 
ATOM     29  C   UNL A   1      41.182  23.508  27.966  1.00  0.00     0.010 A 
ATOM     30  C   UNL A   1      40.667  24.730  27.495  1.00  0.00    -0.014 A 
BRANCH  30  31
ATOM     31  C   UNL A   1      41.389  26.005  27.740  1.00  0.00     0.031 A 
ATOM     32  C   UNL A   1      40.700  27.091  28.522  1.00  0.00     0.074 A 
ATOM     33  C   UNL A   1      42.654  26.172  27.316  1.00  0.00     0.049 A 
ATOM     34  N   UNL A   1      41.127  28.286  28.840  1.00  0.00    -0.248 NA
ATOM     35  C   UNL A   1      39.346  26.785  29.010  1.00  0.00     0.031 C 
ATOM     36  C   UNL A   1      43.442  25.169  26.600  1.00  0.00     0.029 A 
ATOM     37  N   UNL A   1      43.500  27.246  27.429  1.00  0.00    -0.354 N 
ATOM     38  C   UNL A   1      40.095  28.877  29.561  1.00  0.00     0.074 A 
ATOM     39  C   UNL A   1      39.009  27.921  29.602  1.00  0.00     0.031 C 
ATOM     40  C   UNL A   1      44.656  25.680  26.332  1.00  0.00     0.029 A 
ATOM     41  C   UNL A   1      44.719  27.055  26.822  1.00  0.00     0.049 A 
ATOM     42  H   UNL A   1      43.256  28.076  27.899  1.00  0.00     0.167 HD
ATOM     43  C   UNL A   1      40.060  30.103  30.142  1.00  0.00     0.034 A 
ATOM     44  C   UNL A   1      45.756  27.903  26.662  1.00  0.00     0.034 A 
ATOM     45  C   UNL A   1      41.148  31.048  30.085  1.00  0.00     0.049 A 
ATOM     46  C   UNL A   1      45.657  29.296  27.236  1.00  0.00     0.074 A 
ATOM     47  C   UNL A   1      41.226  32.308  30.652  1.00  0.00     0.029 A 
ATOM     48  N   UNL A   1      42.345  30.843  29.411  1.00  0.00    -0.354 N 
ATOM     49  N   UNL A   1      44.679  29.842  27.922  1.00  0.00    -0.248 NA
ATOM     50  C   UNL A   1      46.808  30.184  27.021  1.00  0.00     0.031 C 
ATOM     51  C   UNL A   1      42.437  32.892  30.259  1.00  0.00     0.029 A 
ATOM     52  C   UNL A   1      43.151  31.967  29.514  1.00  0.00     0.049 A 
ATOM     53  H   UNL A   1      42.587  30.019  28.929  1.00  0.00     0.167 HD
ATOM     54  C   UNL A   1      45.111  31.126  28.246  1.00  0.00     0.074 A 
ATOM     55  C   UNL A   1      46.442  31.266  27.693  1.00  0.00     0.031 C 
ATOM     56  C   UNL A   1      44.473  32.098  28.947  1.00  0.00     0.034 A 
BRANCH  43  57
ATOM     57  C   UNL A   1      38.780  30.507  30.833  1.00  0.00     0.023 A 
ATOM     58  C   UNL A   1      37.719  31.114  30.137  1.00  0.00     0.031 A 
ATOM     59  C   UNL A   1      38.631  30.307  32.217  1.00  0.00     0.131 A 
ATOM     60  C   UNL A   1      36.587  31.560  30.839  1.00  0.00     0.055 A 
ATOM     61  C   UNL A   1      37.471  30.684  32.895  1.00  0.00     0.041 A 
ATOM     62  F   UNL A   1      39.620  29.755  32.937  1.00  0.00    -0.206 F 
ATOM     63  C   UNL A   1      36.446  31.326  32.210  1.00  0.00     0.022 A 
BRANCH  60  64
ATOM     64  S   UNL A   1      35.363  32.571  29.961  1.00  0.00     0.124 S 
ATOM     65  O   UNL A   1      34.346  32.765  30.991  1.00  0.00    -0.237 OA
ATOM     66  O   UNL A   1      36.135  33.753  29.594  1.00  0.00    -0.237 OA
ATOM     67  O   UNL A   1      34.954  31.722  28.845  1.00  0.00    -0.744 OA
ENDBRANCH  60  64
ENDBRANCH  43  57
BRANCH  44  68
ATOM     68  C   UNL A   1      46.963  27.486  25.890  1.00  0.00     0.023 A 
ATOM     69  C   UNL A   1      47.124  27.842  24.543  1.00  0.00     0.031 A 
ATOM     70  C   UNL A   1      47.946  26.669  26.479  1.00  0.00     0.131 A 
ATOM     71  C   UNL A   1      48.217  27.346  23.815  1.00  0.00     0.055 A 
ATOM     72  C   UNL A   1      49.058  26.222  25.765  1.00  0.00     0.041 A 
ATOM     73  F   UNL A   1      47.839  26.296  27.764  1.00  0.00    -0.206 F 
ATOM     74  C   UNL A   1      49.192  26.549  24.420  1.00  0.00     0.022 A 
BRANCH  71  75
ATOM     75  S   UNL A   1      48.301  27.685  22.035  1.00  0.00     0.124 S 
ATOM     76  O   UNL A   1      49.451  28.579  21.956  1.00  0.00    -0.237 OA
ATOM     77  O   UNL A   1      48.487  26.349  21.480  1.00  0.00    -0.237 OA
ATOM     78  O   UNL A   1      47.008  28.304  21.746  1.00  0.00    -0.744 OA
ENDBRANCH  71  75
ENDBRANCH  44  68
BRANCH  56  79
ATOM     79  C   UNL A   1      45.230  33.382  29.190  1.00  0.00     0.023 A 
ATOM     80  C   UNL A   1      45.177  34.457  28.285  1.00  0.00     0.031 A 
ATOM     81  C   UNL A   1      46.024  33.525  30.342  1.00  0.00     0.131 A 
ATOM     82  C   UNL A   1      45.949  35.605  28.520  1.00  0.00     0.055 A 
ATOM     83  C   UNL A   1      46.741  34.693  30.600  1.00  0.00     0.041 A 
ATOM     84  F   UNL A   1      46.111  32.530  31.239  1.00  0.00    -0.206 F 
ATOM     85  C   UNL A   1      46.717  35.737  29.680  1.00  0.00     0.022 A 
BRANCH  82  86
ATOM     86  S   UNL A   1      46.006  36.893  27.244  1.00  0.00     0.124 S 
ATOM     87  O   UNL A   1      46.128  36.104  26.021  1.00  0.00    -0.237 OA
ATOM     88  O   UNL A   1      44.734  37.580  27.435  1.00  0.00    -0.237 OA
ATOM     89  O   UNL A   1      47.190  37.675  27.597  1.00  0.00    -0.744 OA
ENDBRANCH  82  86
ENDBRANCH  56  79
ENDBRANCH  30  31
ENDBRANCH  23  25
ENDBRANCH  22  23
ENDBRANCH  21  22
ENDBRANCH  20  21
ENDBRANCH   1  20
TORSDOF 20
ENDMDL
MODEL 3
REMARK VINA RESULT:     -10.4      4.765     10.497
REMARK SMILES C[C@@H](C(=O)OCCOCCOC(=O)c1ccc(-c2c3nc(c(-c4cc(S(=O)(=O)[O-])ccc4F)c4ccc([nH]4)c(-c4cc(S(=O)(=O)[O-])ccc4F)c4nc(c(-c5cc(S(=O)(=O)[O-])ccc5F)c5ccc2[nH]5)C=C4)C=C3)cc1)[C@@H](C)C(=O)c1cccc(Cl)c1
REMARK SMILES IDX 8 1 7 2 6 3 5 4 3 5 4 6 2 7 1 8 77 9 78 10 79 11 80 12 81 13
REMARK SMILES IDX 82 14 87 15 83 16 85 17 84 18 86 19 9 20 10 21 11 22 12 23
REMARK SMILES IDX 13 24 14 25 15 26 76 27 16 28 75 29 17 30 18 31 19 32 69 33
REMARK SMILES IDX 20 34 74 35 68 36 70 37 21 38 73 39 67 40 66 41 22 43 54 44
REMARK SMILES IDX 34 45 53 46 35 47 38 48 52 49 71 50 36 51 37 52 51 54 72 55
REMARK SMILES IDX 39 56 23 57 24 58 32 59 25 60 31 61 33 62 30 63 26 64 27 65
REMARK SMILES IDX 28 66 29 67 55 68 56 69 64 70 57 71 63 72 65 73 62 74 58 75
REMARK SMILES IDX 59 76 60 77 61 78 40 79 41 80 49 81 42 82 48 83 50 84 47 85
REMARK SMILES IDX 43 86 44 87 45 88 46 89
REMARK H PARENT 70 42 38 53
REMARK Flexibility Score: inf
ROOT
ATOM      1  O   UNL A   1      32.319  30.306  26.069  1.00  0.00    -0.374 OA
ENDROOT
BRANCH   1   2
ATOM      2  C   UNL A   1      32.262  29.289  25.075  1.00  0.00     0.202 C 
BRANCH   2   3
ATOM      3  C   UNL A   1      33.137  28.042  25.252  1.00  0.00     0.261 C 
BRANCH   3   4
ATOM      4  O   UNL A   1      32.750  26.942  24.416  1.00  0.00    -0.463 OA
BRANCH   4   5
ATOM      5  C   UNL A   1      33.147  25.724  24.867  1.00  0.00     0.309 C 
ATOM      6  O   UNL A   1      34.303  25.325  24.822  1.00  0.00    -0.252 OA
BRANCH   5   7
ATOM      7  C   UNL A   1      31.996  24.871  25.411  1.00  0.00     0.106 C 
ATOM      8  C   UNL A   1      32.358  24.077  26.679  1.00  0.00     0.021 C 
BRANCH   7   9
ATOM      9  C   UNL A   1      31.452  23.935  24.300  1.00  0.00     0.072 C 
ATOM     10  C   UNL A   1      30.510  24.629  23.313  1.00  0.00     0.017 C 
BRANCH   9  11
ATOM     11  C   UNL A   1      32.399  23.041  23.471  1.00  0.00     0.166 C 
ATOM     12  O   UNL A   1      32.759  23.458  22.362  1.00  0.00    -0.294 OA
BRANCH  11  13
ATOM     13  C   UNL A   1      33.041  21.770  23.968  1.00  0.00     0.019 A 
ATOM     14  C   UNL A   1      34.372  21.862  24.416  1.00  0.00     0.012 A 
ATOM     15  C   UNL A   1      32.437  20.511  23.967  1.00  0.00     0.032 A 
ATOM     16  C   UNL A   1      35.080  20.730  24.832  1.00  0.00     0.002 A 
ATOM     17  C   UNL A   1      33.155  19.377  24.360  1.00  0.00     0.041 A 
ATOM     18  C   UNL A   1      34.471  19.480  24.795  1.00  0.00     0.020 A 
ATOM     19  Cl  UNL A   1      32.402  17.831  24.282  1.00  0.00    -0.084 Cl
ENDBRANCH  11  13
ENDBRANCH   9  11
ENDBRANCH   7   9
ENDBRANCH   5   7
ENDBRANCH   4   5
ENDBRANCH   3   4
ENDBRANCH   2   3
ENDBRANCH   1   2
BRANCH   1  20
ATOM     20  C   UNL A   1      31.263  31.263  26.132  1.00  0.00     0.202 C 
BRANCH  20  21
ATOM     21  C   UNL A   1      31.477  32.552  26.937  1.00  0.00     0.261 C 
BRANCH  21  22
ATOM     22  O   UNL A   1      32.775  33.140  26.728  1.00  0.00    -0.460 OA
BRANCH  22  23
ATOM     23  C   UNL A   1      33.350  33.635  27.851  1.00  0.00     0.338 C 
ATOM     24  O   UNL A   1      32.853  34.434  28.639  1.00  0.00    -0.246 OA
BRANCH  23  25
ATOM     25  C   UNL A   1      34.613  32.939  28.140  1.00  0.00     0.060 A 
ATOM     26  C   UNL A   1      34.546  31.567  28.425  1.00  0.00     0.016 A 
ATOM     27  C   UNL A   1      35.822  33.628  28.250  1.00  0.00     0.016 A 
ATOM     28  C   UNL A   1      35.679  30.889  28.867  1.00  0.00     0.010 A 
ATOM     29  C   UNL A   1      36.957  32.946  28.707  1.00  0.00     0.010 A 
ATOM     30  C   UNL A   1      36.881  31.584  29.053  1.00  0.00    -0.014 A 
BRANCH  30  31
ATOM     31  C   UNL A   1      37.998  30.918  29.769  1.00  0.00     0.031 A 
ATOM     32  C   UNL A   1      38.244  31.263  31.213  1.00  0.00     0.074 A 
ATOM     33  C   UNL A   1      38.749  29.984  29.157  1.00  0.00     0.049 A 
ATOM     34  N   UNL A   1      39.167  30.822  32.028  1.00  0.00    -0.248 NA
ATOM     35  C   UNL A   1      37.322  32.238  31.817  1.00  0.00     0.031 C 
ATOM     36  C   UNL A   1      38.567  29.527  27.780  1.00  0.00     0.029 A 
ATOM     37  N   UNL A   1      39.814  29.252  29.616  1.00  0.00    -0.354 N 
ATOM     38  C   UNL A   1      38.941  31.468  33.240  1.00  0.00     0.074 A 
ATOM     39  C   UNL A   1      37.816  32.356  33.040  1.00  0.00     0.031 C 
ATOM     40  C   UNL A   1      39.495  28.595  27.505  1.00  0.00     0.029 A 
ATOM     41  C   UNL A   1      40.359  28.417  28.670  1.00  0.00     0.049 A 
ATOM     42  H   UNL A   1      40.156  29.319  30.537  1.00  0.00     0.167 HD
ATOM     43  C   UNL A   1      39.608  31.327  34.413  1.00  0.00     0.034 A 
ATOM     44  C   UNL A   1      41.444  27.618  28.733  1.00  0.00     0.034 A 
ATOM     45  C   UNL A   1      40.735  30.443  34.593  1.00  0.00     0.049 A 
ATOM     46  C   UNL A   1      42.228  27.548  30.022  1.00  0.00     0.074 A 
ATOM     47  C   UNL A   1      41.471  30.210  35.741  1.00  0.00     0.029 A 
ATOM     48  N   UNL A   1      41.295  29.656  33.596  1.00  0.00    -0.354 N 
ATOM     49  N   UNL A   1      42.001  28.158  31.163  1.00  0.00    -0.248 NA
ATOM     50  C   UNL A   1      43.409  26.675  30.032  1.00  0.00     0.031 C 
ATOM     51  C   UNL A   1      42.521  29.341  35.420  1.00  0.00     0.029 A 
ATOM     52  C   UNL A   1      42.392  28.967  34.092  1.00  0.00     0.049 A 
ATOM     53  H   UNL A   1      40.964  29.596  32.671  1.00  0.00     0.167 HD
ATOM     54  C   UNL A   1      42.993  27.716  32.034  1.00  0.00     0.074 A 
ATOM     55  C   UNL A   1      43.811  26.780  31.290  1.00  0.00     0.031 C 
ATOM     56  C   UNL A   1      43.206  28.045  33.335  1.00  0.00     0.034 A 
BRANCH  43  57
ATOM     57  C   UNL A   1      39.171  32.194  35.568  1.00  0.00     0.023 A 
ATOM     58  C   UNL A   1      39.601  33.527  35.703  1.00  0.00     0.031 A 
ATOM     59  C   UNL A   1      38.332  31.669  36.568  1.00  0.00     0.131 A 
ATOM     60  C   UNL A   1      39.246  34.265  36.844  1.00  0.00     0.055 A 
ATOM     61  C   UNL A   1      37.920  32.433  37.661  1.00  0.00     0.041 A 
ATOM     62  F   UNL A   1      37.909  30.397  36.505  1.00  0.00    -0.206 F 
ATOM     63  C   UNL A   1      38.388  33.734  37.811  1.00  0.00     0.022 A 
BRANCH  60  64
ATOM     64  S   UNL A   1      40.031  35.877  37.115  1.00  0.00     0.124 S 
ATOM     65  O   UNL A   1      39.318  36.358  38.295  1.00  0.00    -0.237 OA
ATOM     66  O   UNL A   1      41.430  35.517  37.316  1.00  0.00    -0.237 OA
ATOM     67  O   UNL A   1      39.745  36.609  35.883  1.00  0.00    -0.744 OA
ENDBRANCH  60  64
ENDBRANCH  43  57
BRANCH  44  68
ATOM     68  C   UNL A   1      41.890  26.851  27.533  1.00  0.00     0.023 A 
ATOM     69  C   UNL A   1      41.654  25.472  27.423  1.00  0.00     0.031 A 
ATOM     70  C   UNL A   1      42.616  27.480  26.505  1.00  0.00     0.131 A 
ATOM     71  C   UNL A   1      42.178  24.758  26.334  1.00  0.00     0.055 A 
ATOM     72  C   UNL A   1      43.089  26.775  25.397  1.00  0.00     0.041 A 
ATOM     73  F   UNL A   1      42.871  28.796  26.562  1.00  0.00    -0.206 F 
ATOM     74  C   UNL A   1      42.882  25.402  25.314  1.00  0.00     0.022 A 
BRANCH  71  75
ATOM     75  S   UNL A   1      42.002  22.952  26.313  1.00  0.00     0.124 S 
ATOM     76  O   UNL A   1      42.632  22.607  25.044  1.00  0.00    -0.237 OA
ATOM     77  O   UNL A   1      42.727  22.564  27.518  1.00  0.00    -0.237 OA
ATOM     78  O   UNL A   1      40.555  22.752  26.367  1.00  0.00    -0.744 OA
ENDBRANCH  71  75
ENDBRANCH  44  68
BRANCH  56  79
ATOM     79  C   UNL A   1      44.343  27.348  34.043  1.00  0.00     0.023 A 
ATOM     80  C   UNL A   1      44.199  26.061  34.590  1.00  0.00     0.031 A 
ATOM     81  C   UNL A   1      45.588  27.989  34.180  1.00  0.00     0.131 A 
ATOM     82  C   UNL A   1      45.263  25.480  35.297  1.00  0.00     0.055 A 
ATOM     83  C   UNL A   1      46.661  27.381  34.831  1.00  0.00     0.041 A 
ATOM     84  F   UNL A   1      45.781  29.219  33.678  1.00  0.00    -0.206 F 
ATOM     85  C   UNL A   1      46.498  26.124  35.406  1.00  0.00     0.022 A 
BRANCH  82  86
ATOM     86  S   UNL A   1      44.985  23.903  36.150  1.00  0.00     0.124 S 
ATOM     87  O   UNL A   1      43.696  23.486  35.604  1.00  0.00    -0.237 OA
ATOM     88  O   UNL A   1      46.138  23.114  35.734  1.00  0.00    -0.237 OA
ATOM     89  O   UNL A   1      44.967  24.275  37.564  1.00  0.00    -0.744 OA
ENDBRANCH  82  86
ENDBRANCH  56  79
ENDBRANCH  30  31
ENDBRANCH  23  25
ENDBRANCH  22  23
ENDBRANCH  21  22
ENDBRANCH  20  21
ENDBRANCH   1  20
TORSDOF 20
ENDMDL
