MODEL 1
REMARK VINA RESULT:     -10.1      0.000      0.000
REMARK SMILES COc1cccc([C@H](CC(=O)OCCOCCOC(=O)c2ccc(-c3c4nc(c(-c5cc(S(=O)(=O)[O-])ccc5F)c5ccc([nH]5)c(-c5cc(S(=O)(=O)[O-])ccc5F)c5nc(c(-c6cc(S(=O)(=O)[O-])ccc6F)c6ccc3[nH]6)C=C5)C=C4)cc2)NS(=O)(=O)c2ccc3c(c2)C[C@@H](C)N3C(C)=O)c1
REMARK SMILES IDX 14 1 13 2 12 3 10 4 11 5 9 6 8 7 7 8 3 9 4 10 101 11 5 12
REMARK SMILES IDX 6 13 2 14 1 15 84 16 85 18 86 19 87 20 88 21 89 22 93 23
REMARK SMILES IDX 90 24 92 25 91 26 94 27 97 28 95 29 96 30 98 31 99 32 100 33
REMARK SMILES IDX 15 34 16 35 17 36 18 37 19 38 20 39 21 40 22 41 83 42 23 43
REMARK SMILES IDX 82 44 24 45 25 46 26 47 76 48 27 49 81 50 75 51 77 52 28 53
REMARK SMILES IDX 80 54 74 55 73 56 29 58 61 59 41 60 60 61 42 62 45 63 59 64
REMARK SMILES IDX 78 65 43 66 44 67 58 69 79 70 46 71 30 72 31 73 39 74 32 75
REMARK SMILES IDX 38 76 40 77 37 78 33 79 34 80 35 81 36 82 62 83 63 84 71 85
REMARK SMILES IDX 64 86 70 87 72 88 69 89 65 90 66 91 67 92 68 93 47 94 48 95
REMARK SMILES IDX 56 96 49 97 55 98 57 99 54 100 50 101 51 102 52 103 53 104
REMARK H PARENT 84 17 77 57 45 68
REMARK Flexibility Score: inf
ROOT
ATOM      1  C   UNL A   1      34.444  29.742  27.005  1.00  0.00     0.202 C 
ENDROOT
BRANCH   1   2
ATOM      2  C   UNL A   1      32.914  29.647  27.078  1.00  0.00     0.261 C 
BRANCH   2   3
ATOM      3  O   UNL A   1      32.240  29.717  25.803  1.00  0.00    -0.463 OA
BRANCH   3   4
ATOM      4  C   UNL A   1      31.752  28.529  25.341  1.00  0.00     0.307 C 
ATOM      5  O   UNL A   1      31.392  27.598  26.051  1.00  0.00    -0.252 OA
BRANCH   4   6
ATOM      6  C   UNL A   1      31.823  28.417  23.841  1.00  0.00     0.147 C 
BRANCH   6   7
ATOM      7  C   UNL A   1      31.041  27.344  23.064  1.00  0.00     0.111 C 
BRANCH   7   8
ATOM      8  C   UNL A   1      29.535  27.579  23.021  1.00  0.00    -0.026 A 
ATOM      9  C   UNL A   1      27.780  29.271  22.884  1.00  0.00     0.119 A 
ATOM     10  C   UNL A   1      26.912  28.401  23.541  1.00  0.00     0.046 A 
ATOM     11  C   UNL A   1      29.070  28.836  22.583  1.00  0.00     0.051 A 
ATOM     12  C   UNL A   1      27.320  27.110  23.877  1.00  0.00     0.004 A 
ATOM     13  C   UNL A   1      28.626  26.697  23.615  1.00  0.00     0.005 A 
BRANCH   9  14
ATOM     14  O   UNL A   1      27.282  30.524  22.646  1.00  0.00    -0.497 OA
ATOM     15  C   UNL A   1      28.157  31.455  22.020  1.00  0.00     0.278 C 
ENDBRANCH   9  14
ENDBRANCH   7   8
BRANCH   7  16
ATOM     16  N   UNL A   1      31.536  27.016  21.716  1.00  0.00    -0.203 NA
ATOM     17  H   UNL A   1      31.449  27.868  21.163  1.00  0.00     0.142 HD
BRANCH  16  18
ATOM     18  S   UNL A   1      33.112  26.439  21.460  1.00  0.00     0.241 S 
ATOM     19  O   UNL A   1      33.278  25.947  20.112  1.00  0.00    -0.207 OA
ATOM     20  O   UNL A   1      34.022  27.414  22.005  1.00  0.00    -0.207 OA
BRANCH  18  21
ATOM     21  C   UNL A   1      33.130  25.039  22.542  1.00  0.00     0.082 A 
ATOM     22  C   UNL A   1      32.802  23.750  22.070  1.00  0.00     0.024 A 
ATOM     23  C   UNL A   1      33.368  25.297  23.891  1.00  0.00     0.027 A 
ATOM     24  C   UNL A   1      32.581  22.711  22.977  1.00  0.00     0.028 A 
ATOM     25  C   UNL A   1      33.101  24.282  24.769  1.00  0.00    -0.021 A 
ATOM     26  C   UNL A   1      32.668  23.027  24.319  1.00  0.00     0.047 A 
ATOM     27  C   UNL A   1      33.163  24.319  26.267  1.00  0.00     0.063 C 
ATOM     28  N   UNL A   1      32.330  22.247  25.442  1.00  0.00    -0.309 N 
ATOM     29  C   UNL A   1      32.138  23.217  26.559  1.00  0.00     0.092 C 
ATOM     30  C   UNL A   1      30.708  23.807  26.500  1.00  0.00     0.032 C 
BRANCH  28  31
ATOM     31  C   UNL A   1      32.815  20.955  25.532  1.00  0.00     0.224 C 
ATOM     32  C   UNL A   1      34.317  20.876  25.699  1.00  0.00     0.115 C 
ATOM     33  O   UNL A   1      32.139  19.951  25.313  1.00  0.00    -0.275 OA
ENDBRANCH  28  31
ENDBRANCH  18  21
ENDBRANCH  16  18
ENDBRANCH   7  16
ENDBRANCH   6   7
ENDBRANCH   4   6
ENDBRANCH   3   4
ENDBRANCH   2   3
ENDBRANCH   1   2
BRANCH   1  34
ATOM     34  O   UNL A   1      35.200  29.252  28.106  1.00  0.00    -0.374 OA
BRANCH  34  35
ATOM     35  C   UNL A   1      35.997  30.179  28.837  1.00  0.00     0.202 C 
BRANCH  35  36
ATOM     36  C   UNL A   1      36.909  29.646  29.946  1.00  0.00     0.261 C 
BRANCH  36  37
ATOM     37  O   UNL A   1      36.468  30.047  31.256  1.00  0.00    -0.460 OA
BRANCH  37  38
ATOM     38  C   UNL A   1      37.137  29.452  32.277  1.00  0.00     0.338 C 
ATOM     39  O   UNL A   1      37.411  28.269  32.386  1.00  0.00    -0.246 OA
BRANCH  38  40
ATOM     40  C   UNL A   1      37.705  30.476  33.172  1.00  0.00     0.060 A 
ATOM     41  C   UNL A   1      38.809  30.124  33.955  1.00  0.00     0.016 A 
ATOM     42  C   UNL A   1      37.090  31.716  33.338  1.00  0.00     0.016 A 
ATOM     43  C   UNL A   1      39.273  30.997  34.937  1.00  0.00     0.010 A 
ATOM     44  C   UNL A   1      37.574  32.605  34.302  1.00  0.00     0.010 A 
ATOM     45  C   UNL A   1      38.639  32.232  35.141  1.00  0.00    -0.014 A 
BRANCH  45  46
ATOM     46  C   UNL A   1      38.976  33.047  36.339  1.00  0.00     0.031 A 
ATOM     47  C   UNL A   1      40.117  34.031  36.255  1.00  0.00     0.074 A 
ATOM     48  C   UNL A   1      38.252  32.947  37.469  1.00  0.00     0.049 A 
ATOM     49  N   UNL A   1      40.618  34.801  37.186  1.00  0.00    -0.248 NA
ATOM     50  C   UNL A   1      40.783  34.154  34.949  1.00  0.00     0.031 C 
ATOM     51  C   UNL A   1      37.096  32.070  37.656  1.00  0.00     0.029 A 
ATOM     52  N   UNL A   1      38.379  33.593  38.674  1.00  0.00    -0.354 N 
ATOM     53  C   UNL A   1      41.655  35.504  36.578  1.00  0.00     0.074 A 
ATOM     54  C   UNL A   1      41.750  35.018  35.218  1.00  0.00     0.031 C 
ATOM     55  C   UNL A   1      36.619  32.237  38.901  1.00  0.00     0.029 A 
ATOM     56  C   UNL A   1      37.461  33.193  39.616  1.00  0.00     0.049 A 
ATOM     57  H   UNL A   1      39.064  34.278  38.846  1.00  0.00     0.167 HD
ATOM     58  C   UNL A   1      42.439  36.481  37.096  1.00  0.00     0.034 A 
ATOM     59  C   UNL A   1      37.332  33.538  40.914  1.00  0.00     0.034 A 
ATOM     60  C   UNL A   1      42.338  36.956  38.454  1.00  0.00     0.049 A 
ATOM     61  C   UNL A   1      38.290  34.553  41.501  1.00  0.00     0.074 A 
ATOM     62  C   UNL A   1      43.090  37.933  39.084  1.00  0.00     0.029 A 
ATOM     63  N   UNL A   1      41.428  36.491  39.394  1.00  0.00    -0.354 N 
ATOM     64  N   UNL A   1      39.270  35.201  40.913  1.00  0.00    -0.248 NA
ATOM     65  C   UNL A   1      38.116  34.890  42.920  1.00  0.00     0.031 C 
ATOM     66  C   UNL A   1      42.687  38.005  40.421  1.00  0.00     0.029 A 
ATOM     67  C   UNL A   1      41.621  37.139  40.603  1.00  0.00     0.049 A 
ATOM     68  H   UNL A   1      40.746  35.801  39.226  1.00  0.00     0.167 HD
ATOM     69  C   UNL A   1      39.796  36.053  41.884  1.00  0.00     0.074 A 
ATOM     70  C   UNL A   1      39.016  35.847  43.084  1.00  0.00     0.031 C 
ATOM     71  C   UNL A   1      40.831  36.928  41.793  1.00  0.00     0.034 A 
BRANCH  58  72
ATOM     72  C   UNL A   1      43.492  37.081  36.196  1.00  0.00     0.023 A 
ATOM     73  C   UNL A   1      43.283  38.303  35.533  1.00  0.00     0.031 A 
ATOM     74  C   UNL A   1      44.718  36.423  35.991  1.00  0.00     0.131 A 
ATOM     75  C   UNL A   1      44.256  38.797  34.651  1.00  0.00     0.055 A 
ATOM     76  C   UNL A   1      45.715  36.962  35.177  1.00  0.00     0.041 A 
ATOM     77  F   UNL A   1      44.965  35.241  36.578  1.00  0.00    -0.206 F 
ATOM     78  C   UNL A   1      45.483  38.149  34.490  1.00  0.00     0.022 A 
BRANCH  75  79
ATOM     79  S   UNL A   1      43.838  40.225  33.615  1.00  0.00     0.124 S 
ATOM     80  O   UNL A   1      45.051  40.372  32.815  1.00  0.00    -0.237 OA
ATOM     81  O   UNL A   1      42.653  39.763  32.903  1.00  0.00    -0.237 OA
ATOM     82  O   UNL A   1      43.607  41.294  34.585  1.00  0.00    -0.744 OA
ENDBRANCH  75  79
ENDBRANCH  58  72
BRANCH  59  83
ATOM     83  C   UNL A   1      36.294  32.898  41.777  1.00  0.00     0.023 A 
ATOM     84  C   UNL A   1      34.981  33.394  41.822  1.00  0.00     0.031 A 
ATOM     85  C   UNL A   1      36.625  31.840  42.643  1.00  0.00     0.131 A 
ATOM     86  C   UNL A   1      34.075  32.890  42.766  1.00  0.00     0.055 A 
ATOM     87  C   UNL A   1      35.696  31.291  43.530  1.00  0.00     0.041 A 
ATOM     88  F   UNL A   1      37.865  31.325  42.648  1.00  0.00    -0.206 F 
ATOM     89  C   UNL A   1      34.416  31.831  43.609  1.00  0.00     0.022 A 
BRANCH  86  90
ATOM     90  S   UNL A   1      32.485  33.739  42.978  1.00  0.00     0.124 S 
ATOM     91  O   UNL A   1      32.916  35.116  43.193  1.00  0.00    -0.237 OA
ATOM     92  O   UNL A   1      31.826  33.463  41.707  1.00  0.00    -0.237 OA
ATOM     93  O   UNL A   1      31.900  33.077  44.142  1.00  0.00    -0.744 OA
ENDBRANCH  86  90
ENDBRANCH  59  83
BRANCH  71  94
ATOM     94  C   UNL A   1      41.133  37.773  43.009  1.00  0.00     0.023 A 
ATOM     95  C   UNL A   1      40.517  39.018  43.221  1.00  0.00     0.031 A 
ATOM     96  C   UNL A   1      42.060  37.324  43.967  1.00  0.00     0.131 A 
ATOM     97  C   UNL A   1      40.883  39.801  44.327  1.00  0.00     0.055 A 
ATOM     98  C   UNL A   1      42.367  38.074  45.104  1.00  0.00     0.041 A 
ATOM     99  F   UNL A   1      42.682  36.144  43.817  1.00  0.00    -0.206 F 
ATOM    100  C   UNL A   1      41.788  39.328  45.281  1.00  0.00     0.022 A 
BRANCH  97 101
ATOM    101  S   UNL A   1      40.240  41.493  44.446  1.00  0.00     0.124 S 
ATOM    102  O   UNL A   1      41.383  42.283  43.999  1.00  0.00    -0.237 OA
ATOM    103  O   UNL A   1      39.096  41.456  43.541  1.00  0.00    -0.237 OA
ATOM    104  O   UNL A   1      39.906  41.633  45.863  1.00  0.00    -0.744 OA
ENDBRANCH  97 101
ENDBRANCH  71  94
ENDBRANCH  45  46
ENDBRANCH  38  40
ENDBRANCH  37  38
ENDBRANCH  36  37
ENDBRANCH  35  36
ENDBRANCH  34  35
ENDBRANCH   1  34
TORSDOF 24
ENDMDL
MODEL 2
REMARK VINA RESULT:      -9.9      5.970     10.847
REMARK SMILES COc1cccc([C@H](CC(=O)OCCOCCOC(=O)c2ccc(-c3c4nc(c(-c5cc(S(=O)(=O)[O-])ccc5F)c5ccc([nH]5)c(-c5cc(S(=O)(=O)[O-])ccc5F)c5nc(c(-c6cc(S(=O)(=O)[O-])ccc6F)c6ccc3[nH]6)C=C5)C=C4)cc2)NS(=O)(=O)c2ccc3c(c2)C[C@@H](C)N3C(C)=O)c1
REMARK SMILES IDX 14 1 13 2 12 3 10 4 11 5 9 6 8 7 7 8 3 9 4 10 101 11 5 12
REMARK SMILES IDX 6 13 2 14 1 15 84 16 85 18 86 19 87 20 88 21 89 22 93 23
REMARK SMILES IDX 90 24 92 25 91 26 94 27 97 28 95 29 96 30 98 31 99 32 100 33
REMARK SMILES IDX 15 34 16 35 17 36 18 37 19 38 20 39 21 40 22 41 83 42 23 43
REMARK SMILES IDX 82 44 24 45 25 46 26 47 76 48 27 49 81 50 75 51 77 52 28 53
REMARK SMILES IDX 80 54 74 55 73 56 29 58 61 59 41 60 60 61 42 62 45 63 59 64
REMARK SMILES IDX 78 65 43 66 44 67 58 69 79 70 46 71 30 72 31 73 39 74 32 75
REMARK SMILES IDX 38 76 40 77 37 78 33 79 34 80 35 81 36 82 62 83 63 84 71 85
REMARK SMILES IDX 64 86 70 87 72 88 69 89 65 90 66 91 67 92 68 93 47 94 48 95
REMARK SMILES IDX 56 96 49 97 55 98 57 99 54 100 50 101 51 102 52 103 53 104
REMARK H PARENT 84 17 77 57 45 68
REMARK Flexibility Score: inf
ROOT
ATOM      1  C   UNL A   1      31.708  27.367  27.587  1.00  0.00     0.202 C 
ENDROOT
BRANCH   1   2
ATOM      2  C   UNL A   1      30.907  26.736  26.440  1.00  0.00     0.261 C 
BRANCH   2   3
ATOM      3  O   UNL A   1      30.558  25.349  26.634  1.00  0.00    -0.463 OA
BRANCH   3   4
ATOM      4  C   UNL A   1      31.465  24.451  26.150  1.00  0.00     0.307 C 
ATOM      5  O   UNL A   1      32.654  24.434  26.442  1.00  0.00    -0.252 OA
BRANCH   4   6
ATOM      6  C   UNL A   1      30.880  23.544  25.099  1.00  0.00     0.147 C 
BRANCH   6   7
ATOM      7  C   UNL A   1      31.174  23.735  23.602  1.00  0.00     0.111 C 
BRANCH   7   8
ATOM      8  C   UNL A   1      31.726  25.111  23.244  1.00  0.00    -0.026 A 
ATOM      9  C   UNL A   1      31.180  27.305  22.323  1.00  0.00     0.119 A 
ATOM     10  C   UNL A   1      32.507  27.450  21.922  1.00  0.00     0.046 A 
ATOM     11  C   UNL A   1      30.809  26.159  23.025  1.00  0.00     0.051 A 
ATOM     12  C   UNL A   1      33.453  26.473  22.235  1.00  0.00     0.004 A 
ATOM     13  C   UNL A   1      33.067  25.308  22.897  1.00  0.00     0.005 A 
BRANCH   9  14
ATOM     14  O   UNL A   1      30.337  28.305  21.920  1.00  0.00    -0.497 OA
ATOM     15  C   UNL A   1      30.143  29.386  22.825  1.00  0.00     0.278 C 
ENDBRANCH   9  14
ENDBRANCH   7   8
BRANCH   7  16
ATOM     16  N   UNL A   1      31.979  22.687  22.950  1.00  0.00    -0.203 NA
ATOM     17  H   UNL A   1      32.922  23.065  22.859  1.00  0.00     0.142 HD
BRANCH  16  18
ATOM     18  S   UNL A   1      32.148  21.140  23.628  1.00  0.00     0.241 S 
ATOM     19  O   UNL A   1      31.409  21.025  24.864  1.00  0.00    -0.207 OA
ATOM     20  O   UNL A   1      31.962  20.182  22.568  1.00  0.00    -0.207 OA
BRANCH  18  21
ATOM     21  C   UNL A   1      33.870  21.146  24.037  1.00  0.00     0.082 A 
ATOM     22  C   UNL A   1      34.424  20.145  24.864  1.00  0.00     0.024 A 
ATOM     23  C   UNL A   1      34.610  22.242  23.599  1.00  0.00     0.027 A 
ATOM     24  C   UNL A   1      35.716  20.300  25.373  1.00  0.00     0.028 A 
ATOM     25  C   UNL A   1      35.854  22.402  24.145  1.00  0.00    -0.021 A 
ATOM     26  C   UNL A   1      36.375  21.471  25.054  1.00  0.00     0.047 A 
ATOM     27  C   UNL A   1      36.812  23.539  23.938  1.00  0.00     0.063 C 
ATOM     28  N   UNL A   1      37.591  21.975  25.556  1.00  0.00    -0.309 N 
ATOM     29  C   UNL A   1      37.565  23.439  25.270  1.00  0.00     0.092 C 
ATOM     30  C   UNL A   1      36.769  24.175  26.376  1.00  0.00     0.032 C 
BRANCH  28  31
ATOM     31  C   UNL A   1      38.699  21.148  25.582  1.00  0.00     0.224 C 
ATOM     32  C   UNL A   1      38.480  19.810  24.910  1.00  0.00     0.115 C 
ATOM     33  O   UNL A   1      39.711  21.379  26.242  1.00  0.00    -0.275 OA
ENDBRANCH  28  31
ENDBRANCH  18  21
ENDBRANCH  16  18
ENDBRANCH   7  16
ENDBRANCH   6   7
ENDBRANCH   4   6
ENDBRANCH   3   4
ENDBRANCH   2   3
ENDBRANCH   1   2
BRANCH   1  34
ATOM     34  O   UNL A   1      32.424  28.568  27.325  1.00  0.00    -0.374 OA
BRANCH  34  35
ATOM     35  C   UNL A   1      31.751  29.611  26.627  1.00  0.00     0.202 C 
BRANCH  35  36
ATOM     36  C   UNL A   1      32.215  31.054  26.843  1.00  0.00     0.261 C 
BRANCH  36  37
ATOM     37  O   UNL A   1      33.647  31.182  26.779  1.00  0.00    -0.460 OA
BRANCH  37  38
ATOM     38  C   UNL A   1      34.181  31.973  27.746  1.00  0.00     0.338 C 
ATOM     39  O   UNL A   1      33.635  32.897  28.324  1.00  0.00    -0.246 OA
BRANCH  38  40
ATOM     40  C   UNL A   1      35.477  31.425  28.185  1.00  0.00     0.060 A 
ATOM     41  C   UNL A   1      35.510  30.103  28.641  1.00  0.00     0.016 A 
ATOM     42  C   UNL A   1      36.613  32.229  28.272  1.00  0.00     0.016 A 
ATOM     43  C   UNL A   1      36.669  29.596  29.225  1.00  0.00     0.010 A 
ATOM     44  C   UNL A   1      37.785  31.711  28.830  1.00  0.00     0.010 A 
ATOM     45  C   UNL A   1      37.807  30.406  29.354  1.00  0.00    -0.014 A 
BRANCH  45  46
ATOM     46  C   UNL A   1      38.949  29.949  30.190  1.00  0.00     0.031 A 
ATOM     47  C   UNL A   1      39.083  30.479  31.596  1.00  0.00     0.074 A 
ATOM     48  C   UNL A   1      39.828  29.042  29.723  1.00  0.00     0.049 A 
ATOM     49  N   UNL A   1      40.024  30.261  32.478  1.00  0.00    -0.248 NA
ATOM     50  C   UNL A   1      38.018  31.381  32.063  1.00  0.00     0.031 C 
ATOM     51  C   UNL A   1      39.776  28.418  28.400  1.00  0.00     0.029 A 
ATOM     52  N   UNL A   1      40.936  28.484  30.311  1.00  0.00    -0.354 N 
ATOM     53  C   UNL A   1      39.663  30.994  33.606  1.00  0.00     0.074 A 
ATOM     54  C   UNL A   1      38.452  31.712  33.268  1.00  0.00     0.031 C 
ATOM     55  C   UNL A   1      40.803  27.561  28.281  1.00  0.00     0.029 A 
ATOM     56  C   UNL A   1      41.615  27.610  29.495  1.00  0.00     0.049 A 
ATOM     57  H   UNL A   1      41.218  28.691  31.232  1.00  0.00     0.167 HD
ATOM     58  C   UNL A   1      40.268  31.044  34.818  1.00  0.00     0.034 A 
ATOM     59  C   UNL A   1      42.773  26.946  29.695  1.00  0.00     0.034 A 
ATOM     60  C   UNL A   1      41.475  30.326  35.143  1.00  0.00     0.049 A 
ATOM     61  C   UNL A   1      43.488  27.104  31.019  1.00  0.00     0.074 A 
ATOM     62  C   UNL A   1      42.177  30.316  36.336  1.00  0.00     0.029 A 
ATOM     63  N   UNL A   1      42.162  29.489  34.274  1.00  0.00    -0.354 N 
ATOM     64  N   UNL A   1      43.136  27.808  32.071  1.00  0.00    -0.248 NA
ATOM     65  C   UNL A   1      44.749  26.369  31.186  1.00  0.00     0.031 C 
ATOM     66  C   UNL A   1      43.325  29.536  36.164  1.00  0.00     0.029 A 
ATOM     67  C   UNL A   1      43.293  28.984  34.894  1.00  0.00     0.049 A 
ATOM     68  H   UNL A   1      41.885  29.286  33.351  1.00  0.00     0.167 HD
ATOM     69  C   UNL A   1      44.112  27.561  33.036  1.00  0.00     0.074 A 
ATOM     70  C   UNL A   1      45.054  26.634  32.447  1.00  0.00     0.031 C 
ATOM     71  C   UNL A   1      44.222  28.054  34.297  1.00  0.00     0.034 A 
BRANCH  58  72
ATOM     72  C   UNL A   1      39.644  31.926  35.873  1.00  0.00     0.023 A 
ATOM     73  C   UNL A   1      40.157  33.203  36.160  1.00  0.00     0.031 A 
ATOM     74  C   UNL A   1      38.527  31.485  36.606  1.00  0.00     0.131 A 
ATOM     75  C   UNL A   1      39.594  33.968  37.193  1.00  0.00     0.055 A 
ATOM     76  C   UNL A   1      37.921  32.286  37.576  1.00  0.00     0.041 A 
ATOM     77  F   UNL A   1      38.009  30.266  36.394  1.00  0.00    -0.206 F 
ATOM     78  C   UNL A   1      38.462  33.530  37.884  1.00  0.00     0.022 A 
BRANCH  75  79
ATOM     79  S   UNL A   1      40.447  35.482  37.710  1.00  0.00     0.124 S 
ATOM     80  O   UNL A   1      40.711  35.204  39.119  1.00  0.00    -0.237 OA
ATOM     81  O   UNL A   1      41.612  35.503  36.834  1.00  0.00    -0.237 OA
ATOM     82  O   UNL A   1      39.460  36.532  37.462  1.00  0.00    -0.744 OA
ENDBRANCH  75  79
ENDBRANCH  58  72
BRANCH  59  83
ATOM     83  C   UNL A   1      43.369  26.106  28.613  1.00  0.00     0.023 A 
ATOM     84  C   UNL A   1      44.370  26.613  27.769  1.00  0.00     0.031 A 
ATOM     85  C   UNL A   1      42.879  24.814  28.346  1.00  0.00     0.131 A 
ATOM     86  C   UNL A   1      44.788  25.870  26.654  1.00  0.00     0.055 A 
ATOM     87  C   UNL A   1      43.353  24.048  27.279  1.00  0.00     0.041 A 
ATOM     88  F   UNL A   1      41.921  24.276  29.118  1.00  0.00    -0.206 F 
ATOM     89  C   UNL A   1      44.300  24.585  26.413  1.00  0.00     0.022 A 
BRANCH  86  90
ATOM     90  S   UNL A   1      45.874  26.670  25.440  1.00  0.00     0.124 S 
ATOM     91  O   UNL A   1      47.001  27.071  26.275  1.00  0.00    -0.237 OA
ATOM     92  O   UNL A   1      46.124  25.584  24.500  1.00  0.00    -0.237 OA
ATOM     93  O   UNL A   1      45.055  27.766  24.925  1.00  0.00    -0.744 OA
ENDBRANCH  86  90
ENDBRANCH  59  83
BRANCH  71  94
ATOM     94  C   UNL A   1      45.367  27.548  35.142  1.00  0.00     0.023 A 
ATOM     95  C   UNL A   1      46.590  28.236  35.227  1.00  0.00     0.031 A 
ATOM     96  C   UNL A   1      45.232  26.352  35.871  1.00  0.00     0.131 A 
ATOM     97  C   UNL A   1      47.650  27.690  35.967  1.00  0.00     0.055 A 
ATOM     98  C   UNL A   1      46.265  25.852  36.664  1.00  0.00     0.041 A 
ATOM     99  F   UNL A   1      44.088  25.651  35.828  1.00  0.00    -0.206 F 
ATOM    100  C   UNL A   1      47.489  26.514  36.704  1.00  0.00     0.022 A 
BRANCH  97 101
ATOM    101  S   UNL A   1      49.278  28.485  35.870  1.00  0.00     0.124 S 
ATOM    102  O   UNL A   1      48.999  29.812  36.411  1.00  0.00    -0.237 OA
ATOM    103  O   UNL A   1      50.099  27.615  36.706  1.00  0.00    -0.237 OA
ATOM    104  O   UNL A   1      49.591  28.449  34.443  1.00  0.00    -0.744 OA
ENDBRANCH  97 101
ENDBRANCH  71  94
ENDBRANCH  45  46
ENDBRANCH  38  40
ENDBRANCH  37  38
ENDBRANCH  36  37
ENDBRANCH  35  36
ENDBRANCH  34  35
ENDBRANCH   1  34
TORSDOF 24
ENDMDL
MODEL 3
REMARK VINA RESULT:      -9.8      7.766     12.002
REMARK SMILES COc1cccc([C@H](CC(=O)OCCOCCOC(=O)c2ccc(-c3c4nc(c(-c5cc(S(=O)(=O)[O-])ccc5F)c5ccc([nH]5)c(-c5cc(S(=O)(=O)[O-])ccc5F)c5nc(c(-c6cc(S(=O)(=O)[O-])ccc6F)c6ccc3[nH]6)C=C5)C=C4)cc2)NS(=O)(=O)c2ccc3c(c2)C[C@@H](C)N3C(C)=O)c1
REMARK SMILES IDX 14 1 13 2 12 3 10 4 11 5 9 6 8 7 7 8 3 9 4 10 101 11 5 12
REMARK SMILES IDX 6 13 2 14 1 15 84 16 85 18 86 19 87 20 88 21 89 22 93 23
REMARK SMILES IDX 90 24 92 25 91 26 94 27 97 28 95 29 96 30 98 31 99 32 100 33
REMARK SMILES IDX 15 34 16 35 17 36 18 37 19 38 20 39 21 40 22 41 83 42 23 43
REMARK SMILES IDX 82 44 24 45 25 46 26 47 76 48 27 49 81 50 75 51 77 52 28 53
REMARK SMILES IDX 80 54 74 55 73 56 29 58 61 59 41 60 60 61 42 62 45 63 59 64
REMARK SMILES IDX 78 65 43 66 44 67 58 69 79 70 46 71 30 72 31 73 39 74 32 75
REMARK SMILES IDX 38 76 40 77 37 78 33 79 34 80 35 81 36 82 62 83 63 84 71 85
REMARK SMILES IDX 64 86 70 87 72 88 69 89 65 90 66 91 67 92 68 93 47 94 48 95
REMARK SMILES IDX 56 96 49 97 55 98 57 99 54 100 50 101 51 102 52 103 53 104
REMARK H PARENT 84 17 77 57 45 68
REMARK Flexibility Score: inf
ROOT
ATOM      1  C   UNL A   1      35.474  30.792  28.004  1.00  0.00     0.202 C 
ENDROOT
BRANCH   1   2
ATOM      2  C   UNL A   1      34.021  30.778  27.512  1.00  0.00     0.261 C 
BRANCH   2   3
ATOM      3  O   UNL A   1      33.736  29.801  26.487  1.00  0.00    -0.463 OA
BRANCH   3   4
ATOM      4  C   UNL A   1      32.578  30.008  25.796  1.00  0.00     0.307 C 
ATOM      5  O   UNL A   1      31.704  30.803  26.121  1.00  0.00    -0.252 OA
BRANCH   4   6
ATOM      6  C   UNL A   1      32.410  29.053  24.644  1.00  0.00     0.147 C 
BRANCH   6   7
ATOM      7  C   UNL A   1      31.289  28.000  24.613  1.00  0.00     0.111 C 
BRANCH   7   8
ATOM      8  C   UNL A   1      30.094  28.387  23.749  1.00  0.00    -0.026 A 
ATOM      9  C   UNL A   1      28.828  30.252  22.810  1.00  0.00     0.119 A 
ATOM     10  C   UNL A   1      27.693  29.443  22.773  1.00  0.00     0.046 A 
ATOM     11  C   UNL A   1      30.032  29.705  23.250  1.00  0.00     0.051 A 
ATOM     12  C   UNL A   1      27.766  28.102  23.152  1.00  0.00     0.004 A 
ATOM     13  C   UNL A   1      28.962  27.573  23.636  1.00  0.00     0.005 A 
BRANCH   9  14
ATOM     14  O   UNL A   1      28.624  31.558  22.457  1.00  0.00    -0.497 OA
ATOM     15  C   UNL A   1      28.267  31.810  21.103  1.00  0.00     0.278 C 
ENDBRANCH   9  14
ENDBRANCH   7   8
BRANCH   7  16
ATOM     16  N   UNL A   1      31.695  26.616  24.316  1.00  0.00    -0.203 NA
ATOM     17  H   UNL A   1      30.847  26.051  24.367  1.00  0.00     0.142 HD
BRANCH  16  18
ATOM     18  S   UNL A   1      32.458  26.202  22.858  1.00  0.00     0.241 S 
ATOM     19  O   UNL A   1      31.558  26.337  21.736  1.00  0.00    -0.207 OA
ATOM     20  O   UNL A   1      33.747  26.845  22.848  1.00  0.00    -0.207 OA
BRANCH  18  21
ATOM     21  C   UNL A   1      32.735  24.472  23.111  1.00  0.00     0.082 A 
ATOM     22  C   UNL A   1      31.657  23.562  23.158  1.00  0.00     0.024 A 
ATOM     23  C   UNL A   1      34.047  24.083  23.374  1.00  0.00     0.027 A 
ATOM     24  C   UNL A   1      31.869  22.254  23.601  1.00  0.00     0.028 A 
ATOM     25  C   UNL A   1      34.230  22.814  23.851  1.00  0.00    -0.021 A 
ATOM     26  C   UNL A   1      33.149  21.934  24.007  1.00  0.00     0.047 A 
ATOM     27  C   UNL A   1      35.507  22.179  24.314  1.00  0.00     0.063 C 
ATOM     28  N   UNL A   1      33.615  20.773  24.653  1.00  0.00    -0.309 N 
ATOM     29  C   UNL A   1      34.906  21.161  25.292  1.00  0.00     0.092 C 
ATOM     30  C   UNL A   1      34.633  21.845  26.653  1.00  0.00     0.032 C 
BRANCH  28  31
ATOM     31  C   UNL A   1      33.279  19.536  24.134  1.00  0.00     0.224 C 
ATOM     32  C   UNL A   1      34.290  18.450  24.437  1.00  0.00     0.115 C 
ATOM     33  O   UNL A   1      32.355  19.351  23.344  1.00  0.00    -0.275 OA
ENDBRANCH  28  31
ENDBRANCH  18  21
ENDBRANCH  16  18
ENDBRANCH   7  16
ENDBRANCH   6   7
ENDBRANCH   4   6
ENDBRANCH   3   4
ENDBRANCH   2   3
ENDBRANCH   1   2
BRANCH   1  34
ATOM     34  O   UNL A   1      35.877  31.841  28.877  1.00  0.00    -0.374 OA
BRANCH  34  35
ATOM     35  C   UNL A   1      35.781  31.619  30.280  1.00  0.00     0.202 C 
BRANCH  35  36
ATOM     36  C   UNL A   1      36.783  32.319  31.203  1.00  0.00     0.261 C 
BRANCH  36  37
ATOM     37  O   UNL A   1      36.990  31.598  32.431  1.00  0.00    -0.460 OA
BRANCH  37  38
ATOM     38  C   UNL A   1      37.668  30.430  32.285  1.00  0.00     0.338 C 
ATOM     39  O   UNL A   1      37.225  29.302  32.418  1.00  0.00    -0.246 OA
BRANCH  38  40
ATOM     40  C   UNL A   1      39.002  30.689  31.714  1.00  0.00     0.060 A 
ATOM     41  C   UNL A   1      39.963  31.285  32.537  1.00  0.00     0.016 A 
ATOM     42  C   UNL A   1      39.268  30.472  30.364  1.00  0.00     0.016 A 
ATOM     43  C   UNL A   1      41.177  31.706  31.999  1.00  0.00     0.010 A 
ATOM     44  C   UNL A   1      40.499  30.866  29.829  1.00  0.00     0.010 A 
ATOM     45  C   UNL A   1      41.443  31.529  30.633  1.00  0.00    -0.014 A 
BRANCH  45  46
ATOM     46  C   UNL A   1      42.623  32.192  30.018  1.00  0.00     0.031 A 
ATOM     47  C   UNL A   1      43.855  31.370  29.730  1.00  0.00     0.074 A 
ATOM     48  C   UNL A   1      42.586  33.494  29.678  1.00  0.00     0.049 A 
ATOM     49  N   UNL A   1      45.012  31.749  29.250  1.00  0.00    -0.248 NA
ATOM     50  C   UNL A   1      43.771  29.932  30.031  1.00  0.00     0.031 C 
ATOM     51  C   UNL A   1      41.436  34.381  29.859  1.00  0.00     0.029 A 
ATOM     52  N   UNL A   1      43.540  34.298  29.106  1.00  0.00    -0.354 N 
ATOM     53  C   UNL A   1      45.791  30.596  29.188  1.00  0.00     0.074 A 
ATOM     54  C   UNL A   1      44.995  29.522  29.740  1.00  0.00     0.031 C 
ATOM     55  C   UNL A   1      41.753  35.605  29.403  1.00  0.00     0.029 A 
ATOM     56  C   UNL A   1      43.140  35.603  28.944  1.00  0.00     0.049 A 
ATOM     57  H   UNL A   1      44.429  33.970  28.837  1.00  0.00     0.167 HD
ATOM     58  C   UNL A   1      47.044  30.442  28.693  1.00  0.00     0.034 A 
ATOM     59  C   UNL A   1      43.823  36.680  28.500  1.00  0.00     0.034 A 
ATOM     60  C   UNL A   1      47.830  31.521  28.147  1.00  0.00     0.049 A 
ATOM     61  C   UNL A   1      45.259  36.503  28.054  1.00  0.00     0.074 A 
ATOM     62  C   UNL A   1      49.114  31.477  27.631  1.00  0.00     0.029 A 
ATOM     63  N   UNL A   1      47.409  32.840  28.046  1.00  0.00    -0.354 N 
ATOM     64  N   UNL A   1      45.983  35.408  28.011  1.00  0.00    -0.248 NA
ATOM     65  C   UNL A   1      45.964  37.705  27.589  1.00  0.00     0.031 C 
ATOM     66  C   UNL A   1      49.495  32.777  27.288  1.00  0.00     0.029 A 
ATOM     67  C   UNL A   1      48.417  33.620  27.504  1.00  0.00     0.049 A 
ATOM     68  H   UNL A   1      46.524  33.172  28.320  1.00  0.00     0.167 HD
ATOM     69  C   UNL A   1      47.211  35.786  27.470  1.00  0.00     0.074 A 
ATOM     70  C   UNL A   1      47.123  37.203  27.190  1.00  0.00     0.031 C 
ATOM     71  C   UNL A   1      48.314  35.033  27.225  1.00  0.00     0.034 A 
BRANCH  58  72
ATOM     72  C   UNL A   1      47.649  29.060  28.746  1.00  0.00     0.023 A 
ATOM     73  C   UNL A   1      47.450  28.130  27.710  1.00  0.00     0.031 A 
ATOM     74  C   UNL A   1      48.430  28.662  29.846  1.00  0.00     0.131 A 
ATOM     75  C   UNL A   1      47.971  26.832  27.825  1.00  0.00     0.055 A 
ATOM     76  C   UNL A   1      49.015  27.397  29.915  1.00  0.00     0.041 A 
ATOM     77  F   UNL A   1      48.635  29.498  30.876  1.00  0.00    -0.206 F 
ATOM     78  C   UNL A   1      48.776  26.468  28.906  1.00  0.00     0.022 A 
BRANCH  75  79
ATOM     79  S   UNL A   1      47.468  25.589  26.605  1.00  0.00     0.124 S 
ATOM     80  O   UNL A   1      46.027  25.813  26.536  1.00  0.00    -0.237 OA
ATOM     81  O   UNL A   1      48.233  25.977  25.425  1.00  0.00    -0.237 OA
ATOM     82  O   UNL A   1      47.868  24.325  27.220  1.00  0.00    -0.744 OA
ENDBRANCH  75  79
ENDBRANCH  58  72
BRANCH  59  83
ATOM     83  C   UNL A   1      43.195  38.035  28.492  1.00  0.00     0.023 A 
ATOM     84  C   UNL A   1      43.435  38.952  29.528  1.00  0.00     0.031 A 
ATOM     85  C   UNL A   1      42.267  38.397  27.498  1.00  0.00     0.131 A 
ATOM     86  C   UNL A   1      42.700  40.146  29.590  1.00  0.00     0.055 A 
ATOM     87  C   UNL A   1      41.594  39.620  27.524  1.00  0.00     0.041 A 
ATOM     88  F   UNL A   1      41.994  37.560  26.484  1.00  0.00    -0.206 F 
ATOM     89  C   UNL A   1      41.794  40.494  28.587  1.00  0.00     0.022 A 
BRANCH  86  90
ATOM     90  S   UNL A   1      42.840  41.170  31.081  1.00  0.00     0.124 S 
ATOM     91  O   UNL A   1      44.216  41.644  30.982  1.00  0.00    -0.237 OA
ATOM     92  O   UNL A   1      41.799  42.167  30.859  1.00  0.00    -0.237 OA
ATOM     93  O   UNL A   1      42.579  40.225  32.165  1.00  0.00    -0.744 OA
ENDBRANCH  86  90
ENDBRANCH  59  83
BRANCH  71  94
ATOM     94  C   UNL A   1      49.489  35.717  26.565  1.00  0.00     0.023 A 
ATOM     95  C   UNL A   1      50.443  36.436  27.305  1.00  0.00     0.031 A 
ATOM     96  C   UNL A   1      49.650  35.651  25.169  1.00  0.00     0.131 A 
ATOM     97  C   UNL A   1      51.476  37.115  26.642  1.00  0.00     0.055 A 
ATOM     98  C   UNL A   1      50.722  36.268  24.521  1.00  0.00     0.041 A 
ATOM     99  F   UNL A   1      48.770  34.980  24.409  1.00  0.00    -0.206 F 
ATOM    100  C   UNL A   1      51.635  37.018  25.257  1.00  0.00     0.022 A 
BRANCH  97 101
ATOM    101  S   UNL A   1      52.552  38.215  27.604  1.00  0.00     0.124 S 
ATOM    102  O   UNL A   1      51.659  39.333  27.893  1.00  0.00    -0.237 OA
ATOM    103  O   UNL A   1      52.915  37.378  28.742  1.00  0.00    -0.237 OA
ATOM    104  O   UNL A   1      53.645  38.517  26.682  1.00  0.00    -0.744 OA
ENDBRANCH  97 101
ENDBRANCH  71  94
ENDBRANCH  45  46
ENDBRANCH  38  40
ENDBRANCH  37  38
ENDBRANCH  36  37
ENDBRANCH  35  36
ENDBRANCH  34  35
ENDBRANCH   1  34
TORSDOF 24
ENDMDL
