MODEL 1
REMARK VINA RESULT:     -12.0      0.000      0.000
REMARK SMILES Cc1cc(C(=O)N[C@H]2C=C[C@H](C(=O)OCCOCCOC(=O)c3ccc(-c4c5nc(c(-c6cc(S(=O)(=O)[O-])ccc6F)c6ccc([nH]6)c(-c6cc(S(=O)(=O)[O-])ccc6F)c6nc(c(-c7cc(S(=O)(=O)[O-])ccc7F)c7ccc4[nH]7)C=C6)C=C5)cc3)C2)ccc1F
REMARK SMILES IDX 18 1 17 2 16 3 15 4 14 5 12 6 13 7 11 8 8 9 9 10 86 11 10 12
REMARK SMILES IDX 7 13 5 14 6 15 4 17 1 18 2 19 3 20 89 21 88 22 90 23 87 24
REMARK SMILES IDX 19 25 20 26 21 27 22 28 23 29 24 30 85 31 25 32 84 33 26 34
REMARK SMILES IDX 27 35 28 36 78 37 29 38 83 39 77 40 79 41 30 42 82 43 76 44
REMARK SMILES IDX 75 45 31 47 63 48 43 49 62 50 44 51 47 52 61 53 80 54 45 55
REMARK SMILES IDX 46 56 60 58 81 59 48 60 32 61 33 62 41 63 34 64 40 65 42 66
REMARK SMILES IDX 39 67 35 68 36 69 37 70 38 71 64 72 65 73 73 74 66 75 72 76
REMARK SMILES IDX 74 77 71 78 67 79 68 80 69 81 70 82 49 83 50 84 58 85 51 86
REMARK SMILES IDX 57 87 59 88 56 89 52 90 53 91 54 92 55 93
REMARK H PARENT 7 16 79 46 47 57
REMARK Flexibility Score: inf
ROOT
ATOM      1  C   UNL A   1      43.281  21.612  25.783  1.00  0.00     0.202 C 
ENDROOT
BRANCH   1   2
ATOM      2  O   UNL A   1      41.975  21.221  25.365  1.00  0.00    -0.374 OA
BRANCH   2   3
ATOM      3  C   UNL A   1      41.216  20.263  26.102  1.00  0.00     0.202 C 
BRANCH   3   4
ATOM      4  C   UNL A   1      39.785  20.658  26.510  1.00  0.00     0.261 C 
BRANCH   4   5
ATOM      5  O   UNL A   1      39.285  21.789  25.776  1.00  0.00    -0.463 OA
BRANCH   5   6
ATOM      6  C   UNL A   1      38.076  21.605  25.200  1.00  0.00     0.312 C 
ATOM      7  O   UNL A   1      37.550  20.505  25.060  1.00  0.00    -0.252 OA
BRANCH   6   8
ATOM      8  C   UNL A   1      37.390  22.927  24.827  1.00  0.00     0.124 C 
ATOM      9  C   UNL A   1      35.124  22.276  25.206  1.00  0.00     0.106 C 
ATOM     10  C   UNL A   1      35.320  22.586  23.755  1.00  0.00    -0.006 C 
ATOM     11  C   UNL A   1      36.226  23.147  25.811  1.00  0.00     0.048 C 
ATOM     12  C   UNL A   1      36.615  22.874  23.536  1.00  0.00    -0.014 C 
BRANCH   9  13
ATOM     13  N   UNL A   1      33.812  22.526  25.714  1.00  0.00    -0.346 N 
ATOM     14  C   UNL A   1      32.678  21.747  25.599  1.00  0.00     0.251 C 
ATOM     15  O   UNL A   1      31.629  22.206  26.058  1.00  0.00    -0.269 OA
ATOM     16  H   UNL A   1      33.702  23.367  26.213  1.00  0.00     0.164 HD
BRANCH  14  17
ATOM     17  C   UNL A   1      32.655  20.351  25.027  1.00  0.00     0.040 A 
ATOM     18  C   UNL A   1      32.344  18.366  21.770  1.00  0.00     0.047 C 
ATOM     19  C   UNL A   1      32.472  18.679  23.234  1.00  0.00    -0.015 A 
ATOM     20  C   UNL A   1      32.354  20.002  23.703  1.00  0.00     0.020 A 
ATOM     21  C   UNL A   1      32.800  17.678  24.142  1.00  0.00     0.126 A 
ATOM     22  C   UNL A   1      33.010  17.976  25.482  1.00  0.00     0.040 A 
ATOM     23  F   UNL A   1      32.910  16.406  23.733  1.00  0.00    -0.207 F 
ATOM     24  C   UNL A   1      32.952  19.305  25.918  1.00  0.00     0.017 A 
ENDBRANCH  14  17
ENDBRANCH   9  13
ENDBRANCH   6   8
ENDBRANCH   5   6
ENDBRANCH   4   5
ENDBRANCH   3   4
ENDBRANCH   2   3
ENDBRANCH   1   2
BRANCH   1  25
ATOM     25  C   UNL A   1      43.490  22.745  26.786  1.00  0.00     0.261 C 
BRANCH  25  26
ATOM     26  O   UNL A   1      42.559  23.802  26.554  1.00  0.00    -0.460 OA
BRANCH  26  27
ATOM     27  C   UNL A   1      41.568  23.833  27.460  1.00  0.00     0.338 C 
ATOM     28  O   UNL A   1      41.567  23.244  28.542  1.00  0.00    -0.246 OA
BRANCH  27  29
ATOM     29  C   UNL A   1      40.407  24.602  26.969  1.00  0.00     0.060 A 
ATOM     30  C   UNL A   1      40.815  25.738  26.251  1.00  0.00     0.016 A 
ATOM     31  C   UNL A   1      39.464  24.693  27.991  1.00  0.00     0.016 A 
ATOM     32  C   UNL A   1      40.740  26.959  26.892  1.00  0.00     0.010 A 
ATOM     33  C   UNL A   1      39.389  25.903  28.635  1.00  0.00     0.010 A 
ATOM     34  C   UNL A   1      40.134  26.988  28.144  1.00  0.00    -0.014 A 
BRANCH  34  35
ATOM     35  C   UNL A   1      40.255  28.113  29.042  1.00  0.00     0.031 A 
ATOM     36  C   UNL A   1      39.341  29.247  28.881  1.00  0.00     0.074 A 
ATOM     37  C   UNL A   1      41.133  28.044  30.065  1.00  0.00     0.049 A 
ATOM     38  N   UNL A   1      39.556  30.423  29.356  1.00  0.00    -0.248 NA
ATOM     39  C   UNL A   1      38.116  29.140  28.097  1.00  0.00     0.031 C 
ATOM     40  C   UNL A   1      41.096  28.825  31.292  1.00  0.00     0.029 A 
ATOM     41  N   UNL A   1      42.350  27.354  30.125  1.00  0.00    -0.354 N 
ATOM     42  C   UNL A   1      38.387  31.132  29.207  1.00  0.00     0.074 A 
ATOM     43  C   UNL A   1      37.564  30.334  28.324  1.00  0.00     0.031 C 
ATOM     44  C   UNL A   1      42.302  28.773  31.875  1.00  0.00     0.029 A 
ATOM     45  C   UNL A   1      43.204  28.117  30.941  1.00  0.00     0.049 A 
ATOM     46  H   UNL A   1      42.566  26.502  29.683  1.00  0.00     0.167 HD
ATOM     47  C   UNL A   1      38.172  32.226  29.989  1.00  0.00     0.034 A 
ATOM     48  C   UNL A   1      44.420  28.604  30.559  1.00  0.00     0.034 A 
ATOM     49  C   UNL A   1      39.339  32.509  30.826  1.00  0.00     0.049 A 
ATOM     50  C   UNL A   1      44.509  30.111  30.684  1.00  0.00     0.074 A 
ATOM     51  C   UNL A   1      39.663  32.136  32.121  1.00  0.00     0.029 A 
ATOM     52  N   UNL A   1      40.517  32.966  30.245  1.00  0.00    -0.354 N 
ATOM     53  N   UNL A   1      43.471  30.887  30.822  1.00  0.00    -0.248 NA
ATOM     54  C   UNL A   1      45.757  30.866  30.607  1.00  0.00     0.031 C 
ATOM     55  C   UNL A   1      41.057  32.316  32.299  1.00  0.00     0.029 A 
ATOM     56  C   UNL A   1      41.582  32.819  31.122  1.00  0.00     0.049 A 
ATOM     57  H   UNL A   1      40.586  33.342  29.338  1.00  0.00     0.167 HD
ATOM     58  C   UNL A   1      43.859  32.199  30.761  1.00  0.00     0.074 A 
ATOM     59  C   UNL A   1      45.307  32.132  30.683  1.00  0.00     0.031 C 
ATOM     60  C   UNL A   1      42.939  33.211  30.736  1.00  0.00     0.034 A 
BRANCH  47  61
ATOM     61  C   UNL A   1      36.786  32.789  30.223  1.00  0.00     0.023 A 
ATOM     62  C   UNL A   1      36.141  32.789  31.478  1.00  0.00     0.031 A 
ATOM     63  C   UNL A   1      36.088  33.442  29.185  1.00  0.00     0.131 A 
ATOM     64  C   UNL A   1      34.960  33.523  31.699  1.00  0.00     0.055 A 
ATOM     65  C   UNL A   1      34.876  34.113  29.387  1.00  0.00     0.041 A 
ATOM     66  F   UNL A   1      36.574  33.503  27.936  1.00  0.00    -0.206 F 
ATOM     67  C   UNL A   1      34.321  34.184  30.656  1.00  0.00     0.022 A 
BRANCH  64  68
ATOM     68  S   UNL A   1      34.291  33.741  33.375  1.00  0.00     0.124 S 
ATOM     69  O   UNL A   1      35.300  33.082  34.202  1.00  0.00    -0.237 OA
ATOM     70  O   UNL A   1      34.232  35.193  33.503  1.00  0.00    -0.237 OA
ATOM     71  O   UNL A   1      33.001  33.057  33.327  1.00  0.00    -0.744 OA
ENDBRANCH  64  68
ENDBRANCH  47  61
BRANCH  48  72
ATOM     72  C   UNL A   1      45.097  27.813  29.499  1.00  0.00     0.023 A 
ATOM     73  C   UNL A   1      44.879  28.103  28.143  1.00  0.00     0.031 A 
ATOM     74  C   UNL A   1      45.621  26.549  29.842  1.00  0.00     0.131 A 
ATOM     75  C   UNL A   1      45.071  27.094  27.186  1.00  0.00     0.055 A 
ATOM     76  C   UNL A   1      45.817  25.555  28.886  1.00  0.00     0.041 A 
ATOM     77  F   UNL A   1      45.845  26.236  31.130  1.00  0.00    -0.206 F 
ATOM     78  C   UNL A   1      45.516  25.819  27.554  1.00  0.00     0.022 A 
BRANCH  75  79
ATOM     79  S   UNL A   1      44.613  27.360  25.448  1.00  0.00     0.124 S 
ATOM     80  O   UNL A   1      43.506  28.303  25.577  1.00  0.00    -0.237 OA
ATOM     81  O   UNL A   1      45.833  27.910  24.858  1.00  0.00    -0.237 OA
ATOM     82  O   UNL A   1      44.254  26.025  24.983  1.00  0.00    -0.744 OA
ENDBRANCH  75  79
ENDBRANCH  48  72
BRANCH  60  83
ATOM     83  C   UNL A   1      43.203  34.670  30.421  1.00  0.00     0.023 A 
ATOM     84  C   UNL A   1      43.165  35.081  29.065  1.00  0.00     0.031 A 
ATOM     85  C   UNL A   1      43.628  35.643  31.340  1.00  0.00     0.131 A 
ATOM     86  C   UNL A   1      43.550  36.369  28.674  1.00  0.00     0.055 A 
ATOM     87  C   UNL A   1      43.932  36.957  30.959  1.00  0.00     0.041 A 
ATOM     88  F   UNL A   1      43.836  35.358  32.633  1.00  0.00    -0.206 F 
ATOM     89  C   UNL A   1      43.909  37.322  29.621  1.00  0.00     0.022 A 
BRANCH  86  90
ATOM     90  S   UNL A   1      43.752  36.781  26.917  1.00  0.00     0.124 S 
ATOM     91  O   UNL A   1      45.119  36.338  26.663  1.00  0.00    -0.237 OA
ATOM     92  O   UNL A   1      42.707  35.975  26.287  1.00  0.00    -0.237 OA
ATOM     93  O   UNL A   1      43.532  38.221  26.873  1.00  0.00    -0.744 OA
ENDBRANCH  86  90
ENDBRANCH  60  83
ENDBRANCH  34  35
ENDBRANCH  27  29
ENDBRANCH  26  27
ENDBRANCH  25  26
ENDBRANCH   1  25
TORSDOF 19
ENDMDL
MODEL 2
REMARK VINA RESULT:     -11.8      3.774      9.938
REMARK SMILES Cc1cc(C(=O)N[C@H]2C=C[C@H](C(=O)OCCOCCOC(=O)c3ccc(-c4c5nc(c(-c6cc(S(=O)(=O)[O-])ccc6F)c6ccc([nH]6)c(-c6cc(S(=O)(=O)[O-])ccc6F)c6nc(c(-c7cc(S(=O)(=O)[O-])ccc7F)c7ccc4[nH]7)C=C6)C=C5)cc3)C2)ccc1F
REMARK SMILES IDX 18 1 17 2 16 3 15 4 14 5 12 6 13 7 11 8 8 9 9 10 86 11 10 12
REMARK SMILES IDX 7 13 5 14 6 15 4 17 1 18 2 19 3 20 89 21 88 22 90 23 87 24
REMARK SMILES IDX 19 25 20 26 21 27 22 28 23 29 24 30 85 31 25 32 84 33 26 34
REMARK SMILES IDX 27 35 28 36 78 37 29 38 83 39 77 40 79 41 30 42 82 43 76 44
REMARK SMILES IDX 75 45 31 47 63 48 43 49 62 50 44 51 47 52 61 53 80 54 45 55
REMARK SMILES IDX 46 56 60 58 81 59 48 60 32 61 33 62 41 63 34 64 40 65 42 66
REMARK SMILES IDX 39 67 35 68 36 69 37 70 38 71 64 72 65 73 73 74 66 75 72 76
REMARK SMILES IDX 74 77 71 78 67 79 68 80 69 81 70 82 49 83 50 84 58 85 51 86
REMARK SMILES IDX 57 87 59 88 56 89 52 90 53 91 54 92 55 93
REMARK H PARENT 7 16 79 46 47 57
REMARK Flexibility Score: inf
ROOT
ATOM      1  C   UNL A   1      33.773  33.568  28.021  1.00  0.00     0.202 C 
ENDROOT
BRANCH   1   2
ATOM      2  O   UNL A   1      32.804  32.571  27.703  1.00  0.00    -0.374 OA
BRANCH   2   3
ATOM      3  C   UNL A   1      33.194  31.270  27.265  1.00  0.00     0.202 C 
BRANCH   3   4
ATOM      4  C   UNL A   1      32.135  30.423  26.535  1.00  0.00     0.261 C 
BRANCH   4   5
ATOM      5  O   UNL A   1      32.525  30.068  25.197  1.00  0.00    -0.463 OA
BRANCH   5   6
ATOM      6  C   UNL A   1      31.709  29.185  24.581  1.00  0.00     0.312 C 
ATOM      7  O   UNL A   1      30.532  29.414  24.320  1.00  0.00    -0.252 OA
BRANCH   6   8
ATOM      8  C   UNL A   1      32.437  27.902  24.156  1.00  0.00     0.124 C 
ATOM      9  C   UNL A   1      32.082  26.614  26.135  1.00  0.00     0.106 C 
ATOM     10  C   UNL A   1      33.547  26.868  25.960  1.00  0.00    -0.006 C 
ATOM     11  C   UNL A   1      31.623  26.703  24.679  1.00  0.00     0.048 C 
ATOM     12  C   UNL A   1      33.732  27.659  24.888  1.00  0.00    -0.014 C 
BRANCH   9  13
ATOM     13  N   UNL A   1      31.747  25.393  26.798  1.00  0.00    -0.346 N 
ATOM     14  C   UNL A   1      32.244  24.124  26.574  1.00  0.00     0.251 C 
ATOM     15  O   UNL A   1      31.746  23.200  27.222  1.00  0.00    -0.269 OA
ATOM     16  H   UNL A   1      31.070  25.466  27.508  1.00  0.00     0.164 HD
BRANCH  14  17
ATOM     17  C   UNL A   1      33.400  23.809  25.658  1.00  0.00     0.040 A 
ATOM     18  C   UNL A   1      37.198  23.346  25.543  1.00  0.00     0.047 C 
ATOM     19  C   UNL A   1      35.767  23.453  25.096  1.00  0.00    -0.015 A 
ATOM     20  C   UNL A   1      34.761  23.880  25.985  1.00  0.00     0.020 A 
ATOM     21  C   UNL A   1      35.396  23.044  23.819  1.00  0.00     0.126 A 
ATOM     22  C   UNL A   1      34.063  23.053  23.430  1.00  0.00     0.040 A 
ATOM     23  F   UNL A   1      36.327  22.642  22.942  1.00  0.00    -0.207 F 
ATOM     24  C   UNL A   1      33.071  23.419  24.348  1.00  0.00     0.017 A 
ENDBRANCH  14  17
ENDBRANCH   9  13
ENDBRANCH   6   8
ENDBRANCH   5   6
ENDBRANCH   4   5
ENDBRANCH   3   4
ENDBRANCH   2   3
ENDBRANCH   1   2
BRANCH   1  25
ATOM     25  C   UNL A   1      35.266  33.247  28.048  1.00  0.00     0.261 C 
BRANCH  25  26
ATOM     26  O   UNL A   1      35.603  32.514  29.226  1.00  0.00    -0.460 OA
BRANCH  26  27
ATOM     27  C   UNL A   1      36.740  31.813  29.096  1.00  0.00     0.338 C 
ATOM     28  O   UNL A   1      37.880  32.278  29.140  1.00  0.00    -0.246 OA
BRANCH  27  29
ATOM     29  C   UNL A   1      36.471  30.392  28.798  1.00  0.00     0.060 A 
ATOM     30  C   UNL A   1      36.695  29.584  29.924  1.00  0.00     0.016 A 
ATOM     31  C   UNL A   1      37.029  30.078  27.561  1.00  0.00     0.016 A 
ATOM     32  C   UNL A   1      37.867  28.853  29.963  1.00  0.00     0.010 A 
ATOM     33  C   UNL A   1      38.197  29.356  27.593  1.00  0.00     0.010 A 
ATOM     34  C   UNL A   1      38.663  28.862  28.822  1.00  0.00    -0.014 A 
BRANCH  34  35
ATOM     35  C   UNL A   1      40.033  28.402  28.825  1.00  0.00     0.031 A 
ATOM     36  C   UNL A   1      40.297  26.970  28.668  1.00  0.00     0.074 A 
ATOM     37  C   UNL A   1      41.030  29.311  28.867  1.00  0.00     0.049 A 
ATOM     38  N   UNL A   1      41.400  26.397  28.999  1.00  0.00    -0.248 NA
ATOM     39  C   UNL A   1      39.279  26.051  28.171  1.00  0.00     0.031 C 
ATOM     40  C   UNL A   1      42.406  29.108  28.438  1.00  0.00     0.029 A 
ATOM     41  N   UNL A   1      41.033  30.575  29.470  1.00  0.00    -0.354 N 
ATOM     42  C   UNL A   1      41.354  25.121  28.489  1.00  0.00     0.074 A 
ATOM     43  C   UNL A   1      39.981  24.918  28.084  1.00  0.00     0.031 C 
ATOM     44  C   UNL A   1      43.173  30.067  28.978  1.00  0.00     0.029 A 
ATOM     45  C   UNL A   1      42.345  30.801  29.922  1.00  0.00     0.049 A 
ATOM     46  H   UNL A   1      40.267  31.187  29.559  1.00  0.00     0.167 HD
ATOM     47  C   UNL A   1      42.520  24.441  28.299  1.00  0.00     0.034 A 
ATOM     48  C   UNL A   1      42.690  31.070  31.214  1.00  0.00     0.034 A 
ATOM     49  C   UNL A   1      43.662  25.213  28.790  1.00  0.00     0.049 A 
ATOM     50  C   UNL A   1      43.682  30.070  31.774  1.00  0.00     0.074 A 
ATOM     51  C   UNL A   1      44.529  26.089  28.157  1.00  0.00     0.029 A 
ATOM     52  N   UNL A   1      43.827  25.418  30.155  1.00  0.00    -0.354 N 
ATOM     53  N   UNL A   1      43.931  28.916  31.223  1.00  0.00    -0.248 NA
ATOM     54  C   UNL A   1      44.423  30.261  33.017  1.00  0.00     0.031 C 
ATOM     55  C   UNL A   1      45.176  26.867  29.148  1.00  0.00     0.029 A 
ATOM     56  C   UNL A   1      44.722  26.453  30.388  1.00  0.00     0.049 A 
ATOM     57  H   UNL A   1      43.372  24.902  30.859  1.00  0.00     0.167 HD
ATOM     58  C   UNL A   1      44.755  28.181  32.034  1.00  0.00     0.074 A 
ATOM     59  C   UNL A   1      45.080  29.091  33.117  1.00  0.00     0.031 C 
ATOM     60  C   UNL A   1      45.051  26.876  31.751  1.00  0.00     0.034 A 
BRANCH  47  61
ATOM     61  C   UNL A   1      42.618  23.258  27.359  1.00  0.00     0.023 A 
ATOM     62  C   UNL A   1      43.513  23.195  26.270  1.00  0.00     0.031 A 
ATOM     63  C   UNL A   1      41.859  22.091  27.586  1.00  0.00     0.131 A 
ATOM     64  C   UNL A   1      43.734  21.994  25.566  1.00  0.00     0.055 A 
ATOM     65  C   UNL A   1      42.026  20.917  26.841  1.00  0.00     0.041 A 
ATOM     66  F   UNL A   1      40.955  22.017  28.574  1.00  0.00    -0.206 F 
ATOM     67  C   UNL A   1      42.989  20.853  25.846  1.00  0.00     0.022 A 
BRANCH  64  68
ATOM     68  S   UNL A   1      45.080  21.850  24.354  1.00  0.00     0.124 S 
ATOM     69  O   UNL A   1      46.241  21.596  25.206  1.00  0.00    -0.237 OA
ATOM     70  O   UNL A   1      44.648  20.721  23.538  1.00  0.00    -0.237 OA
ATOM     71  O   UNL A   1      45.088  23.149  23.686  1.00  0.00    -0.744 OA
ENDBRANCH  64  68
ENDBRANCH  47  61
BRANCH  48  72
ATOM     72  C   UNL A   1      41.623  31.725  32.014  1.00  0.00     0.023 A 
ATOM     73  C   UNL A   1      40.870  30.985  32.940  1.00  0.00     0.031 A 
ATOM     74  C   UNL A   1      41.111  32.959  31.561  1.00  0.00     0.131 A 
ATOM     75  C   UNL A   1      39.585  31.430  33.291  1.00  0.00     0.055 A 
ATOM     76  C   UNL A   1      39.838  33.398  31.920  1.00  0.00     0.041 A 
ATOM     77  F   UNL A   1      41.805  33.696  30.676  1.00  0.00    -0.206 F 
ATOM     78  C   UNL A   1      39.060  32.618  32.769  1.00  0.00     0.022 A 
BRANCH  75  79
ATOM     79  S   UNL A   1      38.496  30.409  34.326  1.00  0.00     0.124 S 
ATOM     80  O   UNL A   1      39.392  30.041  35.420  1.00  0.00    -0.237 OA
ATOM     81  O   UNL A   1      37.417  31.328  34.689  1.00  0.00    -0.237 OA
ATOM     82  O   UNL A   1      38.104  29.321  33.439  1.00  0.00    -0.744 OA
ENDBRANCH  75  79
ENDBRANCH  48  72
BRANCH  60  83
ATOM     83  C   UNL A   1      45.729  25.879  32.669  1.00  0.00     0.023 A 
ATOM     84  C   UNL A   1      44.913  25.049  33.478  1.00  0.00     0.031 A 
ATOM     85  C   UNL A   1      47.110  25.793  32.907  1.00  0.00     0.131 A 
ATOM     86  C   UNL A   1      45.457  24.216  34.464  1.00  0.00     0.055 A 
ATOM     87  C   UNL A   1      47.660  24.897  33.834  1.00  0.00     0.041 A 
ATOM     88  F   UNL A   1      47.988  26.611  32.310  1.00  0.00    -0.206 F 
ATOM     89  C   UNL A   1      46.834  24.115  34.629  1.00  0.00     0.022 A 
BRANCH  86  90
ATOM     90  S   UNL A   1      44.381  23.376  35.660  1.00  0.00     0.124 S 
ATOM     91  O   UNL A   1      45.064  22.096  35.827  1.00  0.00    -0.237 OA
ATOM     92  O   UNL A   1      44.441  24.271  36.815  1.00  0.00    -0.237 OA
ATOM     93  O   UNL A   1      43.090  23.324  34.986  1.00  0.00    -0.744 OA
ENDBRANCH  86  90
ENDBRANCH  60  83
ENDBRANCH  34  35
ENDBRANCH  27  29
ENDBRANCH  26  27
ENDBRANCH  25  26
ENDBRANCH   1  25
TORSDOF 19
ENDMDL
MODEL 3
REMARK VINA RESULT:     -11.7      1.924      3.409
REMARK SMILES Cc1cc(C(=O)N[C@H]2C=C[C@H](C(=O)OCCOCCOC(=O)c3ccc(-c4c5nc(c(-c6cc(S(=O)(=O)[O-])ccc6F)c6ccc([nH]6)c(-c6cc(S(=O)(=O)[O-])ccc6F)c6nc(c(-c7cc(S(=O)(=O)[O-])ccc7F)c7ccc4[nH]7)C=C6)C=C5)cc3)C2)ccc1F
REMARK SMILES IDX 18 1 17 2 16 3 15 4 14 5 12 6 13 7 11 8 8 9 9 10 86 11 10 12
REMARK SMILES IDX 7 13 5 14 6 15 4 17 1 18 2 19 3 20 89 21 88 22 90 23 87 24
REMARK SMILES IDX 19 25 20 26 21 27 22 28 23 29 24 30 85 31 25 32 84 33 26 34
REMARK SMILES IDX 27 35 28 36 78 37 29 38 83 39 77 40 79 41 30 42 82 43 76 44
REMARK SMILES IDX 75 45 31 47 63 48 43 49 62 50 44 51 47 52 61 53 80 54 45 55
REMARK SMILES IDX 46 56 60 58 81 59 48 60 32 61 33 62 41 63 34 64 40 65 42 66
REMARK SMILES IDX 39 67 35 68 36 69 37 70 38 71 64 72 65 73 73 74 66 75 72 76
REMARK SMILES IDX 74 77 71 78 67 79 68 80 69 81 70 82 49 83 50 84 58 85 51 86
REMARK SMILES IDX 57 87 59 88 56 89 52 90 53 91 54 92 55 93
REMARK H PARENT 7 16 79 46 47 57
REMARK Flexibility Score: inf
ROOT
ATOM      1  C   UNL A   1      40.000  20.878  26.096  1.00  0.00     0.202 C 
ENDROOT
BRANCH   1   2
ATOM      2  O   UNL A   1      38.759  21.576  26.018  1.00  0.00    -0.374 OA
BRANCH   2   3
ATOM      3  C   UNL A   1      37.742  21.183  25.096  1.00  0.00     0.202 C 
BRANCH   3   4
ATOM      4  C   UNL A   1      37.194  22.264  24.147  1.00  0.00     0.261 C 
BRANCH   4   5
ATOM      5  O   UNL A   1      36.092  22.998  24.709  1.00  0.00    -0.463 OA
BRANCH   5   6
ATOM      6  C   UNL A   1      34.965  22.994  23.963  1.00  0.00     0.312 C 
ATOM      7  O   UNL A   1      34.784  23.734  23.001  1.00  0.00    -0.252 OA
BRANCH   6   8
ATOM      8  C   UNL A   1      33.977  21.898  24.387  1.00  0.00     0.124 C 
ATOM      9  C   UNL A   1      32.461  23.248  25.645  1.00  0.00     0.106 C 
ATOM     10  C   UNL A   1      33.122  22.260  26.554  1.00  0.00    -0.006 C 
ATOM     11  C   UNL A   1      32.557  22.493  24.319  1.00  0.00     0.048 C 
ATOM     12  C   UNL A   1      34.031  21.557  25.854  1.00  0.00    -0.014 C 
BRANCH   9  13
ATOM     13  N   UNL A   1      31.139  23.637  26.021  1.00  0.00    -0.346 N 
ATOM     14  C   UNL A   1      30.622  24.908  26.172  1.00  0.00     0.251 C 
ATOM     15  O   UNL A   1      29.462  25.002  26.582  1.00  0.00    -0.269 OA
ATOM     16  H   UNL A   1      30.512  22.899  26.198  1.00  0.00     0.164 HD
BRANCH  14  17
ATOM     17  C   UNL A   1      31.347  26.176  25.794  1.00  0.00     0.040 A 
ATOM     18  C   UNL A   1      34.276  28.446  26.753  1.00  0.00     0.047 C 
ATOM     19  C   UNL A   1      33.062  27.921  26.041  1.00  0.00    -0.015 A 
ATOM     20  C   UNL A   1      32.362  26.802  26.533  1.00  0.00     0.020 A 
ATOM     21  C   UNL A   1      32.660  28.477  24.830  1.00  0.00     0.126 A 
ATOM     22  C   UNL A   1      31.595  27.940  24.120  1.00  0.00     0.040 A 
ATOM     23  F   UNL A   1      33.296  29.550  24.338  1.00  0.00    -0.207 F 
ATOM     24  C   UNL A   1      30.953  26.788  24.592  1.00  0.00     0.017 A 
ENDBRANCH  14  17
ENDBRANCH   9  13
ENDBRANCH   6   8
ENDBRANCH   5   6
ENDBRANCH   4   5
ENDBRANCH   3   4
ENDBRANCH   2   3
ENDBRANCH   1   2
BRANCH   1  25
ATOM     25  C   UNL A   1      41.118  21.344  27.026  1.00  0.00     0.261 C 
BRANCH  25  26
ATOM     26  O   UNL A   1      40.682  22.442  27.828  1.00  0.00    -0.460 OA
BRANCH  26  27
ATOM     27  C   UNL A   1      41.192  23.616  27.425  1.00  0.00     0.338 C 
ATOM     28  O   UNL A   1      42.360  23.979  27.571  1.00  0.00    -0.246 OA
BRANCH  27  29
ATOM     29  C   UNL A   1      40.151  24.491  26.848  1.00  0.00     0.060 A 
ATOM     30  C   UNL A   1      40.720  25.587  26.181  1.00  0.00     0.016 A 
ATOM     31  C   UNL A   1      39.137  24.664  27.788  1.00  0.00     0.016 A 
ATOM     32  C   UNL A   1      40.704  26.807  26.828  1.00  0.00     0.010 A 
ATOM     33  C   UNL A   1      39.120  25.874  28.439  1.00  0.00     0.010 A 
ATOM     34  C   UNL A   1      39.999  26.887  28.025  1.00  0.00    -0.014 A 
BRANCH  34  35
ATOM     35  C   UNL A   1      40.147  27.992  28.943  1.00  0.00     0.031 A 
ATOM     36  C   UNL A   1      39.265  29.153  28.799  1.00  0.00     0.074 A 
ATOM     37  C   UNL A   1      41.017  27.881  29.969  1.00  0.00     0.049 A 
ATOM     38  N   UNL A   1      39.510  30.314  29.295  1.00  0.00    -0.248 NA
ATOM     39  C   UNL A   1      38.041  29.094  28.007  1.00  0.00     0.031 C 
ATOM     40  C   UNL A   1      40.996  28.640  31.210  1.00  0.00     0.029 A 
ATOM     41  N   UNL A   1      42.215  27.157  30.022  1.00  0.00    -0.354 N 
ATOM     42  C   UNL A   1      38.361  31.057  29.154  1.00  0.00     0.074 A 
ATOM     43  C   UNL A   1      37.521  30.299  28.254  1.00  0.00     0.031 C 
ATOM     44  C   UNL A   1      42.198  28.546  31.797  1.00  0.00     0.029 A 
ATOM     45  C   UNL A   1      43.086  27.881  30.855  1.00  0.00     0.049 A 
ATOM     46  H   UNL A   1      42.410  26.307  29.565  1.00  0.00     0.167 HD
ATOM     47  C   UNL A   1      38.173  32.143  29.955  1.00  0.00     0.034 A 
ATOM     48  C   UNL A   1      44.316  28.341  30.488  1.00  0.00     0.034 A 
ATOM     49  C   UNL A   1      39.343  32.379  30.802  1.00  0.00     0.049 A 
ATOM     50  C   UNL A   1      44.447  29.843  30.640  1.00  0.00     0.074 A 
ATOM     51  C   UNL A   1      39.650  31.974  32.091  1.00  0.00     0.029 A 
ATOM     52  N   UNL A   1      40.536  32.814  30.235  1.00  0.00    -0.354 N 
ATOM     53  N   UNL A   1      43.429  30.645  30.787  1.00  0.00    -0.248 NA
ATOM     54  C   UNL A   1      45.714  30.565  30.582  1.00  0.00     0.031 C 
ATOM     55  C   UNL A   1      41.047  32.113  32.279  1.00  0.00     0.029 A 
ATOM     56  C   UNL A   1      41.592  32.622  31.113  1.00  0.00     0.049 A 
ATOM     57  H   UNL A   1      40.619  33.204  29.334  1.00  0.00     0.167 HD
ATOM     58  C   UNL A   1      43.853  31.947  30.751  1.00  0.00     0.074 A 
ATOM     59  C   UNL A   1      45.298  31.841  30.679  1.00  0.00     0.031 C 
ATOM     60  C   UNL A   1      42.961  32.984  30.741  1.00  0.00     0.034 A 
BRANCH  47  61
ATOM     61  C   UNL A   1      36.802  32.740  30.193  1.00  0.00     0.023 A 
ATOM     62  C   UNL A   1      36.166  32.767  31.453  1.00  0.00     0.031 A 
ATOM     63  C   UNL A   1      36.111  33.397  29.153  1.00  0.00     0.131 A 
ATOM     64  C   UNL A   1      35.003  33.530  31.675  1.00  0.00     0.055 A 
ATOM     65  C   UNL A   1      34.915  34.097  29.357  1.00  0.00     0.041 A 
ATOM     66  F   UNL A   1      36.588  33.434  27.900  1.00  0.00    -0.206 F 
ATOM     67  C   UNL A   1      34.371  34.195  30.629  1.00  0.00     0.022 A 
BRANCH  64  68
ATOM     68  S   UNL A   1      34.352  33.781  33.352  1.00  0.00     0.124 S 
ATOM     69  O   UNL A   1      34.323  35.239  33.462  1.00  0.00    -0.237 OA
ATOM     70  O   UNL A   1      33.045  33.136  33.282  1.00  0.00    -0.237 OA
ATOM     71  O   UNL A   1      35.335  33.125  34.210  1.00  0.00    -0.744 OA
ENDBRANCH  64  68
ENDBRANCH  47  61
BRANCH  48  72
ATOM     72  C   UNL A   1      44.976  27.551  29.416  1.00  0.00     0.023 A 
ATOM     73  C   UNL A   1      44.747  27.851  28.064  1.00  0.00     0.031 A 
ATOM     74  C   UNL A   1      45.495  26.282  29.747  1.00  0.00     0.131 A 
ATOM     75  C   UNL A   1      44.922  26.845  27.099  1.00  0.00     0.055 A 
ATOM     76  C   UNL A   1      45.674  25.291  28.783  1.00  0.00     0.041 A 
ATOM     77  F   UNL A   1      45.729  25.960  31.031  1.00  0.00    -0.206 F 
ATOM     78  C   UNL A   1      45.361  25.565  27.456  1.00  0.00     0.022 A 
BRANCH  75  79
ATOM     79  S   UNL A   1      44.448  27.124  25.368  1.00  0.00     0.124 S 
ATOM     80  O   UNL A   1      45.736  27.448  24.760  1.00  0.00    -0.237 OA
ATOM     81  O   UNL A   1      43.877  25.839  24.963  1.00  0.00    -0.237 OA
ATOM     82  O   UNL A   1      43.494  28.222  25.448  1.00  0.00    -0.744 OA
ENDBRANCH  75  79
ENDBRANCH  48  72
BRANCH  60  83
ATOM     83  C   UNL A   1      43.266  34.440  30.453  1.00  0.00     0.023 A 
ATOM     84  C   UNL A   1      43.202  34.886  29.109  1.00  0.00     0.031 A 
ATOM     85  C   UNL A   1      43.753  35.374  31.382  1.00  0.00     0.131 A 
ATOM     86  C   UNL A   1      43.620  36.170  28.737  1.00  0.00     0.055 A 
ATOM     87  C   UNL A   1      44.090  36.687  31.023  1.00  0.00     0.041 A 
ATOM     88  F   UNL A   1      43.989  35.050  32.660  1.00  0.00    -0.206 F 
ATOM     89  C   UNL A   1      44.041  37.086  29.695  1.00  0.00     0.022 A 
BRANCH  86  90
ATOM     90  S   UNL A   1      43.783  36.619  26.986  1.00  0.00     0.124 S 
ATOM     91  O   UNL A   1      42.636  35.936  26.395  1.00  0.00    -0.237 OA
ATOM     92  O   UNL A   1      43.688  38.077  27.027  1.00  0.00    -0.237 OA
ATOM     93  O   UNL A   1      45.092  36.095  26.616  1.00  0.00    -0.744 OA
ENDBRANCH  86  90
ENDBRANCH  60  83
ENDBRANCH  34  35
ENDBRANCH  27  29
ENDBRANCH  26  27
ENDBRANCH  25  26
ENDBRANCH   1  25
TORSDOF 19
ENDMDL
