MODEL 1
REMARK VINA RESULT:     -10.9      0.000      0.000
REMARK SMILES C[C@@H](C(=O)OCCOCCOC(=O)c1ccc(-c2c3nc(c(-c4cc(S(=O)(=O)[O-])ccc4F)c4ccc([nH]4)c(-c4cc(S(=O)(=O)[O-])ccc4F)c4nc(c(-c5cc(S(=O)(=O)[O-])ccc5F)c5ccc2[nH]5)C=C4)C=C3)cc1)c1ccn(C(F)F)c(=O)c1
REMARK SMILES IDX 9 1 8 2 7 3 6 4 5 5 3 6 4 7 2 8 1 9 77 10 78 11 86 12 79 13
REMARK SMILES IDX 84 14 80 15 85 16 81 17 82 18 83 19 10 20 11 21 12 22 13 23
REMARK SMILES IDX 14 24 15 25 76 26 16 27 75 28 17 29 18 30 19 31 69 32 20 33
REMARK SMILES IDX 74 34 68 35 70 36 21 37 73 38 67 39 66 40 22 42 54 43 34 44
REMARK SMILES IDX 53 45 35 46 38 47 52 48 71 49 36 50 37 51 51 53 72 54 39 55
REMARK SMILES IDX 23 56 24 57 32 58 25 59 31 60 33 61 30 62 26 63 27 64 28 65
REMARK SMILES IDX 29 66 55 67 56 68 64 69 57 70 63 71 65 72 62 73 58 74 59 75
REMARK SMILES IDX 60 76 61 77 40 78 41 79 49 80 42 81 48 82 50 83 47 84 43 85
REMARK SMILES IDX 44 86 45 87 46 88
REMARK H PARENT 70 41 38 52
REMARK Flexibility Score: inf
ROOT
ATOM      1  C   UNL A   1      32.294  30.808  26.216  1.00  0.00     0.202 C 
ENDROOT
BRANCH   1   2
ATOM      2  O   UNL A   1      32.874  29.624  26.764  1.00  0.00    -0.374 OA
BRANCH   2   3
ATOM      3  C   UNL A   1      31.989  28.655  27.325  1.00  0.00     0.202 C 
BRANCH   3   4
ATOM      4  C   UNL A   1      31.913  27.312  26.594  1.00  0.00     0.261 C 
BRANCH   4   5
ATOM      5  O   UNL A   1      30.582  27.069  26.106  1.00  0.00    -0.463 OA
BRANCH   5   6
ATOM      6  C   UNL A   1      30.299  25.785  25.762  1.00  0.00     0.313 C 
ATOM      7  O   UNL A   1      30.158  24.870  26.567  1.00  0.00    -0.252 OA
BRANCH   6   8
ATOM      8  C   UNL A   1      30.157  25.592  24.240  1.00  0.00     0.126 C 
ATOM      9  C   UNL A   1      31.442  25.115  23.547  1.00  0.00     0.025 C 
BRANCH   8  10
ATOM     10  C   UNL A   1      29.534  26.848  23.623  1.00  0.00    -0.027 A 
ATOM     11  C   UNL A   1      30.432  27.725  22.887  1.00  0.00     0.023 A 
ATOM     12  C   UNL A   1      28.243  27.215  23.732  1.00  0.00     0.076 A 
ATOM     13  C   UNL A   1      29.988  28.852  22.321  1.00  0.00     0.095 A 
ATOM     14  C   UNL A   1      27.733  28.481  23.121  1.00  0.00     0.255 A 
ATOM     15  N   UNL A   1      28.666  29.236  22.432  1.00  0.00    -0.258 N 
ATOM     16  O   UNL A   1      26.549  28.770  23.271  1.00  0.00    -0.269 OA
BRANCH  15  17
ATOM     17  C   UNL A   1      28.220  30.478  21.858  1.00  0.00     0.451 C 
ATOM     18  F   UNL A   1      29.207  31.407  21.843  1.00  0.00    -0.185 F 
ATOM     19  F   UNL A   1      27.798  30.297  20.582  1.00  0.00    -0.185 F 
ENDBRANCH  15  17
ENDBRANCH   8  10
ENDBRANCH   6   8
ENDBRANCH   5   6
ENDBRANCH   4   5
ENDBRANCH   3   4
ENDBRANCH   2   3
ENDBRANCH   1   2
BRANCH   1  20
ATOM     20  C   UNL A   1      31.907  31.919  27.203  1.00  0.00     0.261 C 
BRANCH  20  21
ATOM     21  O   UNL A   1      32.568  33.167  26.924  1.00  0.00    -0.460 OA
BRANCH  21  22
ATOM     22  C   UNL A   1      33.202  33.716  27.989  1.00  0.00     0.338 C 
ATOM     23  O   UNL A   1      32.770  34.596  28.724  1.00  0.00    -0.246 OA
BRANCH  22  24
ATOM     24  C   UNL A   1      34.444  32.979  28.292  1.00  0.00     0.060 A 
ATOM     25  C   UNL A   1      34.314  31.743  28.940  1.00  0.00     0.016 A 
ATOM     26  C   UNL A   1      35.708  33.509  28.031  1.00  0.00     0.016 A 
ATOM     27  C   UNL A   1      35.446  31.057  29.375  1.00  0.00     0.010 A 
ATOM     28  C   UNL A   1      36.846  32.822  28.477  1.00  0.00     0.010 A 
ATOM     29  C   UNL A   1      36.717  31.611  29.183  1.00  0.00    -0.014 A 
BRANCH  29  30
ATOM     30  C   UNL A   1      37.886  30.996  29.863  1.00  0.00     0.031 A 
ATOM     31  C   UNL A   1      38.193  31.392  31.283  1.00  0.00     0.074 A 
ATOM     32  C   UNL A   1      38.633  30.062  29.246  1.00  0.00     0.049 A 
ATOM     33  N   UNL A   1      39.166  31.000  32.064  1.00  0.00    -0.248 NA
ATOM     34  C   UNL A   1      37.277  32.363  31.900  1.00  0.00     0.031 C 
ATOM     35  C   UNL A   1      38.404  29.561  27.891  1.00  0.00     0.029 A 
ATOM     36  N   UNL A   1      39.736  29.370  29.678  1.00  0.00    -0.354 N 
ATOM     37  C   UNL A   1      38.980  31.673  33.267  1.00  0.00     0.074 A 
ATOM     38  C   UNL A   1      37.826  32.530  33.094  1.00  0.00     0.031 C 
ATOM     39  C   UNL A   1      39.346  28.648  27.600  1.00  0.00     0.029 A 
ATOM     40  C   UNL A   1      40.265  28.525  28.732  1.00  0.00     0.049 A 
ATOM     41  H   UNL A   1      40.113  29.469  30.583  1.00  0.00     0.167 HD
ATOM     42  C   UNL A   1      39.698  31.577  34.415  1.00  0.00     0.034 A 
ATOM     43  C   UNL A   1      41.375  27.759  28.764  1.00  0.00     0.034 A 
ATOM     44  C   UNL A   1      40.856  30.730  34.569  1.00  0.00     0.049 A 
ATOM     45  C   UNL A   1      42.213  27.736  30.020  1.00  0.00     0.074 A 
ATOM     46  C   UNL A   1      41.654  30.553  35.687  1.00  0.00     0.029 A 
ATOM     47  N   UNL A   1      41.392  29.925  33.571  1.00  0.00    -0.354 N 
ATOM     48  N   UNL A   1      42.025  28.376  31.152  1.00  0.00    -0.248 NA
ATOM     49  C   UNL A   1      43.408  26.882  30.005  1.00  0.00     0.031 C 
ATOM     50  C   UNL A   1      42.709  29.699  35.344  1.00  0.00     0.029 A 
ATOM     51  C   UNL A   1      42.527  29.278  34.036  1.00  0.00     0.049 A 
ATOM     52  H   UNL A   1      41.020  29.829  32.664  1.00  0.00     0.167 HD
ATOM     53  C   UNL A   1      43.062  27.976  31.992  1.00  0.00     0.074 A 
ATOM     54  C   UNL A   1      43.863  27.032  31.240  1.00  0.00     0.031 C 
ATOM     55  C   UNL A   1      43.326  28.349  33.270  1.00  0.00     0.034 A 
BRANCH  42  56
ATOM     56  C   UNL A   1      39.275  32.453  35.569  1.00  0.00     0.023 A 
ATOM     57  C   UNL A   1      39.697  33.791  35.677  1.00  0.00     0.031 A 
ATOM     58  C   UNL A   1      38.467  31.934  36.596  1.00  0.00     0.131 A 
ATOM     59  C   UNL A   1      39.370  34.538  36.819  1.00  0.00     0.055 A 
ATOM     60  C   UNL A   1      38.079  32.708  37.692  1.00  0.00     0.041 A 
ATOM     61  F   UNL A   1      38.053  30.658  36.561  1.00  0.00    -0.206 F 
ATOM     62  C   UNL A   1      38.544  34.014  37.816  1.00  0.00     0.022 A 
BRANCH  59  63
ATOM     63  S   UNL A   1      40.159  36.155  37.052  1.00  0.00     0.124 S 
ATOM     64  O   UNL A   1      41.540  35.771  37.336  1.00  0.00    -0.237 OA
ATOM     65  O   UNL A   1      39.928  36.807  35.769  1.00  0.00    -0.237 OA
ATOM     66  O   UNL A   1      39.435  36.729  38.185  1.00  0.00    -0.744 OA
ENDBRANCH  59  63
ENDBRANCH  42  56
BRANCH  43  67
ATOM     67  C   UNL A   1      41.794  26.987  27.559  1.00  0.00     0.023 A 
ATOM     68  C   UNL A   1      41.589  25.602  27.470  1.00  0.00     0.031 A 
ATOM     69  C   UNL A   1      42.457  27.625  26.494  1.00  0.00     0.131 A 
ATOM     70  C   UNL A   1      42.081  24.891  26.363  1.00  0.00     0.055 A 
ATOM     71  C   UNL A   1      42.900  26.923  25.372  1.00  0.00     0.041 A 
ATOM     72  F   UNL A   1      42.680  28.949  26.529  1.00  0.00    -0.206 F 
ATOM     73  C   UNL A   1      42.723  25.545  25.309  1.00  0.00     0.022 A 
BRANCH  70  74
ATOM     74  S   UNL A   1      41.942  23.083  26.357  1.00  0.00     0.124 S 
ATOM     75  O   UNL A   1      42.701  22.723  27.549  1.00  0.00    -0.237 OA
ATOM     76  O   UNL A   1      40.497  22.891  26.433  1.00  0.00    -0.237 OA
ATOM     77  O   UNL A   1      42.552  22.699  25.086  1.00  0.00    -0.744 OA
ENDBRANCH  70  74
ENDBRANCH  43  67
BRANCH  55  78
ATOM     78  C   UNL A   1      44.507  27.697  33.948  1.00  0.00     0.023 A 
ATOM     79  C   UNL A   1      44.374  26.510  34.691  1.00  0.00     0.031 A 
ATOM     80  C   UNL A   1      45.784  28.278  33.854  1.00  0.00     0.131 A 
ATOM     81  C   UNL A   1      45.487  25.974  35.356  1.00  0.00     0.055 A 
ATOM     82  C   UNL A   1      46.899  27.707  34.469  1.00  0.00     0.041 A 
ATOM     83  F   UNL A   1      45.969  29.412  33.160  1.00  0.00    -0.206 F 
ATOM     84  C   UNL A   1      46.752  26.556  35.236  1.00  0.00     0.022 A 
BRANCH  81  85
ATOM     85  S   UNL A   1      45.245  24.552  36.455  1.00  0.00     0.124 S 
ATOM     86  O   UNL A   1      43.954  24.856  37.066  1.00  0.00    -0.237 OA
ATOM     87  O   UNL A   1      45.260  23.429  35.522  1.00  0.00    -0.237 OA
ATOM     88  O   UNL A   1      46.390  24.617  37.361  1.00  0.00    -0.744 OA
ENDBRANCH  81  85
ENDBRANCH  55  78
ENDBRANCH  29  30
ENDBRANCH  22  24
ENDBRANCH  21  22
ENDBRANCH  20  21
ENDBRANCH   1  20
TORSDOF 19
ENDMDL
MODEL 2
REMARK VINA RESULT:     -10.7      2.860      8.487
REMARK SMILES C[C@@H](C(=O)OCCOCCOC(=O)c1ccc(-c2c3nc(c(-c4cc(S(=O)(=O)[O-])ccc4F)c4ccc([nH]4)c(-c4cc(S(=O)(=O)[O-])ccc4F)c4nc(c(-c5cc(S(=O)(=O)[O-])ccc5F)c5ccc2[nH]5)C=C4)C=C3)cc1)c1ccn(C(F)F)c(=O)c1
REMARK SMILES IDX 9 1 8 2 7 3 6 4 5 5 3 6 4 7 2 8 1 9 77 10 78 11 86 12 79 13
REMARK SMILES IDX 84 14 80 15 85 16 81 17 82 18 83 19 10 20 11 21 12 22 13 23
REMARK SMILES IDX 14 24 15 25 76 26 16 27 75 28 17 29 18 30 19 31 69 32 20 33
REMARK SMILES IDX 74 34 68 35 70 36 21 37 73 38 67 39 66 40 22 42 54 43 34 44
REMARK SMILES IDX 53 45 35 46 38 47 52 48 71 49 36 50 37 51 51 53 72 54 39 55
REMARK SMILES IDX 23 56 24 57 32 58 25 59 31 60 33 61 30 62 26 63 27 64 28 65
REMARK SMILES IDX 29 66 55 67 56 68 64 69 57 70 63 71 65 72 62 73 58 74 59 75
REMARK SMILES IDX 60 76 61 77 40 78 41 79 49 80 42 81 48 82 50 83 47 84 43 85
REMARK SMILES IDX 44 86 45 87 46 88
REMARK H PARENT 70 41 38 52
REMARK Flexibility Score: inf
ROOT
ATOM      1  C   UNL A   1      31.290  30.066  25.347  1.00  0.00     0.202 C 
ENDROOT
BRANCH   1   2
ATOM      2  O   UNL A   1      30.445  30.113  24.197  1.00  0.00    -0.374 OA
BRANCH   2   3
ATOM      3  C   UNL A   1      30.253  28.900  23.470  1.00  0.00     0.202 C 
BRANCH   3   4
ATOM      4  C   UNL A   1      30.594  27.608  24.217  1.00  0.00     0.261 C 
BRANCH   4   5
ATOM      5  O   UNL A   1      31.580  26.846  23.498  1.00  0.00    -0.463 OA
BRANCH   5   6
ATOM      6  C   UNL A   1      32.868  27.007  23.903  1.00  0.00     0.313 C 
ATOM      7  O   UNL A   1      33.778  27.390  23.175  1.00  0.00    -0.252 OA
BRANCH   6   8
ATOM      8  C   UNL A   1      33.072  26.669  25.393  1.00  0.00     0.126 C 
ATOM      9  C   UNL A   1      34.030  27.620  26.125  1.00  0.00     0.025 C 
BRANCH   8  10
ATOM     10  C   UNL A   1      33.422  25.185  25.534  1.00  0.00    -0.027 A 
ATOM     11  C   UNL A   1      34.824  24.829  25.376  1.00  0.00     0.023 A 
ATOM     12  C   UNL A   1      32.542  24.191  25.762  1.00  0.00     0.076 A 
ATOM     13  C   UNL A   1      35.231  23.558  25.470  1.00  0.00     0.095 A 
ATOM     14  C   UNL A   1      32.976  22.763  25.852  1.00  0.00     0.255 A 
ATOM     15  N   UNL A   1      34.333  22.535  25.700  1.00  0.00    -0.258 N 
ATOM     16  O   UNL A   1      32.123  21.901  26.043  1.00  0.00    -0.269 OA
BRANCH  15  17
ATOM     17  C   UNL A   1      34.784  21.170  25.747  1.00  0.00     0.451 C 
ATOM     18  F   UNL A   1      34.542  20.521  24.582  1.00  0.00    -0.185 F 
ATOM     19  F   UNL A   1      36.118  21.109  25.990  1.00  0.00    -0.185 F 
ENDBRANCH  15  17
ENDBRANCH   8  10
ENDBRANCH   6   8
ENDBRANCH   5   6
ENDBRANCH   4   5
ENDBRANCH   3   4
ENDBRANCH   2   3
ENDBRANCH   1   2
BRANCH   1  20
ATOM     20  C   UNL A   1      31.474  31.372  26.133  1.00  0.00     0.261 C 
BRANCH  20  21
ATOM     21  O   UNL A   1      32.323  31.214  27.285  1.00  0.00    -0.460 OA
BRANCH  21  22
ATOM     22  C   UNL A   1      33.127  32.275  27.540  1.00  0.00     0.338 C 
ATOM     23  O   UNL A   1      32.796  33.455  27.560  1.00  0.00    -0.246 OA
BRANCH  22  24
ATOM     24  C   UNL A   1      34.456  31.825  27.994  1.00  0.00     0.060 A 
ATOM     25  C   UNL A   1      34.601  30.467  28.310  1.00  0.00     0.016 A 
ATOM     26  C   UNL A   1      35.517  32.712  28.189  1.00  0.00     0.016 A 
ATOM     27  C   UNL A   1      35.788  30.001  28.870  1.00  0.00     0.010 A 
ATOM     28  C   UNL A   1      36.708  32.242  28.760  1.00  0.00     0.010 A 
ATOM     29  C   UNL A   1      36.835  30.892  29.137  1.00  0.00    -0.014 A 
BRANCH  29  30
ATOM     30  C   UNL A   1      37.988  30.432  29.953  1.00  0.00     0.031 A 
ATOM     31  C   UNL A   1      38.952  29.441  29.356  1.00  0.00     0.074 A 
ATOM     32  C   UNL A   1      38.204  30.926  31.185  1.00  0.00     0.049 A 
ATOM     33  N   UNL A   1      40.015  28.891  29.886  1.00  0.00    -0.248 NA
ATOM     34  C   UNL A   1      38.677  29.016  27.975  1.00  0.00     0.031 C 
ATOM     35  C   UNL A   1      37.369  31.926  31.850  1.00  0.00     0.029 A 
ATOM     36  N   UNL A   1      39.192  30.652  32.098  1.00  0.00    -0.354 N 
ATOM     37  C   UNL A   1      40.537  28.055  28.904  1.00  0.00     0.074 A 
ATOM     38  C   UNL A   1      39.649  28.141  27.765  1.00  0.00     0.031 C 
ATOM     39  C   UNL A   1      37.875  32.174  33.070  1.00  0.00     0.029 A 
ATOM     40  C   UNL A   1      39.048  31.327  33.287  1.00  0.00     0.049 A 
ATOM     41  H   UNL A   1      39.935  30.031  31.917  1.00  0.00     0.167 HD
ATOM     42  C   UNL A   1      41.661  27.295  28.945  1.00  0.00     0.034 A 
ATOM     43  C   UNL A   1      39.763  31.251  34.429  1.00  0.00     0.034 A 
ATOM     44  C   UNL A   1      42.530  27.208  30.094  1.00  0.00     0.049 A 
ATOM     45  C   UNL A   1      40.958  30.329  34.485  1.00  0.00     0.074 A 
ATOM     46  C   UNL A   1      43.694  26.473  30.242  1.00  0.00     0.029 A 
ATOM     47  N   UNL A   1      42.323  27.867  31.300  1.00  0.00    -0.354 N 
ATOM     48  N   UNL A   1      41.443  29.545  33.549  1.00  0.00    -0.248 NA
ATOM     49  C   UNL A   1      41.705  30.289  35.749  1.00  0.00     0.031 C 
ATOM     50  C   UNL A   1      44.150  26.632  31.556  1.00  0.00     0.029 A 
ATOM     51  C   UNL A   1      43.317  27.529  32.205  1.00  0.00     0.049 A 
ATOM     52  H   UNL A   1      41.578  28.483  31.484  1.00  0.00     0.167 HD
ATOM     53  C   UNL A   1      42.570  28.942  34.104  1.00  0.00     0.074 A 
ATOM     54  C   UNL A   1      42.698  29.463  35.449  1.00  0.00     0.031 C 
ATOM     55  C   UNL A   1      43.425  28.046  33.551  1.00  0.00     0.034 A 
BRANCH  42  56
ATOM     56  C   UNL A   1      41.975  26.462  27.726  1.00  0.00     0.023 A 
ATOM     57  C   UNL A   1      41.569  25.119  27.622  1.00  0.00     0.031 A 
ATOM     58  C   UNL A   1      42.722  27.006  26.666  1.00  0.00     0.131 A 
ATOM     59  C   UNL A   1      41.973  24.348  26.522  1.00  0.00     0.055 A 
ATOM     60  C   UNL A   1      43.054  26.256  25.537  1.00  0.00     0.041 A 
ATOM     61  F   UNL A   1      43.158  28.274  26.719  1.00  0.00    -0.206 F 
ATOM     62  C   UNL A   1      42.693  24.914  25.466  1.00  0.00     0.022 A 
BRANCH  59  63
ATOM     63  S   UNL A   1      41.671  22.559  26.557  1.00  0.00     0.124 S 
ATOM     64  O   UNL A   1      42.415  22.111  25.382  1.00  0.00    -0.237 OA
ATOM     65  O   UNL A   1      42.223  22.172  27.849  1.00  0.00    -0.237 OA
ATOM     66  O   UNL A   1      40.217  22.455  26.441  1.00  0.00    -0.744 OA
ENDBRANCH  59  63
ENDBRANCH  42  56
BRANCH  43  67
ATOM     67  C   UNL A   1      39.348  32.029  35.631  1.00  0.00     0.023 A 
ATOM     68  C   UNL A   1      38.591  31.442  36.657  1.00  0.00     0.031 A 
ATOM     69  C   UNL A   1      39.663  33.396  35.744  1.00  0.00     0.131 A 
ATOM     70  C   UNL A   1      38.137  32.229  37.729  1.00  0.00     0.055 A 
ATOM     71  C   UNL A   1      39.252  34.162  36.836  1.00  0.00     0.041 A 
ATOM     72  F   UNL A   1      40.384  34.007  34.789  1.00  0.00    -0.206 F 
ATOM     73  C   UNL A   1      38.473  33.580  37.830  1.00  0.00     0.022 A 
BRANCH  70  74
ATOM     74  S   UNL A   1      37.027  31.477  38.950  1.00  0.00     0.124 S 
ATOM     75  O   UNL A   1      37.817  31.577  40.171  1.00  0.00    -0.237 OA
ATOM     76  O   UNL A   1      35.857  32.345  38.870  1.00  0.00    -0.237 OA
ATOM     77  O   UNL A   1      36.830  30.122  38.441  1.00  0.00    -0.744 OA
ENDBRANCH  70  74
ENDBRANCH  43  67
BRANCH  55  78
ATOM     78  C   UNL A   1      44.601  27.607  34.391  1.00  0.00     0.023 A 
ATOM     79  C   UNL A   1      44.551  26.452  35.193  1.00  0.00     0.031 A 
ATOM     80  C   UNL A   1      45.787  28.362  34.394  1.00  0.00     0.131 A 
ATOM     81  C   UNL A   1      45.645  26.118  36.005  1.00  0.00     0.055 A 
ATOM     82  C   UNL A   1      46.894  27.992  35.159  1.00  0.00     0.041 A 
ATOM     83  F   UNL A   1      45.890  29.475  33.649  1.00  0.00    -0.206 F 
ATOM     84  C   UNL A   1      46.822  26.871  35.980  1.00  0.00     0.022 A 
BRANCH  81  85
ATOM     85  S   UNL A   1      45.480  24.732  37.163  1.00  0.00     0.124 S 
ATOM     86  O   UNL A   1      44.279  24.065  36.670  1.00  0.00    -0.237 OA
ATOM     87  O   UNL A   1      46.735  24.012  36.971  1.00  0.00    -0.237 OA
ATOM     88  O   UNL A   1      45.336  25.386  38.463  1.00  0.00    -0.744 OA
ENDBRANCH  81  85
ENDBRANCH  55  78
ENDBRANCH  29  30
ENDBRANCH  22  24
ENDBRANCH  21  22
ENDBRANCH  20  21
ENDBRANCH   1  20
TORSDOF 19
ENDMDL
MODEL 3
REMARK VINA RESULT:     -10.7      1.639      7.843
REMARK SMILES C[C@@H](C(=O)OCCOCCOC(=O)c1ccc(-c2c3nc(c(-c4cc(S(=O)(=O)[O-])ccc4F)c4ccc([nH]4)c(-c4cc(S(=O)(=O)[O-])ccc4F)c4nc(c(-c5cc(S(=O)(=O)[O-])ccc5F)c5ccc2[nH]5)C=C4)C=C3)cc1)c1ccn(C(F)F)c(=O)c1
REMARK SMILES IDX 9 1 8 2 7 3 6 4 5 5 3 6 4 7 2 8 1 9 77 10 78 11 86 12 79 13
REMARK SMILES IDX 84 14 80 15 85 16 81 17 82 18 83 19 10 20 11 21 12 22 13 23
REMARK SMILES IDX 14 24 15 25 76 26 16 27 75 28 17 29 18 30 19 31 69 32 20 33
REMARK SMILES IDX 74 34 68 35 70 36 21 37 73 38 67 39 66 40 22 42 54 43 34 44
REMARK SMILES IDX 53 45 35 46 38 47 52 48 71 49 36 50 37 51 51 53 72 54 39 55
REMARK SMILES IDX 23 56 24 57 32 58 25 59 31 60 33 61 30 62 26 63 27 64 28 65
REMARK SMILES IDX 29 66 55 67 56 68 64 69 57 70 63 71 65 72 62 73 58 74 59 75
REMARK SMILES IDX 60 76 61 77 40 78 41 79 49 80 42 81 48 82 50 83 47 84 43 85
REMARK SMILES IDX 44 86 45 87 46 88
REMARK H PARENT 70 41 38 52
REMARK Flexibility Score: inf
ROOT
ATOM      1  C   UNL A   1      31.915  31.513  26.846  1.00  0.00     0.202 C 
ENDROOT
BRANCH   1   2
ATOM      2  O   UNL A   1      33.065  30.694  27.059  1.00  0.00    -0.374 OA
BRANCH   2   3
ATOM      3  C   UNL A   1      33.001  29.339  26.613  1.00  0.00     0.202 C 
BRANCH   3   4
ATOM      4  C   UNL A   1      31.782  28.968  25.764  1.00  0.00     0.261 C 
BRANCH   4   5
ATOM      5  O   UNL A   1      31.759  27.556  25.490  1.00  0.00    -0.463 OA
BRANCH   5   6
ATOM      6  C   UNL A   1      32.167  27.185  24.247  1.00  0.00     0.313 C 
ATOM      7  O   UNL A   1      33.319  27.288  23.839  1.00  0.00    -0.252 OA
BRANCH   6   8
ATOM      8  C   UNL A   1      31.024  26.602  23.394  1.00  0.00     0.126 C 
ATOM      9  C   UNL A   1      31.500  25.773  22.192  1.00  0.00     0.025 C 
BRANCH   8  10
ATOM     10  C   UNL A   1      30.032  27.715  23.043  1.00  0.00    -0.027 A 
ATOM     11  C   UNL A   1      30.571  28.868  22.337  1.00  0.00     0.023 A 
ATOM     12  C   UNL A   1      28.722  27.724  23.357  1.00  0.00     0.076 A 
ATOM     13  C   UNL A   1      29.789  29.897  21.996  1.00  0.00     0.095 A 
ATOM     14  C   UNL A   1      27.837  28.875  22.999  1.00  0.00     0.255 A 
ATOM     15  N   UNL A   1      28.446  29.914  22.318  1.00  0.00    -0.258 N 
ATOM     16  O   UNL A   1      26.655  28.831  23.329  1.00  0.00    -0.269 OA
BRANCH  15  17
ATOM     17  C   UNL A   1      27.634  31.054  21.985  1.00  0.00     0.451 C 
ATOM     18  F   UNL A   1      27.471  31.881  23.048  1.00  0.00    -0.185 F 
ATOM     19  F   UNL A   1      28.195  31.772  20.980  1.00  0.00    -0.185 F 
ENDBRANCH  15  17
ENDBRANCH   8  10
ENDBRANCH   6   8
ENDBRANCH   5   6
ENDBRANCH   4   5
ENDBRANCH   3   4
ENDBRANCH   2   3
ENDBRANCH   1   2
BRANCH   1  20
ATOM     20  C   UNL A   1      32.116  33.033  26.921  1.00  0.00     0.261 C 
BRANCH  20  21
ATOM     21  O   UNL A   1      32.349  33.499  28.264  1.00  0.00    -0.460 OA
BRANCH  21  22
ATOM     22  C   UNL A   1      33.437  34.295  28.400  1.00  0.00     0.338 C 
ATOM     23  O   UNL A   1      33.455  35.520  28.370  1.00  0.00    -0.246 OA
BRANCH  22  24
ATOM     24  C   UNL A   1      34.618  33.503  28.793  1.00  0.00     0.060 A 
ATOM     25  C   UNL A   1      34.404  32.412  29.647  1.00  0.00     0.016 A 
ATOM     26  C   UNL A   1      35.913  33.856  28.411  1.00  0.00     0.016 A 
ATOM     27  C   UNL A   1      35.486  31.703  30.163  1.00  0.00     0.010 A 
ATOM     28  C   UNL A   1      37.001  33.146  28.938  1.00  0.00     0.010 A 
ATOM     29  C   UNL A   1      36.793  32.090  29.844  1.00  0.00    -0.014 A 
BRANCH  29  30
ATOM     30  C   UNL A   1      37.929  31.488  30.589  1.00  0.00     0.031 A 
ATOM     31  C   UNL A   1      38.759  30.427  29.916  1.00  0.00     0.074 A 
ATOM     32  C   UNL A   1      38.250  31.914  31.824  1.00  0.00     0.049 A 
ATOM     33  N   UNL A   1      39.783  29.754  30.376  1.00  0.00    -0.248 NA
ATOM     34  C   UNL A   1      38.380  30.080  28.538  1.00  0.00     0.031 C 
ATOM     35  C   UNL A   1      37.553  32.969  32.559  1.00  0.00     0.029 A 
ATOM     36  N   UNL A   1      39.245  31.510  32.679  1.00  0.00    -0.354 N 
ATOM     37  C   UNL A   1      40.172  28.905  29.346  1.00  0.00     0.074 A 
ATOM     38  C   UNL A   1      39.246  29.120  28.253  1.00  0.00     0.031 C 
ATOM     39  C   UNL A   1      38.136  33.121  33.760  1.00  0.00     0.029 A 
ATOM     40  C   UNL A   1      39.224  32.153  33.894  1.00  0.00     0.049 A 
ATOM     41  H   UNL A   1      39.911  30.824  32.443  1.00  0.00     0.167 HD
ATOM     42  C   UNL A   1      41.213  28.035  29.308  1.00  0.00     0.034 A 
ATOM     43  C   UNL A   1      39.979  31.965  34.996  1.00  0.00     0.034 A 
ATOM     44  C   UNL A   1      42.119  27.820  30.410  1.00  0.00     0.049 A 
ATOM     45  C   UNL A   1      41.075  30.926  34.966  1.00  0.00     0.074 A 
ATOM     46  C   UNL A   1      43.207  26.966  30.480  1.00  0.00     0.029 A 
ATOM     47  N   UNL A   1      42.035  28.453  31.644  1.00  0.00    -0.354 N 
ATOM     48  N   UNL A   1      41.434  30.131  33.984  1.00  0.00    -0.248 NA
ATOM     49  C   UNL A   1      41.870  30.766  36.191  1.00  0.00     0.031 C 
ATOM     50  C   UNL A   1      43.737  27.033  31.774  1.00  0.00     0.029 A 
ATOM     51  C   UNL A   1      43.030  27.985  32.490  1.00  0.00     0.049 A 
ATOM     52  H   UNL A   1      41.367  29.135  31.884  1.00  0.00     0.167 HD
ATOM     53  C   UNL A   1      42.517  29.398  34.465  1.00  0.00     0.074 A 
ATOM     54  C   UNL A   1      42.758  29.856  35.818  1.00  0.00     0.031 C 
ATOM     55  C   UNL A   1      43.251  28.440  33.844  1.00  0.00     0.034 A 
BRANCH  42  56
ATOM     56  C   UNL A   1      41.384  27.218  28.051  1.00  0.00     0.023 A 
ATOM     57  C   UNL A   1      41.024  25.859  27.995  1.00  0.00     0.031 A 
ATOM     58  C   UNL A   1      41.950  27.795  26.900  1.00  0.00     0.131 A 
ATOM     59  C   UNL A   1      41.299  25.108  26.842  1.00  0.00     0.055 A 
ATOM     60  C   UNL A   1      42.149  27.062  25.728  1.00  0.00     0.041 A 
ATOM     61  F   UNL A   1      42.336  29.081  26.900  1.00  0.00    -0.206 F 
ATOM     62  C   UNL A   1      41.837  25.706  25.700  1.00  0.00     0.022 A 
BRANCH  59  63
ATOM     63  S   UNL A   1      41.079  23.308  26.906  1.00  0.00     0.124 S 
ATOM     64  O   UNL A   1      39.624  23.187  26.853  1.00  0.00    -0.237 OA
ATOM     65  O   UNL A   1      41.801  22.861  25.722  1.00  0.00    -0.237 OA
ATOM     66  O   UNL A   1      41.681  22.935  28.184  1.00  0.00    -0.744 OA
ENDBRANCH  59  63
ENDBRANCH  42  56
BRANCH  43  67
ATOM     67  C   UNL A   1      39.700  32.738  36.241  1.00  0.00     0.023 A 
ATOM     68  C   UNL A   1      38.780  32.280  37.196  1.00  0.00     0.031 A 
ATOM     69  C   UNL A   1      40.320  33.981  36.466  1.00  0.00     0.131 A 
ATOM     70  C   UNL A   1      38.471  33.079  38.309  1.00  0.00     0.055 A 
ATOM     71  C   UNL A   1      40.048  34.749  37.599  1.00  0.00     0.041 A 
ATOM     72  F   UNL A   1      41.209  34.466  35.583  1.00  0.00    -0.206 F 
ATOM     73  C   UNL A   1      39.108  34.303  38.523  1.00  0.00     0.022 A 
BRANCH  70  74
ATOM     74  S   UNL A   1      37.160  32.532  39.436  1.00  0.00     0.124 S 
ATOM     75  O   UNL A   1      35.960  32.841  38.669  1.00  0.00    -0.237 OA
ATOM     76  O   UNL A   1      37.473  31.116  39.598  1.00  0.00    -0.237 OA
ATOM     77  O   UNL A   1      37.371  33.353  40.627  1.00  0.00    -0.744 OA
ENDBRANCH  70  74
ENDBRANCH  43  67
BRANCH  55  78
ATOM     78  C   UNL A   1      44.412  27.856  34.612  1.00  0.00     0.023 A 
ATOM     79  C   UNL A   1      44.259  26.738  35.452  1.00  0.00     0.031 A 
ATOM     80  C   UNL A   1      45.690  28.433  34.506  1.00  0.00     0.131 A 
ATOM     81  C   UNL A   1      45.353  26.268  36.195  1.00  0.00     0.055 A 
ATOM     82  C   UNL A   1      46.788  27.924  35.202  1.00  0.00     0.041 A 
ATOM     83  F   UNL A   1      45.894  29.502  33.720  1.00  0.00    -0.206 F 
ATOM     84  C   UNL A   1      46.620  26.843  36.063  1.00  0.00     0.022 A 
BRANCH  81  85
ATOM     85  S   UNL A   1      45.080  24.947  37.407  1.00  0.00     0.124 S 
ATOM     86  O   UNL A   1      44.985  23.766  36.553  1.00  0.00    -0.237 OA
ATOM     87  O   UNL A   1      46.275  25.035  38.241  1.00  0.00    -0.237 OA
ATOM     88  O   UNL A   1      43.836  25.337  38.068  1.00  0.00    -0.744 OA
ENDBRANCH  81  85
ENDBRANCH  55  78
ENDBRANCH  29  30
ENDBRANCH  22  24
ENDBRANCH  21  22
ENDBRANCH  20  21
ENDBRANCH   1  20
TORSDOF 19
ENDMDL
