MODEL 1
REMARK VINA RESULT:     -10.6      0.000      0.000
REMARK SMILES CCc1ccc(C[N@H+]2CC[C@@H](C(=O)OCCOCCOC(=O)c3ccc(-c4c5nc(c(-c6cc(S(=O)(=O)[O-])ccc6F)c6ccc([nH]6)c(-c6cc(S(=O)(=O)[O-])ccc6F)c6nc(c(-c7cc(S(=O)(=O)[O-])ccc7F)c7ccc4[nH]7)C=C6)C=C5)cc3)[C@@H]2C)cc1
REMARK SMILES IDX 17 1 16 2 15 3 14 4 12 5 13 6 11 7 8 8 9 9 86 10 10 12 87 13
REMARK SMILES IDX 7 14 6 15 3 16 4 17 89 18 5 19 88 20 2 21 1 22 18 23 19 24
REMARK SMILES IDX 20 25 21 26 22 27 23 28 24 29 85 30 25 31 84 32 26 33 27 34
REMARK SMILES IDX 28 35 78 36 29 37 83 38 77 39 79 40 30 41 82 42 76 43 75 44
REMARK SMILES IDX 31 46 63 47 43 48 62 49 44 50 47 51 61 52 80 53 45 54 46 55
REMARK SMILES IDX 60 57 81 58 48 59 32 60 33 61 41 62 34 63 40 64 42 65 39 66
REMARK SMILES IDX 35 67 36 68 37 69 38 70 64 71 65 72 73 73 66 74 72 75 74 76
REMARK SMILES IDX 71 77 67 78 68 79 69 80 70 81 49 82 50 83 58 84 51 85 57 86
REMARK SMILES IDX 59 87 56 88 52 89 53 90 54 91 55 92
REMARK H PARENT 8 11 79 45 47 56
REMARK Flexibility Score: inf
ROOT
ATOM      1  O   UNL A   1      32.198  29.250  24.611  1.00  0.00    -0.374 OA
ENDROOT
BRANCH   1   2
ATOM      2  C   UNL A   1      30.889  29.775  24.375  1.00  0.00     0.202 C 
BRANCH   2   3
ATOM      3  C   UNL A   1      30.177  29.124  23.185  1.00  0.00     0.261 C 
BRANCH   3   4
ATOM      4  O   UNL A   1      30.395  27.700  23.181  1.00  0.00    -0.463 OA
BRANCH   4   5
ATOM      5  C   UNL A   1      29.462  26.918  23.776  1.00  0.00     0.315 C 
ATOM      6  O   UNL A   1      28.250  27.061  23.665  1.00  0.00    -0.252 OA
BRANCH   5   7
ATOM      7  C   UNL A   1      30.076  25.842  24.648  1.00  0.00     0.162 C 
ATOM      8  N   UNL A   1      32.229  24.838  25.106  1.00  0.00    -0.328 N 
ATOM      9  C   UNL A   1      31.650  25.358  26.348  1.00  0.00     0.263 C 
ATOM     10  C   UNL A   1      31.245  25.064  24.025  1.00  0.00     0.195 C 
ATOM     11  H   UNL A   1      32.397  23.836  25.198  1.00  0.00     0.348 HD
ATOM     12  C   UNL A   1      30.642  26.413  25.934  1.00  0.00     0.083 C 
ATOM     13  C   UNL A   1      30.783  23.712  23.476  1.00  0.00     0.076 C 
BRANCH   8  14
ATOM     14  C   UNL A   1      33.588  25.349  24.817  1.00  0.00     0.299 C 
BRANCH  14  15
ATOM     15  C   UNL A   1      34.704  24.327  24.732  1.00  0.00     0.006 A 
ATOM     16  C   UNL A   1      36.612  22.239  24.617  1.00  0.00    -0.048 A 
ATOM     17  C   UNL A   1      36.247  22.808  25.838  1.00  0.00     0.004 A 
ATOM     18  C   UNL A   1      36.065  22.769  23.445  1.00  0.00     0.004 A 
ATOM     19  C   UNL A   1      35.320  23.850  25.896  1.00  0.00     0.010 A 
ATOM     20  C   UNL A   1      35.125  23.805  23.502  1.00  0.00     0.010 A 
BRANCH  16  21
ATOM     21  C   UNL A   1      37.601  21.100  24.569  1.00  0.00     0.032 C 
ATOM     22  C   UNL A   1      36.993  19.754  24.911  1.00  0.00     0.009 C 
ENDBRANCH  16  21
ENDBRANCH  14  15
ENDBRANCH   8  14
ENDBRANCH   5   7
ENDBRANCH   4   5
ENDBRANCH   3   4
ENDBRANCH   2   3
ENDBRANCH   1   2
BRANCH   1  23
ATOM     23  C   UNL A   1      32.763  29.570  25.880  1.00  0.00     0.202 C 
BRANCH  23  24
ATOM     24  C   UNL A   1      32.334  30.929  26.444  1.00  0.00     0.261 C 
BRANCH  24  25
ATOM     25  O   UNL A   1      32.962  31.220  27.707  1.00  0.00    -0.460 OA
BRANCH  25  26
ATOM     26  C   UNL A   1      33.910  32.192  27.671  1.00  0.00     0.338 C 
ATOM     27  O   UNL A   1      33.733  33.372  27.413  1.00  0.00    -0.246 OA
BRANCH  26  28
ATOM     28  C   UNL A   1      35.211  31.656  28.134  1.00  0.00     0.060 A 
ATOM     29  C   UNL A   1      35.265  30.309  28.512  1.00  0.00     0.016 A 
ATOM     30  C   UNL A   1      36.360  32.451  28.216  1.00  0.00     0.016 A 
ATOM     31  C   UNL A   1      36.460  29.757  28.981  1.00  0.00     0.010 A 
ATOM     32  C   UNL A   1      37.557  31.897  28.696  1.00  0.00     0.010 A 
ATOM     33  C   UNL A   1      37.611  30.552  29.097  1.00  0.00    -0.014 A 
BRANCH  33  34
ATOM     34  C   UNL A   1      38.830  29.994  29.745  1.00  0.00     0.031 A 
ATOM     35  C   UNL A   1      39.190  30.439  31.128  1.00  0.00     0.074 A 
ATOM     36  C   UNL A   1      39.594  29.076  29.125  1.00  0.00     0.049 A 
ATOM     37  N   UNL A   1      40.209  30.090  31.868  1.00  0.00    -0.248 NA
ATOM     38  C   UNL A   1      38.297  31.430  31.746  1.00  0.00     0.031 C 
ATOM     39  C   UNL A   1      39.355  28.601  27.774  1.00  0.00     0.029 A 
ATOM     40  N   UNL A   1      40.705  28.377  29.528  1.00  0.00    -0.354 N 
ATOM     41  C   UNL A   1      40.095  30.830  33.035  1.00  0.00     0.074 A 
ATOM     42  C   UNL A   1      38.917  31.662  32.893  1.00  0.00     0.031 C 
ATOM     43  C   UNL A   1      40.241  27.639  27.473  1.00  0.00     0.029 A 
ATOM     44  C   UNL A   1      41.174  27.488  28.583  1.00  0.00     0.049 A 
ATOM     45  H   UNL A   1      41.128  28.499  30.409  1.00  0.00     0.167 HD
ATOM     46  C   UNL A   1      40.907  30.819  34.121  1.00  0.00     0.034 A 
ATOM     47  C   UNL A   1      42.250  26.673  28.595  1.00  0.00     0.034 A 
ATOM     48  C   UNL A   1      42.093  30.005  34.231  1.00  0.00     0.049 A 
ATOM     49  C   UNL A   1      43.161  26.716  29.797  1.00  0.00     0.074 A 
ATOM     50  C   UNL A   1      42.982  29.918  35.288  1.00  0.00     0.029 A 
ATOM     51  N   UNL A   1      42.568  29.149  33.243  1.00  0.00    -0.354 N 
ATOM     52  N   UNL A   1      43.037  27.419  30.900  1.00  0.00    -0.248 NA
ATOM     53  C   UNL A   1      44.368  25.883  29.747  1.00  0.00     0.031 C 
ATOM     54  C   UNL A   1      44.028  29.065  34.914  1.00  0.00     0.029 A 
ATOM     55  C   UNL A   1      43.755  28.558  33.652  1.00  0.00     0.049 A 
ATOM     56  H   UNL A   1      42.126  28.986  32.379  1.00  0.00     0.167 HD
ATOM     57  C   UNL A   1      44.153  27.113  31.672  1.00  0.00     0.074 A 
ATOM     58  C   UNL A   1      44.918  26.134  30.926  1.00  0.00     0.031 C 
ATOM     59  C   UNL A   1      44.520  27.605  32.883  1.00  0.00     0.034 A 
BRANCH  46  60
ATOM     60  C   UNL A   1      40.564  31.775  35.234  1.00  0.00     0.023 A 
ATOM     61  C   UNL A   1      39.542  31.494  36.159  1.00  0.00     0.031 A 
ATOM     62  C   UNL A   1      41.224  33.012  35.333  1.00  0.00     0.131 A 
ATOM     63  C   UNL A   1      39.157  32.469  37.089  1.00  0.00     0.055 A 
ATOM     64  C   UNL A   1      40.891  33.946  36.315  1.00  0.00     0.041 A 
ATOM     65  F   UNL A   1      42.188  33.344  34.459  1.00  0.00    -0.206 F 
ATOM     66  C   UNL A   1      39.841  33.684  37.191  1.00  0.00     0.022 A 
BRANCH  63  67
ATOM     67  S   UNL A   1      37.653  32.191  38.062  1.00  0.00     0.124 S 
ATOM     68  O   UNL A   1      37.451  30.754  37.885  1.00  0.00    -0.237 OA
ATOM     69  O   UNL A   1      38.056  32.620  39.397  1.00  0.00    -0.237 OA
ATOM     70  O   UNL A   1      36.659  33.039  37.408  1.00  0.00    -0.744 OA
ENDBRANCH  63  67
ENDBRANCH  46  60
BRANCH  47  71
ATOM     71  C   UNL A   1      42.580  25.807  27.422  1.00  0.00     0.023 A 
ATOM     72  C   UNL A   1      42.125  24.479  27.345  1.00  0.00     0.031 A 
ATOM     73  C   UNL A   1      43.413  26.272  26.388  1.00  0.00     0.131 A 
ATOM     74  C   UNL A   1      42.537  23.656  26.283  1.00  0.00     0.055 A 
ATOM     75  C   UNL A   1      43.769  25.468  25.303  1.00  0.00     0.041 A 
ATOM     76  F   UNL A   1      43.890  27.527  26.411  1.00  0.00    -0.206 F 
ATOM     77  C   UNL A   1      43.341  24.146  25.253  1.00  0.00     0.022 A 
BRANCH  74  78
ATOM     78  S   UNL A   1      42.085  21.898  26.313  1.00  0.00     0.124 S 
ATOM     79  O   UNL A   1      42.906  21.361  25.233  1.00  0.00    -0.237 OA
ATOM     80  O   UNL A   1      42.470  21.509  27.666  1.00  0.00    -0.237 OA
ATOM     81  O   UNL A   1      40.647  21.911  26.057  1.00  0.00    -0.744 OA
ENDBRANCH  74  78
ENDBRANCH  47  71
BRANCH  59  82
ATOM     82  C   UNL A   1      45.800  27.067  33.474  1.00  0.00     0.023 A 
ATOM     83  C   UNL A   1      45.817  25.897  34.255  1.00  0.00     0.031 A 
ATOM     84  C   UNL A   1      47.016  27.741  33.264  1.00  0.00     0.131 A 
ATOM     85  C   UNL A   1      47.017  25.466  34.841  1.00  0.00     0.055 A 
ATOM     86  C   UNL A   1      48.216  27.275  33.802  1.00  0.00     0.041 A 
ATOM     87  F   UNL A   1      47.056  28.864  32.530  1.00  0.00    -0.206 F 
ATOM     88  C   UNL A   1      48.219  26.137  34.605  1.00  0.00     0.022 A 
BRANCH  85  89
ATOM     89  S   UNL A   1      46.972  24.061  35.988  1.00  0.00     0.124 S 
ATOM     90  O   UNL A   1      47.169  24.715  37.277  1.00  0.00    -0.237 OA
ATOM     91  O   UNL A   1      45.644  23.505  35.751  1.00  0.00    -0.237 OA
ATOM     92  O   UNL A   1      48.083  23.220  35.543  1.00  0.00    -0.744 OA
ENDBRANCH  85  89
ENDBRANCH  59  82
ENDBRANCH  33  34
ENDBRANCH  26  28
ENDBRANCH  25  26
ENDBRANCH  24  25
ENDBRANCH  23  24
ENDBRANCH   1  23
TORSDOF 20
ENDMDL
MODEL 2
REMARK VINA RESULT:     -10.4      2.019      7.949
REMARK SMILES CCc1ccc(C[N@H+]2CC[C@@H](C(=O)OCCOCCOC(=O)c3ccc(-c4c5nc(c(-c6cc(S(=O)(=O)[O-])ccc6F)c6ccc([nH]6)c(-c6cc(S(=O)(=O)[O-])ccc6F)c6nc(c(-c7cc(S(=O)(=O)[O-])ccc7F)c7ccc4[nH]7)C=C6)C=C5)cc3)[C@@H]2C)cc1
REMARK SMILES IDX 17 1 16 2 15 3 14 4 12 5 13 6 11 7 8 8 9 9 86 10 10 12 87 13
REMARK SMILES IDX 7 14 6 15 3 16 4 17 89 18 5 19 88 20 2 21 1 22 18 23 19 24
REMARK SMILES IDX 20 25 21 26 22 27 23 28 24 29 85 30 25 31 84 32 26 33 27 34
REMARK SMILES IDX 28 35 78 36 29 37 83 38 77 39 79 40 30 41 82 42 76 43 75 44
REMARK SMILES IDX 31 46 63 47 43 48 62 49 44 50 47 51 61 52 80 53 45 54 46 55
REMARK SMILES IDX 60 57 81 58 48 59 32 60 33 61 41 62 34 63 40 64 42 65 39 66
REMARK SMILES IDX 35 67 36 68 37 69 38 70 64 71 65 72 73 73 66 74 72 75 74 76
REMARK SMILES IDX 71 77 67 78 68 79 69 80 70 81 49 82 50 83 58 84 51 85 57 86
REMARK SMILES IDX 59 87 56 88 52 89 53 90 54 91 55 92
REMARK H PARENT 8 11 79 45 47 56
REMARK Flexibility Score: inf
ROOT
ATOM      1  O   UNL A   1      30.365  28.786  23.882  1.00  0.00    -0.374 OA
ENDROOT
BRANCH   1   2
ATOM      2  C   UNL A   1      30.993  28.381  22.663  1.00  0.00     0.202 C 
BRANCH   2   3
ATOM      3  C   UNL A   1      32.221  27.492  22.877  1.00  0.00     0.261 C 
BRANCH   3   4
ATOM      4  O   UNL A   1      31.826  26.174  23.305  1.00  0.00    -0.463 OA
BRANCH   4   5
ATOM      5  C   UNL A   1      32.618  25.133  22.953  1.00  0.00     0.315 C 
ATOM      6  O   UNL A   1      32.316  24.261  22.147  1.00  0.00    -0.252 OA
BRANCH   5   7
ATOM      7  C   UNL A   1      33.935  25.126  23.700  1.00  0.00     0.162 C 
ATOM      8  N   UNL A   1      34.916  24.201  25.710  1.00  0.00    -0.328 N 
ATOM      9  C   UNL A   1      35.704  23.797  24.543  1.00  0.00     0.263 C 
ATOM     10  C   UNL A   1      33.834  25.090  25.233  1.00  0.00     0.195 C 
ATOM     11  H   UNL A   1      35.507  24.719  26.362  1.00  0.00     0.348 HD
ATOM     12  C   UNL A   1      34.778  23.916  23.347  1.00  0.00     0.083 C 
ATOM     13  C   UNL A   1      34.025  26.483  25.837  1.00  0.00     0.076 C 
BRANCH   8  14
ATOM     14  C   UNL A   1      34.459  23.070  26.548  1.00  0.00     0.299 C 
BRANCH  14  15
ATOM     15  C   UNL A   1      33.965  21.833  25.824  1.00  0.00     0.006 A 
ATOM     16  C   UNL A   1      33.024  19.411  24.701  1.00  0.00    -0.048 A 
ATOM     17  C   UNL A   1      34.383  19.600  24.961  1.00  0.00     0.004 A 
ATOM     18  C   UNL A   1      32.146  20.472  24.945  1.00  0.00     0.004 A 
ATOM     19  C   UNL A   1      34.851  20.799  25.497  1.00  0.00     0.010 A 
ATOM     20  C   UNL A   1      32.612  21.671  25.495  1.00  0.00     0.010 A 
BRANCH  16  21
ATOM     21  C   UNL A   1      32.527  18.102  24.138  1.00  0.00     0.032 C 
ATOM     22  C   UNL A   1      33.093  17.777  22.770  1.00  0.00     0.009 C 
ENDBRANCH  16  21
ENDBRANCH  14  15
ENDBRANCH   8  14
ENDBRANCH   5   7
ENDBRANCH   4   5
ENDBRANCH   3   4
ENDBRANCH   2   3
ENDBRANCH   1   2
BRANCH   1  23
ATOM     23  C   UNL A   1      30.885  29.977  24.469  1.00  0.00     0.202 C 
BRANCH  23  24
ATOM     24  C   UNL A   1      31.625  29.765  25.793  1.00  0.00     0.261 C 
BRANCH  24  25
ATOM     25  O   UNL A   1      32.914  30.407  25.809  1.00  0.00    -0.460 OA
BRANCH  25  26
ATOM     26  C   UNL A   1      33.115  31.278  26.832  1.00  0.00     0.338 C 
ATOM     27  O   UNL A   1      32.326  32.115  27.240  1.00  0.00    -0.246 OA
BRANCH  26  28
ATOM     28  C   UNL A   1      34.401  30.988  27.506  1.00  0.00     0.060 A 
ATOM     29  C   UNL A   1      34.681  29.656  27.836  1.00  0.00     0.016 A 
ATOM     30  C   UNL A   1      35.318  31.995  27.831  1.00  0.00     0.016 A 
ATOM     31  C   UNL A   1      35.868  29.329  28.496  1.00  0.00     0.010 A 
ATOM     32  C   UNL A   1      36.505  31.665  28.503  1.00  0.00     0.010 A 
ATOM     33  C   UNL A   1      36.780  30.334  28.855  1.00  0.00    -0.014 A 
BRANCH  33  34
ATOM     34  C   UNL A   1      37.960  29.991  29.696  1.00  0.00     0.031 A 
ATOM     35  C   UNL A   1      39.010  29.078  29.142  1.00  0.00     0.074 A 
ATOM     36  C   UNL A   1      38.117  30.510  30.928  1.00  0.00     0.049 A 
ATOM     37  N   UNL A   1      40.105  28.644  29.706  1.00  0.00    -0.248 NA
ATOM     38  C   UNL A   1      38.777  28.568  27.784  1.00  0.00     0.031 C 
ATOM     39  C   UNL A   1      37.145  31.376  31.571  1.00  0.00     0.029 A 
ATOM     40  N   UNL A   1      39.125  30.402  31.853  1.00  0.00    -0.354 N 
ATOM     41  C   UNL A   1      40.690  27.791  28.782  1.00  0.00     0.074 A 
ATOM     42  C   UNL A   1      39.813  27.758  27.628  1.00  0.00     0.031 C 
ATOM     43  C   UNL A   1      37.624  31.783  32.757  1.00  0.00     0.029 A 
ATOM     44  C   UNL A   1      38.906  31.134  33.000  1.00  0.00     0.049 A 
ATOM     45  H   UNL A   1      39.930  29.853  31.710  1.00  0.00     0.167 HD
ATOM     46  C   UNL A   1      41.849  27.097  28.894  1.00  0.00     0.034 A 
ATOM     47  C   UNL A   1      39.635  31.241  34.132  1.00  0.00     0.034 A 
ATOM     48  C   UNL A   1      42.693  27.120  30.063  1.00  0.00     0.049 A 
ATOM     49  C   UNL A   1      40.895  30.421  34.245  1.00  0.00     0.074 A 
ATOM     50  C   UNL A   1      43.887  26.455  30.276  1.00  0.00     0.029 A 
ATOM     51  N   UNL A   1      42.425  27.834  31.226  1.00  0.00    -0.354 N 
ATOM     52  N   UNL A   1      41.441  29.620  33.358  1.00  0.00    -0.248 NA
ATOM     53  C   UNL A   1      41.623  30.492  35.519  1.00  0.00     0.031 C 
ATOM     54  C   UNL A   1      44.305  26.711  31.588  1.00  0.00     0.029 A 
ATOM     55  C   UNL A   1      43.412  27.597  32.171  1.00  0.00     0.049 A 
ATOM     56  H   UNL A   1      41.646  28.422  31.360  1.00  0.00     0.167 HD
ATOM     57  C   UNL A   1      42.574  29.092  33.969  1.00  0.00     0.074 A 
ATOM     58  C   UNL A   1      42.654  29.693  35.284  1.00  0.00     0.031 C 
ATOM     59  C   UNL A   1      43.462  28.183  33.491  1.00  0.00     0.034 A 
BRANCH  46  60
ATOM     60  C   UNL A   1      42.215  26.200  27.738  1.00  0.00     0.023 A 
ATOM     61  C   UNL A   1      41.673  24.909  27.606  1.00  0.00     0.031 A 
ATOM     62  C   UNL A   1      43.167  26.618  26.793  1.00  0.00     0.131 A 
ATOM     63  C   UNL A   1      42.146  24.055  26.600  1.00  0.00     0.055 A 
ATOM     64  C   UNL A   1      43.573  25.791  25.745  1.00  0.00     0.041 A 
ATOM     65  F   UNL A   1      43.738  27.829  26.888  1.00  0.00    -0.206 F 
ATOM     66  C   UNL A   1      43.074  24.494  25.653  1.00  0.00     0.022 A 
BRANCH  63  67
ATOM     67  S   UNL A   1      41.646  22.312  26.640  1.00  0.00     0.124 S 
ATOM     68  O   UNL A   1      42.214  21.815  25.389  1.00  0.00    -0.237 OA
ATOM     69  O   UNL A   1      42.277  21.830  27.864  1.00  0.00    -0.237 OA
ATOM     70  O   UNL A   1      40.186  22.374  26.674  1.00  0.00    -0.744 OA
ENDBRANCH  63  67
ENDBRANCH  46  60
BRANCH  47  71
ATOM     71  C   UNL A   1      39.173  32.087  35.274  1.00  0.00     0.023 A 
ATOM     72  C   UNL A   1      39.614  33.413  35.426  1.00  0.00     0.031 A 
ATOM     73  C   UNL A   1      38.332  31.561  36.273  1.00  0.00     0.131 A 
ATOM     74  C   UNL A   1      39.247  34.149  36.566  1.00  0.00     0.055 A 
ATOM     75  C   UNL A   1      37.921  32.318  37.372  1.00  0.00     0.041 A 
ATOM     76  F   UNL A   1      37.887  30.297  36.192  1.00  0.00    -0.206 F 
ATOM     77  C   UNL A   1      38.390  33.617  37.531  1.00  0.00     0.022 A 
BRANCH  74  78
ATOM     78  S   UNL A   1      39.985  35.789  36.823  1.00  0.00     0.124 S 
ATOM     79  O   UNL A   1      41.391  35.455  37.019  1.00  0.00    -0.237 OA
ATOM     80  O   UNL A   1      39.654  36.469  35.575  1.00  0.00    -0.237 OA
ATOM     81  O   UNL A   1      39.291  36.293  38.006  1.00  0.00    -0.744 OA
ENDBRANCH  74  78
ENDBRANCH  47  71
BRANCH  59  82
ATOM     82  C   UNL A   1      44.604  27.807  34.402  1.00  0.00     0.023 A 
ATOM     83  C   UNL A   1      44.512  26.719  35.288  1.00  0.00     0.031 A 
ATOM     84  C   UNL A   1      45.794  28.555  34.393  1.00  0.00     0.131 A 
ATOM     85  C   UNL A   1      45.571  26.442  36.166  1.00  0.00     0.055 A 
ATOM     86  C   UNL A   1      46.867  28.238  35.227  1.00  0.00     0.041 A 
ATOM     87  F   UNL A   1      45.934  29.606  33.569  1.00  0.00    -0.206 F 
ATOM     88  C   UNL A   1      46.755  27.183  36.128  1.00  0.00     0.022 A 
BRANCH  85  89
ATOM     89  S   UNL A   1      45.350  25.148  37.419  1.00  0.00     0.124 S 
ATOM     90  O   UNL A   1      46.250  24.104  36.938  1.00  0.00    -0.237 OA
ATOM     91  O   UNL A   1      45.756  25.825  38.645  1.00  0.00    -0.237 OA
ATOM     92  O   UNL A   1      43.927  24.827  37.332  1.00  0.00    -0.744 OA
ENDBRANCH  85  89
ENDBRANCH  59  82
ENDBRANCH  33  34
ENDBRANCH  26  28
ENDBRANCH  25  26
ENDBRANCH  24  25
ENDBRANCH  23  24
ENDBRANCH   1  23
TORSDOF 20
ENDMDL
MODEL 3
REMARK VINA RESULT:     -10.3      2.066      2.541
REMARK SMILES CCc1ccc(C[N@H+]2CC[C@@H](C(=O)OCCOCCOC(=O)c3ccc(-c4c5nc(c(-c6cc(S(=O)(=O)[O-])ccc6F)c6ccc([nH]6)c(-c6cc(S(=O)(=O)[O-])ccc6F)c6nc(c(-c7cc(S(=O)(=O)[O-])ccc7F)c7ccc4[nH]7)C=C6)C=C5)cc3)[C@@H]2C)cc1
REMARK SMILES IDX 17 1 16 2 15 3 14 4 12 5 13 6 11 7 8 8 9 9 86 10 10 12 87 13
REMARK SMILES IDX 7 14 6 15 3 16 4 17 89 18 5 19 88 20 2 21 1 22 18 23 19 24
REMARK SMILES IDX 20 25 21 26 22 27 23 28 24 29 85 30 25 31 84 32 26 33 27 34
REMARK SMILES IDX 28 35 78 36 29 37 83 38 77 39 79 40 30 41 82 42 76 43 75 44
REMARK SMILES IDX 31 46 63 47 43 48 62 49 44 50 47 51 61 52 80 53 45 54 46 55
REMARK SMILES IDX 60 57 81 58 48 59 32 60 33 61 41 62 34 63 40 64 42 65 39 66
REMARK SMILES IDX 35 67 36 68 37 69 38 70 64 71 65 72 73 73 66 74 72 75 74 76
REMARK SMILES IDX 71 77 67 78 68 79 69 80 70 81 49 82 50 83 58 84 51 85 57 86
REMARK SMILES IDX 59 87 56 88 52 89 53 90 54 91 55 92
REMARK H PARENT 8 11 79 45 47 56
REMARK Flexibility Score: inf
ROOT
ATOM      1  O   UNL A   1      30.255  29.789  23.955  1.00  0.00    -0.374 OA
ENDROOT
BRANCH   1   2
ATOM      2  C   UNL A   1      30.236  29.145  22.678  1.00  0.00     0.202 C 
BRANCH   2   3
ATOM      3  C   UNL A   1      30.853  27.743  22.694  1.00  0.00     0.261 C 
BRANCH   3   4
ATOM      4  O   UNL A   1      32.141  27.749  22.049  1.00  0.00    -0.463 OA
BRANCH   4   5
ATOM      5  C   UNL A   1      32.907  26.637  22.163  1.00  0.00     0.315 C 
ATOM      6  O   UNL A   1      33.674  26.220  21.302  1.00  0.00    -0.252 OA
BRANCH   5   7
ATOM      7  C   UNL A   1      32.693  25.915  23.477  1.00  0.00     0.162 C 
ATOM      8  N   UNL A   1      33.398  23.899  24.615  1.00  0.00    -0.328 N 
ATOM      9  C   UNL A   1      33.712  25.069  25.438  1.00  0.00     0.263 C 
ATOM     10  C   UNL A   1      32.699  24.380  23.403  1.00  0.00     0.195 C 
ATOM     11  H   UNL A   1      32.778  23.272  25.129  1.00  0.00     0.348 HD
ATOM     12  C   UNL A   1      33.771  26.250  24.488  1.00  0.00     0.083 C 
ATOM     13  C   UNL A   1      31.275  23.818  23.388  1.00  0.00     0.076 C 
BRANCH   8  14
ATOM     14  C   UNL A   1      34.560  23.023  24.346  1.00  0.00     0.299 C 
BRANCH  14  15
ATOM     15  C   UNL A   1      34.347  21.530  24.499  1.00  0.00     0.006 A 
ATOM     16  C   UNL A   1      33.996  18.721  24.533  1.00  0.00    -0.048 A 
ATOM     17  C   UNL A   1      32.938  19.571  24.206  1.00  0.00     0.004 A 
ATOM     18  C   UNL A   1      35.216  19.291  24.909  1.00  0.00     0.004 A 
ATOM     19  C   UNL A   1      33.103  20.956  24.206  1.00  0.00     0.010 A 
ATOM     20  C   UNL A   1      35.388  20.680  24.897  1.00  0.00     0.010 A 
BRANCH  16  21
ATOM     21  C   UNL A   1      33.810  17.224  24.510  1.00  0.00     0.032 C 
ATOM     22  C   UNL A   1      34.068  16.601  23.153  1.00  0.00     0.009 C 
ENDBRANCH  16  21
ENDBRANCH  14  15
ENDBRANCH   8  14
ENDBRANCH   5   7
ENDBRANCH   4   5
ENDBRANCH   3   4
ENDBRANCH   2   3
ENDBRANCH   1   2
BRANCH   1  23
ATOM     23  C   UNL A   1      31.342  29.428  24.804  1.00  0.00     0.202 C 
BRANCH  23  24
ATOM     24  C   UNL A   1      31.684  30.466  25.877  1.00  0.00     0.261 C 
BRANCH  24  25
ATOM     25  O   UNL A   1      33.079  30.442  26.237  1.00  0.00    -0.460 OA
BRANCH  25  26
ATOM     26  C   UNL A   1      33.490  31.464  27.030  1.00  0.00     0.338 C 
ATOM     27  O   UNL A   1      32.921  32.531  27.195  1.00  0.00    -0.246 OA
BRANCH  26  28
ATOM     28  C   UNL A   1      34.685  31.062  27.807  1.00  0.00     0.060 A 
ATOM     29  C   UNL A   1      35.709  32.004  27.966  1.00  0.00     0.016 A 
ATOM     30  C   UNL A   1      34.822  29.783  28.360  1.00  0.00     0.016 A 
ATOM     31  C   UNL A   1      36.870  31.670  28.667  1.00  0.00     0.010 A 
ATOM     32  C   UNL A   1      35.993  29.447  29.055  1.00  0.00     0.010 A 
ATOM     33  C   UNL A   1      37.032  30.381  29.199  1.00  0.00    -0.014 A 
BRANCH  33  34
ATOM     34  C   UNL A   1      38.336  29.991  29.803  1.00  0.00     0.031 A 
ATOM     35  C   UNL A   1      38.690  30.501  31.165  1.00  0.00     0.074 A 
ATOM     36  C   UNL A   1      39.185  29.167  29.163  1.00  0.00     0.049 A 
ATOM     37  N   UNL A   1      39.773  30.295  31.866  1.00  0.00    -0.248 NA
ATOM     38  C   UNL A   1      37.704  31.381  31.807  1.00  0.00     0.031 C 
ATOM     39  C   UNL A   1      38.956  28.644  27.828  1.00  0.00     0.029 A 
ATOM     40  N   UNL A   1      40.391  28.621  29.527  1.00  0.00    -0.354 N 
ATOM     41  C   UNL A   1      39.612  31.034  33.029  1.00  0.00     0.074 A 
ATOM     42  C   UNL A   1      38.333  31.708  32.926  1.00  0.00     0.031 C 
ATOM     43  C   UNL A   1      39.945  27.797  27.502  1.00  0.00     0.029 A 
ATOM     44  C   UNL A   1      40.931  27.783  28.575  1.00  0.00     0.049 A 
ATOM     45  H   UNL A   1      40.829  28.809  30.389  1.00  0.00     0.167 HD
ATOM     46  C   UNL A   1      40.461  31.143  34.081  1.00  0.00     0.034 A 
ATOM     47  C   UNL A   1      42.102  27.111  28.552  1.00  0.00     0.034 A 
ATOM     48  C   UNL A   1      41.744  30.487  34.152  1.00  0.00     0.049 A 
ATOM     49  C   UNL A   1      43.046  27.288  29.715  1.00  0.00     0.074 A 
ATOM     50  C   UNL A   1      42.677  30.530  35.172  1.00  0.00     0.029 A 
ATOM     51  N   UNL A   1      42.285  29.682  33.155  1.00  0.00    -0.354 N 
ATOM     52  N   UNL A   1      42.877  27.988  30.814  1.00  0.00    -0.248 NA
ATOM     53  C   UNL A   1      44.346  26.613  29.625  1.00  0.00     0.031 C 
ATOM     54  C   UNL A   1      43.807  29.810  34.765  1.00  0.00     0.029 A 
ATOM     55  C   UNL A   1      43.552  29.253  33.522  1.00  0.00     0.049 A 
ATOM     56  H   UNL A   1      41.833  29.451  32.311  1.00  0.00     0.167 HD
ATOM     57  C   UNL A   1      44.053  27.837  31.543  1.00  0.00     0.074 A 
ATOM     58  C   UNL A   1      44.905  26.951  30.778  1.00  0.00     0.031 C 
ATOM     59  C   UNL A   1      44.401  28.391  32.733  1.00  0.00     0.034 A 
BRANCH  46  60
ATOM     60  C   UNL A   1      40.043  32.066  35.196  1.00  0.00     0.023 A 
ATOM     61  C   UNL A   1      39.257  31.615  36.272  1.00  0.00     0.031 A 
ATOM     62  C   UNL A   1      40.380  33.430  35.150  1.00  0.00     0.131 A 
ATOM     63  C   UNL A   1      38.770  32.533  37.213  1.00  0.00     0.055 A 
ATOM     64  C   UNL A   1      39.960  34.324  36.135  1.00  0.00     0.041 A 
ATOM     65  F   UNL A   1      41.104  33.920  34.131  1.00  0.00    -0.206 F 
ATOM     66  C   UNL A   1      39.136  33.880  37.167  1.00  0.00     0.022 A 
BRANCH  63  67
ATOM     67  S   UNL A   1      37.528  31.970  38.408  1.00  0.00     0.124 S 
ATOM     68  O   UNL A   1      38.230  32.165  39.674  1.00  0.00    -0.237 OA
ATOM     69  O   UNL A   1      36.411  32.874  38.150  1.00  0.00    -0.237 OA
ATOM     70  O   UNL A   1      37.301  30.576  38.036  1.00  0.00    -0.744 OA
ENDBRANCH  63  67
ENDBRANCH  46  60
BRANCH  47  71
ATOM     71  C   UNL A   1      42.492  26.275  27.376  1.00  0.00     0.023 A 
ATOM     72  C   UNL A   1      42.122  24.921  27.288  1.00  0.00     0.031 A 
ATOM     73  C   UNL A   1      43.302  26.797  26.350  1.00  0.00     0.131 A 
ATOM     74  C   UNL A   1      42.591  24.132  26.224  1.00  0.00     0.055 A 
ATOM     75  C   UNL A   1      43.715  26.023  25.264  1.00  0.00     0.041 A 
ATOM     76  F   UNL A   1      43.700  28.079  26.384  1.00  0.00    -0.206 F 
ATOM     77  C   UNL A   1      43.371  24.677  25.203  1.00  0.00     0.022 A 
BRANCH  74  78
ATOM     78  S   UNL A   1      42.250  22.349  26.241  1.00  0.00     0.124 S 
ATOM     79  O   UNL A   1      42.998  21.892  25.075  1.00  0.00    -0.237 OA
ATOM     80  O   UNL A   1      42.781  21.951  27.541  1.00  0.00    -0.237 OA
ATOM     81  O   UNL A   1      40.796  22.279  26.117  1.00  0.00    -0.744 OA
ENDBRANCH  74  78
ENDBRANCH  47  71
BRANCH  59  82
ATOM     82  C   UNL A   1      45.761  28.029  33.277  1.00  0.00     0.023 A 
ATOM     83  C   UNL A   1      46.880  28.857  33.075  1.00  0.00     0.031 A 
ATOM     84  C   UNL A   1      45.943  26.833  33.994  1.00  0.00     0.131 A 
ATOM     85  C   UNL A   1      48.141  28.453  33.540  1.00  0.00     0.055 A 
ATOM     86  C   UNL A   1      47.188  26.465  34.504  1.00  0.00     0.041 A 
ATOM     87  F   UNL A   1      44.909  26.004  34.211  1.00  0.00    -0.206 F 
ATOM     88  C   UNL A   1      48.298  27.271  34.268  1.00  0.00     0.022 A 
BRANCH  85  89
ATOM     89  S   UNL A   1      49.591  29.454  33.108  1.00  0.00     0.124 S 
ATOM     90  O   UNL A   1      48.987  30.564  32.380  1.00  0.00    -0.237 OA
ATOM     91  O   UNL A   1      50.150  29.778  34.416  1.00  0.00    -0.237 OA
ATOM     92  O   UNL A   1      50.403  28.548  32.297  1.00  0.00    -0.744 OA
ENDBRANCH  85  89
ENDBRANCH  59  82
ENDBRANCH  33  34
ENDBRANCH  26  28
ENDBRANCH  25  26
ENDBRANCH  24  25
ENDBRANCH  23  24
ENDBRANCH   1  23
TORSDOF 20
ENDMDL
