MODEL 1
REMARK VINA RESULT:     -11.3      0.000      0.000
REMARK SMILES N#C/C(=C\c1ccc(-c2cc(C(F)(F)F)ccc2Cl)o1)C(=O)OCCOCCOC(=O)c1ccc(-c2c3nc(c(-c4cc(S(=O)(=O)[O-])ccc4F)c4ccc([nH]4)c(-c4cc(S(=O)(=O)[O-])ccc4F)c4nc(c(-c5cc(S(=O)(=O)[O-])ccc5F)c5ccc2[nH]5)C=C4)C=C3)cc1
REMARK SMILES IDX 26 1 25 2 24 3 23 4 21 5 22 6 3 7 4 8 2 9 1 10 5 11 6 12
REMARK SMILES IDX 20 13 7 14 8 15 9 16 10 17 18 18 11 19 17 20 19 21 16 22
REMARK SMILES IDX 12 23 13 24 14 25 15 26 27 27 28 28 29 29 30 30 31 31 32 32
REMARK SMILES IDX 33 33 94 34 34 35 93 36 35 37 36 38 37 39 87 40 38 41 92 42
REMARK SMILES IDX 86 43 88 44 39 45 91 46 85 47 84 48 40 50 72 51 52 52 71 53
REMARK SMILES IDX 53 54 56 55 70 56 89 57 54 58 55 59 69 61 90 62 57 63 41 64
REMARK SMILES IDX 42 65 50 66 43 67 49 68 51 69 48 70 44 71 45 72 46 73 47 74
REMARK SMILES IDX 73 75 74 76 82 77 75 78 81 79 83 80 80 81 76 82 77 83 78 84
REMARK SMILES IDX 79 85 58 86 59 87 67 88 60 89 66 90 68 91 65 92 61 93 62 94
REMARK SMILES IDX 63 95 64 96
REMARK H PARENT 88 49 56 60
REMARK Flexibility Score: inf
ROOT
ATOM      1  O   UNL A   1      37.424  20.574  24.373  1.00  0.00    -0.374 OA
ENDROOT
BRANCH   1   2
ATOM      2  C   UNL A   1      36.179  20.969  24.945  1.00  0.00     0.202 C 
BRANCH   2   3
ATOM      3  C   UNL A   1      35.047  19.942  24.983  1.00  0.00     0.261 C 
BRANCH   3   4
ATOM      4  O   UNL A   1      34.024  20.324  25.919  1.00  0.00    -0.459 OA
BRANCH   4   5
ATOM      5  C   UNL A   1      32.821  20.567  25.351  1.00  0.00     0.349 C 
ATOM      6  O   UNL A   1      31.961  19.736  25.096  1.00  0.00    -0.245 OA
BRANCH   5   7
ATOM      7  C   UNL A   1      32.581  22.014  25.189  1.00  0.00     0.141 C 
ATOM      8  C   UNL A   1      31.374  22.458  24.774  1.00  0.00     0.074 C 
BRANCH   7   9
ATOM      9  C   UNL A   1      33.448  22.893  26.076  1.00  0.00     0.107 C 
ATOM     10  N   UNL A   1      34.167  23.622  26.812  1.00  0.00    -0.192 NA
ENDBRANCH   7   9
BRANCH   8  11
ATOM     11  C   UNL A   1      30.930  23.794  25.046  1.00  0.00     0.129 A 
ATOM     12  C   UNL A   1      30.348  24.326  26.194  1.00  0.00     0.051 A 
ATOM     13  O   UNL A   1      30.967  24.811  24.102  1.00  0.00    -0.457 OA
ATOM     14  C   UNL A   1      29.973  25.658  25.922  1.00  0.00     0.051 A 
ATOM     15  C   UNL A   1      30.392  25.929  24.640  1.00  0.00     0.136 A 
BRANCH  15  16
ATOM     16  C   UNL A   1      30.327  27.134  23.814  1.00  0.00     0.036 A 
ATOM     17  C   UNL A   1      29.090  27.774  23.595  1.00  0.00     0.026 A 
ATOM     18  C   UNL A   1      31.487  27.739  23.294  1.00  0.00     0.052 A 
ATOM     19  C   UNL A   1      29.009  29.001  22.900  1.00  0.00     0.056 A 
ATOM     20  C   UNL A   1      31.413  28.947  22.592  1.00  0.00     0.022 A 
ATOM     21  Cl  UNL A   1      33.064  27.046  23.473  1.00  0.00    -0.084 Cl
ATOM     22  C   UNL A   1      30.185  29.577  22.401  1.00  0.00     0.014 A 
BRANCH  19  23
ATOM     23  C   UNL A   1      27.679  29.697  22.716  1.00  0.00     0.416 C 
ATOM     24  F   UNL A   1      27.517  30.758  23.551  1.00  0.00    -0.166 F 
ATOM     25  F   UNL A   1      27.516  30.179  21.453  1.00  0.00    -0.166 F 
ATOM     26  F   UNL A   1      26.608  28.881  22.937  1.00  0.00    -0.166 F 
ENDBRANCH  19  23
ENDBRANCH  15  16
ENDBRANCH   8  11
ENDBRANCH   5   7
ENDBRANCH   4   5
ENDBRANCH   3   4
ENDBRANCH   2   3
ENDBRANCH   1   2
BRANCH   1  27
ATOM     27  C   UNL A   1      38.072  19.399  24.845  1.00  0.00     0.202 C 
BRANCH  27  28
ATOM     28  C   UNL A   1      39.344  19.519  25.696  1.00  0.00     0.261 C 
BRANCH  28  29
ATOM     29  O   UNL A   1      39.620  20.846  26.167  1.00  0.00    -0.460 OA
BRANCH  29  30
ATOM     30  C   UNL A   1      40.773  20.944  26.879  1.00  0.00     0.338 C 
ATOM     31  O   UNL A   1      41.661  20.105  26.951  1.00  0.00    -0.246 OA
BRANCH  30  32
ATOM     32  C   UNL A   1      40.926  22.300  27.432  1.00  0.00     0.060 A 
ATOM     33  C   UNL A   1      40.214  23.335  26.812  1.00  0.00     0.016 A 
ATOM     34  C   UNL A   1      41.819  22.574  28.471  1.00  0.00     0.016 A 
ATOM     35  C   UNL A   1      40.422  24.656  27.200  1.00  0.00     0.010 A 
ATOM     36  C   UNL A   1      42.037  23.903  28.849  1.00  0.00     0.010 A 
ATOM     37  C   UNL A   1      41.365  24.951  28.191  1.00  0.00    -0.014 A 
BRANCH  37  38
ATOM     38  C   UNL A   1      41.755  26.362  28.421  1.00  0.00     0.031 A 
ATOM     39  C   UNL A   1      43.111  26.825  27.958  1.00  0.00     0.074 A 
ATOM     40  C   UNL A   1      40.900  27.226  28.995  1.00  0.00     0.049 A 
ATOM     41  N   UNL A   1      43.667  28.004  28.062  1.00  0.00    -0.248 NA
ATOM     42  C   UNL A   1      43.949  25.819  27.292  1.00  0.00     0.031 C 
ATOM     43  C   UNL A   1      39.545  26.903  29.436  1.00  0.00     0.029 A 
ATOM     44  N   UNL A   1      41.048  28.555  29.305  1.00  0.00    -0.354 N 
ATOM     45  C   UNL A   1      44.924  27.882  27.479  1.00  0.00     0.074 A 
ATOM     46  C   UNL A   1      45.057  26.504  27.057  1.00  0.00     0.031 C 
ATOM     47  C   UNL A   1      38.984  28.005  29.964  1.00  0.00     0.029 A 
ATOM     48  C   UNL A   1      39.951  29.099  29.930  1.00  0.00     0.049 A 
ATOM     49  H   UNL A   1      41.861  29.069  29.098  1.00  0.00     0.167 HD
ATOM     50  C   UNL A   1      45.874  28.835  27.306  1.00  0.00     0.034 A 
ATOM     51  C   UNL A   1      39.762  30.335  30.435  1.00  0.00     0.034 A 
ATOM     52  C   UNL A   1      45.726  30.202  27.742  1.00  0.00     0.049 A 
ATOM     53  C   UNL A   1      40.870  31.354  30.314  1.00  0.00     0.074 A 
ATOM     54  C   UNL A   1      46.610  31.256  27.592  1.00  0.00     0.029 A 
ATOM     55  N   UNL A   1      44.628  30.703  28.430  1.00  0.00    -0.354 N 
ATOM     56  N   UNL A   1      42.048  31.232  29.746  1.00  0.00    -0.248 NA
ATOM     57  C   UNL A   1      40.617  32.677  30.899  1.00  0.00     0.031 C 
ATOM     58  C   UNL A   1      46.082  32.371  28.254  1.00  0.00     0.029 A 
ATOM     59  C   UNL A   1      44.831  32.037  28.749  1.00  0.00     0.049 A 
ATOM     60  H   UNL A   1      43.822  30.185  28.659  1.00  0.00     0.167 HD
ATOM     61  C   UNL A   1      42.663  32.474  29.878  1.00  0.00     0.074 A 
ATOM     62  C   UNL A   1      41.722  33.331  30.571  1.00  0.00     0.031 C 
ATOM     63  C   UNL A   1      43.890  32.875  29.456  1.00  0.00     0.034 A 
BRANCH  50  64
ATOM     64  C   UNL A   1      47.176  28.405  26.674  1.00  0.00     0.023 A 
ATOM     65  C   UNL A   1      47.331  28.312  25.280  1.00  0.00     0.031 A 
ATOM     66  C   UNL A   1      48.268  28.041  27.483  1.00  0.00     0.131 A 
ATOM     67  C   UNL A   1      48.519  27.795  24.741  1.00  0.00     0.055 A 
ATOM     68  C   UNL A   1      49.475  27.603  26.938  1.00  0.00     0.041 A 
ATOM     69  F   UNL A   1      48.171  28.086  28.821  1.00  0.00    -0.206 F 
ATOM     70  C   UNL A   1      49.601  27.462  25.560  1.00  0.00     0.022 A 
BRANCH  67  71
ATOM     71  S   UNL A   1      48.577  27.420  22.967  1.00  0.00     0.124 S 
ATOM     72  O   UNL A   1      47.407  28.143  22.474  1.00  0.00    -0.237 OA
ATOM     73  O   UNL A   1      49.874  27.958  22.574  1.00  0.00    -0.237 OA
ATOM     74  O   UNL A   1      48.464  25.964  22.919  1.00  0.00    -0.744 OA
ENDBRANCH  67  71
ENDBRANCH  50  64
BRANCH  51  75
ATOM     75  C   UNL A   1      38.490  30.677  31.133  1.00  0.00     0.023 A 
ATOM     76  C   UNL A   1      37.462  31.364  30.470  1.00  0.00     0.031 A 
ATOM     77  C   UNL A   1      38.307  30.363  32.492  1.00  0.00     0.131 A 
ATOM     78  C   UNL A   1      36.312  31.750  31.177  1.00  0.00     0.055 A 
ATOM     79  C   UNL A   1      37.142  30.707  33.178  1.00  0.00     0.041 A 
ATOM     80  F   UNL A   1      39.261  29.706  33.171  1.00  0.00    -0.206 F 
ATOM     81  C   UNL A   1      36.139  31.416  32.522  1.00  0.00     0.022 A 
BRANCH  78  82
ATOM     82  S   UNL A   1      35.070  32.762  30.326  1.00  0.00     0.124 S 
ATOM     83  O   UNL A   1      34.637  31.866  29.260  1.00  0.00    -0.237 OA
ATOM     84  O   UNL A   1      34.102  33.010  31.389  1.00  0.00    -0.237 OA
ATOM     85  O   UNL A   1      35.827  33.934  29.890  1.00  0.00    -0.744 OA
ENDBRANCH  78  82
ENDBRANCH  51  75
BRANCH  63  86
ATOM     86  C   UNL A   1      44.261  34.318  29.697  1.00  0.00     0.023 A 
ATOM     87  C   UNL A   1      43.839  35.347  28.836  1.00  0.00     0.031 A 
ATOM     88  C   UNL A   1      45.060  34.666  30.802  1.00  0.00     0.131 A 
ATOM     89  C   UNL A   1      44.263  36.666  29.063  1.00  0.00     0.055 A 
ATOM     90  C   UNL A   1      45.430  35.988  31.055  1.00  0.00     0.041 A 
ATOM     91  F   UNL A   1      45.494  33.725  31.655  1.00  0.00    -0.206 F 
ATOM     92  C   UNL A   1      45.042  36.994  30.176  1.00  0.00     0.022 A 
BRANCH  89  93
ATOM     93  S   UNL A   1      43.857  37.936  27.833  1.00  0.00     0.124 S 
ATOM     94  O   UNL A   1      44.975  38.863  27.974  1.00  0.00    -0.237 OA
ATOM     95  O   UNL A   1      43.818  37.169  26.592  1.00  0.00    -0.237 OA
ATOM     96  O   UNL A   1      42.565  38.449  28.284  1.00  0.00    -0.744 OA
ENDBRANCH  89  93
ENDBRANCH  63  86
ENDBRANCH  37  38
ENDBRANCH  30  32
ENDBRANCH  29  30
ENDBRANCH  28  29
ENDBRANCH  27  28
ENDBRANCH   1  27
TORSDOF 21
ENDMDL
MODEL 2
REMARK VINA RESULT:     -11.0      2.581      2.992
REMARK SMILES N#C/C(=C\c1ccc(-c2cc(C(F)(F)F)ccc2Cl)o1)C(=O)OCCOCCOC(=O)c1ccc(-c2c3nc(c(-c4cc(S(=O)(=O)[O-])ccc4F)c4ccc([nH]4)c(-c4cc(S(=O)(=O)[O-])ccc4F)c4nc(c(-c5cc(S(=O)(=O)[O-])ccc5F)c5ccc2[nH]5)C=C4)C=C3)cc1
REMARK SMILES IDX 26 1 25 2 24 3 23 4 21 5 22 6 3 7 4 8 2 9 1 10 5 11 6 12
REMARK SMILES IDX 20 13 7 14 8 15 9 16 10 17 18 18 11 19 17 20 19 21 16 22
REMARK SMILES IDX 12 23 13 24 14 25 15 26 27 27 28 28 29 29 30 30 31 31 32 32
REMARK SMILES IDX 33 33 94 34 34 35 93 36 35 37 36 38 37 39 87 40 38 41 92 42
REMARK SMILES IDX 86 43 88 44 39 45 91 46 85 47 84 48 40 50 72 51 52 52 71 53
REMARK SMILES IDX 53 54 56 55 70 56 89 57 54 58 55 59 69 61 90 62 57 63 41 64
REMARK SMILES IDX 42 65 50 66 43 67 49 68 51 69 48 70 44 71 45 72 46 73 47 74
REMARK SMILES IDX 73 75 74 76 82 77 75 78 81 79 83 80 80 81 76 82 77 83 78 84
REMARK SMILES IDX 79 85 58 86 59 87 67 88 60 89 66 90 68 91 65 92 61 93 62 94
REMARK SMILES IDX 63 95 64 96
REMARK H PARENT 88 49 56 60
REMARK Flexibility Score: inf
ROOT
ATOM      1  O   UNL A   1      37.601  21.129  24.848  1.00  0.00    -0.374 OA
ENDROOT
BRANCH   1   2
ATOM      2  C   UNL A   1      36.308  21.482  25.335  1.00  0.00     0.202 C 
BRANCH   2   3
ATOM      3  C   UNL A   1      35.133  20.568  24.985  1.00  0.00     0.261 C 
BRANCH   3   4
ATOM      4  O   UNL A   1      34.087  20.661  25.966  1.00  0.00    -0.459 OA
BRANCH   4   5
ATOM      5  C   UNL A   1      32.851  20.822  25.440  1.00  0.00     0.349 C 
ATOM      6  O   UNL A   1      32.071  19.930  25.141  1.00  0.00    -0.245 OA
BRANCH   5   7
ATOM      7  C   UNL A   1      32.466  22.245  25.388  1.00  0.00     0.141 C 
ATOM      8  C   UNL A   1      32.404  22.887  24.201  1.00  0.00     0.074 C 
BRANCH   7   9
ATOM      9  C   UNL A   1      31.584  22.696  26.541  1.00  0.00     0.107 C 
ATOM     10  N   UNL A   1      30.851  23.070  27.497  1.00  0.00    -0.192 NA
ENDBRANCH   7   9
BRANCH   8  11
ATOM     11  C   UNL A   1      31.610  24.068  24.025  1.00  0.00     0.129 A 
ATOM     12  C   UNL A   1      30.462  24.268  23.262  1.00  0.00     0.051 A 
ATOM     13  O   UNL A   1      31.938  25.292  24.591  1.00  0.00    -0.457 OA
ATOM     14  C   UNL A   1      30.128  25.637  23.316  1.00  0.00     0.051 A 
ATOM     15  C   UNL A   1      31.038  26.229  24.161  1.00  0.00     0.136 A 
BRANCH  15  16
ATOM     16  C   UNL A   1      31.192  27.601  24.642  1.00  0.00     0.036 A 
ATOM     17  C   UNL A   1      32.129  27.892  25.655  1.00  0.00     0.026 A 
ATOM     18  C   UNL A   1      30.492  28.674  24.059  1.00  0.00     0.052 A 
ATOM     19  C   UNL A   1      32.386  29.221  26.060  1.00  0.00     0.056 A 
ATOM     20  C   UNL A   1      30.731  29.992  24.465  1.00  0.00     0.022 A 
ATOM     21  Cl  UNL A   1      29.300  28.452  22.822  1.00  0.00    -0.084 Cl
ATOM     22  C   UNL A   1      31.674  30.264  25.454  1.00  0.00     0.014 A 
BRANCH  19  23
ATOM     23  C   UNL A   1      33.429  29.518  27.114  1.00  0.00     0.416 C 
ATOM     24  F   UNL A   1      33.190  30.677  27.782  1.00  0.00    -0.166 F 
ATOM     25  F   UNL A   1      33.503  28.542  28.060  1.00  0.00    -0.166 F 
ATOM     26  F   UNL A   1      34.691  29.633  26.608  1.00  0.00    -0.166 F 
ENDBRANCH  19  23
ENDBRANCH  15  16
ENDBRANCH   8  11
ENDBRANCH   5   7
ENDBRANCH   4   5
ENDBRANCH   3   4
ENDBRANCH   2   3
ENDBRANCH   1   2
BRANCH   1  27
ATOM     27  C   UNL A   1      38.065  19.792  24.993  1.00  0.00     0.202 C 
BRANCH  27  28
ATOM     28  C   UNL A   1      39.438  19.527  25.627  1.00  0.00     0.261 C 
BRANCH  28  29
ATOM     29  O   UNL A   1      40.199  20.709  25.914  1.00  0.00    -0.460 OA
BRANCH  29  30
ATOM     30  C   UNL A   1      40.692  20.747  27.180  1.00  0.00     0.338 C 
ATOM     31  O   UNL A   1      41.036  19.790  27.858  1.00  0.00    -0.246 OA
BRANCH  30  32
ATOM     32  C   UNL A   1      40.946  22.137  27.594  1.00  0.00     0.060 A 
ATOM     33  C   UNL A   1      40.286  23.152  26.889  1.00  0.00     0.016 A 
ATOM     34  C   UNL A   1      41.881  22.449  28.584  1.00  0.00     0.016 A 
ATOM     35  C   UNL A   1      40.589  24.488  27.142  1.00  0.00     0.010 A 
ATOM     36  C   UNL A   1      42.194  23.792  28.825  1.00  0.00     0.010 A 
ATOM     37  C   UNL A   1      41.574  24.813  28.081  1.00  0.00    -0.014 A 
BRANCH  37  38
ATOM     38  C   UNL A   1      42.060  26.211  28.164  1.00  0.00     0.031 A 
ATOM     39  C   UNL A   1      43.375  26.562  27.522  1.00  0.00     0.074 A 
ATOM     40  C   UNL A   1      41.322  27.160  28.766  1.00  0.00     0.049 A 
ATOM     41  N   UNL A   1      43.999  27.710  27.478  1.00  0.00    -0.248 NA
ATOM     42  C   UNL A   1      44.078  25.466  26.840  1.00  0.00     0.031 C 
ATOM     43  C   UNL A   1      40.011  26.948  29.377  1.00  0.00     0.029 A 
ATOM     44  N   UNL A   1      41.573  28.495  28.961  1.00  0.00    -0.354 N 
ATOM     45  C   UNL A   1      45.173  27.475  26.769  1.00  0.00     0.074 A 
ATOM     46  C   UNL A   1      45.186  26.068  26.435  1.00  0.00     0.031 C 
ATOM     47  C   UNL A   1      39.572  28.113  29.883  1.00  0.00     0.029 A 
ATOM     48  C   UNL A   1      40.585  29.144  29.663  1.00  0.00     0.049 A 
ATOM     49  H   UNL A   1      42.382  28.945  28.628  1.00  0.00     0.167 HD
ATOM     50  C   UNL A   1      46.145  28.357  26.423  1.00  0.00     0.034 A 
ATOM     51  C   UNL A   1      40.519  30.419  30.096  1.00  0.00     0.034 A 
ATOM     52  C   UNL A   1      46.119  29.756  26.774  1.00  0.00     0.049 A 
ATOM     53  C   UNL A   1      41.656  31.360  29.780  1.00  0.00     0.074 A 
ATOM     54  C   UNL A   1      47.033  30.744  26.451  1.00  0.00     0.029 A 
ATOM     55  N   UNL A   1      45.134  30.365  27.542  1.00  0.00    -0.354 N 
ATOM     56  N   UNL A   1      42.753  31.132  29.095  1.00  0.00    -0.248 NA
ATOM     57  C   UNL A   1      41.541  32.731  30.293  1.00  0.00     0.031 C 
ATOM     58  C   UNL A   1      46.642  31.929  27.085  1.00  0.00     0.029 A 
ATOM     59  C   UNL A   1      45.441  31.703  27.739  1.00  0.00     0.049 A 
ATOM     60  H   UNL A   1      44.334  29.913  27.896  1.00  0.00     0.167 HD
ATOM     61  C   UNL A   1      43.442  32.341  29.068  1.00  0.00     0.074 A 
ATOM     62  C   UNL A   1      42.632  33.296  29.798  1.00  0.00     0.031 C 
ATOM     63  C   UNL A   1      44.631  32.640  28.484  1.00  0.00     0.034 A 
BRANCH  50  64
ATOM     64  C   UNL A   1      47.342  27.810  25.683  1.00  0.00     0.023 A 
ATOM     65  C   UNL A   1      47.494  27.969  24.294  1.00  0.00     0.031 A 
ATOM     66  C   UNL A   1      48.326  27.080  26.373  1.00  0.00     0.131 A 
ATOM     67  C   UNL A   1      48.561  27.343  23.631  1.00  0.00     0.055 A 
ATOM     68  C   UNL A   1      49.428  26.527  25.719  1.00  0.00     0.041 A 
ATOM     69  F   UNL A   1      48.223  26.875  27.696  1.00  0.00    -0.206 F 
ATOM     70  C   UNL A   1      49.542  26.643  24.337  1.00  0.00     0.022 A 
BRANCH  67  71
ATOM     71  S   UNL A   1      48.566  27.327  21.817  1.00  0.00     0.124 S 
ATOM     72  O   UNL A   1      48.541  25.894  21.535  1.00  0.00    -0.237 OA
ATOM     73  O   UNL A   1      47.350  28.064  21.492  1.00  0.00    -0.237 OA
ATOM     74  O   UNL A   1      49.816  28.000  21.471  1.00  0.00    -0.744 OA
ENDBRANCH  67  71
ENDBRANCH  50  64
BRANCH  51  75
ATOM     75  C   UNL A   1      39.355  30.881  30.905  1.00  0.00     0.023 A 
ATOM     76  C   UNL A   1      39.439  30.987  32.302  1.00  0.00     0.031 A 
ATOM     77  C   UNL A   1      38.123  31.177  30.292  1.00  0.00     0.131 A 
ATOM     78  C   UNL A   1      38.302  31.340  33.045  1.00  0.00     0.055 A 
ATOM     79  C   UNL A   1      37.009  31.573  31.031  1.00  0.00     0.041 A 
ATOM     80  F   UNL A   1      37.991  31.091  28.959  1.00  0.00    -0.206 F 
ATOM     81  C   UNL A   1      37.091  31.646  32.419  1.00  0.00     0.022 A 
BRANCH  78  82
ATOM     82  S   UNL A   1      38.409  31.325  34.856  1.00  0.00     0.124 S 
ATOM     83  O   UNL A   1      37.180  32.015  35.231  1.00  0.00    -0.237 OA
ATOM     84  O   UNL A   1      38.459  29.897  35.144  1.00  0.00    -0.237 OA
ATOM     85  O   UNL A   1      39.644  32.057  35.129  1.00  0.00    -0.744 OA
ENDBRANCH  78  82
ENDBRANCH  51  75
BRANCH  63  86
ATOM     86  C   UNL A   1      45.101  34.071  28.578  1.00  0.00     0.023 A 
ATOM     87  C   UNL A   1      45.933  34.512  29.623  1.00  0.00     0.031 A 
ATOM     88  C   UNL A   1      44.698  35.012  27.613  1.00  0.00     0.131 A 
ATOM     89  C   UNL A   1      46.291  35.867  29.708  1.00  0.00     0.055 A 
ATOM     90  C   UNL A   1      45.105  36.345  27.669  1.00  0.00     0.041 A 
ATOM     91  F   UNL A   1      43.902  34.647  26.595  1.00  0.00    -0.206 F 
ATOM     92  C   UNL A   1      45.896  36.782  28.727  1.00  0.00     0.022 A 
BRANCH  89  93
ATOM     93  S   UNL A   1      47.209  36.438  31.164  1.00  0.00     0.124 S 
ATOM     94  O   UNL A   1      46.544  35.714  32.244  1.00  0.00    -0.237 OA
ATOM     95  O   UNL A   1      48.573  36.016  30.860  1.00  0.00    -0.237 OA
ATOM     96  O   UNL A   1      46.993  37.883  31.161  1.00  0.00    -0.744 OA
ENDBRANCH  89  93
ENDBRANCH  63  86
ENDBRANCH  37  38
ENDBRANCH  30  32
ENDBRANCH  29  30
ENDBRANCH  28  29
ENDBRANCH  27  28
ENDBRANCH   1  27
TORSDOF 21
ENDMDL
MODEL 3
REMARK VINA RESULT:     -10.7      1.583      2.110
REMARK SMILES N#C/C(=C\c1ccc(-c2cc(C(F)(F)F)ccc2Cl)o1)C(=O)OCCOCCOC(=O)c1ccc(-c2c3nc(c(-c4cc(S(=O)(=O)[O-])ccc4F)c4ccc([nH]4)c(-c4cc(S(=O)(=O)[O-])ccc4F)c4nc(c(-c5cc(S(=O)(=O)[O-])ccc5F)c5ccc2[nH]5)C=C4)C=C3)cc1
REMARK SMILES IDX 26 1 25 2 24 3 23 4 21 5 22 6 3 7 4 8 2 9 1 10 5 11 6 12
REMARK SMILES IDX 20 13 7 14 8 15 9 16 10 17 18 18 11 19 17 20 19 21 16 22
REMARK SMILES IDX 12 23 13 24 14 25 15 26 27 27 28 28 29 29 30 30 31 31 32 32
REMARK SMILES IDX 33 33 94 34 34 35 93 36 35 37 36 38 37 39 87 40 38 41 92 42
REMARK SMILES IDX 86 43 88 44 39 45 91 46 85 47 84 48 40 50 72 51 52 52 71 53
REMARK SMILES IDX 53 54 56 55 70 56 89 57 54 58 55 59 69 61 90 62 57 63 41 64
REMARK SMILES IDX 42 65 50 66 43 67 49 68 51 69 48 70 44 71 45 72 46 73 47 74
REMARK SMILES IDX 73 75 74 76 82 77 75 78 81 79 83 80 80 81 76 82 77 83 78 84
REMARK SMILES IDX 79 85 58 86 59 87 67 88 60 89 66 90 68 91 65 92 61 93 62 94
REMARK SMILES IDX 63 95 64 96
REMARK H PARENT 88 49 56 60
REMARK Flexibility Score: inf
ROOT
ATOM      1  O   UNL A   1      38.259  21.525  25.283  1.00  0.00    -0.374 OA
ENDROOT
BRANCH   1   2
ATOM      2  C   UNL A   1      37.046  22.185  24.928  1.00  0.00     0.202 C 
BRANCH   2   3
ATOM      3  C   UNL A   1      36.149  22.697  26.055  1.00  0.00     0.261 C 
BRANCH   3   4
ATOM      4  O   UNL A   1      35.256  23.723  25.590  1.00  0.00    -0.459 OA
BRANCH   4   5
ATOM      5  C   UNL A   1      34.067  23.752  26.234  1.00  0.00     0.349 C 
ATOM      6  O   UNL A   1      33.794  23.173  27.275  1.00  0.00    -0.245 OA
BRANCH   5   7
ATOM      7  C   UNL A   1      33.133  24.704  25.603  1.00  0.00     0.141 C 
ATOM      8  C   UNL A   1      33.515  25.982  25.382  1.00  0.00     0.074 C 
BRANCH   7   9
ATOM      9  C   UNL A   1      32.096  24.056  24.700  1.00  0.00     0.107 C 
ATOM     10  N   UNL A   1      31.236  23.519  23.951  1.00  0.00    -0.192 NA
ENDBRANCH   7   9
BRANCH   8  11
ATOM     11  C   UNL A   1      32.881  26.795  24.385  1.00  0.00     0.129 A 
ATOM     12  C   UNL A   1      33.407  27.363  23.228  1.00  0.00     0.051 A 
ATOM     13  O   UNL A   1      31.560  27.211  24.477  1.00  0.00    -0.457 OA
ATOM     14  C   UNL A   1      32.415  28.181  22.648  1.00  0.00     0.051 A 
ATOM     15  C   UNL A   1      31.288  28.042  23.424  1.00  0.00     0.136 A 
BRANCH  15  16
ATOM     16  C   UNL A   1      29.941  28.598  23.318  1.00  0.00     0.036 A 
ATOM     17  C   UNL A   1      29.762  29.959  22.996  1.00  0.00     0.026 A 
ATOM     18  C   UNL A   1      28.794  27.791  23.440  1.00  0.00     0.052 A 
ATOM     19  C   UNL A   1      28.477  30.500  22.772  1.00  0.00     0.056 A 
ATOM     20  C   UNL A   1      27.516  28.323  23.234  1.00  0.00     0.022 A 
ATOM     21  Cl  UNL A   1      28.872  26.110  23.853  1.00  0.00    -0.084 Cl
ATOM     22  C   UNL A   1      27.358  29.666  22.897  1.00  0.00     0.014 A 
BRANCH  19  23
ATOM     23  C   UNL A   1      28.308  31.952  22.381  1.00  0.00     0.416 C 
ATOM     24  F   UNL A   1      29.491  32.576  22.141  1.00  0.00    -0.166 F 
ATOM     25  F   UNL A   1      27.563  32.101  21.251  1.00  0.00    -0.166 F 
ATOM     26  F   UNL A   1      27.678  32.698  23.334  1.00  0.00    -0.166 F 
ENDBRANCH  19  23
ENDBRANCH  15  16
ENDBRANCH   8  11
ENDBRANCH   5   7
ENDBRANCH   4   5
ENDBRANCH   3   4
ENDBRANCH   2   3
ENDBRANCH   1   2
BRANCH   1  27
ATOM     27  C   UNL A   1      38.308  20.103  25.291  1.00  0.00     0.202 C 
BRANCH  27  28
ATOM     28  C   UNL A   1      39.592  19.387  25.732  1.00  0.00     0.261 C 
BRANCH  28  29
ATOM     29  O   UNL A   1      40.717  20.255  25.936  1.00  0.00    -0.460 OA
BRANCH  29  30
ATOM     30  C   UNL A   1      40.940  20.563  27.240  1.00  0.00     0.338 C 
ATOM     31  O   UNL A   1      40.822  19.812  28.198  1.00  0.00    -0.246 OA
BRANCH  30  32
ATOM     32  C   UNL A   1      41.538  21.903  27.360  1.00  0.00     0.060 A 
ATOM     33  C   UNL A   1      42.047  22.274  28.611  1.00  0.00     0.016 A 
ATOM     34  C   UNL A   1      41.515  22.815  26.302  1.00  0.00     0.016 A 
ATOM     35  C   UNL A   1      42.500  23.574  28.824  1.00  0.00     0.010 A 
ATOM     36  C   UNL A   1      41.956  24.125  26.522  1.00  0.00     0.010 A 
ATOM     37  C   UNL A   1      42.418  24.517  27.793  1.00  0.00    -0.014 A 
BRANCH  37  38
ATOM     38  C   UNL A   1      42.667  25.946  28.099  1.00  0.00     0.031 A 
ATOM     39  C   UNL A   1      44.051  26.501  27.897  1.00  0.00     0.074 A 
ATOM     40  C   UNL A   1      41.667  26.744  28.512  1.00  0.00     0.049 A 
ATOM     41  N   UNL A   1      44.501  27.711  28.109  1.00  0.00    -0.248 NA
ATOM     42  C   UNL A   1      45.061  25.562  27.389  1.00  0.00     0.031 C 
ATOM     43  C   UNL A   1      40.277  26.328  28.694  1.00  0.00     0.029 A 
ATOM     44  N   UNL A   1      41.669  28.073  28.852  1.00  0.00    -0.354 N 
ATOM     45  C   UNL A   1      45.849  27.679  27.766  1.00  0.00     0.074 A 
ATOM     46  C   UNL A   1      46.147  26.320  27.367  1.00  0.00     0.031 C 
ATOM     47  C   UNL A   1      39.559  27.383  29.116  1.00  0.00     0.029 A 
ATOM     48  C   UNL A   1      40.443  28.536  29.268  1.00  0.00     0.049 A 
ATOM     49  H   UNL A   1      42.470  28.641  28.802  1.00  0.00     0.167 HD
ATOM     50  C   UNL A   1      46.750  28.692  27.777  1.00  0.00     0.034 A 
ATOM     51  C   UNL A   1      40.084  29.748  29.738  1.00  0.00     0.034 A 
ATOM     52  C   UNL A   1      46.436  30.040  28.188  1.00  0.00     0.049 A 
ATOM     53  C   UNL A   1      41.126  30.837  29.830  1.00  0.00     0.074 A 
ATOM     54  C   UNL A   1      47.263  31.150  28.210  1.00  0.00     0.029 A 
ATOM     55  N   UNL A   1      45.201  30.457  28.665  1.00  0.00    -0.354 N 
ATOM     56  N   UNL A   1      42.395  30.799  29.487  1.00  0.00    -0.248 NA
ATOM     57  C   UNL A   1      40.686  32.130  30.367  1.00  0.00     0.031 C 
ATOM     58  C   UNL A   1      46.550  32.217  28.770  1.00  0.00     0.029 A 
ATOM     59  C   UNL A   1      45.254  31.796  29.024  1.00  0.00     0.049 A 
ATOM     60  H   UNL A   1      44.401  29.886  28.739  1.00  0.00     0.167 HD
ATOM     61  C   UNL A   1      42.892  32.075  29.738  1.00  0.00     0.074 A 
ATOM     62  C   UNL A   1      41.786  32.858  30.252  1.00  0.00     0.031 C 
ATOM     63  C   UNL A   1      44.147  32.560  29.552  1.00  0.00     0.034 A 
BRANCH  50  64
ATOM     64  C   UNL A   1      48.171  28.357  27.393  1.00  0.00     0.023 A 
ATOM     65  C   UNL A   1      48.553  28.157  26.054  1.00  0.00     0.031 A 
ATOM     66  C   UNL A   1      49.152  28.192  28.387  1.00  0.00     0.131 A 
ATOM     67  C   UNL A   1      49.855  27.731  25.753  1.00  0.00     0.055 A 
ATOM     68  C   UNL A   1      50.467  27.845  28.075  1.00  0.00     0.041 A 
ATOM     69  F   UNL A   1      48.842  28.345  29.685  1.00  0.00    -0.206 F 
ATOM     70  C   UNL A   1      50.822  27.597  26.753  1.00  0.00     0.022 A 
BRANCH  67  71
ATOM     71  S   UNL A   1      50.228  27.208  24.057  1.00  0.00     0.124 S 
ATOM     72  O   UNL A   1      49.178  26.221  23.815  1.00  0.00    -0.237 OA
ATOM     73  O   UNL A   1      50.117  28.456  23.311  1.00  0.00    -0.237 OA
ATOM     74  O   UNL A   1      51.578  26.656  24.156  1.00  0.00    -0.744 OA
ENDBRANCH  67  71
ENDBRANCH  50  64
BRANCH  51  75
ATOM     75  C   UNL A   1      38.687  29.997  30.193  1.00  0.00     0.023 A 
ATOM     76  C   UNL A   1      37.734  30.563  29.332  1.00  0.00     0.031 A 
ATOM     77  C   UNL A   1      38.297  29.715  31.515  1.00  0.00     0.131 A 
ATOM     78  C   UNL A   1      36.451  30.867  29.812  1.00  0.00     0.055 A 
ATOM     79  C   UNL A   1      37.007  29.975  31.975  1.00  0.00     0.041 A 
ATOM     80  F   UNL A   1      39.171  29.173  32.378  1.00  0.00    -0.206 F 
ATOM     81  C   UNL A   1      36.077  30.566  31.124  1.00  0.00     0.022 A 
BRANCH  78  82
ATOM     82  S   UNL A   1      35.294  31.730  28.714  1.00  0.00     0.124 S 
ATOM     83  O   UNL A   1      34.666  30.617  28.011  1.00  0.00    -0.237 OA
ATOM     84  O   UNL A   1      34.452  32.448  29.665  1.00  0.00    -0.237 OA
ATOM     85  O   UNL A   1      36.166  32.573  27.897  1.00  0.00    -0.744 OA
ENDBRANCH  78  82
ENDBRANCH  51  75
BRANCH  63  86
ATOM     86  C   UNL A   1      44.373  34.019  29.866  1.00  0.00     0.023 A 
ATOM     87  C   UNL A   1      44.221  35.020  28.891  1.00  0.00     0.031 A 
ATOM     88  C   UNL A   1      44.759  34.410  31.162  1.00  0.00     0.131 A 
ATOM     89  C   UNL A   1      44.506  36.358  29.212  1.00  0.00     0.055 A 
ATOM     90  C   UNL A   1      44.983  35.747  31.490  1.00  0.00     0.041 A 
ATOM     91  F   UNL A   1      44.921  33.496  32.131  1.00  0.00    -0.206 F 
ATOM     92  C   UNL A   1      44.869  36.728  30.510  1.00  0.00     0.022 A 
BRANCH  89  93
ATOM     93  S   UNL A   1      44.480  37.597  27.888  1.00  0.00     0.124 S 
ATOM     94  O   UNL A   1      45.066  36.861  26.772  1.00  0.00    -0.237 OA
ATOM     95  O   UNL A   1      43.057  37.901  27.773  1.00  0.00    -0.237 OA
ATOM     96  O   UNL A   1      45.304  38.682  28.417  1.00  0.00    -0.744 OA
ENDBRANCH  89  93
ENDBRANCH  63  86
ENDBRANCH  37  38
ENDBRANCH  30  32
ENDBRANCH  29  30
ENDBRANCH  28  29
ENDBRANCH  27  28
ENDBRANCH   1  27
TORSDOF 21
ENDMDL
