MODEL 1
REMARK VINA RESULT:      -9.2      0.000      0.000
REMARK SMILES CC(C)(C(=O)OCCOCCOC(=O)c1ccc(-c2c3nc(c(-c4cc(S(=O)(=O)[O-])ccc4F)c4ccc([nH]4)c(-c4cc(S(=O)(=O)[O-])ccc4F)c4nc(c(-c5cc(S(=O)(=O)[O-])ccc5F)c5ccc2[nH]5)C=C4)C=C3)cc1)n1cccc1
REMARK SMILES IDX 10 1 9 2 8 3 7 4 6 5 4 6 5 7 2 8 1 9 3 10 78 11 79 12 82 13
REMARK SMILES IDX 80 14 81 15 11 16 12 17 13 18 14 19 15 20 16 21 77 22 17 23
REMARK SMILES IDX 76 24 18 25 19 26 20 27 70 28 21 29 75 30 69 31 71 32 22 33
REMARK SMILES IDX 74 34 68 35 67 36 23 38 55 39 35 40 54 41 36 42 39 43 53 44
REMARK SMILES IDX 72 45 37 46 38 47 52 49 73 50 40 51 24 52 25 53 33 54 26 55
REMARK SMILES IDX 32 56 34 57 31 58 27 59 28 60 29 61 30 62 56 63 57 64 65 65
REMARK SMILES IDX 58 66 64 67 66 68 63 69 59 70 60 71 61 72 62 73 41 74 42 75
REMARK SMILES IDX 50 76 43 77 49 78 51 79 48 80 44 81 45 82 46 83 47 84
REMARK H PARENT 71 37 39 48
REMARK Flexibility Score: inf
ROOT
ATOM      1  C   UNL A   1      33.562  34.568  28.436  1.00  0.00     0.202 C 
ENDROOT
BRANCH   1   2
ATOM      2  O   UNL A   1      33.994  35.628  29.284  1.00  0.00    -0.374 OA
BRANCH   2   3
ATOM      3  C   UNL A   1      33.127  35.997  30.359  1.00  0.00     0.202 C 
BRANCH   3   4
ATOM      4  C   UNL A   1      33.521  35.502  31.753  1.00  0.00     0.261 C 
BRANCH   4   5
ATOM      5  O   UNL A   1      34.863  34.974  31.757  1.00  0.00    -0.461 OA
BRANCH   5   6
ATOM      6  C   UNL A   1      35.002  33.708  32.243  1.00  0.00     0.331 C 
ATOM      7  O   UNL A   1      34.070  32.922  32.379  1.00  0.00    -0.249 OA
BRANCH   6   8
ATOM      8  C   UNL A   1      36.453  33.386  32.652  1.00  0.00     0.136 C 
ATOM      9  C   UNL A   1      36.991  34.233  33.828  1.00  0.00     0.047 C 
ATOM     10  C   UNL A   1      36.426  31.924  33.145  1.00  0.00     0.047 C 
BRANCH   8  11
ATOM     11  N   UNL A   1      37.313  33.578  31.460  1.00  0.00    -0.338 N 
ATOM     12  C   UNL A   1      37.187  32.944  30.245  1.00  0.00     0.087 A 
ATOM     13  C   UNL A   1      38.310  34.525  31.343  1.00  0.00     0.087 A 
ATOM     14  C   UNL A   1      38.059  33.527  29.352  1.00  0.00     0.019 A 
ATOM     15  C   UNL A   1      38.766  34.530  30.044  1.00  0.00     0.019 A 
ENDBRANCH   8  11
ENDBRANCH   6   8
ENDBRANCH   5   6
ENDBRANCH   4   5
ENDBRANCH   3   4
ENDBRANCH   2   3
ENDBRANCH   1   2
BRANCH   1  16
ATOM     16  C   UNL A   1      33.986  33.145  28.824  1.00  0.00     0.261 C 
BRANCH  16  17
ATOM     17  O   UNL A   1      34.758  32.498  27.799  1.00  0.00    -0.460 OA
BRANCH  17  18
ATOM     18  C   UNL A   1      34.539  31.164  27.692  1.00  0.00     0.338 C 
ATOM     19  O   UNL A   1      33.544  30.618  27.234  1.00  0.00    -0.246 OA
BRANCH  18  20
ATOM     20  C   UNL A   1      35.764  30.420  28.031  1.00  0.00     0.060 A 
ATOM     21  C   UNL A   1      35.775  29.722  29.246  1.00  0.00     0.016 A 
ATOM     22  C   UNL A   1      36.896  30.439  27.215  1.00  0.00     0.016 A 
ATOM     23  C   UNL A   1      36.931  29.066  29.665  1.00  0.00     0.010 A 
ATOM     24  C   UNL A   1      38.061  29.790  27.643  1.00  0.00     0.010 A 
ATOM     25  C   UNL A   1      38.091  29.120  28.881  1.00  0.00    -0.014 A 
BRANCH  25  26
ATOM     26  C   UNL A   1      39.360  28.571  29.419  1.00  0.00     0.031 A 
ATOM     27  C   UNL A   1      39.968  29.199  30.644  1.00  0.00     0.074 A 
ATOM     28  C   UNL A   1      39.938  27.501  28.844  1.00  0.00     0.049 A 
ATOM     29  N   UNL A   1      41.079  28.899  31.263  1.00  0.00    -0.248 NA
ATOM     30  C   UNL A   1      39.221  30.311  31.251  1.00  0.00     0.031 C 
ATOM     31  C   UNL A   1      39.411  26.781  27.685  1.00  0.00     0.029 A 
ATOM     32  N   UNL A   1      41.099  26.836  29.151  1.00  0.00    -0.354 N 
ATOM     33  C   UNL A   1      41.170  29.785  32.331  1.00  0.00     0.074 A 
ATOM     34  C   UNL A   1      40.014  30.652  32.258  1.00  0.00     0.031 C 
ATOM     35  C   UNL A   1      40.254  25.782  27.372  1.00  0.00     0.029 A 
ATOM     36  C   UNL A   1      41.399  25.815  28.279  1.00  0.00     0.049 A 
ATOM     37  H   UNL A   1      41.664  27.067  29.924  1.00  0.00     0.167 HD
ATOM     38  C   UNL A   1      42.130  29.864  33.286  1.00  0.00     0.034 A 
ATOM     39  C   UNL A   1      42.488  25.021  28.203  1.00  0.00     0.034 A 
ATOM     40  C   UNL A   1      43.280  28.995  33.342  1.00  0.00     0.049 A 
ATOM     41  C   UNL A   1      43.587  25.192  29.227  1.00  0.00     0.074 A 
ATOM     42  C   UNL A   1      44.295  28.971  34.283  1.00  0.00     0.029 A 
ATOM     43  N   UNL A   1      43.580  28.009  32.411  1.00  0.00    -0.354 N 
ATOM     44  N   UNL A   1      43.648  26.021  30.244  1.00  0.00    -0.248 NA
ATOM     45  C   UNL A   1      44.759  24.317  29.095  1.00  0.00     0.031 C 
ATOM     46  C   UNL A   1      45.245  28.027  33.880  1.00  0.00     0.029 A 
ATOM     47  C   UNL A   1      44.785  27.404  32.731  1.00  0.00     0.049 A 
ATOM     48  H   UNL A   1      43.019  27.775  31.637  1.00  0.00     0.167 HD
ATOM     49  C   UNL A   1      44.853  25.745  30.886  1.00  0.00     0.074 A 
ATOM     50  C   UNL A   1      45.474  24.661  30.155  1.00  0.00     0.031 C 
ATOM     51  C   UNL A   1      45.399  26.332  31.982  1.00  0.00     0.034 A 
BRANCH  38  52
ATOM     52  C   UNL A   1      42.005  30.958  34.317  1.00  0.00     0.023 A 
ATOM     53  C   UNL A   1      42.507  32.252  34.092  1.00  0.00     0.031 A 
ATOM     54  C   UNL A   1      41.364  30.702  35.541  1.00  0.00     0.131 A 
ATOM     55  C   UNL A   1      42.399  33.227  35.098  1.00  0.00     0.055 A 
ATOM     56  C   UNL A   1      41.200  31.693  36.510  1.00  0.00     0.041 A 
ATOM     57  F   UNL A   1      40.885  29.478  35.818  1.00  0.00    -0.206 F 
ATOM     58  C   UNL A   1      41.728  32.963  36.294  1.00  0.00     0.022 A 
BRANCH  55  59
ATOM     59  S   UNL A   1      43.241  34.816  34.864  1.00  0.00     0.124 S 
ATOM     60  O   UNL A   1      44.545  34.552  35.467  1.00  0.00    -0.237 OA
ATOM     61  O   UNL A   1      43.227  34.971  33.414  1.00  0.00    -0.237 OA
ATOM     62  O   UNL A   1      42.402  35.760  35.600  1.00  0.00    -0.744 OA
ENDBRANCH  55  59
ENDBRANCH  38  52
BRANCH  39  63
ATOM     63  C   UNL A   1      42.636  24.034  27.094  1.00  0.00     0.023 A 
ATOM     64  C   UNL A   1      42.052  22.760  27.167  1.00  0.00     0.031 A 
ATOM     65  C   UNL A   1      43.442  24.324  25.977  1.00  0.00     0.131 A 
ATOM     66  C   UNL A   1      42.328  21.805  26.176  1.00  0.00     0.055 A 
ATOM     67  C   UNL A   1      43.663  23.392  24.962  1.00  0.00     0.041 A 
ATOM     68  F   UNL A   1      44.031  25.524  25.856  1.00  0.00    -0.206 F 
ATOM     69  C   UNL A   1      43.118  22.116  25.067  1.00  0.00     0.022 A 
BRANCH  66  70
ATOM     70  S   UNL A   1      41.731  20.109  26.415  1.00  0.00     0.124 S 
ATOM     71  O   UNL A   1      42.176  19.826  27.774  1.00  0.00    -0.237 OA
ATOM     72  O   UNL A   1      40.292  20.266  26.229  1.00  0.00    -0.237 OA
ATOM     73  O   UNL A   1      42.415  19.357  25.364  1.00  0.00    -0.744 OA
ENDBRANCH  66  70
ENDBRANCH  39  63
BRANCH  51  74
ATOM     74  C   UNL A   1      46.719  25.783  32.470  1.00  0.00     0.023 A 
ATOM     75  C   UNL A   1      47.936  26.145  31.867  1.00  0.00     0.031 A 
ATOM     76  C   UNL A   1      46.756  24.873  33.541  1.00  0.00     0.131 A 
ATOM     77  C   UNL A   1      49.134  25.557  32.303  1.00  0.00     0.055 A 
ATOM     78  C   UNL A   1      47.957  24.340  34.012  1.00  0.00     0.041 A 
ATOM     79  F   UNL A   1      45.624  24.491  34.153  1.00  0.00    -0.206 F 
ATOM     80  C   UNL A   1      49.153  24.671  33.383  1.00  0.00     0.022 A 
BRANCH  77  81
ATOM     81  S   UNL A   1      50.656  25.896  31.378  1.00  0.00     0.124 S 
ATOM     82  O   UNL A   1      50.536  27.324  31.108  1.00  0.00    -0.237 OA
ATOM     83  O   UNL A   1      51.693  25.513  32.331  1.00  0.00    -0.237 OA
ATOM     84  O   UNL A   1      50.545  25.031  30.204  1.00  0.00    -0.744 OA
ENDBRANCH  77  81
ENDBRANCH  51  74
ENDBRANCH  25  26
ENDBRANCH  18  20
ENDBRANCH  17  18
ENDBRANCH  16  17
ENDBRANCH   1  16
TORSDOF 18
ENDMDL
MODEL 2
REMARK VINA RESULT:      -9.1      5.300      9.389
REMARK SMILES CC(C)(C(=O)OCCOCCOC(=O)c1ccc(-c2c3nc(c(-c4cc(S(=O)(=O)[O-])ccc4F)c4ccc([nH]4)c(-c4cc(S(=O)(=O)[O-])ccc4F)c4nc(c(-c5cc(S(=O)(=O)[O-])ccc5F)c5ccc2[nH]5)C=C4)C=C3)cc1)n1cccc1
REMARK SMILES IDX 10 1 9 2 8 3 7 4 6 5 4 6 5 7 2 8 1 9 3 10 78 11 79 12 82 13
REMARK SMILES IDX 80 14 81 15 11 16 12 17 13 18 14 19 15 20 16 21 77 22 17 23
REMARK SMILES IDX 76 24 18 25 19 26 20 27 70 28 21 29 75 30 69 31 71 32 22 33
REMARK SMILES IDX 74 34 68 35 67 36 23 38 55 39 35 40 54 41 36 42 39 43 53 44
REMARK SMILES IDX 72 45 37 46 38 47 52 49 73 50 40 51 24 52 25 53 33 54 26 55
REMARK SMILES IDX 32 56 34 57 31 58 27 59 28 60 29 61 30 62 56 63 57 64 65 65
REMARK SMILES IDX 58 66 64 67 66 68 63 69 59 70 60 71 61 72 62 73 41 74 42 75
REMARK SMILES IDX 50 76 43 77 49 78 51 79 48 80 44 81 45 82 46 83 47 84
REMARK H PARENT 71 37 39 48
REMARK Flexibility Score: inf
ROOT
ATOM      1  C   UNL A   1      35.984  20.394  25.001  1.00  0.00     0.202 C 
ENDROOT
BRANCH   1   2
ATOM      2  O   UNL A   1      35.301  21.309  25.853  1.00  0.00    -0.374 OA
BRANCH   2   3
ATOM      3  C   UNL A   1      33.912  21.066  26.090  1.00  0.00     0.202 C 
BRANCH   3   4
ATOM      4  C   UNL A   1      33.014  20.981  24.852  1.00  0.00     0.261 C 
BRANCH   4   5
ATOM      5  O   UNL A   1      32.461  22.271  24.523  1.00  0.00    -0.461 OA
BRANCH   5   6
ATOM      6  C   UNL A   1      33.338  23.186  24.022  1.00  0.00     0.331 C 
ATOM      7  O   UNL A   1      34.119  22.952  23.104  1.00  0.00    -0.249 OA
BRANCH   6   8
ATOM      8  C   UNL A   1      33.282  24.533  24.769  1.00  0.00     0.136 C 
ATOM      9  C   UNL A   1      32.380  24.533  26.024  1.00  0.00     0.047 C 
ATOM     10  C   UNL A   1      34.721  24.787  25.266  1.00  0.00     0.047 C 
BRANCH   8  11
ATOM     11  N   UNL A   1      32.811  25.562  23.812  1.00  0.00    -0.338 N 
ATOM     12  C   UNL A   1      33.502  26.679  23.400  1.00  0.00     0.087 A 
ATOM     13  C   UNL A   1      31.642  25.493  23.081  1.00  0.00     0.087 A 
ATOM     14  C   UNL A   1      32.800  27.278  22.377  1.00  0.00     0.019 A 
ATOM     15  C   UNL A   1      31.626  26.527  22.172  1.00  0.00     0.019 A 
ENDBRANCH   8  11
ENDBRANCH   6   8
ENDBRANCH   5   6
ENDBRANCH   4   5
ENDBRANCH   3   4
ENDBRANCH   2   3
ENDBRANCH   1   2
BRANCH   1  16
ATOM     16  C   UNL A   1      37.509  20.532  24.905  1.00  0.00     0.261 C 
BRANCH  16  17
ATOM     17  O   UNL A   1      38.012  21.654  25.649  1.00  0.00    -0.460 OA
BRANCH  17  18
ATOM     18  C   UNL A   1      39.233  21.454  26.205  1.00  0.00     0.338 C 
ATOM     19  O   UNL A   1      39.920  20.443  26.124  1.00  0.00    -0.246 OA
BRANCH  18  20
ATOM     20  C   UNL A   1      39.738  22.710  26.784  1.00  0.00     0.060 A 
ATOM     21  C   UNL A   1      39.212  23.907  26.280  1.00  0.00     0.016 A 
ATOM     22  C   UNL A   1      40.737  22.730  27.760  1.00  0.00     0.016 A 
ATOM     23  C   UNL A   1      39.706  25.131  26.728  1.00  0.00     0.010 A 
ATOM     24  C   UNL A   1      41.240  23.961  28.199  1.00  0.00     0.010 A 
ATOM     25  C   UNL A   1      40.744  25.166  27.668  1.00  0.00    -0.014 A 
BRANCH  25  26
ATOM     26  C   UNL A   1      41.380  26.465  28.001  1.00  0.00     0.031 A 
ATOM     27  C   UNL A   1      40.563  27.526  28.686  1.00  0.00     0.074 A 
ATOM     28  C   UNL A   1      42.682  26.676  27.731  1.00  0.00     0.049 A 
ATOM     29  N   UNL A   1      40.907  28.736  29.041  1.00  0.00    -0.248 NA
ATOM     30  C   UNL A   1      39.173  27.173  29.015  1.00  0.00     0.031 C 
ATOM     31  C   UNL A   1      43.583  25.702  27.116  1.00  0.00     0.029 A 
ATOM     32  N   UNL A   1      43.471  27.781  27.932  1.00  0.00    -0.354 N 
ATOM     33  C   UNL A   1      39.778  29.293  29.633  1.00  0.00     0.074 A 
ATOM     34  C   UNL A   1      38.731  28.297  29.563  1.00  0.00     0.031 C 
ATOM     35  C   UNL A   1      44.799  26.257  26.979  1.00  0.00     0.029 A 
ATOM     36  C   UNL A   1      44.754  27.638  27.457  1.00  0.00     0.049 A 
ATOM     37  H   UNL A   1      43.149  28.599  28.376  1.00  0.00     0.167 HD
ATOM     38  C   UNL A   1      39.633  30.522  30.187  1.00  0.00     0.034 A 
ATOM     39  C   UNL A   1      45.765  28.529  27.386  1.00  0.00     0.034 A 
ATOM     40  C   UNL A   1      40.686  31.507  30.244  1.00  0.00     0.049 A 
ATOM     41  C   UNL A   1      45.546  29.923  27.928  1.00  0.00     0.074 A 
ATOM     42  C   UNL A   1      40.653  32.771  30.809  1.00  0.00     0.029 A 
ATOM     43  N   UNL A   1      41.955  31.348  29.704  1.00  0.00    -0.354 N 
ATOM     44  N   UNL A   1      44.480  30.429  28.505  1.00  0.00    -0.248 NA
ATOM     45  C   UNL A   1      46.668  30.863  27.816  1.00  0.00     0.031 C 
ATOM     46  C   UNL A   1      41.872  33.402  30.543  1.00  0.00     0.029 A 
ATOM     47  C   UNL A   1      42.697  32.506  29.882  1.00  0.00     0.049 A 
ATOM     48  H   UNL A   1      42.281  30.533  29.259  1.00  0.00     0.167 HD
ATOM     49  C   UNL A   1      44.816  31.737  28.846  1.00  0.00     0.074 A 
ATOM     50  C   UNL A   1      46.189  31.933  28.431  1.00  0.00     0.031 C 
ATOM     51  C   UNL A   1      44.061  32.691  29.449  1.00  0.00     0.034 A 
BRANCH  38  52
ATOM     52  C   UNL A   1      38.274  30.892  30.727  1.00  0.00     0.023 A 
ATOM     53  C   UNL A   1      37.310  31.540  29.936  1.00  0.00     0.031 A 
ATOM     54  C   UNL A   1      37.937  30.581  32.056  1.00  0.00     0.131 A 
ATOM     55  C   UNL A   1      36.072  31.896  30.496  1.00  0.00     0.055 A 
ATOM     56  C   UNL A   1      36.681  30.877  32.587  1.00  0.00     0.041 A 
ATOM     57  F   UNL A   1      38.827  29.982  32.864  1.00  0.00    -0.206 F 
ATOM     58  C   UNL A   1      35.742  31.548  31.807  1.00  0.00     0.022 A 
BRANCH  55  59
ATOM     59  S   UNL A   1      34.935  32.916  29.517  1.00  0.00     0.124 S 
ATOM     60  O   UNL A   1      34.028  33.419  30.547  1.00  0.00    -0.237 OA
ATOM     61  O   UNL A   1      35.829  33.900  28.917  1.00  0.00    -0.237 OA
ATOM     62  O   UNL A   1      34.339  31.963  28.583  1.00  0.00    -0.744 OA
ENDBRANCH  55  59
ENDBRANCH  38  52
BRANCH  39  63
ATOM     63  C   UNL A   1      47.055  28.169  26.730  1.00  0.00     0.023 A 
ATOM     64  C   UNL A   1      47.184  28.150  25.332  1.00  0.00     0.031 A 
ATOM     65  C   UNL A   1      48.160  27.752  27.496  1.00  0.00     0.131 A 
ATOM     66  C   UNL A   1      48.364  27.669  24.743  1.00  0.00     0.055 A 
ATOM     67  C   UNL A   1      49.354  27.334  26.907  1.00  0.00     0.041 A 
ATOM     68  F   UNL A   1      48.094  27.745  28.837  1.00  0.00    -0.206 F 
ATOM     69  C   UNL A   1      49.455  27.275  25.520  1.00  0.00     0.022 A 
BRANCH  66  70
ATOM     70  S   UNL A   1      48.412  27.459  22.942  1.00  0.00     0.124 S 
ATOM     71  O   UNL A   1      49.701  28.054  22.608  1.00  0.00    -0.237 OA
ATOM     72  O   UNL A   1      48.319  26.009  22.805  1.00  0.00    -0.237 OA
ATOM     73  O   UNL A   1      47.242  28.203  22.482  1.00  0.00    -0.744 OA
ENDBRANCH  66  70
ENDBRANCH  39  63
BRANCH  51  74
ATOM     74  C   UNL A   1      44.726  34.020  29.723  1.00  0.00     0.023 A 
ATOM     75  C   UNL A   1      44.719  35.057  28.775  1.00  0.00     0.031 A 
ATOM     76  C   UNL A   1      45.387  34.243  30.943  1.00  0.00     0.131 A 
ATOM     77  C   UNL A   1      45.409  36.251  29.039  1.00  0.00     0.055 A 
ATOM     78  C   UNL A   1      46.018  35.456  31.227  1.00  0.00     0.041 A 
ATOM     79  F   UNL A   1      45.427  33.287  31.885  1.00  0.00    -0.206 F 
ATOM     80  C   UNL A   1      46.042  36.463  30.266  1.00  0.00     0.022 A 
BRANCH  77  81
ATOM     81  S   UNL A   1      45.545  37.487  27.720  1.00  0.00     0.124 S 
ATOM     82  O   UNL A   1      44.339  38.282  27.924  1.00  0.00    -0.237 OA
ATOM     83  O   UNL A   1      46.806  38.149  28.041  1.00  0.00    -0.237 OA
ATOM     84  O   UNL A   1      45.561  36.686  26.497  1.00  0.00    -0.744 OA
ENDBRANCH  77  81
ENDBRANCH  51  74
ENDBRANCH  25  26
ENDBRANCH  18  20
ENDBRANCH  17  18
ENDBRANCH  16  17
ENDBRANCH   1  16
TORSDOF 18
ENDMDL
MODEL 3
REMARK VINA RESULT:      -9.0      5.155     10.711
REMARK SMILES CC(C)(C(=O)OCCOCCOC(=O)c1ccc(-c2c3nc(c(-c4cc(S(=O)(=O)[O-])ccc4F)c4ccc([nH]4)c(-c4cc(S(=O)(=O)[O-])ccc4F)c4nc(c(-c5cc(S(=O)(=O)[O-])ccc5F)c5ccc2[nH]5)C=C4)C=C3)cc1)n1cccc1
REMARK SMILES IDX 10 1 9 2 8 3 7 4 6 5 4 6 5 7 2 8 1 9 3 10 78 11 79 12 82 13
REMARK SMILES IDX 80 14 81 15 11 16 12 17 13 18 14 19 15 20 16 21 77 22 17 23
REMARK SMILES IDX 76 24 18 25 19 26 20 27 70 28 21 29 75 30 69 31 71 32 22 33
REMARK SMILES IDX 74 34 68 35 67 36 23 38 55 39 35 40 54 41 36 42 39 43 53 44
REMARK SMILES IDX 72 45 37 46 38 47 52 49 73 50 40 51 24 52 25 53 33 54 26 55
REMARK SMILES IDX 32 56 34 57 31 58 27 59 28 60 29 61 30 62 56 63 57 64 65 65
REMARK SMILES IDX 58 66 64 67 66 68 63 69 59 70 60 71 61 72 62 73 41 74 42 75
REMARK SMILES IDX 50 76 43 77 49 78 51 79 48 80 44 81 45 82 46 83 47 84
REMARK H PARENT 71 37 39 48
REMARK Flexibility Score: inf
ROOT
ATOM      1  C   UNL A   1      36.103  21.777  24.479  1.00  0.00     0.202 C 
ENDROOT
BRANCH   1   2
ATOM      2  O   UNL A   1      34.709  21.612  24.722  1.00  0.00    -0.374 OA
BRANCH   2   3
ATOM      3  C   UNL A   1      34.252  21.822  26.060  1.00  0.00     0.202 C 
BRANCH   3   4
ATOM      4  C   UNL A   1      33.776  23.236  26.403  1.00  0.00     0.261 C 
BRANCH   4   5
ATOM      5  O   UNL A   1      32.639  23.612  25.599  1.00  0.00    -0.461 OA
BRANCH   5   6
ATOM      6  C   UNL A   1      31.798  24.532  26.151  1.00  0.00     0.331 C 
ATOM      7  O   UNL A   1      31.278  24.406  27.255  1.00  0.00    -0.249 OA
BRANCH   6   8
ATOM      8  C   UNL A   1      31.528  25.725  25.213  1.00  0.00     0.136 C 
ATOM      9  C   UNL A   1      32.037  25.533  23.766  1.00  0.00     0.047 C 
ATOM     10  C   UNL A   1      29.991  25.837  25.123  1.00  0.00     0.047 C 
BRANCH   8  11
ATOM     11  N   UNL A   1      32.160  26.924  25.814  1.00  0.00    -0.338 N 
ATOM     12  C   UNL A   1      31.534  28.102  26.153  1.00  0.00     0.087 A 
ATOM     13  C   UNL A   1      33.469  27.001  26.245  1.00  0.00     0.087 A 
ATOM     14  C   UNL A   1      32.425  28.891  26.844  1.00  0.00     0.019 A 
ATOM     15  C   UNL A   1      33.648  28.195  26.906  1.00  0.00     0.019 A 
ENDBRANCH   8  11
ENDBRANCH   6   8
ENDBRANCH   5   6
ENDBRANCH   4   5
ENDBRANCH   3   4
ENDBRANCH   2   3
ENDBRANCH   1   2
BRANCH   1  16
ATOM     16  C   UNL A   1      37.066  20.936  25.328  1.00  0.00     0.261 C 
BRANCH  16  17
ATOM     17  O   UNL A   1      38.445  21.263  25.090  1.00  0.00    -0.460 OA
BRANCH  17  18
ATOM     18  C   UNL A   1      39.259  21.061  26.155  1.00  0.00     0.338 C 
ATOM     19  O   UNL A   1      39.684  19.987  26.563  1.00  0.00    -0.246 OA
BRANCH  18  20
ATOM     20  C   UNL A   1      39.743  22.352  26.675  1.00  0.00     0.060 A 
ATOM     21  C   UNL A   1      39.142  23.513  26.173  1.00  0.00     0.016 A 
ATOM     22  C   UNL A   1      40.791  22.437  27.594  1.00  0.00     0.016 A 
ATOM     23  C   UNL A   1      39.608  24.767  26.562  1.00  0.00     0.010 A 
ATOM     24  C   UNL A   1      41.267  23.698  27.974  1.00  0.00     0.010 A 
ATOM     25  C   UNL A   1      40.694  24.868  27.442  1.00  0.00    -0.014 A 
BRANCH  25  26
ATOM     26  C   UNL A   1      41.293  26.199  27.708  1.00  0.00     0.031 A 
ATOM     27  C   UNL A   1      42.661  26.509  27.165  1.00  0.00     0.074 A 
ATOM     28  C   UNL A   1      40.605  27.132  28.393  1.00  0.00     0.049 A 
ATOM     29  N   UNL A   1      43.381  27.591  27.300  1.00  0.00    -0.248 NA
ATOM     30  C   UNL A   1      43.300  25.457  26.359  1.00  0.00     0.031 C 
ATOM     31  C   UNL A   1      39.252  26.960  28.923  1.00  0.00     0.029 A 
ATOM     32  N   UNL A   1      40.952  28.407  28.767  1.00  0.00    -0.354 N 
ATOM     33  C   UNL A   1      44.560  27.353  26.602  1.00  0.00     0.074 A 
ATOM     34  C   UNL A   1      44.468  26.012  26.067  1.00  0.00     0.031 C 
ATOM     35  C   UNL A   1      38.889  28.084  29.564  1.00  0.00     0.029 A 
ATOM     36  C   UNL A   1      39.995  29.039  29.527  1.00  0.00     0.049 A 
ATOM     37  H   UNL A   1      41.804  28.829  28.513  1.00  0.00     0.167 HD
ATOM     38  C   UNL A   1      45.618  28.182  26.421  1.00  0.00     0.034 A 
ATOM     39  C   UNL A   1      40.023  30.237  30.148  1.00  0.00     0.034 A 
ATOM     40  C   UNL A   1      45.697  29.515  26.966  1.00  0.00     0.049 A 
ATOM     41  C   UNL A   1      41.255  31.102  30.006  1.00  0.00     0.074 A 
ATOM     42  C   UNL A   1      46.709  30.447  26.818  1.00  0.00     0.029 A 
ATOM     43  N   UNL A   1      44.734  30.102  27.777  1.00  0.00    -0.354 N 
ATOM     44  N   UNL A   1      42.353  30.873  29.324  1.00  0.00    -0.248 NA
ATOM     45  C   UNL A   1      41.246  32.390  30.712  1.00  0.00     0.031 C 
ATOM     46  C   UNL A   1      46.396  31.563  27.600  1.00  0.00     0.029 A 
ATOM     47  C   UNL A   1      45.150  31.364  28.173  1.00  0.00     0.049 A 
ATOM     48  H   UNL A   1      43.881  29.683  28.034  1.00  0.00     0.167 HD
ATOM     49  C   UNL A   1      43.152  32.000  29.500  1.00  0.00     0.074 A 
ATOM     50  C   UNL A   1      42.400  32.915  30.332  1.00  0.00     0.031 C 
ATOM     51  C   UNL A   1      44.395  32.259  29.017  1.00  0.00     0.034 A 
BRANCH  38  52
ATOM     52  C   UNL A   1      46.799  27.652  25.647  1.00  0.00     0.023 A 
ATOM     53  C   UNL A   1      47.029  28.004  24.306  1.00  0.00     0.031 A 
ATOM     54  C   UNL A   1      47.715  26.784  26.268  1.00  0.00     0.131 A 
ATOM     55  C   UNL A   1      48.123  27.454  23.617  1.00  0.00     0.055 A 
ATOM     56  C   UNL A   1      48.837  26.294  25.599  1.00  0.00     0.041 A 
ATOM     57  F   UNL A   1      47.532  26.396  27.540  1.00  0.00    -0.206 F 
ATOM     58  C   UNL A   1      49.041  26.622  24.261  1.00  0.00     0.022 A 
BRANCH  55  59
ATOM     59  S   UNL A   1      48.272  27.759  21.835  1.00  0.00     0.124 S 
ATOM     60  O   UNL A   1      48.608  26.428  21.335  1.00  0.00    -0.237 OA
ATOM     61  O   UNL A   1      46.947  28.257  21.487  1.00  0.00    -0.237 OA
ATOM     62  O   UNL A   1      49.352  28.741  21.745  1.00  0.00    -0.744 OA
ENDBRANCH  55  59
ENDBRANCH  38  52
BRANCH  39  63
ATOM     63  C   UNL A   1      38.888  30.675  31.011  1.00  0.00     0.023 A 
ATOM     64  C   UNL A   1      37.873  31.510  30.515  1.00  0.00     0.031 A 
ATOM     65  C   UNL A   1      38.848  30.332  32.376  1.00  0.00     0.131 A 
ATOM     66  C   UNL A   1      36.899  32.021  31.387  1.00  0.00     0.055 A 
ATOM     67  C   UNL A   1      37.840  30.793  33.225  1.00  0.00     0.041 A 
ATOM     68  F   UNL A   1      39.793  29.541  32.906  1.00  0.00    -0.206 F 
ATOM     69  C   UNL A   1      36.866  31.657  32.735  1.00  0.00     0.022 A 
BRANCH  66  70
ATOM     70  S   UNL A   1      35.736  33.263  30.756  1.00  0.00     0.124 S 
ATOM     71  O   UNL A   1      34.480  32.522  30.760  1.00  0.00    -0.237 OA
ATOM     72  O   UNL A   1      35.861  34.324  31.750  1.00  0.00    -0.237 OA
ATOM     73  O   UNL A   1      36.268  33.584  29.434  1.00  0.00    -0.744 OA
ENDBRANCH  66  70
ENDBRANCH  39  63
BRANCH  51  74
ATOM     74  C   UNL A   1      44.996  33.603  29.355  1.00  0.00     0.023 A 
ATOM     75  C   UNL A   1      44.901  34.695  28.475  1.00  0.00     0.031 A 
ATOM     76  C   UNL A   1      45.685  33.787  30.566  1.00  0.00     0.131 A 
ATOM     77  C   UNL A   1      45.535  35.906  28.794  1.00  0.00     0.055 A 
ATOM     78  C   UNL A   1      46.260  35.013  30.907  1.00  0.00     0.041 A 
ATOM     79  F   UNL A   1      45.808  32.778  31.443  1.00  0.00    -0.206 F 
ATOM     80  C   UNL A   1      46.197  36.077  30.012  1.00  0.00     0.022 A 
BRANCH  77  81
ATOM     81  S   UNL A   1      45.560  37.228  27.553  1.00  0.00     0.124 S 
ATOM     82  O   UNL A   1      44.164  37.652  27.533  1.00  0.00    -0.237 OA
ATOM     83  O   UNL A   1      46.507  38.179  28.127  1.00  0.00    -0.237 OA
ATOM     84  O   UNL A   1      46.021  36.553  26.341  1.00  0.00    -0.744 OA
ENDBRANCH  77  81
ENDBRANCH  51  74
ENDBRANCH  25  26
ENDBRANCH  18  20
ENDBRANCH  17  18
ENDBRANCH  16  17
ENDBRANCH   1  16
TORSDOF 18
ENDMDL
