MODEL 1
REMARK VINA RESULT:     -10.1      0.000      0.000
REMARK SMILES CCc1ccsc1Cn1cccc1C(=O)OCCOCCOC(=O)c1ccc(-c2c3nc(c(-c4cc(S(=O)(=O)[O-])ccc4F)c4ccc([nH]4)c(-c4cc(S(=O)(=O)[O-])ccc4F)c4nc(c(-c5cc(S(=O)(=O)[O-])ccc5F)c5ccc2[nH]5)C=C4)C=C3)cc1
REMARK SMILES IDX 19 1 18 2 17 3 16 4 14 5 15 6 13 7 9 8 10 9 11 10 12 11 8 12
REMARK SMILES IDX 7 13 3 14 4 15 5 16 6 17 2 18 1 19 20 20 21 21 22 22 23 23
REMARK SMILES IDX 24 24 25 25 26 26 87 27 27 28 86 29 28 30 29 31 30 32 80 33
REMARK SMILES IDX 31 34 85 35 79 36 81 37 32 38 84 39 78 40 77 41 33 43 65 44
REMARK SMILES IDX 45 45 64 46 46 47 49 48 63 49 82 50 47 51 48 52 62 54 83 55
REMARK SMILES IDX 50 56 34 57 35 58 43 59 36 60 42 61 44 62 41 63 37 64 38 65
REMARK SMILES IDX 39 66 40 67 66 68 67 69 75 70 68 71 74 72 76 73 73 74 69 75
REMARK SMILES IDX 70 76 71 77 72 78 51 79 52 80 60 81 53 82 59 83 61 84 58 85
REMARK SMILES IDX 54 86 55 87 56 88 57 89
REMARK H PARENT 81 42 49 53
REMARK Flexibility Score: inf
ROOT
ATOM      1  O   UNL A   1      33.272  31.106  26.743  1.00  0.00    -0.374 OA
ENDROOT
BRANCH   1   2
ATOM      2  C   UNL A   1      33.413  31.815  27.976  1.00  0.00     0.202 C 
BRANCH   2   3
ATOM      3  C   UNL A   1      33.157  33.325  27.875  1.00  0.00     0.261 C 
BRANCH   3   4
ATOM      4  O   UNL A   1      34.046  34.065  28.742  1.00  0.00    -0.459 OA
BRANCH   4   5
ATOM      5  C   UNL A   1      33.451  35.002  29.521  1.00  0.00     0.355 C 
ATOM      6  O   UNL A   1      32.525  35.716  29.153  1.00  0.00    -0.244 OA
BRANCH   5   7
ATOM      7  C   UNL A   1      33.907  34.928  30.900  1.00  0.00     0.127 A 
ATOM      8  N   UNL A   1      34.526  33.915  31.635  1.00  0.00    -0.337 N 
ATOM      9  C   UNL A   1      34.945  34.470  32.834  1.00  0.00     0.087 A 
ATOM     10  C   UNL A   1      34.381  35.710  32.988  1.00  0.00     0.020 A 
ATOM     11  C   UNL A   1      33.737  35.998  31.780  1.00  0.00     0.035 A 
BRANCH   8  12
ATOM     12  C   UNL A   1      34.943  32.566  31.192  1.00  0.00     0.169 C 
BRANCH  12  13
ATOM     13  C   UNL A   1      36.440  32.273  31.322  1.00  0.00     0.027 A 
ATOM     14  C   UNL A   1      37.584  32.851  30.756  1.00  0.00    -0.033 A 
ATOM     15  C   UNL A   1      38.780  32.154  31.176  1.00  0.00     0.016 A 
ATOM     16  C   UNL A   1      38.549  31.169  32.098  1.00  0.00     0.065 A 
ATOM     17  S   UNL A   1      36.914  31.108  32.529  1.00  0.00    -0.147 S 
BRANCH  14  18
ATOM     18  C   UNL A   1      37.770  34.028  29.832  1.00  0.00     0.033 C 
ATOM     19  C   UNL A   1      39.169  34.511  29.573  1.00  0.00     0.009 C 
ENDBRANCH  14  18
ENDBRANCH  12  13
ENDBRANCH   8  12
ENDBRANCH   5   7
ENDBRANCH   4   5
ENDBRANCH   3   4
ENDBRANCH   2   3
ENDBRANCH   1   2
BRANCH   1  20
ATOM     20  C   UNL A   1      33.814  29.789  26.694  1.00  0.00     0.202 C 
BRANCH  20  21
ATOM     21  C   UNL A   1      34.646  29.358  27.887  1.00  0.00     0.261 C 
BRANCH  21  22
ATOM     22  O   UNL A   1      36.019  29.238  27.540  1.00  0.00    -0.460 OA
BRANCH  22  23
ATOM     23  C   UNL A   1      36.785  30.270  27.962  1.00  0.00     0.338 C 
ATOM     24  O   UNL A   1      36.606  31.454  27.782  1.00  0.00    -0.246 OA
BRANCH  23  25
ATOM     25  C   UNL A   1      37.982  29.695  28.582  1.00  0.00     0.060 A 
ATOM     26  C   UNL A   1      39.209  30.295  28.301  1.00  0.00     0.016 A 
ATOM     27  C   UNL A   1      37.884  28.468  29.261  1.00  0.00     0.016 A 
ATOM     28  C   UNL A   1      40.357  29.598  28.608  1.00  0.00     0.010 A 
ATOM     29  C   UNL A   1      39.026  27.771  29.563  1.00  0.00     0.010 A 
ATOM     30  C   UNL A   1      40.244  28.321  29.179  1.00  0.00    -0.014 A 
BRANCH  30  31
ATOM     31  C   UNL A   1      41.473  27.578  29.447  1.00  0.00     0.031 A 
ATOM     32  C   UNL A   1      41.600  26.486  28.358  1.00  0.00     0.074 A 
ATOM     33  C   UNL A   1      42.105  27.951  30.614  1.00  0.00     0.049 A 
ATOM     34  N   UNL A   1      41.847  25.223  28.481  1.00  0.00    -0.248 NA
ATOM     35  C   UNL A   1      41.222  26.792  26.939  1.00  0.00     0.031 C 
ATOM     36  C   UNL A   1      41.762  29.139  31.452  1.00  0.00     0.029 A 
ATOM     37  N   UNL A   1      43.152  27.447  31.351  1.00  0.00    -0.354 N 
ATOM     38  C   UNL A   1      41.964  24.674  27.181  1.00  0.00     0.074 A 
ATOM     39  C   UNL A   1      41.369  25.626  26.297  1.00  0.00     0.031 C 
ATOM     40  C   UNL A   1      42.488  29.178  32.598  1.00  0.00     0.029 A 
ATOM     41  C   UNL A   1      43.378  28.037  32.642  1.00  0.00     0.049 A 
ATOM     42  H   UNL A   1      43.718  26.717  31.011  1.00  0.00     0.167 HD
ATOM     43  C   UNL A   1      42.741  23.578  26.923  1.00  0.00     0.034 A 
ATOM     44  C   UNL A   1      44.179  27.576  33.665  1.00  0.00     0.034 A 
ATOM     45  C   UNL A   1      43.398  23.207  28.135  1.00  0.00     0.049 A 
ATOM     46  C   UNL A   1      44.830  26.410  33.046  1.00  0.00     0.074 A 
ATOM     47  C   UNL A   1      42.925  22.654  29.294  1.00  0.00     0.029 A 
ATOM     48  N   UNL A   1      44.610  23.821  28.377  1.00  0.00    -0.354 N 
ATOM     49  N   UNL A   1      45.753  26.472  32.136  1.00  0.00    -0.248 NA
ATOM     50  C   UNL A   1      44.301  25.072  33.346  1.00  0.00     0.031 C 
ATOM     51  C   UNL A   1      43.552  23.456  30.267  1.00  0.00     0.029 A 
ATOM     52  C   UNL A   1      44.629  24.156  29.705  1.00  0.00     0.049 A 
ATOM     53  H   UNL A   1      45.325  23.988  27.720  1.00  0.00     0.167 HD
ATOM     54  C   UNL A   1      45.661  25.246  31.531  1.00  0.00     0.074 A 
ATOM     55  C   UNL A   1      45.039  24.360  32.498  1.00  0.00     0.031 C 
ATOM     56  C   UNL A   1      45.550  25.170  30.175  1.00  0.00     0.034 A 
BRANCH  43  57
ATOM     57  C   UNL A   1      43.271  22.910  25.682  1.00  0.00     0.023 A 
ATOM     58  C   UNL A   1      43.255  21.490  25.705  1.00  0.00     0.031 A 
ATOM     59  C   UNL A   1      44.069  23.508  24.703  1.00  0.00     0.131 A 
ATOM     60  C   UNL A   1      44.136  20.733  24.928  1.00  0.00     0.055 A 
ATOM     61  C   UNL A   1      44.892  22.739  23.860  1.00  0.00     0.041 A 
ATOM     62  F   UNL A   1      44.152  24.839  24.583  1.00  0.00    -0.206 F 
ATOM     63  C   UNL A   1      44.963  21.351  24.000  1.00  0.00     0.022 A 
BRANCH  60  64
ATOM     64  S   UNL A   1      44.303  18.965  25.312  1.00  0.00     0.124 S 
ATOM     65  O   UNL A   1      44.009  18.344  24.025  1.00  0.00    -0.237 OA
ATOM     66  O   UNL A   1      45.690  18.879  25.760  1.00  0.00    -0.237 OA
ATOM     67  O   UNL A   1      43.300  18.748  26.352  1.00  0.00    -0.744 OA
ENDBRANCH  60  64
ENDBRANCH  43  57
BRANCH  44  68
ATOM     68  C   UNL A   1      44.496  27.773  35.160  1.00  0.00     0.023 A 
ATOM     69  C   UNL A   1      44.490  26.818  36.198  1.00  0.00     0.031 A 
ATOM     70  C   UNL A   1      44.918  29.079  35.589  1.00  0.00     0.131 A 
ATOM     71  C   UNL A   1      44.978  27.166  37.504  1.00  0.00     0.055 A 
ATOM     72  C   UNL A   1      45.491  29.380  36.825  1.00  0.00     0.041 A 
ATOM     73  F   UNL A   1      44.786  30.166  34.818  1.00  0.00    -0.206 F 
ATOM     74  C   UNL A   1      45.543  28.411  37.790  1.00  0.00     0.022 A 
BRANCH  71  75
ATOM     75  S   UNL A   1      44.898  26.008  38.914  1.00  0.00     0.124 S 
ATOM     76  O   UNL A   1      46.226  26.154  39.502  1.00  0.00    -0.237 OA
ATOM     77  O   UNL A   1      43.783  26.527  39.697  1.00  0.00    -0.237 OA
ATOM     78  O   UNL A   1      44.647  24.713  38.279  1.00  0.00    -0.744 OA
ENDBRANCH  71  75
ENDBRANCH  44  68
BRANCH  56  79
ATOM     79  C   UNL A   1      46.078  26.388  29.402  1.00  0.00     0.023 A 
ATOM     80  C   UNL A   1      45.211  27.130  28.572  1.00  0.00     0.031 A 
ATOM     81  C   UNL A   1      47.431  26.780  29.356  1.00  0.00     0.131 A 
ATOM     82  C   UNL A   1      45.693  28.151  27.726  1.00  0.00     0.055 A 
ATOM     83  C   UNL A   1      47.916  27.795  28.512  1.00  0.00     0.041 A 
ATOM     84  F   UNL A   1      48.341  26.188  30.126  1.00  0.00    -0.206 F 
ATOM     85  C   UNL A   1      47.045  28.484  27.686  1.00  0.00     0.022 A 
BRANCH  82  86
ATOM     86  S   UNL A   1      44.520  29.063  26.683  1.00  0.00     0.124 S 
ATOM     87  O   UNL A   1      44.040  28.036  25.766  1.00  0.00    -0.237 OA
ATOM     88  O   UNL A   1      43.553  29.556  27.658  1.00  0.00    -0.237 OA
ATOM     89  O   UNL A   1      45.347  30.101  26.066  1.00  0.00    -0.744 OA
ENDBRANCH  82  86
ENDBRANCH  56  79
ENDBRANCH  30  31
ENDBRANCH  23  25
ENDBRANCH  22  23
ENDBRANCH  21  22
ENDBRANCH  20  21
ENDBRANCH   1  20
TORSDOF 20
ENDMDL
MODEL 2
REMARK VINA RESULT:     -10.1      4.816     11.403
REMARK SMILES CCc1ccsc1Cn1cccc1C(=O)OCCOCCOC(=O)c1ccc(-c2c3nc(c(-c4cc(S(=O)(=O)[O-])ccc4F)c4ccc([nH]4)c(-c4cc(S(=O)(=O)[O-])ccc4F)c4nc(c(-c5cc(S(=O)(=O)[O-])ccc5F)c5ccc2[nH]5)C=C4)C=C3)cc1
REMARK SMILES IDX 19 1 18 2 17 3 16 4 14 5 15 6 13 7 9 8 10 9 11 10 12 11 8 12
REMARK SMILES IDX 7 13 3 14 4 15 5 16 6 17 2 18 1 19 20 20 21 21 22 22 23 23
REMARK SMILES IDX 24 24 25 25 26 26 87 27 27 28 86 29 28 30 29 31 30 32 80 33
REMARK SMILES IDX 31 34 85 35 79 36 81 37 32 38 84 39 78 40 77 41 33 43 65 44
REMARK SMILES IDX 45 45 64 46 46 47 49 48 63 49 82 50 47 51 48 52 62 54 83 55
REMARK SMILES IDX 50 56 34 57 35 58 43 59 36 60 42 61 44 62 41 63 37 64 38 65
REMARK SMILES IDX 39 66 40 67 66 68 67 69 75 70 68 71 74 72 76 73 73 74 69 75
REMARK SMILES IDX 70 76 71 77 72 78 51 79 52 80 60 81 53 82 59 83 61 84 58 85
REMARK SMILES IDX 54 86 55 87 56 88 57 89
REMARK H PARENT 81 42 49 53
REMARK Flexibility Score: inf
ROOT
ATOM      1  O   UNL A   1      37.351  21.724  24.893  1.00  0.00    -0.374 OA
ENDROOT
BRANCH   1   2
ATOM      2  C   UNL A   1      36.242  20.828  25.001  1.00  0.00     0.202 C 
BRANCH   2   3
ATOM      3  C   UNL A   1      34.880  21.516  25.161  1.00  0.00     0.261 C 
BRANCH   3   4
ATOM      4  O   UNL A   1      34.316  21.862  23.877  1.00  0.00    -0.459 OA
BRANCH   4   5
ATOM      5  C   UNL A   1      34.274  23.190  23.600  1.00  0.00     0.355 C 
ATOM      6  O   UNL A   1      35.177  23.805  23.045  1.00  0.00    -0.244 OA
BRANCH   5   7
ATOM      7  C   UNL A   1      32.959  23.756  23.861  1.00  0.00     0.127 A 
ATOM      8  N   UNL A   1      32.511  24.719  24.767  1.00  0.00    -0.337 N 
ATOM      9  C   UNL A   1      31.207  25.036  24.421  1.00  0.00     0.087 A 
ATOM     10  C   UNL A   1      30.738  24.126  23.511  1.00  0.00     0.020 A 
ATOM     11  C   UNL A   1      31.833  23.329  23.158  1.00  0.00     0.035 A 
BRANCH   8  12
ATOM     12  C   UNL A   1      33.288  25.501  25.753  1.00  0.00     0.169 C 
BRANCH  12  13
ATOM     13  C   UNL A   1      32.967  26.998  25.794  1.00  0.00     0.027 A 
ATOM     14  C   UNL A   1      33.314  28.077  24.970  1.00  0.00    -0.033 A 
ATOM     15  C   UNL A   1      32.782  29.318  25.488  1.00  0.00     0.016 A 
ATOM     16  C   UNL A   1      31.984  29.159  26.589  1.00  0.00     0.065 A 
ATOM     17  S   UNL A   1      31.801  27.523  26.978  1.00  0.00    -0.147 S 
BRANCH  14  18
ATOM     18  C   UNL A   1      34.104  28.157  23.688  1.00  0.00     0.033 C 
ATOM     19  C   UNL A   1      33.366  28.001  22.390  1.00  0.00     0.009 C 
ENDBRANCH  14  18
ENDBRANCH  12  13
ENDBRANCH   8  12
ENDBRANCH   5   7
ENDBRANCH   4   5
ENDBRANCH   3   4
ENDBRANCH   2   3
ENDBRANCH   1   2
BRANCH   1  20
ATOM     20  C   UNL A   1      37.427  22.770  25.859  1.00  0.00     0.202 C 
BRANCH  20  21
ATOM     21  C   UNL A   1      38.793  23.031  26.464  1.00  0.00     0.261 C 
BRANCH  21  22
ATOM     22  O   UNL A   1      39.117  24.414  26.425  1.00  0.00    -0.460 OA
BRANCH  22  23
ATOM     23  C   UNL A   1      40.229  24.738  27.124  1.00  0.00     0.338 C 
ATOM     24  O   UNL A   1      41.207  24.055  27.330  1.00  0.00    -0.246 OA
BRANCH  23  25
ATOM     25  C   UNL A   1      39.993  26.054  27.725  1.00  0.00     0.060 A 
ATOM     26  C   UNL A   1      40.027  27.166  26.884  1.00  0.00     0.016 A 
ATOM     27  C   UNL A   1      39.943  26.173  29.125  1.00  0.00     0.016 A 
ATOM     28  C   UNL A   1      40.124  28.413  27.462  1.00  0.00     0.010 A 
ATOM     29  C   UNL A   1      40.044  27.413  29.701  1.00  0.00     0.010 A 
ATOM     30  C   UNL A   1      40.191  28.510  28.860  1.00  0.00    -0.014 A 
BRANCH  30  31
ATOM     31  C   UNL A   1      40.347  29.838  29.448  1.00  0.00     0.031 A 
ATOM     32  C   UNL A   1      38.931  30.366  29.782  1.00  0.00     0.074 A 
ATOM     33  C   UNL A   1      41.645  30.301  29.442  1.00  0.00     0.049 A 
ATOM     34  N   UNL A   1      38.390  31.508  29.510  1.00  0.00    -0.248 NA
ATOM     35  C   UNL A   1      37.894  29.434  30.336  1.00  0.00     0.031 C 
ATOM     36  C   UNL A   1      42.858  29.497  29.102  1.00  0.00     0.029 A 
ATOM     37  N   UNL A   1      42.243  31.511  29.712  1.00  0.00    -0.354 N 
ATOM     38  C   UNL A   1      37.112  31.540  30.120  1.00  0.00     0.074 A 
ATOM     39  C   UNL A   1      36.787  30.182  30.424  1.00  0.00     0.031 C 
ATOM     40  C   UNL A   1      43.980  30.258  29.075  1.00  0.00     0.029 A 
ATOM     41  C   UNL A   1      43.638  31.630  29.390  1.00  0.00     0.049 A 
ATOM     42  H   UNL A   1      41.739  32.259  30.106  1.00  0.00     0.167 HD
ATOM     43  C   UNL A   1      36.528  32.711  30.520  1.00  0.00     0.034 A 
ATOM     44  C   UNL A   1      44.408  32.772  29.328  1.00  0.00     0.034 A 
ATOM     45  C   UNL A   1      37.452  33.772  30.274  1.00  0.00     0.049 A 
ATOM     46  C   UNL A   1      43.468  33.803  29.800  1.00  0.00     0.074 A 
ATOM     47  C   UNL A   1      37.897  34.340  29.111  1.00  0.00     0.029 A 
ATOM     48  N   UNL A   1      38.344  34.044  31.292  1.00  0.00    -0.354 N 
ATOM     49  N   UNL A   1      43.075  33.941  31.028  1.00  0.00    -0.248 NA
ATOM     50  C   UNL A   1      42.792  34.642  28.801  1.00  0.00     0.031 C 
ATOM     51  C   UNL A   1      39.284  34.404  29.339  1.00  0.00     0.029 A 
ATOM     52  C   UNL A   1      39.563  34.259  30.706  1.00  0.00     0.049 A 
ATOM     53  H   UNL A   1      38.142  34.077  32.255  1.00  0.00     0.167 HD
ATOM     54  C   UNL A   1      41.892  34.619  30.890  1.00  0.00     0.074 A 
ATOM     55  C   UNL A   1      41.957  35.294  29.606  1.00  0.00     0.031 C 
ATOM     56  C   UNL A   1      40.769  34.147  31.500  1.00  0.00     0.034 A 
BRANCH  43  57
ATOM     57  C   UNL A   1      35.353  33.080  31.386  1.00  0.00     0.023 A 
ATOM     58  C   UNL A   1      34.560  34.154  30.903  1.00  0.00     0.031 A 
ATOM     59  C   UNL A   1      35.175  32.728  32.727  1.00  0.00     0.131 A 
ATOM     60  C   UNL A   1      33.793  34.945  31.763  1.00  0.00     0.055 A 
ATOM     61  C   UNL A   1      34.335  33.474  33.573  1.00  0.00     0.041 A 
ATOM     62  F   UNL A   1      35.864  31.725  33.284  1.00  0.00    -0.206 F 
ATOM     63  C   UNL A   1      33.675  34.613  33.105  1.00  0.00     0.022 A 
BRANCH  60  64
ATOM     64  S   UNL A   1      33.133  36.510  31.116  1.00  0.00     0.124 S 
ATOM     65  O   UNL A   1      31.716  36.401  31.442  1.00  0.00    -0.237 OA
ATOM     66  O   UNL A   1      33.890  37.499  31.879  1.00  0.00    -0.237 OA
ATOM     67  O   UNL A   1      33.452  36.449  29.692  1.00  0.00    -0.744 OA
ENDBRANCH  60  64
ENDBRANCH  43  57
BRANCH  44  68
ATOM     68  C   UNL A   1      45.767  33.312  28.845  1.00  0.00     0.023 A 
ATOM     69  C   UNL A   1      46.157  33.686  27.542  1.00  0.00     0.031 A 
ATOM     70  C   UNL A   1      46.789  33.538  29.832  1.00  0.00     0.131 A 
ATOM     71  C   UNL A   1      47.425  34.325  27.321  1.00  0.00     0.055 A 
ATOM     72  C   UNL A   1      47.967  34.256  29.629  1.00  0.00     0.041 A 
ATOM     73  F   UNL A   1      46.703  33.055  31.078  1.00  0.00    -0.206 F 
ATOM     74  C   UNL A   1      48.285  34.675  28.366  1.00  0.00     0.022 A 
BRANCH  71  75
ATOM     75  S   UNL A   1      48.031  34.736  25.648  1.00  0.00     0.124 S 
ATOM     76  O   UNL A   1      49.057  33.720  25.439  1.00  0.00    -0.237 OA
ATOM     77  O   UNL A   1      46.830  34.621  24.830  1.00  0.00    -0.237 OA
ATOM     78  O   UNL A   1      48.540  36.101  25.795  1.00  0.00    -0.744 OA
ENDBRANCH  71  75
ENDBRANCH  44  68
BRANCH  56  79
ATOM     79  C   UNL A   1      41.012  33.235  32.712  1.00  0.00     0.023 A 
ATOM     80  C   UNL A   1      40.658  31.870  32.653  1.00  0.00     0.031 A 
ATOM     81  C   UNL A   1      41.472  33.679  33.967  1.00  0.00     0.131 A 
ATOM     82  C   UNL A   1      40.716  31.041  33.794  1.00  0.00     0.055 A 
ATOM     83  C   UNL A   1      41.530  32.859  35.108  1.00  0.00     0.041 A 
ATOM     84  F   UNL A   1      41.880  34.934  34.141  1.00  0.00    -0.206 F 
ATOM     85  C   UNL A   1      41.144  31.530  35.026  1.00  0.00     0.022 A 
BRANCH  82  86
ATOM     86  S   UNL A   1      40.241  29.296  33.645  1.00  0.00     0.124 S 
ATOM     87  O   UNL A   1      40.997  28.855  32.480  1.00  0.00    -0.237 OA
ATOM     88  O   UNL A   1      40.663  28.748  34.931  1.00  0.00    -0.237 OA
ATOM     89  O   UNL A   1      38.791  29.352  33.454  1.00  0.00    -0.744 OA
ENDBRANCH  82  86
ENDBRANCH  56  79
ENDBRANCH  30  31
ENDBRANCH  23  25
ENDBRANCH  22  23
ENDBRANCH  21  22
ENDBRANCH  20  21
ENDBRANCH   1  20
TORSDOF 20
ENDMDL
MODEL 3
REMARK VINA RESULT:      -9.7      4.345      9.814
REMARK SMILES CCc1ccsc1Cn1cccc1C(=O)OCCOCCOC(=O)c1ccc(-c2c3nc(c(-c4cc(S(=O)(=O)[O-])ccc4F)c4ccc([nH]4)c(-c4cc(S(=O)(=O)[O-])ccc4F)c4nc(c(-c5cc(S(=O)(=O)[O-])ccc5F)c5ccc2[nH]5)C=C4)C=C3)cc1
REMARK SMILES IDX 19 1 18 2 17 3 16 4 14 5 15 6 13 7 9 8 10 9 11 10 12 11 8 12
REMARK SMILES IDX 7 13 3 14 4 15 5 16 6 17 2 18 1 19 20 20 21 21 22 22 23 23
REMARK SMILES IDX 24 24 25 25 26 26 87 27 27 28 86 29 28 30 29 31 30 32 80 33
REMARK SMILES IDX 31 34 85 35 79 36 81 37 32 38 84 39 78 40 77 41 33 43 65 44
REMARK SMILES IDX 45 45 64 46 46 47 49 48 63 49 82 50 47 51 48 52 62 54 83 55
REMARK SMILES IDX 50 56 34 57 35 58 43 59 36 60 42 61 44 62 41 63 37 64 38 65
REMARK SMILES IDX 39 66 40 67 66 68 67 69 75 70 68 71 74 72 76 73 73 74 69 75
REMARK SMILES IDX 70 76 71 77 72 78 51 79 52 80 60 81 53 82 59 83 61 84 58 85
REMARK SMILES IDX 54 86 55 87 56 88 57 89
REMARK H PARENT 81 42 49 53
REMARK Flexibility Score: inf
ROOT
ATOM      1  O   UNL A   1      32.092  27.618  24.922  1.00  0.00    -0.374 OA
ENDROOT
BRANCH   1   2
ATOM      2  C   UNL A   1      32.384  28.101  23.608  1.00  0.00     0.202 C 
BRANCH   2   3
ATOM      3  C   UNL A   1      33.226  27.146  22.751  1.00  0.00     0.261 C 
BRANCH   3   4
ATOM      4  O   UNL A   1      32.553  25.882  22.563  1.00  0.00    -0.459 OA
BRANCH   4   5
ATOM      5  C   UNL A   1      33.219  24.795  23.028  1.00  0.00     0.355 C 
ATOM      6  O   UNL A   1      34.339  24.464  22.657  1.00  0.00    -0.244 OA
BRANCH   5   7
ATOM      7  C   UNL A   1      32.533  24.181  24.155  1.00  0.00     0.127 A 
ATOM      8  N   UNL A   1      32.957  23.823  25.436  1.00  0.00    -0.337 N 
ATOM      9  C   UNL A   1      31.828  23.490  26.167  1.00  0.00     0.087 A 
ATOM     10  C   UNL A   1      30.754  23.369  25.326  1.00  0.00     0.020 A 
ATOM     11  C   UNL A   1      31.192  23.804  24.070  1.00  0.00     0.035 A 
BRANCH   8  12
ATOM     12  C   UNL A   1      34.288  23.999  26.057  1.00  0.00     0.169 C 
BRANCH  12  13
ATOM     13  C   UNL A   1      35.357  23.003  25.598  1.00  0.00     0.027 A 
ATOM     14  C   UNL A   1      35.296  21.732  25.011  1.00  0.00    -0.033 A 
ATOM     15  C   UNL A   1      36.621  21.186  24.816  1.00  0.00     0.016 A 
ATOM     16  C   UNL A   1      37.629  22.053  25.143  1.00  0.00     0.065 A 
ATOM     17  S   UNL A   1      37.010  23.554  25.619  1.00  0.00    -0.147 S 
BRANCH  14  18
ATOM     18  C   UNL A   1      34.135  20.881  24.561  1.00  0.00     0.033 C 
ATOM     19  C   UNL A   1      33.329  20.170  25.610  1.00  0.00     0.009 C 
ENDBRANCH  14  18
ENDBRANCH  12  13
ENDBRANCH   8  12
ENDBRANCH   5   7
ENDBRANCH   4   5
ENDBRANCH   3   4
ENDBRANCH   2   3
ENDBRANCH   1   2
BRANCH   1  20
ATOM     20  C   UNL A   1      33.177  27.572  25.845  1.00  0.00     0.202 C 
BRANCH  20  21
ATOM     21  C   UNL A   1      33.408  28.819  26.677  1.00  0.00     0.261 C 
BRANCH  21  22
ATOM     22  O   UNL A   1      34.703  28.814  27.263  1.00  0.00    -0.460 OA
BRANCH  22  23
ATOM     23  C   UNL A   1      35.016  29.957  27.915  1.00  0.00     0.338 C 
ATOM     24  O   UNL A   1      34.327  30.940  28.070  1.00  0.00    -0.246 OA
BRANCH  23  25
ATOM     25  C   UNL A   1      36.425  29.860  28.305  1.00  0.00     0.060 A 
ATOM     26  C   UNL A   1      37.387  30.051  27.313  1.00  0.00     0.016 A 
ATOM     27  C   UNL A   1      36.754  29.390  29.588  1.00  0.00     0.016 A 
ATOM     28  C   UNL A   1      38.680  29.658  27.579  1.00  0.00     0.010 A 
ATOM     29  C   UNL A   1      38.040  28.995  29.854  1.00  0.00     0.010 A 
ATOM     30  C   UNL A   1      38.972  29.081  28.825  1.00  0.00    -0.014 A 
BRANCH  30  31
ATOM     31  C   UNL A   1      40.338  28.625  29.066  1.00  0.00     0.031 A 
ATOM     32  C   UNL A   1      41.191  29.872  29.400  1.00  0.00     0.074 A 
ATOM     33  C   UNL A   1      40.526  27.281  28.826  1.00  0.00     0.049 A 
ATOM     34  N   UNL A   1      42.332  30.245  28.920  1.00  0.00    -0.248 NA
ATOM     35  C   UNL A   1      40.620  30.964  30.256  1.00  0.00     0.031 C 
ATOM     36  C   UNL A   1      39.447  26.279  28.571  1.00  0.00     0.029 A 
ATOM     37  N   UNL A   1      41.625  26.456  28.745  1.00  0.00    -0.354 N 
ATOM     38  C   UNL A   1      42.743  31.403  29.625  1.00  0.00     0.074 A 
ATOM     39  C   UNL A   1      41.571  31.907  30.271  1.00  0.00     0.031 C 
ATOM     40  C   UNL A   1      39.951  25.059  28.257  1.00  0.00     0.029 A 
ATOM     41  C   UNL A   1      41.398  25.119  28.271  1.00  0.00     0.049 A 
ATOM     42  H   UNL A   1      42.524  26.768  28.999  1.00  0.00     0.167 HD
ATOM     43  C   UNL A   1      44.063  31.720  29.793  1.00  0.00     0.034 A 
ATOM     44  C   UNL A   1      42.328  24.183  27.869  1.00  0.00     0.034 A 
ATOM     45  C   UNL A   1      44.845  30.674  29.216  1.00  0.00     0.049 A 
ATOM     46  C   UNL A   1      43.599  24.862  28.173  1.00  0.00     0.074 A 
ATOM     47  C   UNL A   1      45.054  30.305  27.915  1.00  0.00     0.029 A 
ATOM     48  N   UNL A   1      45.149  29.617  30.051  1.00  0.00    -0.354 N 
ATOM     49  N   UNL A   1      44.070  25.053  29.366  1.00  0.00    -0.248 NA
ATOM     50  C   UNL A   1      44.320  25.518  27.074  1.00  0.00     0.031 C 
ATOM     51  C   UNL A   1      44.893  28.909  27.988  1.00  0.00     0.029 A 
ATOM     52  C   UNL A   1      44.992  28.472  29.317  1.00  0.00     0.049 A 
ATOM     53  H   UNL A   1      45.426  29.676  30.994  1.00  0.00     0.167 HD
ATOM     54  C   UNL A   1      44.920  26.113  29.186  1.00  0.00     0.074 A 
ATOM     55  C   UNL A   1      45.280  26.113  27.779  1.00  0.00     0.031 C 
ATOM     56  C   UNL A   1      44.819  27.205  29.995  1.00  0.00     0.034 A 
BRANCH  43  57
ATOM     57  C   UNL A   1      44.830  32.686  30.656  1.00  0.00     0.023 A 
ATOM     58  C   UNL A   1      45.689  33.574  29.955  1.00  0.00     0.031 A 
ATOM     59  C   UNL A   1      45.045  32.569  32.032  1.00  0.00     0.131 A 
ATOM     60  C   UNL A   1      46.810  34.145  30.563  1.00  0.00     0.055 A 
ATOM     61  C   UNL A   1      46.125  33.215  32.661  1.00  0.00     0.041 A 
ATOM     62  F   UNL A   1      44.289  31.768  32.793  1.00  0.00    -0.206 F 
ATOM     63  C   UNL A   1      47.038  33.969  31.921  1.00  0.00     0.022 A 
BRANCH  60  64
ATOM     64  S   UNL A   1      48.044  34.941  29.493  1.00  0.00     0.124 S 
ATOM     65  O   UNL A   1      48.884  33.814  29.105  1.00  0.00    -0.237 OA
ATOM     66  O   UNL A   1      47.211  35.510  28.436  1.00  0.00    -0.237 OA
ATOM     67  O   UNL A   1      48.679  35.917  30.375  1.00  0.00    -0.744 OA
ENDBRANCH  60  64
ENDBRANCH  43  57
BRANCH  44  68
ATOM     68  C   UNL A   1      42.476  22.833  27.144  1.00  0.00     0.023 A 
ATOM     69  C   UNL A   1      43.473  22.422  26.235  1.00  0.00     0.031 A 
ATOM     70  C   UNL A   1      41.523  21.799  27.449  1.00  0.00     0.131 A 
ATOM     71  C   UNL A   1      43.529  21.057  25.789  1.00  0.00     0.055 A 
ATOM     72  C   UNL A   1      41.647  20.454  27.101  1.00  0.00     0.041 A 
ATOM     73  F   UNL A   1      40.385  22.045  28.112  1.00  0.00    -0.206 F 
ATOM     74  C   UNL A   1      42.671  20.069  26.279  1.00  0.00     0.022 A 
BRANCH  71  75
ATOM     75  S   UNL A   1      44.729  20.489  24.535  1.00  0.00     0.124 S 
ATOM     76  O   UNL A   1      44.740  21.607  23.598  1.00  0.00    -0.237 OA
ATOM     77  O   UNL A   1      45.943  20.287  25.316  1.00  0.00    -0.237 OA
ATOM     78  O   UNL A   1      44.125  19.260  24.017  1.00  0.00    -0.744 OA
ENDBRANCH  71  75
ENDBRANCH  44  68
BRANCH  56  79
ATOM     79  C   UNL A   1      44.157  26.954  31.359  1.00  0.00     0.023 A 
ATOM     80  C   UNL A   1      43.051  27.732  31.763  1.00  0.00     0.031 A 
ATOM     81  C   UNL A   1      44.643  26.056  32.330  1.00  0.00     0.131 A 
ATOM     82  C   UNL A   1      42.520  27.641  33.067  1.00  0.00     0.055 A 
ATOM     83  C   UNL A   1      44.120  25.963  33.632  1.00  0.00     0.041 A 
ATOM     84  F   UNL A   1      45.653  25.233  32.056  1.00  0.00    -0.206 F 
ATOM     85  C   UNL A   1      43.054  26.764  34.009  1.00  0.00     0.022 A 
BRANCH  82  86
ATOM     86  S   UNL A   1      41.100  28.676  33.519  1.00  0.00     0.124 S 
ATOM     87  O   UNL A   1      40.824  28.262  34.889  1.00  0.00    -0.237 OA
ATOM     88  O   UNL A   1      41.630  30.025  33.350  1.00  0.00    -0.237 OA
ATOM     89  O   UNL A   1      40.077  28.297  32.543  1.00  0.00    -0.744 OA
ENDBRANCH  82  86
ENDBRANCH  56  79
ENDBRANCH  30  31
ENDBRANCH  23  25
ENDBRANCH  22  23
ENDBRANCH  21  22
ENDBRANCH  20  21
ENDBRANCH   1  20
TORSDOF 20
ENDMDL
