MODEL 1
REMARK VINA RESULT:      -9.9      0.000      0.000
REMARK SMILES COCC[C@@]1(C(=O)OCCOCCOC(=O)c2ccc(-c3c4nc(c(-c5cc(S(=O)(=O)[O-])ccc5F)c5ccc([nH]5)c(-c5cc(S(=O)(=O)[O-])ccc5F)c5nc(c(-c6cc(S(=O)(=O)[O-])ccc6F)c6ccc3[nH]6)C=C5)C=C4)cc2)CCCN(C(=O)NCc2ccc(OC)cc2)C1
REMARK SMILES IDX 10 1 9 2 8 3 6 4 7 5 5 6 80 7 96 8 81 9 83 10 82 11 4 12
REMARK SMILES IDX 3 13 2 14 1 15 84 16 85 17 86 18 87 20 88 21 89 22 95 23
REMARK SMILES IDX 90 24 94 25 91 26 92 27 93 28 11 29 12 30 13 31 14 32 15 33
REMARK SMILES IDX 16 34 17 35 18 36 79 37 19 38 78 39 20 40 21 41 22 42 72 43
REMARK SMILES IDX 23 44 77 45 71 46 73 47 24 48 76 49 70 50 69 51 25 53 57 54
REMARK SMILES IDX 37 55 56 56 38 57 41 58 55 59 74 60 39 61 40 62 54 64 75 65
REMARK SMILES IDX 42 66 26 67 27 68 35 69 28 70 34 71 36 72 33 73 29 74 30 75
REMARK SMILES IDX 31 76 32 77 58 78 59 79 67 80 60 81 66 82 68 83 65 84 61 85
REMARK SMILES IDX 62 86 63 87 64 88 43 89 44 90 52 91 45 92 51 93 53 94 50 95
REMARK SMILES IDX 46 96 47 97 48 98 49 99
REMARK H PARENT 86 19 73 52 41 63
REMARK Flexibility Score: inf
ROOT
ATOM      1  C   UNL A   1      37.454  21.762  24.674  1.00  0.00     0.202 C 
ENDROOT
BRANCH   1   2
ATOM      2  C   UNL A   1      36.008  22.238  24.857  1.00  0.00     0.261 C 
BRANCH   2   3
ATOM      3  O   UNL A   1      35.000  21.226  24.659  1.00  0.00    -0.463 OA
BRANCH   3   4
ATOM      4  C   UNL A   1      33.956  21.250  25.529  1.00  0.00     0.314 C 
ATOM      5  O   UNL A   1      34.082  21.438  26.737  1.00  0.00    -0.252 OA
BRANCH   4   6
ATOM      6  C   UNL A   1      32.595  20.932  24.897  1.00  0.00     0.088 C 
ATOM      7  C   UNL A   1      32.694  21.373  23.421  1.00  0.00     0.022 C 
ATOM      8  C   UNL A   1      31.401  21.615  25.573  1.00  0.00     0.140 C 
ATOM      9  C   UNL A   1      32.592  22.893  23.279  1.00  0.00     0.023 C 
ATOM     10  N   UNL A   1      31.194  23.037  25.311  1.00  0.00    -0.324 N 
ATOM     11  C   UNL A   1      31.309  23.425  23.913  1.00  0.00     0.121 C 
BRANCH   6  12
ATOM     12  C   UNL A   1      32.401  19.373  24.980  1.00  0.00     0.049 C 
BRANCH  12  13
ATOM     13  C   UNL A   1      33.660  18.549  24.647  1.00  0.00     0.161 C 
BRANCH  13  14
ATOM     14  O   UNL A   1      33.278  17.192  24.426  1.00  0.00    -0.385 OA
ATOM     15  C   UNL A   1      32.727  16.563  25.580  1.00  0.00     0.194 C 
ENDBRANCH  13  14
ENDBRANCH  12  13
ENDBRANCH   6  12
BRANCH  10  16
ATOM     16  C   UNL A   1      30.555  23.693  26.324  1.00  0.00     0.317 C 
ATOM     17  O   UNL A   1      30.422  23.178  27.444  1.00  0.00    -0.249 OA
ATOM     18  N   UNL A   1      30.022  24.905  26.239  1.00  0.00    -0.334 N 
ATOM     19  H   UNL A   1      29.619  25.142  27.105  1.00  0.00     0.165 HD
BRANCH  18  20
ATOM     20  C   UNL A   1      29.833  25.995  25.309  1.00  0.00     0.153 C 
BRANCH  20  21
ATOM     21  C   UNL A   1      31.044  26.884  25.412  1.00  0.00    -0.028 A 
ATOM     22  C   UNL A   1      32.177  26.444  26.115  1.00  0.00     0.009 A 
ATOM     23  C   UNL A   1      31.007  28.202  24.948  1.00  0.00     0.009 A 
ATOM     24  C   UNL A   1      33.242  27.310  26.355  1.00  0.00     0.047 A 
ATOM     25  C   UNL A   1      32.084  29.064  25.177  1.00  0.00     0.047 A 
ATOM     26  C   UNL A   1      33.205  28.619  25.880  1.00  0.00     0.118 A 
BRANCH  26  27
ATOM     27  O   UNL A   1      34.300  29.376  26.193  1.00  0.00    -0.497 OA
ATOM     28  C   UNL A   1      34.655  29.411  27.569  1.00  0.00     0.278 C 
ENDBRANCH  26  27
ENDBRANCH  20  21
ENDBRANCH  18  20
ENDBRANCH  10  16
ENDBRANCH   4   6
ENDBRANCH   3   4
ENDBRANCH   2   3
ENDBRANCH   1   2
BRANCH   1  29
ATOM     29  O   UNL A   1      38.349  21.867  25.778  1.00  0.00    -0.374 OA
BRANCH  29  30
ATOM     30  C   UNL A   1      39.393  20.906  25.877  1.00  0.00     0.202 C 
BRANCH  30  31
ATOM     31  C   UNL A   1      40.368  21.008  27.058  1.00  0.00     0.261 C 
BRANCH  31  32
ATOM     32  O   UNL A   1      41.388  20.002  27.061  1.00  0.00    -0.460 OA
BRANCH  32  33
ATOM     33  C   UNL A   1      42.326  20.141  26.097  1.00  0.00     0.338 C 
ATOM     34  O   UNL A   1      42.502  19.408  25.122  1.00  0.00    -0.246 OA
BRANCH  33  35
ATOM     35  C   UNL A   1      43.072  21.390  26.280  1.00  0.00     0.060 A 
ATOM     36  C   UNL A   1      43.597  21.690  27.542  1.00  0.00     0.016 A 
ATOM     37  C   UNL A   1      43.143  22.322  25.248  1.00  0.00     0.016 A 
ATOM     38  C   UNL A   1      44.181  22.937  27.779  1.00  0.00     0.010 A 
ATOM     39  C   UNL A   1      43.739  23.565  25.485  1.00  0.00     0.010 A 
ATOM     40  C   UNL A   1      44.236  23.897  26.760  1.00  0.00    -0.014 A 
BRANCH  40  41
ATOM     41  C   UNL A   1      44.632  25.301  27.066  1.00  0.00     0.031 A 
ATOM     42  C   UNL A   1      43.586  26.243  27.612  1.00  0.00     0.074 A 
ATOM     43  C   UNL A   1      45.895  25.735  26.890  1.00  0.00     0.049 A 
ATOM     44  N   UNL A   1      43.673  27.519  27.883  1.00  0.00    -0.248 NA
ATOM     45  C   UNL A   1      42.257  25.664  27.861  1.00  0.00     0.031 C 
ATOM     46  C   UNL A   1      47.008  24.924  26.396  1.00  0.00     0.029 A 
ATOM     47  N   UNL A   1      46.457  26.970  27.112  1.00  0.00    -0.354 N 
ATOM     48  C   UNL A   1      42.404  27.901  28.311  1.00  0.00     0.074 A 
ATOM     49  C   UNL A   1      41.557  26.733  28.207  1.00  0.00     0.031 C 
ATOM     50  C   UNL A   1      48.120  25.679  26.368  1.00  0.00     0.029 A 
ATOM     51  C   UNL A   1      47.796  27.037  26.802  1.00  0.00     0.049 A 
ATOM     52  H   UNL A   1      45.947  27.736  27.461  1.00  0.00     0.167 HD
ATOM     53  C   UNL A   1      41.985  29.106  28.774  1.00  0.00     0.034 A 
ATOM     54  C   UNL A   1      48.657  28.076  26.852  1.00  0.00     0.034 A 
ATOM     55  C   UNL A   1      42.843  30.257  28.905  1.00  0.00     0.049 A 
ATOM     56  C   UNL A   1      48.161  29.422  27.332  1.00  0.00     0.074 A 
ATOM     57  C   UNL A   1      42.527  31.518  29.380  1.00  0.00     0.029 A 
ATOM     58  N   UNL A   1      44.189  30.287  28.566  1.00  0.00    -0.354 N 
ATOM     59  N   UNL A   1      46.957  29.766  27.730  1.00  0.00    -0.248 NA
ATOM     60  C   UNL A   1      49.142  30.516  27.376  1.00  0.00     0.031 C 
ATOM     61  C   UNL A   1      43.665  32.325  29.273  1.00  0.00     0.029 A 
ATOM     62  C   UNL A   1      44.711  31.548  28.802  1.00  0.00     0.049 A 
ATOM     63  H   UNL A   1      44.697  29.523  28.209  1.00  0.00     0.167 HD
ATOM     64  C   UNL A   1      47.050  31.104  28.107  1.00  0.00     0.074 A 
ATOM     65  C   UNL A   1      48.426  31.503  27.896  1.00  0.00     0.031 C 
ATOM     66  C   UNL A   1      46.088  31.929  28.593  1.00  0.00     0.034 A 
BRANCH  53  67
ATOM     67  C   UNL A   1      40.525  29.236  29.133  1.00  0.00     0.023 A 
ATOM     68  C   UNL A   1      40.086  29.213  30.469  1.00  0.00     0.031 A 
ATOM     69  C   UNL A   1      39.551  29.332  28.123  1.00  0.00     0.131 A 
ATOM     70  C   UNL A   1      38.713  29.192  30.755  1.00  0.00     0.055 A 
ATOM     71  C   UNL A   1      38.188  29.402  28.419  1.00  0.00     0.041 A 
ATOM     72  F   UNL A   1      39.907  29.339  26.829  1.00  0.00    -0.206 F 
ATOM     73  C   UNL A   1      37.762  29.313  29.741  1.00  0.00     0.022 A 
BRANCH  70  74
ATOM     74  S   UNL A   1      38.190  28.844  32.456  1.00  0.00     0.124 S 
ATOM     75  O   UNL A   1      36.782  29.234  32.416  1.00  0.00    -0.237 OA
ATOM     76  O   UNL A   1      38.453  27.415  32.581  1.00  0.00    -0.237 OA
ATOM     77  O   UNL A   1      39.046  29.710  33.262  1.00  0.00    -0.744 OA
ENDBRANCH  70  74
ENDBRANCH  53  67
BRANCH  54  78
ATOM     78  C   UNL A   1      50.075  27.912  26.416  1.00  0.00     0.023 A 
ATOM     79  C   UNL A   1      51.119  27.813  27.351  1.00  0.00     0.031 A 
ATOM     80  C   UNL A   1      50.416  27.919  25.051  1.00  0.00     0.131 A 
ATOM     81  C   UNL A   1      52.453  27.778  26.912  1.00  0.00     0.055 A 
ATOM     82  C   UNL A   1      51.741  27.832  24.619  1.00  0.00     0.041 A 
ATOM     83  F   UNL A   1      49.460  28.011  24.113  1.00  0.00    -0.206 F 
ATOM     84  C   UNL A   1      52.770  27.776  25.553  1.00  0.00     0.022 A 
BRANCH  81  85
ATOM     85  S   UNL A   1      53.778  27.828  28.152  1.00  0.00     0.124 S 
ATOM     86  O   UNL A   1      53.383  28.973  28.962  1.00  0.00    -0.237 OA
ATOM     87  O   UNL A   1      53.652  26.518  28.782  1.00  0.00    -0.237 OA
ATOM     88  O   UNL A   1      54.985  28.018  27.349  1.00  0.00    -0.744 OA
ENDBRANCH  81  85
ENDBRANCH  54  78
BRANCH  66  89
ATOM     89  C   UNL A   1      46.504  33.324  28.993  1.00  0.00     0.023 A 
ATOM     90  C   UNL A   1      46.541  34.384  28.072  1.00  0.00     0.031 A 
ATOM     91  C   UNL A   1      46.855  33.594  30.329  1.00  0.00     0.131 A 
ATOM     92  C   UNL A   1      46.964  35.656  28.489  1.00  0.00     0.055 A 
ATOM     93  C   UNL A   1      47.223  34.872  30.749  1.00  0.00     0.041 A 
ATOM     94  F   UNL A   1      46.836  32.617  31.250  1.00  0.00    -0.206 F 
ATOM     95  C   UNL A   1      47.289  35.910  29.825  1.00  0.00     0.022 A 
BRANCH  92  96
ATOM     96  S   UNL A   1      47.154  36.964  27.247  1.00  0.00     0.124 S 
ATOM     97  O   UNL A   1      46.660  38.137  27.960  1.00  0.00    -0.237 OA
ATOM     98  O   UNL A   1      48.589  36.937  26.982  1.00  0.00    -0.237 OA
ATOM     99  O   UNL A   1      46.312  36.512  26.139  1.00  0.00    -0.744 OA
ENDBRANCH  92  96
ENDBRANCH  66  89
ENDBRANCH  40  41
ENDBRANCH  33  35
ENDBRANCH  32  33
ENDBRANCH  31  32
ENDBRANCH  30  31
ENDBRANCH  29  30
ENDBRANCH   1  29
TORSDOF 24
ENDMDL
MODEL 2
REMARK VINA RESULT:      -9.0      4.052      9.279
REMARK SMILES COCC[C@@]1(C(=O)OCCOCCOC(=O)c2ccc(-c3c4nc(c(-c5cc(S(=O)(=O)[O-])ccc5F)c5ccc([nH]5)c(-c5cc(S(=O)(=O)[O-])ccc5F)c5nc(c(-c6cc(S(=O)(=O)[O-])ccc6F)c6ccc3[nH]6)C=C5)C=C4)cc2)CCCN(C(=O)NCc2ccc(OC)cc2)C1
REMARK SMILES IDX 10 1 9 2 8 3 6 4 7 5 5 6 80 7 96 8 81 9 83 10 82 11 4 12
REMARK SMILES IDX 3 13 2 14 1 15 84 16 85 17 86 18 87 20 88 21 89 22 95 23
REMARK SMILES IDX 90 24 94 25 91 26 92 27 93 28 11 29 12 30 13 31 14 32 15 33
REMARK SMILES IDX 16 34 17 35 18 36 79 37 19 38 78 39 20 40 21 41 22 42 72 43
REMARK SMILES IDX 23 44 77 45 71 46 73 47 24 48 76 49 70 50 69 51 25 53 57 54
REMARK SMILES IDX 37 55 56 56 38 57 41 58 55 59 74 60 39 61 40 62 54 64 75 65
REMARK SMILES IDX 42 66 26 67 27 68 35 69 28 70 34 71 36 72 33 73 29 74 30 75
REMARK SMILES IDX 31 76 32 77 58 78 59 79 67 80 60 81 66 82 68 83 65 84 61 85
REMARK SMILES IDX 62 86 63 87 64 88 43 89 44 90 52 91 45 92 51 93 53 94 50 95
REMARK SMILES IDX 46 96 47 97 48 98 49 99
REMARK H PARENT 86 19 73 52 41 63
REMARK Flexibility Score: inf
ROOT
ATOM      1  C   UNL A   1      37.759  23.432  25.844  1.00  0.00     0.202 C 
ENDROOT
BRANCH   1   2
ATOM      2  C   UNL A   1      36.712  22.375  26.212  1.00  0.00     0.261 C 
BRANCH   2   3
ATOM      3  O   UNL A   1      35.569  22.313  25.336  1.00  0.00    -0.463 OA
BRANCH   3   4
ATOM      4  C   UNL A   1      34.364  22.555  25.915  1.00  0.00     0.314 C 
ATOM      5  O   UNL A   1      34.206  23.320  26.864  1.00  0.00    -0.252 OA
BRANCH   4   6
ATOM      6  C   UNL A   1      33.207  21.723  25.346  1.00  0.00     0.088 C 
ATOM      7  C   UNL A   1      33.229  21.947  23.819  1.00  0.00     0.022 C 
ATOM      8  C   UNL A   1      31.826  22.077  25.911  1.00  0.00     0.140 C 
ATOM      9  C   UNL A   1      32.652  23.312  23.440  1.00  0.00     0.023 C 
ATOM     10  N   UNL A   1      31.188  23.299  25.429  1.00  0.00    -0.324 N 
ATOM     11  C   UNL A   1      31.239  23.489  23.987  1.00  0.00     0.121 C 
BRANCH   6  12
ATOM     12  C   UNL A   1      33.518  20.216  25.673  1.00  0.00     0.049 C 
BRANCH  12  13
ATOM     13  C   UNL A   1      33.179  19.228  24.540  1.00  0.00     0.161 C 
BRANCH  13  14
ATOM     14  O   UNL A   1      34.329  18.428  24.266  1.00  0.00    -0.385 OA
ATOM     15  C   UNL A   1      34.020  17.062  24.005  1.00  0.00     0.194 C 
ENDBRANCH  13  14
ENDBRANCH  12  13
ENDBRANCH   6  12
BRANCH  10  16
ATOM     16  C   UNL A   1      30.326  23.857  26.330  1.00  0.00     0.317 C 
ATOM     17  O   UNL A   1      29.837  23.190  27.254  1.00  0.00    -0.249 OA
ATOM     18  N   UNL A   1      29.925  25.121  26.327  1.00  0.00    -0.334 N 
ATOM     19  H   UNL A   1      29.302  25.265  27.076  1.00  0.00     0.165 HD
BRANCH  18  20
ATOM     20  C   UNL A   1      30.089  26.359  25.600  1.00  0.00     0.153 C 
BRANCH  20  21
ATOM     21  C   UNL A   1      31.427  26.931  25.990  1.00  0.00    -0.028 A 
ATOM     22  C   UNL A   1      31.551  27.668  27.178  1.00  0.00     0.009 A 
ATOM     23  C   UNL A   1      32.515  26.870  25.116  1.00  0.00     0.009 A 
ATOM     24  C   UNL A   1      32.737  28.337  27.476  1.00  0.00     0.047 A 
ATOM     25  C   UNL A   1      33.709  27.529  25.425  1.00  0.00     0.047 A 
ATOM     26  C   UNL A   1      33.823  28.263  26.607  1.00  0.00     0.118 A 
BRANCH  26  27
ATOM     27  O   UNL A   1      34.923  28.974  26.999  1.00  0.00    -0.497 OA
ATOM     28  C   UNL A   1      34.678  30.305  27.434  1.00  0.00     0.278 C 
ENDBRANCH  26  27
ENDBRANCH  20  21
ENDBRANCH  18  20
ENDBRANCH  10  16
ENDBRANCH   4   6
ENDBRANCH   3   4
ENDBRANCH   2   3
ENDBRANCH   1   2
BRANCH   1  29
ATOM     29  O   UNL A   1      38.673  23.863  26.849  1.00  0.00    -0.374 OA
BRANCH  29  30
ATOM     30  C   UNL A   1      39.927  24.383  26.424  1.00  0.00     0.202 C 
BRANCH  30  31
ATOM     31  C   UNL A   1      41.008  24.639  27.484  1.00  0.00     0.261 C 
BRANCH  31  32
ATOM     32  O   UNL A   1      42.268  25.053  26.944  1.00  0.00    -0.460 OA
BRANCH  32  33
ATOM     33  C   UNL A   1      42.209  26.119  26.115  1.00  0.00     0.338 C 
ATOM     34  O   UNL A   1      41.749  26.147  24.973  1.00  0.00    -0.246 OA
BRANCH  33  35
ATOM     35  C   UNL A   1      42.666  27.332  26.802  1.00  0.00     0.060 A 
ATOM     36  C   UNL A   1      43.299  27.213  28.045  1.00  0.00     0.016 A 
ATOM     37  C   UNL A   1      42.356  28.588  26.287  1.00  0.00     0.016 A 
ATOM     38  C   UNL A   1      43.609  28.356  28.785  1.00  0.00     0.010 A 
ATOM     39  C   UNL A   1      42.679  29.732  27.026  1.00  0.00     0.010 A 
ATOM     40  C   UNL A   1      43.279  29.627  28.295  1.00  0.00    -0.014 A 
BRANCH  40  41
ATOM     41  C   UNL A   1      43.383  30.826  29.175  1.00  0.00     0.031 A 
ATOM     42  C   UNL A   1      44.629  31.674  29.094  1.00  0.00     0.074 A 
ATOM     43  C   UNL A   1      42.389  31.176  30.013  1.00  0.00     0.049 A 
ATOM     44  N   UNL A   1      44.977  32.715  29.805  1.00  0.00    -0.248 NA
ATOM     45  C   UNL A   1      45.624  31.273  28.086  1.00  0.00     0.031 C 
ATOM     46  C   UNL A   1      41.122  30.462  30.171  1.00  0.00     0.029 A 
ATOM     47  N   UNL A   1      42.288  32.230  30.891  1.00  0.00    -0.354 N 
ATOM     48  C   UNL A   1      46.242  33.078  29.348  1.00  0.00     0.074 A 
ATOM     49  C   UNL A   1      46.617  32.109  28.340  1.00  0.00     0.031 C 
ATOM     50  C   UNL A   1      40.367  31.107  31.077  1.00  0.00     0.029 A 
ATOM     51  C   UNL A   1      41.107  32.256  31.596  1.00  0.00     0.049 A 
ATOM     52  H   UNL A   1      42.997  32.904  31.004  1.00  0.00     0.167 HD
ATOM     53  C   UNL A   1      47.011  34.134  29.713  1.00  0.00     0.034 A 
ATOM     54  C   UNL A   1      40.678  33.103  32.557  1.00  0.00     0.034 A 
ATOM     55  C   UNL A   1      46.616  35.113  30.694  1.00  0.00     0.049 A 
ATOM     56  C   UNL A   1      41.567  34.250  32.979  1.00  0.00     0.074 A 
ATOM     57  C   UNL A   1      47.309  36.231  31.124  1.00  0.00     0.029 A 
ATOM     58  N   UNL A   1      45.418  35.094  31.397  1.00  0.00    -0.354 N 
ATOM     59  N   UNL A   1      42.761  34.577  32.539  1.00  0.00    -0.248 NA
ATOM     60  C   UNL A   1      41.047  35.147  34.022  1.00  0.00     0.031 C 
ATOM     61  C   UNL A   1      46.558  36.855  32.126  1.00  0.00     0.029 A 
ATOM     62  C   UNL A   1      45.362  36.169  32.270  1.00  0.00     0.049 A 
ATOM     63  H   UNL A   1      44.713  34.416  31.290  1.00  0.00     0.167 HD
ATOM     64  C   UNL A   1      43.114  35.738  33.224  1.00  0.00     0.074 A 
ATOM     65  C   UNL A   1      42.007  36.058  34.101  1.00  0.00     0.031 C 
ATOM     66  C   UNL A   1      44.248  36.480  33.133  1.00  0.00     0.034 A 
BRANCH  53  67
ATOM     67  C   UNL A   1      48.370  34.252  29.066  1.00  0.00     0.023 A 
ATOM     68  C   UNL A   1      48.559  34.958  27.864  1.00  0.00     0.031 A 
ATOM     69  C   UNL A   1      49.484  33.607  29.631  1.00  0.00     0.131 A 
ATOM     70  C   UNL A   1      49.806  34.925  27.222  1.00  0.00     0.055 A 
ATOM     71  C   UNL A   1      50.744  33.653  29.031  1.00  0.00     0.041 A 
ATOM     72  F   UNL A   1      49.361  32.901  30.766  1.00  0.00    -0.206 F 
ATOM     73  C   UNL A   1      50.906  34.299  27.810  1.00  0.00     0.022 A 
BRANCH  70  74
ATOM     74  S   UNL A   1      49.924  35.574  25.532  1.00  0.00     0.124 S 
ATOM     75  O   UNL A   1      48.910  34.779  24.841  1.00  0.00    -0.237 OA
ATOM     76  O   UNL A   1      49.612  36.986  25.713  1.00  0.00    -0.237 OA
ATOM     77  O   UNL A   1      51.303  35.282  25.149  1.00  0.00    -0.744 OA
ENDBRANCH  70  74
ENDBRANCH  53  67
BRANCH  54  78
ATOM     78  C   UNL A   1      39.354  32.898  33.217  1.00  0.00     0.023 A 
ATOM     79  C   UNL A   1      38.178  33.442  32.676  1.00  0.00     0.031 A 
ATOM     80  C   UNL A   1      39.256  32.209  34.439  1.00  0.00     0.131 A 
ATOM     81  C   UNL A   1      36.966  33.334  33.378  1.00  0.00     0.055 A 
ATOM     82  C   UNL A   1      38.040  32.059  35.109  1.00  0.00     0.041 A 
ATOM     83  F   UNL A   1      40.348  31.667  35.003  1.00  0.00    -0.206 F 
ATOM     84  C   UNL A   1      36.887  32.637  34.586  1.00  0.00     0.022 A 
BRANCH  81  85
ATOM     85  S   UNL A   1      35.507  34.201  32.736  1.00  0.00     0.124 S 
ATOM     86  O   UNL A   1      35.648  35.515  33.349  1.00  0.00    -0.237 OA
ATOM     87  O   UNL A   1      35.727  34.135  31.295  1.00  0.00    -0.237 OA
ATOM     88  O   UNL A   1      34.391  33.397  33.230  1.00  0.00    -0.744 OA
ENDBRANCH  81  85
ENDBRANCH  54  78
BRANCH  66  89
ATOM     89  C   UNL A   1      44.319  37.745  33.952  1.00  0.00     0.023 A 
ATOM     90  C   UNL A   1      44.806  37.755  35.270  1.00  0.00     0.031 A 
ATOM     91  C   UNL A   1      43.903  38.967  33.390  1.00  0.00     0.131 A 
ATOM     92  C   UNL A   1      44.824  38.955  35.998  1.00  0.00     0.055 A 
ATOM     93  C   UNL A   1      43.972  40.165  34.101  1.00  0.00     0.041 A 
ATOM     94  F   UNL A   1      43.429  39.015  32.134  1.00  0.00    -0.206 F 
ATOM     95  C   UNL A   1      44.426  40.162  35.416  1.00  0.00     0.022 A 
BRANCH  92  96
ATOM     96  S   UNL A   1      45.308  38.908  37.746  1.00  0.00     0.124 S 
ATOM     97  O   UNL A   1      45.919  40.219  37.928  1.00  0.00    -0.237 OA
ATOM     98  O   UNL A   1      44.029  38.703  38.418  1.00  0.00    -0.237 OA
ATOM     99  O   UNL A   1      46.233  37.777  37.817  1.00  0.00    -0.744 OA
ENDBRANCH  92  96
ENDBRANCH  66  89
ENDBRANCH  40  41
ENDBRANCH  33  35
ENDBRANCH  32  33
ENDBRANCH  31  32
ENDBRANCH  30  31
ENDBRANCH  29  30
ENDBRANCH   1  29
TORSDOF 24
ENDMDL
MODEL 3
REMARK VINA RESULT:      -8.8      5.814     10.954
REMARK SMILES COCC[C@@]1(C(=O)OCCOCCOC(=O)c2ccc(-c3c4nc(c(-c5cc(S(=O)(=O)[O-])ccc5F)c5ccc([nH]5)c(-c5cc(S(=O)(=O)[O-])ccc5F)c5nc(c(-c6cc(S(=O)(=O)[O-])ccc6F)c6ccc3[nH]6)C=C5)C=C4)cc2)CCCN(C(=O)NCc2ccc(OC)cc2)C1
REMARK SMILES IDX 10 1 9 2 8 3 6 4 7 5 5 6 80 7 96 8 81 9 83 10 82 11 4 12
REMARK SMILES IDX 3 13 2 14 1 15 84 16 85 17 86 18 87 20 88 21 89 22 95 23
REMARK SMILES IDX 90 24 94 25 91 26 92 27 93 28 11 29 12 30 13 31 14 32 15 33
REMARK SMILES IDX 16 34 17 35 18 36 79 37 19 38 78 39 20 40 21 41 22 42 72 43
REMARK SMILES IDX 23 44 77 45 71 46 73 47 24 48 76 49 70 50 69 51 25 53 57 54
REMARK SMILES IDX 37 55 56 56 38 57 41 58 55 59 74 60 39 61 40 62 54 64 75 65
REMARK SMILES IDX 42 66 26 67 27 68 35 69 28 70 34 71 36 72 33 73 29 74 30 75
REMARK SMILES IDX 31 76 32 77 58 78 59 79 67 80 60 81 66 82 68 83 65 84 61 85
REMARK SMILES IDX 62 86 63 87 64 88 43 89 44 90 52 91 45 92 51 93 53 94 50 95
REMARK SMILES IDX 46 96 47 97 48 98 49 99
REMARK H PARENT 86 19 73 52 41 63
REMARK Flexibility Score: inf
ROOT
ATOM      1  C   UNL A   1      37.786  34.990  31.384  1.00  0.00     0.202 C 
ENDROOT
BRANCH   1   2
ATOM      2  C   UNL A   1      38.664  34.291  30.340  1.00  0.00     0.261 C 
BRANCH   2   3
ATOM      3  O   UNL A   1      38.150  33.037  29.847  1.00  0.00    -0.463 OA
BRANCH   3   4
ATOM      4  C   UNL A   1      38.937  31.950  30.057  1.00  0.00     0.314 C 
ATOM      5  O   UNL A   1      40.165  31.984  30.029  1.00  0.00    -0.252 OA
BRANCH   4   6
ATOM      6  C   UNL A   1      38.168  30.635  30.245  1.00  0.00     0.088 C 
ATOM      7  C   UNL A   1      38.963  29.560  29.474  1.00  0.00     0.022 C 
ATOM      8  C   UNL A   1      36.715  30.668  29.757  1.00  0.00     0.140 C 
ATOM      9  C   UNL A   1      38.740  29.667  27.965  1.00  0.00     0.023 C 
ATOM     10  N   UNL A   1      36.481  30.602  28.317  1.00  0.00    -0.324 N 
ATOM     11  C   UNL A   1      37.256  29.589  27.616  1.00  0.00     0.121 C 
BRANCH   6  12
ATOM     12  C   UNL A   1      38.179  30.311  31.785  1.00  0.00     0.049 C 
BRANCH  12  13
ATOM     13  C   UNL A   1      36.983  29.472  32.274  1.00  0.00     0.161 C 
BRANCH  13  14
ATOM     14  O   UNL A   1      37.467  28.431  33.123  1.00  0.00    -0.385 OA
ATOM     15  C   UNL A   1      38.340  27.520  32.461  1.00  0.00     0.194 C 
ENDBRANCH  13  14
ENDBRANCH  12  13
ENDBRANCH   6  12
BRANCH  10  16
ATOM     16  C   UNL A   1      35.321  31.207  27.923  1.00  0.00     0.317 C 
ATOM     17  O   UNL A   1      35.275  32.423  27.689  1.00  0.00    -0.249 OA
ATOM     18  N   UNL A   1      34.157  30.596  27.751  1.00  0.00    -0.334 N 
ATOM     19  H   UNL A   1      33.483  31.257  27.472  1.00  0.00     0.165 HD
BRANCH  18  20
ATOM     20  C   UNL A   1      33.540  29.292  27.833  1.00  0.00     0.153 C 
BRANCH  20  21
ATOM     21  C   UNL A   1      32.978  28.977  26.472  1.00  0.00    -0.028 A 
ATOM     22  C   UNL A   1      33.592  28.003  25.670  1.00  0.00     0.009 A 
ATOM     23  C   UNL A   1      31.945  29.746  25.928  1.00  0.00     0.009 A 
ATOM     24  C   UNL A   1      33.185  27.811  24.351  1.00  0.00     0.047 A 
ATOM     25  C   UNL A   1      31.528  29.541  24.609  1.00  0.00     0.047 A 
ATOM     26  C   UNL A   1      32.147  28.572  23.818  1.00  0.00     0.118 A 
BRANCH  26  27
ATOM     27  O   UNL A   1      31.850  28.303  22.510  1.00  0.00    -0.497 OA
ATOM     28  C   UNL A   1      31.200  27.064  22.265  1.00  0.00     0.278 C 
ENDBRANCH  26  27
ENDBRANCH  20  21
ENDBRANCH  18  20
ENDBRANCH  10  16
ENDBRANCH   4   6
ENDBRANCH   3   4
ENDBRANCH   2   3
ENDBRANCH   1   2
BRANCH   1  29
ATOM     29  O   UNL A   1      37.548  34.330  32.625  1.00  0.00    -0.374 OA
BRANCH  29  30
ATOM     30  C   UNL A   1      36.238  34.401  33.172  1.00  0.00     0.202 C 
BRANCH  30  31
ATOM     31  C   UNL A   1      36.014  33.885  34.600  1.00  0.00     0.261 C 
BRANCH  31  32
ATOM     32  O   UNL A   1      36.689  32.655  34.889  1.00  0.00    -0.460 OA
BRANCH  32  33
ATOM     33  C   UNL A   1      37.789  32.778  35.664  1.00  0.00     0.338 C 
ATOM     34  O   UNL A   1      37.880  33.384  36.733  1.00  0.00    -0.246 OA
BRANCH  33  35
ATOM     35  C   UNL A   1      38.891  31.969  35.130  1.00  0.00     0.060 A 
ATOM     36  C   UNL A   1      38.991  30.625  35.505  1.00  0.00     0.016 A 
ATOM     37  C   UNL A   1      39.892  32.566  34.368  1.00  0.00     0.016 A 
ATOM     38  C   UNL A   1      40.110  29.876  35.131  1.00  0.00     0.010 A 
ATOM     39  C   UNL A   1      41.005  31.809  33.985  1.00  0.00     0.010 A 
ATOM     40  C   UNL A   1      41.140  30.467  34.388  1.00  0.00    -0.014 A 
BRANCH  40  41
ATOM     41  C   UNL A   1      42.435  29.755  34.193  1.00  0.00     0.031 A 
ATOM     42  C   UNL A   1      42.660  29.009  32.901  1.00  0.00     0.074 A 
ATOM     43  C   UNL A   1      43.406  29.783  35.126  1.00  0.00     0.049 A 
ATOM     44  N   UNL A   1      43.668  28.260  32.534  1.00  0.00    -0.248 NA
ATOM     45  C   UNL A   1      41.588  29.106  31.898  1.00  0.00     0.031 C 
ATOM     46  C   UNL A   1      43.330  30.487  36.406  1.00  0.00     0.029 A 
ATOM     47  N   UNL A   1      44.653  29.205  35.139  1.00  0.00    -0.354 N 
ATOM     48  C   UNL A   1      43.339  27.777  31.270  1.00  0.00     0.074 A 
ATOM     49  C   UNL A   1      42.015  28.273  30.963  1.00  0.00     0.031 C 
ATOM     50  C   UNL A   1      44.486  30.312  37.071  1.00  0.00     0.029 A 
ATOM     51  C   UNL A   1      45.370  29.451  36.287  1.00  0.00     0.049 A 
ATOM     52  H   UNL A   1      45.000  28.663  34.393  1.00  0.00     0.167 HD
ATOM     53  C   UNL A   1      44.080  27.012  30.429  1.00  0.00     0.034 A 
ATOM     54  C   UNL A   1      46.594  29.023  36.666  1.00  0.00     0.034 A 
ATOM     55  C   UNL A   1      45.411  26.548  30.729  1.00  0.00     0.049 A 
ATOM     56  C   UNL A   1      47.387  28.137  35.731  1.00  0.00     0.074 A 
ATOM     57  C   UNL A   1      46.256  25.785  29.942  1.00  0.00     0.029 A 
ATOM     58  N   UNL A   1      46.095  26.807  31.909  1.00  0.00    -0.354 N 
ATOM     59  N   UNL A   1      47.060  27.688  34.541  1.00  0.00    -0.248 NA
ATOM     60  C   UNL A   1      48.717  27.709  36.188  1.00  0.00     0.031 C 
ATOM     61  C   UNL A   1      47.425  25.535  30.667  1.00  0.00     0.029 A 
ATOM     62  C   UNL A   1      47.342  26.203  31.879  1.00  0.00     0.049 A 
ATOM     63  H   UNL A   1      45.744  27.341  32.658  1.00  0.00     0.167 HD
ATOM     64  C   UNL A   1      48.160  26.958  34.095  1.00  0.00     0.074 A 
ATOM     65  C   UNL A   1      49.160  27.031  35.139  1.00  0.00     0.031 C 
ATOM     66  C   UNL A   1      48.332  26.292  32.925  1.00  0.00     0.034 A 
BRANCH  53  67
ATOM     67  C   UNL A   1      43.439  26.606  29.123  1.00  0.00     0.023 A 
ATOM     68  C   UNL A   1      42.756  25.385  28.982  1.00  0.00     0.031 A 
ATOM     69  C   UNL A   1      43.556  27.428  27.989  1.00  0.00     0.131 A 
ATOM     70  C   UNL A   1      42.299  24.980  27.719  1.00  0.00     0.055 A 
ATOM     71  C   UNL A   1      43.020  27.059  26.754  1.00  0.00     0.041 A 
ATOM     72  F   UNL A   1      44.214  28.597  28.057  1.00  0.00    -0.206 F 
ATOM     73  C   UNL A   1      42.403  25.821  26.610  1.00  0.00     0.022 A 
BRANCH  70  74
ATOM     74  S   UNL A   1      41.713  23.276  27.518  1.00  0.00     0.124 S 
ATOM     75  O   UNL A   1      40.269  23.443  27.665  1.00  0.00    -0.237 OA
ATOM     76  O   UNL A   1      42.184  22.936  26.180  1.00  0.00    -0.237 OA
ATOM     77  O   UNL A   1      42.365  22.558  28.611  1.00  0.00    -0.744 OA
ENDBRANCH  70  74
ENDBRANCH  53  67
BRANCH  54  78
ATOM     78  C   UNL A   1      47.151  29.395  38.000  1.00  0.00     0.023 A 
ATOM     79  C   UNL A   1      46.968  28.569  39.122  1.00  0.00     0.031 A 
ATOM     80  C   UNL A   1      47.820  30.617  38.188  1.00  0.00     0.131 A 
ATOM     81  C   UNL A   1      47.400  29.000  40.387  1.00  0.00     0.055 A 
ATOM     82  C   UNL A   1      48.294  31.017  39.439  1.00  0.00     0.041 A 
ATOM     83  F   UNL A   1      48.025  31.446  37.151  1.00  0.00    -0.206 F 
ATOM     84  C   UNL A   1      48.072  30.213  40.551  1.00  0.00     0.022 A 
BRANCH  81  85
ATOM     85  S   UNL A   1      46.988  27.989  41.838  1.00  0.00     0.124 S 
ATOM     86  O   UNL A   1      45.646  27.528  41.507  1.00  0.00    -0.237 OA
ATOM     87  O   UNL A   1      48.042  26.979  41.810  1.00  0.00    -0.237 OA
ATOM     88  O   UNL A   1      47.068  28.938  42.946  1.00  0.00    -0.744 OA
ENDBRANCH  81  85
ENDBRANCH  54  78
BRANCH  66  89
ATOM     89  C   UNL A   1      49.675  25.647  32.683  1.00  0.00     0.023 A 
ATOM     90  C   UNL A   1      49.904  24.283  32.930  1.00  0.00     0.031 A 
ATOM     91  C   UNL A   1      50.741  26.417  32.180  1.00  0.00     0.131 A 
ATOM     92  C   UNL A   1      51.180  23.740  32.716  1.00  0.00     0.055 A 
ATOM     93  C   UNL A   1      51.992  25.860  31.919  1.00  0.00     0.041 A 
ATOM     94  F   UNL A   1      50.577  27.726  31.925  1.00  0.00    -0.206 F 
ATOM     95  C   UNL A   1      52.221  24.515  32.197  1.00  0.00     0.022 A 
BRANCH  92  96
ATOM     96  S   UNL A   1      51.488  22.017  33.194  1.00  0.00     0.124 S 
ATOM     97  O   UNL A   1      52.205  21.502  32.033  1.00  0.00    -0.237 OA
ATOM     98  O   UNL A   1      52.274  22.167  34.414  1.00  0.00    -0.237 OA
ATOM     99  O   UNL A   1      50.145  21.469  33.386  1.00  0.00    -0.744 OA
ENDBRANCH  92  96
ENDBRANCH  66  89
ENDBRANCH  40  41
ENDBRANCH  33  35
ENDBRANCH  32  33
ENDBRANCH  31  32
ENDBRANCH  30  31
ENDBRANCH  29  30
ENDBRANCH   1  29
TORSDOF 24
ENDMDL
