MODEL 1
REMARK VINA RESULT:      -8.4      0.000      0.000
REMARK SMILES CSc1ccccc1[C@H](C(=O)OCCOCCOC(=O)c1ccc(-c2c3nc(c(-c4cc(S(=O)(=O)[O-])ccc4F)c4ccc([nH]4)c(-c4cc(S(=O)(=O)[O-])ccc4F)c4nc(c(-c5cc(S(=O)(=O)[O-])ccc5F)c5ccc2[nH]5)C=C4)C=C3)cc1)[N@@H+](C)CCc1cnn(C)c1
REMARK SMILES IDX 14 1 13 2 12 3 10 4 11 5 9 6 8 7 3 8 4 9 5 10 7 11 6 12 2 13
REMARK SMILES IDX 1 14 84 15 85 16 86 18 87 19 88 20 89 21 93 22 90 23 91 24
REMARK SMILES IDX 92 25 15 26 16 27 17 28 18 29 19 30 20 31 21 32 22 33 83 34
REMARK SMILES IDX 23 35 82 36 24 37 25 38 26 39 76 40 27 41 81 42 75 43 77 44
REMARK SMILES IDX 28 45 80 46 74 47 73 48 29 50 61 51 41 52 60 53 42 54 45 55
REMARK SMILES IDX 59 56 78 57 43 58 44 59 58 61 79 62 46 63 30 64 31 65 39 66
REMARK SMILES IDX 32 67 38 68 40 69 37 70 33 71 34 72 35 73 36 74 62 75 63 76
REMARK SMILES IDX 71 77 64 78 70 79 72 80 69 81 65 82 66 83 67 84 68 85 47 86
REMARK SMILES IDX 48 87 56 88 49 89 55 90 57 91 54 92 50 93 51 94 52 95 53 96
REMARK H PARENT 84 17 77 49 45 60
REMARK Flexibility Score: inf
ROOT
ATOM      1  C   UNL A   1      40.653  29.417  29.778  1.00  0.00     0.202 C 
ENDROOT
BRANCH   1   2
ATOM      2  C   UNL A   1      39.427  28.919  29.007  1.00  0.00     0.261 C 
BRANCH   2   3
ATOM      3  O   UNL A   1      38.339  29.873  29.026  1.00  0.00    -0.459 OA
BRANCH   3   4
ATOM      4  C   UNL A   1      37.580  29.949  30.157  1.00  0.00     0.370 C 
ATOM      5  O   UNL A   1      37.227  28.957  30.793  1.00  0.00    -0.245 OA
BRANCH   4   6
ATOM      6  C   UNL A   1      37.094  31.403  30.506  1.00  0.00     0.327 C 
BRANCH   6   7
ATOM      7  C   UNL A   1      38.240  32.401  30.799  1.00  0.00     0.034 A 
ATOM      8  C   UNL A   1      38.776  32.654  32.093  1.00  0.00     0.017 A 
ATOM      9  C   UNL A   1      39.668  33.733  32.268  1.00  0.00     0.015 A 
ATOM     10  C   UNL A   1      40.147  34.471  31.191  1.00  0.00     0.001 A 
ATOM     11  C   UNL A   1      38.826  33.102  29.723  1.00  0.00     0.012 A 
ATOM     12  C   UNL A   1      39.772  34.111  29.912  1.00  0.00     0.001 A 
BRANCH   8  13
ATOM     13  S   UNL A   1      38.459  31.531  33.474  1.00  0.00    -0.129 SA
ATOM     14  C   UNL A   1      37.150  32.333  34.437  1.00  0.00     0.091 C 
ENDBRANCH   8  13
ENDBRANCH   6   7
BRANCH   6  15
ATOM     15  N   UNL A   1      35.960  31.883  29.653  1.00  0.00    -0.322 N 
ATOM     16  C   UNL A   1      35.566  30.985  28.579  1.00  0.00     0.333 C 
ATOM     17  H   UNL A   1      36.503  32.667  29.293  1.00  0.00     0.348 HD
BRANCH  15  18
ATOM     18  C   UNL A   1      34.830  32.656  30.176  1.00  0.00     0.267 C 
BRANCH  18  19
ATOM     19  C   UNL A   1      34.363  33.949  29.473  1.00  0.00     0.100 C 
BRANCH  19  20
ATOM     20  C   UNL A   1      33.819  34.994  30.386  1.00  0.00    -0.004 A 
ATOM     21  C   UNL A   1      32.850  35.973  30.095  1.00  0.00     0.139 A 
ATOM     22  C   UNL A   1      34.147  35.249  31.706  1.00  0.00     0.112 A 
ATOM     23  N   UNL A   1      32.697  36.859  31.076  1.00  0.00    -0.182 NA
ATOM     24  N   UNL A   1      33.488  36.395  32.050  1.00  0.00    -0.276 N 
ATOM     25  C   UNL A   1      33.660  37.198  33.234  1.00  0.00     0.173 C 
ENDBRANCH  19  20
ENDBRANCH  18  19
ENDBRANCH  15  18
ENDBRANCH   6  15
ENDBRANCH   4   6
ENDBRANCH   3   4
ENDBRANCH   2   3
ENDBRANCH   1   2
BRANCH   1  26
ATOM     26  O   UNL A   1      41.886  28.961  29.201  1.00  0.00    -0.374 OA
BRANCH  26  27
ATOM     27  C   UNL A   1      41.985  29.132  27.782  1.00  0.00     0.202 C 
BRANCH  27  28
ATOM     28  C   UNL A   1      43.389  28.814  27.250  1.00  0.00     0.261 C 
BRANCH  28  29
ATOM     29  O   UNL A   1      44.311  29.785  27.754  1.00  0.00    -0.460 OA
BRANCH  29  30
ATOM     30  C   UNL A   1      45.179  30.329  26.881  1.00  0.00     0.338 C 
ATOM     31  O   UNL A   1      45.847  29.784  26.028  1.00  0.00    -0.246 OA
BRANCH  30  32
ATOM     32  C   UNL A   1      45.071  31.782  27.093  1.00  0.00     0.060 A 
ATOM     33  C   UNL A   1      46.125  32.419  27.756  1.00  0.00     0.016 A 
ATOM     34  C   UNL A   1      43.936  32.492  26.695  1.00  0.00     0.016 A 
ATOM     35  C   UNL A   1      46.006  33.758  28.109  1.00  0.00     0.010 A 
ATOM     36  C   UNL A   1      43.837  33.849  27.016  1.00  0.00     0.010 A 
ATOM     37  C   UNL A   1      44.842  34.469  27.783  1.00  0.00    -0.014 A 
BRANCH  37  38
ATOM     38  C   UNL A   1      44.617  35.779  28.444  1.00  0.00     0.031 A 
ATOM     39  C   UNL A   1      44.244  35.789  29.905  1.00  0.00     0.074 A 
ATOM     40  C   UNL A   1      44.862  36.931  27.790  1.00  0.00     0.049 A 
ATOM     41  N   UNL A   1      44.087  36.803  30.717  1.00  0.00    -0.248 NA
ATOM     42  C   UNL A   1      44.021  34.478  30.533  1.00  0.00     0.031 C 
ATOM     43  C   UNL A   1      45.275  37.031  26.390  1.00  0.00     0.029 A 
ATOM     44  N   UNL A   1      44.825  38.232  28.223  1.00  0.00    -0.354 N 
ATOM     45  C   UNL A   1      43.749  36.251  31.950  1.00  0.00     0.074 A 
ATOM     46  C   UNL A   1      43.672  34.818  31.763  1.00  0.00     0.031 C 
ATOM     47  C   UNL A   1      45.472  38.324  26.086  1.00  0.00     0.029 A 
ATOM     48  C   UNL A   1      45.169  39.147  27.255  1.00  0.00     0.049 A 
ATOM     49  H   UNL A   1      44.574  38.487  29.141  1.00  0.00     0.167 HD
ATOM     50  C   UNL A   1      43.540  36.878  33.132  1.00  0.00     0.034 A 
ATOM     51  C   UNL A   1      45.225  40.494  27.308  1.00  0.00     0.034 A 
ATOM     52  C   UNL A   1      43.619  38.310  33.295  1.00  0.00     0.049 A 
ATOM     53  C   UNL A   1      44.919  41.177  28.618  1.00  0.00     0.074 A 
ATOM     54  C   UNL A   1      43.429  39.060  34.442  1.00  0.00     0.029 A 
ATOM     55  N   UNL A   1      43.904  39.208  32.275  1.00  0.00    -0.354 N 
ATOM     56  N   UNL A   1      44.604  40.641  29.776  1.00  0.00    -0.248 NA
ATOM     57  C   UNL A   1      44.986  42.644  28.631  1.00  0.00     0.031 C 
ATOM     58  C   UNL A   1      43.528  40.413  34.099  1.00  0.00     0.029 A 
ATOM     59  C   UNL A   1      43.859  40.508  32.757  1.00  0.00     0.049 A 
ATOM     60  H   UNL A   1      44.108  38.959  31.345  1.00  0.00     0.167 HD
ATOM     61  C   UNL A   1      44.458  41.707  30.661  1.00  0.00     0.074 A 
ATOM     62  C   UNL A   1      44.739  42.912  29.906  1.00  0.00     0.031 C 
ATOM     63  C   UNL A   1      44.125  41.695  31.977  1.00  0.00     0.034 A 
BRANCH  50  64
ATOM     64  C   UNL A   1      43.151  36.020  34.314  1.00  0.00     0.023 A 
ATOM     65  C   UNL A   1      41.806  35.738  34.621  1.00  0.00     0.031 A 
ATOM     66  C   UNL A   1      44.140  35.512  35.174  1.00  0.00     0.131 A 
ATOM     67  C   UNL A   1      41.487  35.036  35.795  1.00  0.00     0.055 A 
ATOM     68  C   UNL A   1      43.819  34.747  36.297  1.00  0.00     0.041 A 
ATOM     69  F   UNL A   1      45.438  35.767  34.949  1.00  0.00    -0.206 F 
ATOM     70  C   UNL A   1      42.486  34.518  36.623  1.00  0.00     0.022 A 
BRANCH  67  71
ATOM     71  S   UNL A   1      39.748  34.935  36.305  1.00  0.00     0.124 S 
ATOM     72  O   UNL A   1      39.572  33.495  36.473  1.00  0.00    -0.237 OA
ATOM     73  O   UNL A   1      39.733  35.728  37.529  1.00  0.00    -0.237 OA
ATOM     74  O   UNL A   1      39.025  35.517  35.176  1.00  0.00    -0.744 OA
ENDBRANCH  67  71
ENDBRANCH  50  64
BRANCH  51  75
ATOM     75  C   UNL A   1      45.553  41.284  26.084  1.00  0.00     0.023 A 
ATOM     76  C   UNL A   1      44.550  41.851  25.283  1.00  0.00     0.031 A 
ATOM     77  C   UNL A   1      46.891  41.453  25.680  1.00  0.00     0.131 A 
ATOM     78  C   UNL A   1      44.897  42.529  24.101  1.00  0.00     0.055 A 
ATOM     79  C   UNL A   1      47.233  42.171  24.534  1.00  0.00     0.041 A 
ATOM     80  F   UNL A   1      47.891  40.930  26.407  1.00  0.00    -0.206 F 
ATOM     81  C   UNL A   1      46.231  42.705  23.730  1.00  0.00     0.022 A 
BRANCH  78  82
ATOM     82  S   UNL A   1      43.571  43.117  23.010  1.00  0.00     0.124 S 
ATOM     83  O   UNL A   1      44.308  43.444  21.794  1.00  0.00    -0.237 OA
ATOM     84  O   UNL A   1      42.699  41.950  22.938  1.00  0.00    -0.237 OA
ATOM     85  O   UNL A   1      43.019  44.261  23.732  1.00  0.00    -0.744 OA
ENDBRANCH  78  82
ENDBRANCH  51  75
BRANCH  63  86
ATOM     86  C   UNL A   1      44.077  43.029  32.680  1.00  0.00     0.023 A 
ATOM     87  C   UNL A   1      45.178  43.521  33.403  1.00  0.00     0.031 A 
ATOM     88  C   UNL A   1      42.911  43.813  32.636  1.00  0.00     0.131 A 
ATOM     89  C   UNL A   1      45.070  44.732  34.101  1.00  0.00     0.055 A 
ATOM     90  C   UNL A   1      42.830  45.047  33.281  1.00  0.00     0.041 A 
ATOM     91  F   UNL A   1      41.830  43.391  31.960  1.00  0.00    -0.206 F 
ATOM     92  C   UNL A   1      43.909  45.507  34.032  1.00  0.00     0.022 A 
BRANCH  89  93
ATOM     93  S   UNL A   1      46.436  45.238  35.182  1.00  0.00     0.124 S 
ATOM     94  O   UNL A   1      47.601  44.776  34.435  1.00  0.00    -0.237 OA
ATOM     95  O   UNL A   1      46.257  46.684  35.255  1.00  0.00    -0.237 OA
ATOM     96  O   UNL A   1      46.173  44.519  36.428  1.00  0.00    -0.744 OA
ENDBRANCH  89  93
ENDBRANCH  63  86
ENDBRANCH  37  38
ENDBRANCH  30  32
ENDBRANCH  29  30
ENDBRANCH  28  29
ENDBRANCH  27  28
ENDBRANCH  26  27
ENDBRANCH   1  26
TORSDOF 23
ENDMDL
MODEL 2
REMARK VINA RESULT:      -8.2     11.609     14.682
REMARK SMILES CSc1ccccc1[C@H](C(=O)OCCOCCOC(=O)c1ccc(-c2c3nc(c(-c4cc(S(=O)(=O)[O-])ccc4F)c4ccc([nH]4)c(-c4cc(S(=O)(=O)[O-])ccc4F)c4nc(c(-c5cc(S(=O)(=O)[O-])ccc5F)c5ccc2[nH]5)C=C4)C=C3)cc1)[N@@H+](C)CCc1cnn(C)c1
REMARK SMILES IDX 14 1 13 2 12 3 10 4 11 5 9 6 8 7 3 8 4 9 5 10 7 11 6 12 2 13
REMARK SMILES IDX 1 14 84 15 85 16 86 18 87 19 88 20 89 21 93 22 90 23 91 24
REMARK SMILES IDX 92 25 15 26 16 27 17 28 18 29 19 30 20 31 21 32 22 33 83 34
REMARK SMILES IDX 23 35 82 36 24 37 25 38 26 39 76 40 27 41 81 42 75 43 77 44
REMARK SMILES IDX 28 45 80 46 74 47 73 48 29 50 61 51 41 52 60 53 42 54 45 55
REMARK SMILES IDX 59 56 78 57 43 58 44 59 58 61 79 62 46 63 30 64 31 65 39 66
REMARK SMILES IDX 32 67 38 68 40 69 37 70 33 71 34 72 35 73 36 74 62 75 63 76
REMARK SMILES IDX 71 77 64 78 70 79 72 80 69 81 65 82 66 83 67 84 68 85 47 86
REMARK SMILES IDX 48 87 56 88 49 89 55 90 57 91 54 92 50 93 51 94 52 95 53 96
REMARK H PARENT 84 17 77 49 45 60
REMARK Flexibility Score: inf
ROOT
ATOM      1  C   UNL A   1      38.887  24.478  26.722  1.00  0.00     0.202 C 
ENDROOT
BRANCH   1   2
ATOM      2  C   UNL A   1      38.170  23.324  26.015  1.00  0.00     0.261 C 
BRANCH   2   3
ATOM      3  O   UNL A   1      36.807  23.656  25.660  1.00  0.00    -0.459 OA
BRANCH   3   4
ATOM      4  C   UNL A   1      36.033  22.673  25.116  1.00  0.00     0.370 C 
ATOM      5  O   UNL A   1      36.472  21.838  24.327  1.00  0.00    -0.245 OA
BRANCH   4   6
ATOM      6  C   UNL A   1      34.510  22.776  25.489  1.00  0.00     0.327 C 
BRANCH   6   7
ATOM      7  C   UNL A   1      33.648  23.514  24.436  1.00  0.00     0.034 A 
ATOM      8  C   UNL A   1      32.418  24.171  24.722  1.00  0.00     0.017 A 
ATOM      9  C   UNL A   1      31.618  24.625  23.651  1.00  0.00     0.015 A 
ATOM     10  C   UNL A   1      32.059  24.575  22.333  1.00  0.00     0.001 A 
ATOM     11  C   UNL A   1      34.104  23.574  23.102  1.00  0.00     0.012 A 
ATOM     12  C   UNL A   1      33.330  24.105  22.069  1.00  0.00     0.001 A 
BRANCH   8  13
ATOM     13  S   UNL A   1      31.941  24.571  26.418  1.00  0.00    -0.129 SA
ATOM     14  C   UNL A   1      30.624  23.393  26.822  1.00  0.00     0.091 C 
ENDBRANCH   8  13
ENDBRANCH   6   7
BRANCH   6  15
ATOM     15  N   UNL A   1      33.947  21.523  26.088  1.00  0.00    -0.322 N 
ATOM     16  C   UNL A   1      33.863  21.511  27.540  1.00  0.00     0.333 C 
ATOM     17  H   UNL A   1      34.733  20.961  25.763  1.00  0.00     0.348 HD
BRANCH  15  18
ATOM     18  C   UNL A   1      32.879  20.741  25.461  1.00  0.00     0.267 C 
BRANCH  18  19
ATOM     19  C   UNL A   1      33.172  19.835  24.245  1.00  0.00     0.100 C 
BRANCH  19  20
ATOM     20  C   UNL A   1      33.428  18.405  24.581  1.00  0.00    -0.004 A 
ATOM     21  C   UNL A   1      34.584  17.649  24.306  1.00  0.00     0.139 A 
ATOM     22  C   UNL A   1      32.595  17.500  25.214  1.00  0.00     0.112 A 
ATOM     23  N   UNL A   1      34.438  16.357  24.591  1.00  0.00    -0.182 NA
ATOM     24  N   UNL A   1      33.226  16.290  25.151  1.00  0.00    -0.276 N 
ATOM     25  C   UNL A   1      32.689  14.991  25.469  1.00  0.00     0.173 C 
ENDBRANCH  19  20
ENDBRANCH  18  19
ENDBRANCH  15  18
ENDBRANCH   6  15
ENDBRANCH   4   6
ENDBRANCH   3   4
ENDBRANCH   2   3
ENDBRANCH   1   2
BRANCH   1  26
ATOM     26  O   UNL A   1      40.163  24.090  27.250  1.00  0.00    -0.374 OA
BRANCH  26  27
ATOM     27  C   UNL A   1      41.292  24.675  26.588  1.00  0.00     0.202 C 
BRANCH  27  28
ATOM     28  C   UNL A   1      40.969  26.048  25.984  1.00  0.00     0.261 C 
BRANCH  28  29
ATOM     29  O   UNL A   1      41.997  26.403  25.053  1.00  0.00    -0.460 OA
BRANCH  29  30
ATOM     30  C   UNL A   1      42.454  27.668  25.086  1.00  0.00     0.338 C 
ATOM     31  O   UNL A   1      41.962  28.671  24.613  1.00  0.00    -0.246 OA
BRANCH  30  32
ATOM     32  C   UNL A   1      43.655  27.616  25.937  1.00  0.00     0.060 A 
ATOM     33  C   UNL A   1      44.429  26.452  25.895  1.00  0.00     0.016 A 
ATOM     34  C   UNL A   1      43.982  28.669  26.796  1.00  0.00     0.016 A 
ATOM     35  C   UNL A   1      45.485  26.296  26.784  1.00  0.00     0.010 A 
ATOM     36  C   UNL A   1      45.070  28.525  27.662  1.00  0.00     0.010 A 
ATOM     37  C   UNL A   1      45.783  27.311  27.705  1.00  0.00    -0.014 A 
BRANCH  37  38
ATOM     38  C   UNL A   1      46.693  26.985  28.832  1.00  0.00     0.031 A 
ATOM     39  C   UNL A   1      46.089  26.464  30.111  1.00  0.00     0.074 A 
ATOM     40  C   UNL A   1      48.029  27.034  28.674  1.00  0.00     0.049 A 
ATOM     41  N   UNL A   1      46.681  26.027  31.193  1.00  0.00    -0.248 NA
ATOM     42  C   UNL A   1      44.620  26.427  30.176  1.00  0.00     0.031 C 
ATOM     43  C   UNL A   1      48.716  27.478  27.461  1.00  0.00     0.029 A 
ATOM     44  N   UNL A   1      49.045  26.685  29.526  1.00  0.00    -0.354 N 
ATOM     45  C   UNL A   1      45.656  25.665  32.064  1.00  0.00     0.074 A 
ATOM     46  C   UNL A   1      44.409  25.982  31.403  1.00  0.00     0.031 C 
ATOM     47  C   UNL A   1      50.042  27.354  27.641  1.00  0.00     0.029 A 
ATOM     48  C   UNL A   1      50.301  26.856  28.989  1.00  0.00     0.049 A 
ATOM     49  H   UNL A   1      48.891  26.345  30.437  1.00  0.00     0.167 HD
ATOM     50  C   UNL A   1      45.746  25.102  33.293  1.00  0.00     0.034 A 
ATOM     51  C   UNL A   1      51.518  26.640  29.530  1.00  0.00     0.034 A 
ATOM     52  C   UNL A   1      47.002  24.796  33.936  1.00  0.00     0.049 A 
ATOM     53  C   UNL A   1      51.596  26.079  30.928  1.00  0.00     0.074 A 
ATOM     54  C   UNL A   1      47.221  24.225  35.176  1.00  0.00     0.029 A 
ATOM     55  N   UNL A   1      48.254  25.046  33.386  1.00  0.00    -0.354 N 
ATOM     56  N   UNL A   1      50.618  25.737  31.738  1.00  0.00    -0.248 NA
ATOM     57  C   UNL A   1      52.939  25.864  31.482  1.00  0.00     0.031 C 
ATOM     58  C   UNL A   1      48.601  24.197  35.407  1.00  0.00     0.029 A 
ATOM     59  C   UNL A   1      49.249  24.675  34.279  1.00  0.00     0.049 A 
ATOM     60  H   UNL A   1      48.411  25.431  32.495  1.00  0.00     0.167 HD
ATOM     61  C   UNL A   1      51.231  25.246  32.888  1.00  0.00     0.074 A 
ATOM     62  C   UNL A   1      52.661  25.317  32.657  1.00  0.00     0.031 C 
ATOM     63  C   UNL A   1      50.669  24.775  34.031  1.00  0.00     0.034 A 
BRANCH  50  64
ATOM     64  C   UNL A   1      44.455  24.841  34.034  1.00  0.00     0.023 A 
ATOM     65  C   UNL A   1      43.749  25.869  34.688  1.00  0.00     0.031 A 
ATOM     66  C   UNL A   1      43.943  23.535  34.125  1.00  0.00     0.131 A 
ATOM     67  C   UNL A   1      42.619  25.561  35.462  1.00  0.00     0.055 A 
ATOM     68  C   UNL A   1      42.774  23.247  34.831  1.00  0.00     0.041 A 
ATOM     69  F   UNL A   1      44.584  22.509  33.543  1.00  0.00    -0.206 F 
ATOM     70  C   UNL A   1      42.113  24.260  35.518  1.00  0.00     0.022 A 
BRANCH  67  71
ATOM     71  S   UNL A   1      41.903  26.855  36.514  1.00  0.00     0.124 S 
ATOM     72  O   UNL A   1      43.061  27.272  37.301  1.00  0.00    -0.237 OA
ATOM     73  O   UNL A   1      41.413  27.820  35.536  1.00  0.00    -0.237 OA
ATOM     74  O   UNL A   1      40.867  26.151  37.267  1.00  0.00    -0.744 OA
ENDBRANCH  67  71
ENDBRANCH  50  64
BRANCH  51  75
ATOM     75  C   UNL A   1      52.755  26.981  28.767  1.00  0.00     0.023 A 
ATOM     76  C   UNL A   1      53.516  28.121  29.069  1.00  0.00     0.031 A 
ATOM     77  C   UNL A   1      53.173  26.179  27.688  1.00  0.00     0.131 A 
ATOM     78  C   UNL A   1      54.635  28.445  28.282  1.00  0.00     0.055 A 
ATOM     79  C   UNL A   1      54.314  26.476  26.942  1.00  0.00     0.041 A 
ATOM     80  F   UNL A   1      52.481  25.078  27.353  1.00  0.00    -0.206 F 
ATOM     81  C   UNL A   1      55.046  27.622  27.231  1.00  0.00     0.022 A 
BRANCH  78  82
ATOM     82  S   UNL A   1      55.508  30.003  28.603  1.00  0.00     0.124 S 
ATOM     83  O   UNL A   1      54.737  30.948  27.803  1.00  0.00    -0.237 OA
ATOM     84  O   UNL A   1      55.376  30.130  30.051  1.00  0.00    -0.237 OA
ATOM     85  O   UNL A   1      56.863  29.739  28.124  1.00  0.00    -0.744 OA
ENDBRANCH  78  82
ENDBRANCH  51  75
BRANCH  63  86
ATOM     86  C   UNL A   1      51.610  24.278  35.100  1.00  0.00     0.023 A 
ATOM     87  C   UNL A   1      52.090  25.125  36.113  1.00  0.00     0.031 A 
ATOM     88  C   UNL A   1      52.041  22.939  35.098  1.00  0.00     0.131 A 
ATOM     89  C   UNL A   1      53.019  24.643  37.046  1.00  0.00     0.055 A 
ATOM     90  C   UNL A   1      52.917  22.447  36.066  1.00  0.00     0.041 A 
ATOM     91  F   UNL A   1      51.613  22.086  34.153  1.00  0.00    -0.206 F 
ATOM     92  C   UNL A   1      53.423  23.305  37.039  1.00  0.00     0.022 A 
BRANCH  89  93
ATOM     93  S   UNL A   1      53.767  25.812  38.214  1.00  0.00     0.124 S 
ATOM     94  O   UNL A   1      55.192  25.590  37.992  1.00  0.00    -0.237 OA
ATOM     95  O   UNL A   1      53.242  27.093  37.753  1.00  0.00    -0.237 OA
ATOM     96  O   UNL A   1      53.266  25.368  39.513  1.00  0.00    -0.744 OA
ENDBRANCH  89  93
ENDBRANCH  63  86
ENDBRANCH  37  38
ENDBRANCH  30  32
ENDBRANCH  29  30
ENDBRANCH  28  29
ENDBRANCH  27  28
ENDBRANCH  26  27
ENDBRANCH   1  26
TORSDOF 23
ENDMDL
MODEL 3
REMARK VINA RESULT:      -7.4      6.869     11.559
REMARK SMILES CSc1ccccc1[C@H](C(=O)OCCOCCOC(=O)c1ccc(-c2c3nc(c(-c4cc(S(=O)(=O)[O-])ccc4F)c4ccc([nH]4)c(-c4cc(S(=O)(=O)[O-])ccc4F)c4nc(c(-c5cc(S(=O)(=O)[O-])ccc5F)c5ccc2[nH]5)C=C4)C=C3)cc1)[N@@H+](C)CCc1cnn(C)c1
REMARK SMILES IDX 14 1 13 2 12 3 10 4 11 5 9 6 8 7 3 8 4 9 5 10 7 11 6 12 2 13
REMARK SMILES IDX 1 14 84 15 85 16 86 18 87 19 88 20 89 21 93 22 90 23 91 24
REMARK SMILES IDX 92 25 15 26 16 27 17 28 18 29 19 30 20 31 21 32 22 33 83 34
REMARK SMILES IDX 23 35 82 36 24 37 25 38 26 39 76 40 27 41 81 42 75 43 77 44
REMARK SMILES IDX 28 45 80 46 74 47 73 48 29 50 61 51 41 52 60 53 42 54 45 55
REMARK SMILES IDX 59 56 78 57 43 58 44 59 58 61 79 62 46 63 30 64 31 65 39 66
REMARK SMILES IDX 32 67 38 68 40 69 37 70 33 71 34 72 35 73 36 74 62 75 63 76
REMARK SMILES IDX 71 77 64 78 70 79 72 80 69 81 65 82 66 83 67 84 68 85 47 86
REMARK SMILES IDX 48 87 56 88 49 89 55 90 57 91 54 92 50 93 51 94 52 95 53 96
REMARK H PARENT 84 17 77 49 45 60
REMARK Flexibility Score: inf
ROOT
ATOM      1  C   UNL A   1      49.581  27.264  24.772  1.00  0.00     0.202 C 
ENDROOT
BRANCH   1   2
ATOM      2  C   UNL A   1      48.399  27.980  25.433  1.00  0.00     0.261 C 
BRANCH   2   3
ATOM      3  O   UNL A   1      47.309  27.079  25.738  1.00  0.00    -0.459 OA
BRANCH   3   4
ATOM      4  C   UNL A   1      46.137  27.247  25.061  1.00  0.00     0.370 C 
ATOM      5  O   UNL A   1      46.066  27.836  23.983  1.00  0.00    -0.245 OA
BRANCH   4   6
ATOM      6  C   UNL A   1      44.870  26.731  25.836  1.00  0.00     0.327 C 
BRANCH   6   7
ATOM      7  C   UNL A   1      44.669  25.197  25.771  1.00  0.00     0.034 A 
ATOM      8  C   UNL A   1      45.548  24.245  26.359  1.00  0.00     0.017 A 
ATOM      9  C   UNL A   1      45.380  22.877  26.057  1.00  0.00     0.015 A 
ATOM     10  C   UNL A   1      44.299  22.417  25.313  1.00  0.00     0.001 A 
ATOM     11  C   UNL A   1      43.532  24.686  25.110  1.00  0.00     0.012 A 
ATOM     12  C   UNL A   1      43.341  23.319  24.894  1.00  0.00     0.001 A 
BRANCH   8  13
ATOM     13  S   UNL A   1      46.767  24.737  27.600  1.00  0.00    -0.129 SA
ATOM     14  C   UNL A   1      45.957  24.439  29.194  1.00  0.00     0.091 C 
ENDBRANCH   8  13
ENDBRANCH   6   7
BRANCH   6  15
ATOM     15  N   UNL A   1      44.654  27.401  27.158  1.00  0.00    -0.322 N 
ATOM     16  C   UNL A   1      44.326  28.816  27.092  1.00  0.00     0.333 C 
ATOM     17  H   UNL A   1      45.625  27.264  27.437  1.00  0.00     0.348 HD
BRANCH  15  18
ATOM     18  C   UNL A   1      44.029  26.736  28.304  1.00  0.00     0.267 C 
BRANCH  18  19
ATOM     19  C   UNL A   1      42.523  26.916  28.597  1.00  0.00     0.100 C 
BRANCH  19  20
ATOM     20  C   UNL A   1      41.623  26.039  27.795  1.00  0.00    -0.004 A 
ATOM     21  C   UNL A   1      40.886  26.382  26.645  1.00  0.00     0.139 A 
ATOM     22  C   UNL A   1      41.296  24.711  28.002  1.00  0.00     0.112 A 
ATOM     23  N   UNL A   1      40.054  25.419  26.257  1.00  0.00    -0.182 NA
ATOM     24  N   UNL A   1      40.325  24.408  27.089  1.00  0.00    -0.276 N 
ATOM     25  C   UNL A   1      39.500  23.228  27.028  1.00  0.00     0.173 C 
ENDBRANCH  19  20
ENDBRANCH  18  19
ENDBRANCH  15  18
ENDBRANCH   6  15
ENDBRANCH   4   6
ENDBRANCH   3   4
ENDBRANCH   2   3
ENDBRANCH   1   2
BRANCH   1  26
ATOM     26  O   UNL A   1      50.819  27.499  25.459  1.00  0.00    -0.374 OA
BRANCH  26  27
ATOM     27  C   UNL A   1      51.867  26.574  25.143  1.00  0.00     0.202 C 
BRANCH  27  28
ATOM     28  C   UNL A   1      53.126  26.803  25.991  1.00  0.00     0.261 C 
BRANCH  28  29
ATOM     29  O   UNL A   1      52.812  27.700  27.061  1.00  0.00    -0.460 OA
BRANCH  29  30
ATOM     30  C   UNL A   1      53.112  27.305  28.312  1.00  0.00     0.338 C 
ATOM     31  O   UNL A   1      54.194  27.024  28.784  1.00  0.00    -0.246 OA
BRANCH  30  32
ATOM     32  C   UNL A   1      51.844  27.392  29.054  1.00  0.00     0.060 A 
ATOM     33  C   UNL A   1      50.816  26.517  28.685  1.00  0.00     0.016 A 
ATOM     34  C   UNL A   1      51.653  28.347  30.055  1.00  0.00     0.016 A 
ATOM     35  C   UNL A   1      49.556  26.659  29.253  1.00  0.00     0.010 A 
ATOM     36  C   UNL A   1      50.394  28.460  30.654  1.00  0.00     0.010 A 
ATOM     37  C   UNL A   1      49.324  27.661  30.207  1.00  0.00    -0.014 A 
BRANCH  37  38
ATOM     38  C   UNL A   1      47.917  27.985  30.549  1.00  0.00     0.031 A 
ATOM     39  C   UNL A   1      47.191  27.087  31.518  1.00  0.00     0.074 A 
ATOM     40  C   UNL A   1      47.345  29.121  30.106  1.00  0.00     0.049 A 
ATOM     41  N   UNL A   1      45.997  27.215  32.038  1.00  0.00    -0.248 NA
ATOM     42  C   UNL A   1      47.911  25.883  31.962  1.00  0.00     0.031 C 
ATOM     43  C   UNL A   1      47.978  30.083  29.204  1.00  0.00     0.029 A 
ATOM     44  N   UNL A   1      46.116  29.668  30.372  1.00  0.00    -0.354 N 
ATOM     45  C   UNL A   1      45.825  26.111  32.869  1.00  0.00     0.074 A 
ATOM     46  C   UNL A   1      47.016  25.299  32.741  1.00  0.00     0.031 C 
ATOM     47  C   UNL A   1      47.138  31.114  29.009  1.00  0.00     0.029 A 
ATOM     48  C   UNL A   1      45.898  30.872  29.742  1.00  0.00     0.049 A 
ATOM     49  H   UNL A   1      45.451  29.239  30.959  1.00  0.00     0.167 HD
ATOM     50  C   UNL A   1      44.780  25.811  33.677  1.00  0.00     0.034 A 
ATOM     51  C   UNL A   1      44.817  31.679  29.752  1.00  0.00     0.034 A 
ATOM     52  C   UNL A   1      43.600  26.634  33.786  1.00  0.00     0.049 A 
ATOM     53  C   UNL A   1      43.635  31.289  30.605  1.00  0.00     0.074 A 
ATOM     54  C   UNL A   1      42.478  26.436  34.571  1.00  0.00     0.029 A 
ATOM     55  N   UNL A   1      43.388  27.812  33.080  1.00  0.00    -0.354 N 
ATOM     56  N   UNL A   1      43.489  30.244  31.388  1.00  0.00    -0.248 NA
ATOM     57  C   UNL A   1      42.477  32.192  30.583  1.00  0.00     0.031 C 
ATOM     58  C   UNL A   1      41.560  27.452  34.285  1.00  0.00     0.029 A 
ATOM     59  C   UNL A   1      42.138  28.331  33.382  1.00  0.00     0.049 A 
ATOM     60  H   UNL A   1      44.031  28.218  32.455  1.00  0.00     0.167 HD
ATOM     61  C   UNL A   1      42.230  30.378  31.970  1.00  0.00     0.074 A 
ATOM     62  C   UNL A   1      41.670  31.614  31.462  1.00  0.00     0.031 C 
ATOM     63  C   UNL A   1      41.594  29.558  32.846  1.00  0.00     0.034 A 
BRANCH  50  64
ATOM     64  C   UNL A   1      44.852  24.515  34.452  1.00  0.00     0.023 A 
ATOM     65  C   UNL A   1      45.432  24.442  35.733  1.00  0.00     0.031 A 
ATOM     66  C   UNL A   1      44.372  23.323  33.881  1.00  0.00     0.131 A 
ATOM     67  C   UNL A   1      45.582  23.197  36.365  1.00  0.00     0.055 A 
ATOM     68  C   UNL A   1      44.453  22.100  34.548  1.00  0.00     0.041 A 
ATOM     69  F   UNL A   1      43.831  23.324  32.653  1.00  0.00    -0.206 F 
ATOM     70  C   UNL A   1      45.075  22.028  35.791  1.00  0.00     0.022 A 
BRANCH  67  71
ATOM     71  S   UNL A   1      46.580  23.102  37.878  1.00  0.00     0.124 S 
ATOM     72  O   UNL A   1      46.818  24.515  38.164  1.00  0.00    -0.237 OA
ATOM     73  O   UNL A   1      45.689  22.404  38.798  1.00  0.00    -0.237 OA
ATOM     74  O   UNL A   1      47.762  22.350  37.463  1.00  0.00    -0.744 OA
ENDBRANCH  67  71
ENDBRANCH  50  64
BRANCH  51  75
ATOM     75  C   UNL A   1      44.788  32.912  28.911  1.00  0.00     0.023 A 
ATOM     76  C   UNL A   1      44.435  32.869  27.553  1.00  0.00     0.031 A 
ATOM     77  C   UNL A   1      45.152  34.157  29.456  1.00  0.00     0.131 A 
ATOM     78  C   UNL A   1      44.487  34.041  26.779  1.00  0.00     0.055 A 
ATOM     79  C   UNL A   1      45.153  35.328  28.696  1.00  0.00     0.041 A 
ATOM     80  F   UNL A   1      45.502  34.256  30.749  1.00  0.00    -0.206 F 
ATOM     81  C   UNL A   1      44.829  35.271  27.345  1.00  0.00     0.022 A 
BRANCH  78  82
ATOM     82  S   UNL A   1      44.172  33.925  24.995  1.00  0.00     0.124 S 
ATOM     83  O   UNL A   1      42.936  34.687  24.859  1.00  0.00    -0.237 OA
ATOM     84  O   UNL A   1      45.371  34.540  24.436  1.00  0.00    -0.237 OA
ATOM     85  O   UNL A   1      44.048  32.487  24.765  1.00  0.00    -0.744 OA
ENDBRANCH  78  82
ENDBRANCH  51  75
BRANCH  63  86
ATOM     86  C   UNL A   1      40.233  29.997  33.325  1.00  0.00     0.023 A 
ATOM     87  C   UNL A   1      40.068  30.710  34.525  1.00  0.00     0.031 A 
ATOM     88  C   UNL A   1      39.083  29.688  32.576  1.00  0.00     0.131 A 
ATOM     89  C   UNL A   1      38.780  31.038  34.971  1.00  0.00     0.055 A 
ATOM     90  C   UNL A   1      37.809  30.072  32.993  1.00  0.00     0.041 A 
ATOM     91  F   UNL A   1      39.183  29.009  31.421  1.00  0.00    -0.206 F 
ATOM     92  C   UNL A   1      37.650  30.738  34.205  1.00  0.00     0.022 A 
BRANCH  89  93
ATOM     93  S   UNL A   1      38.591  31.780  36.616  1.00  0.00     0.124 S 
ATOM     94  O   UNL A   1      37.733  30.811  37.288  1.00  0.00    -0.237 OA
ATOM     95  O   UNL A   1      39.970  31.847  37.088  1.00  0.00    -0.237 OA
ATOM     96  O   UNL A   1      37.968  33.073  36.340  1.00  0.00    -0.744 OA
ENDBRANCH  89  93
ENDBRANCH  63  86
ENDBRANCH  37  38
ENDBRANCH  30  32
ENDBRANCH  29  30
ENDBRANCH  28  29
ENDBRANCH  27  28
ENDBRANCH  26  27
ENDBRANCH   1  26
TORSDOF 23
ENDMDL
