MODEL 1
REMARK VINA RESULT:     -10.3      0.000      0.000
REMARK SMILES [H]/N=c1\ccc2c(C)c(CC(=O)OCCOCCOC(=O)c3ccc(-c4c5nc(c(-c6cc(S(=O)(=O)[O-])ccc6F)c6ccc([nH]6)c(-c6cc(S(=O)(=O)[O-])ccc6F)c6nc(c(-c7cc(S(=O)(=O)[O-])ccc7F)c7ccc4[nH]7)C=C6)C=C5)cc3)c(O)oc-2c1
REMARK SMILES IDX 17 1 16 2 15 3 14 4 13 5 11 6 12 7 10 8 9 9 8 10 7 11 6 12
REMARK SMILES IDX 5 13 88 14 85 15 4 16 89 17 87 18 3 19 2 20 1 21 86 22 18 24
REMARK SMILES IDX 19 25 20 26 21 27 22 28 23 29 84 30 24 31 83 32 25 33 26 34
REMARK SMILES IDX 27 35 77 36 28 37 82 38 76 39 78 40 29 41 81 42 75 43 74 44
REMARK SMILES IDX 30 46 62 47 42 48 61 49 43 50 46 51 60 52 79 53 44 54 45 55
REMARK SMILES IDX 59 57 80 58 47 59 31 60 32 61 40 62 33 63 39 64 41 65 38 66
REMARK SMILES IDX 34 67 35 68 36 69 37 70 63 71 64 72 72 73 65 74 71 75 73 76
REMARK SMILES IDX 70 77 66 78 67 79 68 80 69 81 48 82 49 83 57 84 50 85 56 86
REMARK SMILES IDX 58 87 55 88 51 89 52 90 53 91 54 92
REMARK H PARENT 86 23 78 45 46 56
REMARK Flexibility Score: inf
ROOT
ATOM      1  C   UNL A   1      41.894  19.142  26.126  1.00  0.00     0.202 C 
ENDROOT
BRANCH   1   2
ATOM      2  O   UNL A   1      42.743  19.432  25.023  1.00  0.00    -0.374 OA
BRANCH   2   3
ATOM      3  C   UNL A   1      44.054  18.871  25.053  1.00  0.00     0.202 C 
BRANCH   3   4
ATOM      4  C   UNL A   1      45.145  19.553  24.214  1.00  0.00     0.261 C 
BRANCH   4   5
ATOM      5  O   UNL A   1      45.780  20.678  24.867  1.00  0.00    -0.463 OA
BRANCH   5   6
ATOM      6  C   UNL A   1      45.303  21.906  24.524  1.00  0.00     0.310 C 
ATOM      7  O   UNL A   1      44.443  22.102  23.670  1.00  0.00    -0.252 OA
BRANCH   6   8
ATOM      8  C   UNL A   1      45.964  23.078  25.251  1.00  0.00     0.166 C 
BRANCH   8   9
ATOM      9  C   UNL A   1      45.557  23.392  26.681  1.00  0.00     0.048 A 
ATOM     10  C   UNL A   1      47.815  24.558  27.038  1.00  0.00     0.046 C 
ATOM     11  C   UNL A   1      46.423  24.242  27.542  1.00  0.00    -0.029 A 
ATOM     12  C   UNL A   1      45.965  24.630  28.765  1.00  0.00     0.021 A 
ATOM     13  C   UNL A   1      46.656  25.603  29.615  1.00  0.00     0.014 A 
ATOM     14  C   UNL A   1      44.741  24.020  29.298  1.00  0.00     0.140 A 
ATOM     15  C   UNL A   1      44.455  22.834  27.233  1.00  0.00     0.286 A 
ATOM     16  C   UNL A   1      46.197  25.933  30.832  1.00  0.00     0.028 A 
ATOM     17  C   UNL A   1      44.297  24.292  30.531  1.00  0.00     0.075 A 
ATOM     18  O   UNL A   1      44.086  23.066  28.542  1.00  0.00    -0.425 OA
ATOM     19  C   UNL A   1      44.994  25.270  31.392  1.00  0.00     0.058 A 
ATOM     20  N   UNL A   1      44.551  25.515  32.581  1.00  0.00    -0.301 NA
ATOM     21  H   UNL A   1      45.015  26.166  33.155  1.00  0.00     0.188 HD
BRANCH  15  22
ATOM     22  O   UNL A   1      43.629  21.972  26.543  1.00  0.00    -0.480 OA
ATOM     23  H   UNL A   1      43.768  21.047  26.597  1.00  0.00     0.297 HD
ENDBRANCH  15  22
ENDBRANCH   8   9
ENDBRANCH   6   8
ENDBRANCH   5   6
ENDBRANCH   4   5
ENDBRANCH   3   4
ENDBRANCH   2   3
ENDBRANCH   1   2
BRANCH   1  24
ATOM     24  C   UNL A   1      40.454  19.666  26.084  1.00  0.00     0.261 C 
BRANCH  24  25
ATOM     25  O   UNL A   1      40.263  20.826  26.904  1.00  0.00    -0.460 OA
BRANCH  25  26
ATOM     26  C   UNL A   1      39.423  21.749  26.375  1.00  0.00     0.338 C 
ATOM     27  O   UNL A   1      38.414  21.531  25.719  1.00  0.00    -0.246 OA
BRANCH  26  28
ATOM     28  C   UNL A   1      39.778  23.086  26.885  1.00  0.00     0.060 A 
ATOM     29  C   UNL A   1      40.578  23.256  28.016  1.00  0.00     0.016 A 
ATOM     30  C   UNL A   1      39.291  24.193  26.179  1.00  0.00     0.016 A 
ATOM     31  C   UNL A   1      40.920  24.552  28.417  1.00  0.00     0.010 A 
ATOM     32  C   UNL A   1      39.635  25.481  26.581  1.00  0.00     0.010 A 
ATOM     33  C   UNL A   1      40.470  25.669  27.690  1.00  0.00    -0.014 A 
BRANCH  33  34
ATOM     34  C   UNL A   1      40.978  27.029  27.998  1.00  0.00     0.031 A 
ATOM     35  C   UNL A   1      40.087  28.076  28.595  1.00  0.00     0.074 A 
ATOM     36  C   UNL A   1      42.253  27.318  27.675  1.00  0.00     0.049 A 
ATOM     37  N   UNL A   1      40.382  29.304  28.935  1.00  0.00    -0.248 NA
ATOM     38  C   UNL A   1      38.684  27.705  28.834  1.00  0.00     0.031 C 
ATOM     39  C   UNL A   1      43.185  26.376  27.051  1.00  0.00     0.029 A 
ATOM     40  N   UNL A   1      42.990  28.466  27.822  1.00  0.00    -0.354 N 
ATOM     41  C   UNL A   1      39.210  29.850  29.446  1.00  0.00     0.074 A 
ATOM     42  C   UNL A   1      38.185  28.837  29.317  1.00  0.00     0.031 C 
ATOM     43  C   UNL A   1      44.377  26.972  26.904  1.00  0.00     0.029 A 
ATOM     44  C   UNL A   1      44.287  28.350  27.378  1.00  0.00     0.049 A 
ATOM     45  H   UNL A   1      42.625  29.295  28.210  1.00  0.00     0.167 HD
ATOM     46  C   UNL A   1      39.024  31.076  29.992  1.00  0.00     0.034 A 
ATOM     47  C   UNL A   1      45.292  29.250  27.358  1.00  0.00     0.034 A 
ATOM     48  C   UNL A   1      40.065  32.069  30.095  1.00  0.00     0.049 A 
ATOM     49  C   UNL A   1      45.046  30.619  27.940  1.00  0.00     0.074 A 
ATOM     50  C   UNL A   1      39.987  33.331  30.659  1.00  0.00     0.029 A 
ATOM     51  N   UNL A   1      41.365  31.923  29.631  1.00  0.00    -0.354 N 
ATOM     52  N   UNL A   1      43.957  31.091  28.503  1.00  0.00    -0.248 NA
ATOM     53  C   UNL A   1      46.159  31.575  27.900  1.00  0.00     0.031 C 
ATOM     54  C   UNL A   1      41.208  33.973  30.467  1.00  0.00     0.029 A 
ATOM     55  C   UNL A   1      42.087  33.082  29.870  1.00  0.00     0.049 A 
ATOM     56  H   UNL A   1      41.722  31.116  29.196  1.00  0.00     0.167 HD
ATOM     57  C   UNL A   1      44.270  32.381  28.920  1.00  0.00     0.074 A 
ATOM     58  C   UNL A   1      45.654  32.607  28.563  1.00  0.00     0.031 C 
ATOM     59  C   UNL A   1      43.478  33.293  29.540  1.00  0.00     0.034 A 
BRANCH  46  60
ATOM     60  C   UNL A   1      37.668  31.428  30.559  1.00  0.00     0.023 A 
ATOM     61  C   UNL A   1      36.726  32.113  29.769  1.00  0.00     0.031 A 
ATOM     62  C   UNL A   1      37.380  31.240  31.923  1.00  0.00     0.131 A 
ATOM     63  C   UNL A   1      35.567  32.632  30.361  1.00  0.00     0.055 A 
ATOM     64  C   UNL A   1      36.199  31.716  32.496  1.00  0.00     0.041 A 
ATOM     65  F   UNL A   1      38.246  30.597  32.722  1.00  0.00    -0.206 F 
ATOM     66  C   UNL A   1      35.296  32.431  31.718  1.00  0.00     0.022 A 
BRANCH  63  67
ATOM     67  S   UNL A   1      34.410  33.661  29.415  1.00  0.00     0.124 S 
ATOM     68  O   UNL A   1      33.563  34.209  30.473  1.00  0.00    -0.237 OA
ATOM     69  O   UNL A   1      35.306  34.619  28.775  1.00  0.00    -0.237 OA
ATOM     70  O   UNL A   1      33.750  32.715  28.521  1.00  0.00    -0.744 OA
ENDBRANCH  63  67
ENDBRANCH  46  60
BRANCH  47  71
ATOM     71  C   UNL A   1      46.633  28.838  26.844  1.00  0.00     0.023 A 
ATOM     72  C   UNL A   1      46.847  28.596  25.474  1.00  0.00     0.031 A 
ATOM     73  C   UNL A   1      47.693  28.580  27.731  1.00  0.00     0.131 A 
ATOM     74  C   UNL A   1      48.064  28.050  25.044  1.00  0.00     0.055 A 
ATOM     75  C   UNL A   1      48.930  28.111  27.287  1.00  0.00     0.041 A 
ATOM     76  F   UNL A   1      47.533  28.777  29.049  1.00  0.00    -0.206 F 
ATOM     77  C   UNL A   1      49.115  27.827  25.938  1.00  0.00     0.022 A 
BRANCH  74  78
ATOM     78  S   UNL A   1      48.277  27.488  23.331  1.00  0.00     0.124 S 
ATOM     79  O   UNL A   1      48.135  26.042  23.465  1.00  0.00    -0.237 OA
ATOM     80  O   UNL A   1      47.176  28.170  22.655  1.00  0.00    -0.237 OA
ATOM     81  O   UNL A   1      49.610  27.961  22.976  1.00  0.00    -0.744 OA
ENDBRANCH  74  78
ENDBRANCH  47  71
BRANCH  59  82
ATOM     82  C   UNL A   1      44.068  34.634  29.917  1.00  0.00     0.023 A 
ATOM     83  C   UNL A   1      44.085  35.678  28.971  1.00  0.00     0.031 A 
ATOM     84  C   UNL A   1      44.761  34.823  31.125  1.00  0.00     0.131 A 
ATOM     85  C   UNL A   1      44.825  36.838  29.223  1.00  0.00     0.055 A 
ATOM     86  C   UNL A   1      45.445  36.008  31.398  1.00  0.00     0.041 A 
ATOM     87  F   UNL A   1      44.790  33.854  32.054  1.00  0.00    -0.206 F 
ATOM     88  C   UNL A   1      45.497  37.014  30.437  1.00  0.00     0.022 A 
BRANCH  85  89
ATOM     89  S   UNL A   1      45.043  38.107  27.945  1.00  0.00     0.124 S 
ATOM     90  O   UNL A   1      45.775  37.374  26.913  1.00  0.00    -0.237 OA
ATOM     91  O   UNL A   1      43.663  38.444  27.609  1.00  0.00    -0.237 OA
ATOM     92  O   UNL A   1      45.802  39.157  28.616  1.00  0.00    -0.744 OA
ENDBRANCH  85  89
ENDBRANCH  59  82
ENDBRANCH  33  34
ENDBRANCH  26  28
ENDBRANCH  25  26
ENDBRANCH  24  25
ENDBRANCH   1  24
TORSDOF 19
ENDMDL
MODEL 2
REMARK VINA RESULT:     -10.0      3.834     10.226
REMARK SMILES [H]/N=c1\ccc2c(C)c(CC(=O)OCCOCCOC(=O)c3ccc(-c4c5nc(c(-c6cc(S(=O)(=O)[O-])ccc6F)c6ccc([nH]6)c(-c6cc(S(=O)(=O)[O-])ccc6F)c6nc(c(-c7cc(S(=O)(=O)[O-])ccc7F)c7ccc4[nH]7)C=C6)C=C5)cc3)c(O)oc-2c1
REMARK SMILES IDX 17 1 16 2 15 3 14 4 13 5 11 6 12 7 10 8 9 9 8 10 7 11 6 12
REMARK SMILES IDX 5 13 88 14 85 15 4 16 89 17 87 18 3 19 2 20 1 21 86 22 18 24
REMARK SMILES IDX 19 25 20 26 21 27 22 28 23 29 84 30 24 31 83 32 25 33 26 34
REMARK SMILES IDX 27 35 77 36 28 37 82 38 76 39 78 40 29 41 81 42 75 43 74 44
REMARK SMILES IDX 30 46 62 47 42 48 61 49 43 50 46 51 60 52 79 53 44 54 45 55
REMARK SMILES IDX 59 57 80 58 47 59 31 60 32 61 40 62 33 63 39 64 41 65 38 66
REMARK SMILES IDX 34 67 35 68 36 69 37 70 63 71 64 72 72 73 65 74 71 75 73 76
REMARK SMILES IDX 70 77 66 78 67 79 68 80 69 81 48 82 49 83 57 84 50 85 56 86
REMARK SMILES IDX 58 87 55 88 51 89 52 90 53 91 54 92
REMARK H PARENT 86 23 78 45 46 56
REMARK Flexibility Score: inf
ROOT
ATOM      1  C   UNL A   1      36.137  20.672  25.287  1.00  0.00     0.202 C 
ENDROOT
BRANCH   1   2
ATOM      2  O   UNL A   1      35.419  21.899  25.294  1.00  0.00    -0.374 OA
BRANCH   2   3
ATOM      3  C   UNL A   1      34.564  22.153  24.180  1.00  0.00     0.202 C 
BRANCH   3   4
ATOM      4  C   UNL A   1      33.047  22.081  24.409  1.00  0.00     0.261 C 
BRANCH   4   5
ATOM      5  O   UNL A   1      32.665  21.812  25.779  1.00  0.00    -0.463 OA
BRANCH   5   6
ATOM      6  C   UNL A   1      31.575  22.490  26.232  1.00  0.00     0.310 C 
ATOM      7  O   UNL A   1      30.426  22.059  26.195  1.00  0.00    -0.252 OA
BRANCH   6   8
ATOM      8  C   UNL A   1      31.866  23.896  26.756  1.00  0.00     0.166 C 
BRANCH   8   9
ATOM      9  C   UNL A   1      31.528  25.098  25.889  1.00  0.00     0.048 A 
ATOM     10  C   UNL A   1      34.036  25.574  25.619  1.00  0.00     0.046 C 
ATOM     11  C   UNL A   1      32.607  25.868  25.212  1.00  0.00    -0.029 A 
ATOM     12  C   UNL A   1      32.269  26.845  24.326  1.00  0.00     0.021 A 
ATOM     13  C   UNL A   1      33.241  27.540  23.478  1.00  0.00     0.014 A 
ATOM     14  C   UNL A   1      30.867  27.271  24.232  1.00  0.00     0.140 A 
ATOM     15  C   UNL A   1      30.258  25.553  25.789  1.00  0.00     0.286 A 
ATOM     16  C   UNL A   1      32.877  28.525  22.644  1.00  0.00     0.028 A 
ATOM     17  C   UNL A   1      30.492  28.290  23.448  1.00  0.00     0.075 A 
ATOM     18  O   UNL A   1      29.929  26.668  25.047  1.00  0.00    -0.425 OA
ATOM     19  C   UNL A   1      31.471  28.995  22.595  1.00  0.00     0.058 A 
ATOM     20  N   UNL A   1      31.089  29.978  21.850  1.00  0.00    -0.301 NA
ATOM     21  H   UNL A   1      31.740  30.448  21.282  1.00  0.00     0.188 HD
BRANCH  15  22
ATOM     22  O   UNL A   1      29.198  24.957  26.440  1.00  0.00    -0.480 OA
ATOM     23  H   UNL A   1      28.799  25.384  27.172  1.00  0.00     0.297 HD
ENDBRANCH  15  22
ENDBRANCH   8   9
ENDBRANCH   6   8
ENDBRANCH   5   6
ENDBRANCH   4   5
ENDBRANCH   3   4
ENDBRANCH   2   3
ENDBRANCH   1   2
BRANCH   1  24
ATOM     24  C   UNL A   1      37.637  20.718  24.976  1.00  0.00     0.261 C 
BRANCH  24  25
ATOM     25  O   UNL A   1      38.268  21.910  25.462  1.00  0.00    -0.460 OA
BRANCH  25  26
ATOM     26  C   UNL A   1      39.369  21.687  26.220  1.00  0.00     0.338 C 
ATOM     27  O   UNL A   1      40.015  20.651  26.289  1.00  0.00    -0.246 OA
BRANCH  26  28
ATOM     28  C   UNL A   1      39.825  22.960  26.810  1.00  0.00     0.060 A 
ATOM     29  C   UNL A   1      40.819  23.006  27.789  1.00  0.00     0.016 A 
ATOM     30  C   UNL A   1      39.230  24.137  26.339  1.00  0.00     0.016 A 
ATOM     31  C   UNL A   1      41.241  24.249  28.270  1.00  0.00     0.010 A 
ATOM     32  C   UNL A   1      39.654  25.372  26.819  1.00  0.00     0.010 A 
ATOM     33  C   UNL A   1      40.678  25.439  27.773  1.00  0.00    -0.014 A 
BRANCH  33  34
ATOM     34  C   UNL A   1      41.248  26.759  28.139  1.00  0.00     0.031 A 
ATOM     35  C   UNL A   1      42.682  27.093  27.859  1.00  0.00     0.074 A 
ATOM     36  C   UNL A   1      40.454  27.637  28.782  1.00  0.00     0.049 A 
ATOM     37  N   UNL A   1      43.326  28.204  28.104  1.00  0.00    -0.248 NA
ATOM     38  C   UNL A   1      43.504  26.046  27.234  1.00  0.00     0.031 C 
ATOM     39  C   UNL A   1      39.055  27.385  29.136  1.00  0.00     0.029 A 
ATOM     40  N   UNL A   1      40.692  28.904  29.250  1.00  0.00    -0.354 N 
ATOM     41  C   UNL A   1      44.623  28.001  27.647  1.00  0.00     0.074 A 
ATOM     42  C   UNL A   1      44.689  26.640  27.163  1.00  0.00     0.031 C 
ATOM     43  C   UNL A   1      38.551  28.476  29.730  1.00  0.00     0.029 A 
ATOM     44  C   UNL A   1      39.596  29.489  29.843  1.00  0.00     0.049 A 
ATOM     45  H   UNL A   1      41.565  29.354  29.167  1.00  0.00     0.167 HD
ATOM     46  C   UNL A   1      45.650  28.886  27.616  1.00  0.00     0.034 A 
ATOM     47  C   UNL A   1      39.449  30.704  30.411  1.00  0.00     0.034 A 
ATOM     48  C   UNL A   1      45.555  30.235  28.117  1.00  0.00     0.049 A 
ATOM     49  C   UNL A   1      40.620  31.654  30.394  1.00  0.00     0.074 A 
ATOM     50  C   UNL A   1      46.528  31.219  28.105  1.00  0.00     0.029 A 
ATOM     51  N   UNL A   1      44.435  30.794  28.717  1.00  0.00    -0.354 N 
ATOM     52  N   UNL A   1      41.814  31.480  29.877  1.00  0.00    -0.248 NA
ATOM     53  C   UNL A   1      40.427  32.967  31.022  1.00  0.00     0.031 C 
ATOM     54  C   UNL A   1      46.027  32.340  28.764  1.00  0.00     0.029 A 
ATOM     55  C   UNL A   1      44.705  32.097  29.104  1.00  0.00     0.049 A 
ATOM     56  H   UNL A   1      43.576  30.332  28.848  1.00  0.00     0.167 HD
ATOM     57  C   UNL A   1      42.497  32.676  30.080  1.00  0.00     0.074 A 
ATOM     58  C   UNL A   1      41.577  33.569  30.750  1.00  0.00     0.031 C 
ATOM     59  C   UNL A   1      43.773  32.998  29.744  1.00  0.00     0.034 A 
BRANCH  46  60
ATOM     60  C   UNL A   1      46.962  28.464  26.996  1.00  0.00     0.023 A 
ATOM     61  C   UNL A   1      47.077  28.341  25.599  1.00  0.00     0.031 A 
ATOM     62  C   UNL A   1      48.032  28.020  27.792  1.00  0.00     0.131 A 
ATOM     63  C   UNL A   1      48.215  27.740  25.044  1.00  0.00     0.055 A 
ATOM     64  C   UNL A   1      49.185  27.466  27.231  1.00  0.00     0.041 A 
ATOM     65  F   UNL A   1      47.972  28.110  29.131  1.00  0.00    -0.206 F 
ATOM     66  C   UNL A   1      49.271  27.309  25.852  1.00  0.00     0.022 A 
BRANCH  63  67
ATOM     67  S   UNL A   1      48.330  27.415  23.263  1.00  0.00     0.124 S 
ATOM     68  O   UNL A   1      48.155  25.964  23.212  1.00  0.00    -0.237 OA
ATOM     69  O   UNL A   1      47.216  28.196  22.737  1.00  0.00    -0.237 OA
ATOM     70  O   UNL A   1      49.663  27.890  22.905  1.00  0.00    -0.744 OA
ENDBRANCH  63  67
ENDBRANCH  46  60
BRANCH  47  71
ATOM     71  C   UNL A   1      38.115  31.099  30.956  1.00  0.00     0.023 A 
ATOM     72  C   UNL A   1      37.150  31.722  30.144  1.00  0.00     0.031 A 
ATOM     73  C   UNL A   1      37.828  30.953  32.324  1.00  0.00     0.131 A 
ATOM     74  C   UNL A   1      35.978  32.233  30.719  1.00  0.00     0.055 A 
ATOM     75  C   UNL A   1      36.625  31.393  32.878  1.00  0.00     0.041 A 
ATOM     76  F   UNL A   1      38.724  30.382  33.145  1.00  0.00    -0.206 F 
ATOM     77  C   UNL A   1      35.700  32.053  32.077  1.00  0.00     0.022 A 
BRANCH  74  78
ATOM     78  S   UNL A   1      34.840  33.264  29.751  1.00  0.00     0.124 S 
ATOM     79  O   UNL A   1      34.214  32.283  28.871  1.00  0.00    -0.237 OA
ATOM     80  O   UNL A   1      33.979  33.816  30.794  1.00  0.00    -0.237 OA
ATOM     81  O   UNL A   1      35.718  34.228  29.099  1.00  0.00    -0.744 OA
ENDBRANCH  74  78
ENDBRANCH  47  71
BRANCH  59  82
ATOM     82  C   UNL A   1      44.280  34.388  30.056  1.00  0.00     0.023 A 
ATOM     83  C   UNL A   1      44.153  35.408  29.092  1.00  0.00     0.031 A 
ATOM     84  C   UNL A   1      45.034  34.657  31.210  1.00  0.00     0.131 A 
ATOM     85  C   UNL A   1      44.816  36.627  29.273  1.00  0.00     0.055 A 
ATOM     86  C   UNL A   1      45.641  35.897  31.416  1.00  0.00     0.041 A 
ATOM     87  F   UNL A   1      45.200  33.715  32.153  1.00  0.00    -0.206 F 
ATOM     88  C   UNL A   1      45.550  36.882  30.436  1.00  0.00     0.022 A 
BRANCH  85  89
ATOM     89  S   UNL A   1      44.850  37.879  27.960  1.00  0.00     0.124 S 
ATOM     90  O   UNL A   1      44.839  39.122  28.729  1.00  0.00    -0.237 OA
ATOM     91  O   UNL A   1      46.106  37.578  27.281  1.00  0.00    -0.237 OA
ATOM     92  O   UNL A   1      43.639  37.615  27.190  1.00  0.00    -0.744 OA
ENDBRANCH  85  89
ENDBRANCH  59  82
ENDBRANCH  33  34
ENDBRANCH  26  28
ENDBRANCH  25  26
ENDBRANCH  24  25
ENDBRANCH   1  24
TORSDOF 19
ENDMDL
MODEL 3
REMARK VINA RESULT:     -10.0      3.512      6.596
REMARK SMILES [H]/N=c1\ccc2c(C)c(CC(=O)OCCOCCOC(=O)c3ccc(-c4c5nc(c(-c6cc(S(=O)(=O)[O-])ccc6F)c6ccc([nH]6)c(-c6cc(S(=O)(=O)[O-])ccc6F)c6nc(c(-c7cc(S(=O)(=O)[O-])ccc7F)c7ccc4[nH]7)C=C6)C=C5)cc3)c(O)oc-2c1
REMARK SMILES IDX 17 1 16 2 15 3 14 4 13 5 11 6 12 7 10 8 9 9 8 10 7 11 6 12
REMARK SMILES IDX 5 13 88 14 85 15 4 16 89 17 87 18 3 19 2 20 1 21 86 22 18 24
REMARK SMILES IDX 19 25 20 26 21 27 22 28 23 29 84 30 24 31 83 32 25 33 26 34
REMARK SMILES IDX 27 35 77 36 28 37 82 38 76 39 78 40 29 41 81 42 75 43 74 44
REMARK SMILES IDX 30 46 62 47 42 48 61 49 43 50 46 51 60 52 79 53 44 54 45 55
REMARK SMILES IDX 59 57 80 58 47 59 31 60 32 61 40 62 33 63 39 64 41 65 38 66
REMARK SMILES IDX 34 67 35 68 36 69 37 70 63 71 64 72 72 73 65 74 71 75 73 76
REMARK SMILES IDX 70 77 66 78 67 79 68 80 69 81 48 82 49 83 57 84 50 85 56 86
REMARK SMILES IDX 58 87 55 88 51 89 52 90 53 91 54 92
REMARK H PARENT 86 23 78 45 46 56
REMARK Flexibility Score: inf
ROOT
ATOM      1  C   UNL A   1      36.387  19.659  25.009  1.00  0.00     0.202 C 
ENDROOT
BRANCH   1   2
ATOM      2  O   UNL A   1      35.494  20.726  25.304  1.00  0.00    -0.374 OA
BRANCH   2   3
ATOM      3  C   UNL A   1      34.223  20.703  24.656  1.00  0.00     0.202 C 
BRANCH   3   4
ATOM      4  C   UNL A   1      32.982  21.024  25.502  1.00  0.00     0.261 C 
BRANCH   4   5
ATOM      5  O   UNL A   1      31.851  21.506  24.739  1.00  0.00    -0.463 OA
BRANCH   5   6
ATOM      6  C   UNL A   1      31.104  22.473  25.338  1.00  0.00     0.310 C 
ATOM      7  O   UNL A   1      30.451  22.309  26.364  1.00  0.00    -0.252 OA
BRANCH   6   8
ATOM      8  C   UNL A   1      31.076  23.812  24.600  1.00  0.00     0.166 C 
BRANCH   8   9
ATOM      9  C   UNL A   1      31.372  25.091  25.367  1.00  0.00     0.048 A 
ATOM     10  C   UNL A   1      33.841  24.889  24.697  1.00  0.00     0.046 C 
ATOM     11  C   UNL A   1      32.726  25.705  25.316  1.00  0.00    -0.029 A 
ATOM     12  C   UNL A   1      32.922  26.925  25.889  1.00  0.00     0.021 A 
ATOM     13  C   UNL A   1      34.161  27.696  25.746  1.00  0.00     0.014 A 
ATOM     14  C   UNL A   1      31.868  27.497  26.735  1.00  0.00     0.140 A 
ATOM     15  C   UNL A   1      30.447  25.644  26.184  1.00  0.00     0.286 A 
ATOM     16  C   UNL A   1      34.334  28.877  26.357  1.00  0.00     0.028 A 
ATOM     17  C   UNL A   1      32.042  28.646  27.398  1.00  0.00     0.075 A 
ATOM     18  O   UNL A   1      30.703  26.779  26.927  1.00  0.00    -0.425 OA
ATOM     19  C   UNL A   1      33.291  29.423  27.259  1.00  0.00     0.058 A 
ATOM     20  N   UNL A   1      33.441  30.528  27.912  1.00  0.00    -0.301 NA
ATOM     21  H   UNL A   1      34.273  31.046  27.820  1.00  0.00     0.188 HD
BRANCH  15  22
ATOM     22  O   UNL A   1      29.190  25.108  26.361  1.00  0.00    -0.480 OA
ATOM     23  H   UNL A   1      28.690  24.832  25.619  1.00  0.00     0.297 HD
ENDBRANCH  15  22
ENDBRANCH   8   9
ENDBRANCH   6   8
ENDBRANCH   5   6
ENDBRANCH   4   5
ENDBRANCH   3   4
ENDBRANCH   2   3
ENDBRANCH   1   2
BRANCH   1  24
ATOM     24  C   UNL A   1      37.871  19.992  24.823  1.00  0.00     0.261 C 
BRANCH  24  25
ATOM     25  O   UNL A   1      38.285  21.128  25.592  1.00  0.00    -0.460 OA
BRANCH  25  26
ATOM     26  C   UNL A   1      39.445  20.950  26.269  1.00  0.00     0.338 C 
ATOM     27  O   UNL A   1      40.097  19.919  26.347  1.00  0.00    -0.246 OA
BRANCH  26  28
ATOM     28  C   UNL A   1      39.944  22.255  26.743  1.00  0.00     0.060 A 
ATOM     29  C   UNL A   1      40.962  22.356  27.691  1.00  0.00     0.016 A 
ATOM     30  C   UNL A   1      39.363  23.403  26.191  1.00  0.00     0.016 A 
ATOM     31  C   UNL A   1      41.424  23.624  28.059  1.00  0.00     0.010 A 
ATOM     32  C   UNL A   1      39.826  24.663  26.559  1.00  0.00     0.010 A 
ATOM     33  C   UNL A   1      40.875  24.782  27.480  1.00  0.00    -0.014 A 
BRANCH  33  34
ATOM     34  C   UNL A   1      41.483  26.114  27.724  1.00  0.00     0.031 A 
ATOM     35  C   UNL A   1      40.746  27.179  28.478  1.00  0.00     0.074 A 
ATOM     36  C   UNL A   1      42.699  26.362  27.203  1.00  0.00     0.049 A 
ATOM     37  N   UNL A   1      41.142  28.386  28.788  1.00  0.00    -0.248 NA
ATOM     38  C   UNL A   1      39.386  26.855  28.938  1.00  0.00     0.031 C 
ATOM     39  C   UNL A   1      43.477  25.401  26.417  1.00  0.00     0.029 A 
ATOM     40  N   UNL A   1      43.497  27.477  27.248  1.00  0.00    -0.354 N 
ATOM     41  C   UNL A   1      40.093  28.963  29.494  1.00  0.00     0.074 A 
ATOM     42  C   UNL A   1      39.020  27.993  29.517  1.00  0.00     0.031 C 
ATOM     43  C   UNL A   1      44.652  25.954  26.087  1.00  0.00     0.029 A 
ATOM     44  C   UNL A   1      44.698  27.323  26.595  1.00  0.00     0.049 A 
ATOM     45  H   UNL A   1      43.235  28.309  27.705  1.00  0.00     0.167 HD
ATOM     46  C   UNL A   1      40.050  30.182  30.085  1.00  0.00     0.034 A 
ATOM     47  C   UNL A   1      45.723  28.184  26.426  1.00  0.00     0.034 A 
ATOM     48  C   UNL A   1      41.134  31.132  30.035  1.00  0.00     0.049 A 
ATOM     49  C   UNL A   1      45.632  29.547  27.065  1.00  0.00     0.074 A 
ATOM     50  C   UNL A   1      41.201  32.381  30.627  1.00  0.00     0.029 A 
ATOM     51  N   UNL A   1      42.334  30.948  29.361  1.00  0.00    -0.354 N 
ATOM     52  N   UNL A   1      44.671  30.045  27.808  1.00  0.00    -0.248 NA
ATOM     53  C   UNL A   1      46.763  30.460  26.862  1.00  0.00     0.031 C 
ATOM     54  C   UNL A   1      42.401  32.981  30.248  1.00  0.00     0.029 A 
ATOM     55  C   UNL A   1      43.132  32.072  29.500  1.00  0.00     0.049 A 
ATOM     56  H   UNL A   1      42.581  30.138  28.859  1.00  0.00     0.167 HD
ATOM     57  C   UNL A   1      45.100  31.312  28.192  1.00  0.00     0.074 A 
ATOM     58  C   UNL A   1      46.416  31.494  27.616  1.00  0.00     0.031 C 
ATOM     59  C   UNL A   1      44.459  32.238  28.950  1.00  0.00     0.034 A 
BRANCH  46  60
ATOM     60  C   UNL A   1      38.821  30.570  30.873  1.00  0.00     0.023 A 
ATOM     61  C   UNL A   1      37.842  31.401  30.296  1.00  0.00     0.031 A 
ATOM     62  C   UNL A   1      38.708  30.264  32.241  1.00  0.00     0.131 A 
ATOM     63  C   UNL A   1      36.824  31.939  31.094  1.00  0.00     0.055 A 
ATOM     64  C   UNL A   1      37.662  30.763  33.022  1.00  0.00     0.041 A 
ATOM     65  F   UNL A   1      39.616  29.480  32.843  1.00  0.00    -0.206 F 
ATOM     66  C   UNL A   1      36.726  31.618  32.452  1.00  0.00     0.022 A 
BRANCH  63  67
ATOM     67  S   UNL A   1      35.642  33.141  30.425  1.00  0.00     0.124 S 
ATOM     68  O   UNL A   1      35.642  34.170  31.463  1.00  0.00    -0.237 OA
ATOM     69  O   UNL A   1      36.275  33.524  29.168  1.00  0.00    -0.237 OA
ATOM     70  O   UNL A   1      34.401  32.383  30.305  1.00  0.00    -0.744 OA
ENDBRANCH  63  67
ENDBRANCH  46  60
BRANCH  47  71
ATOM     71  C   UNL A   1      46.944  27.734  25.692  1.00  0.00     0.023 A 
ATOM     72  C   UNL A   1      47.138  28.050  24.334  1.00  0.00     0.031 A 
ATOM     73  C   UNL A   1      47.885  26.893  26.312  1.00  0.00     0.131 A 
ATOM     74  C   UNL A   1      48.204  27.476  23.629  1.00  0.00     0.055 A 
ATOM     75  C   UNL A   1      48.989  26.387  25.625  1.00  0.00     0.041 A 
ATOM     76  F   UNL A   1      47.735  26.547  27.600  1.00  0.00    -0.206 F 
ATOM     77  C   UNL A   1      49.143  26.664  24.271  1.00  0.00     0.022 A 
BRANCH  74  78
ATOM     78  S   UNL A   1      48.331  27.655  21.827  1.00  0.00     0.124 S 
ATOM     79  O   UNL A   1      49.456  28.574  21.691  1.00  0.00    -0.237 OA
ATOM     80  O   UNL A   1      48.587  26.279  21.409  1.00  0.00    -0.237 OA
ATOM     81  O   UNL A   1      47.030  28.188  21.441  1.00  0.00    -0.744 OA
ENDBRANCH  74  78
ENDBRANCH  47  71
BRANCH  59  82
ATOM     82  C   UNL A   1      45.157  33.546  29.249  1.00  0.00     0.023 A 
ATOM     83  C   UNL A   1      45.066  34.610  28.330  1.00  0.00     0.031 A 
ATOM     84  C   UNL A   1      46.042  33.680  30.332  1.00  0.00     0.131 A 
ATOM     85  C   UNL A   1      45.886  35.734  28.479  1.00  0.00     0.055 A 
ATOM     86  C   UNL A   1      46.811  34.830  30.512  1.00  0.00     0.041 A 
ATOM     87  F   UNL A   1      46.179  32.689  31.229  1.00  0.00    -0.206 F 
ATOM     88  C   UNL A   1      46.750  35.856  29.572  1.00  0.00     0.022 A 
BRANCH  85  89
ATOM     89  S   UNL A   1      45.950  37.023  27.204  1.00  0.00     0.124 S 
ATOM     90  O   UNL A   1      46.855  37.999  27.806  1.00  0.00    -0.237 OA
ATOM     91  O   UNL A   1      46.491  36.296  26.059  1.00  0.00    -0.237 OA
ATOM     92  O   UNL A   1      44.563  37.460  27.074  1.00  0.00    -0.744 OA
ENDBRANCH  85  89
ENDBRANCH  59  82
ENDBRANCH  33  34
ENDBRANCH  26  28
ENDBRANCH  25  26
ENDBRANCH  24  25
ENDBRANCH   1  24
TORSDOF 19
ENDMDL
