MODEL 1
REMARK VINA RESULT:      -9.6      0.000      0.000
REMARK SMILES CCOc1cc(/C=C2/C(=O)N(c3cccc(C(=O)OCCOCCOC(=O)c4ccc(-c5c6nc(c(-c7cc(S(=O)(=O)[O-])ccc7F)c7ccc([nH]7)c(-c7cc(S(=O)(=O)[O-])ccc7F)c7nc(c(-c8cc(S(=O)(=O)[O-])ccc8F)c8ccc5[nH]8)C=C7)C=C6)cc4)c3)N=C2C)cc(Cl)c1OC
REMARK SMILES IDX 21 1 20 2 19 3 17 4 18 5 16 6 12 7 13 8 91 9 14 10 15 11
REMARK SMILES IDX 11 12 7 13 8 14 9 15 93 16 10 17 92 18 94 19 6 20 4 21 5 22
REMARK SMILES IDX 98 23 96 24 95 25 97 26 3 27 2 28 1 29 99 30 100 31 22 32
REMARK SMILES IDX 23 33 24 34 25 35 26 36 27 37 28 38 29 39 90 40 30 41 89 42
REMARK SMILES IDX 31 43 32 44 33 45 83 46 34 47 88 48 82 49 84 50 35 51 87 52
REMARK SMILES IDX 81 53 80 54 36 56 68 57 48 58 67 59 49 60 52 61 66 62 85 63
REMARK SMILES IDX 50 64 51 65 65 67 86 68 53 69 37 70 38 71 46 72 39 73 45 74
REMARK SMILES IDX 47 75 44 76 40 77 41 78 42 79 43 80 69 81 70 82 78 83 71 84
REMARK SMILES IDX 77 85 79 86 76 87 72 88 73 89 74 90 75 91 54 92 55 93 63 94
REMARK SMILES IDX 56 95 62 96 64 97 61 98 57 99 58 100 59 101 60 102
REMARK H PARENT 84 55 52 66
REMARK Flexibility Score: inf
ROOT
ATOM      1  C   UNL A   1      34.764  32.909  31.382  1.00  0.00     0.202 C 
ENDROOT
BRANCH   1   2
ATOM      2  C   UNL A   1      35.615  32.371  32.540  1.00  0.00     0.261 C 
BRANCH   2   3
ATOM      3  O   UNL A   1      35.238  32.954  33.797  1.00  0.00    -0.460 OA
BRANCH   3   4
ATOM      4  C   UNL A   1      35.770  34.175  34.058  1.00  0.00     0.338 C 
ATOM      5  O   UNL A   1      35.267  35.263  33.839  1.00  0.00    -0.246 OA
BRANCH   4   6
ATOM      6  C   UNL A   1      36.992  34.002  34.878  1.00  0.00     0.062 A 
ATOM      7  C   UNL A   1      38.105  33.477  36.966  1.00  0.00     0.070 A 
ATOM      8  C   UNL A   1      39.303  33.970  36.426  1.00  0.00     0.028 A 
ATOM      9  C   UNL A   1      36.944  33.500  36.182  1.00  0.00     0.044 A 
ATOM     10  C   UNL A   1      39.359  34.435  35.111  1.00  0.00     0.003 A 
ATOM     11  C   UNL A   1      38.203  34.449  34.335  1.00  0.00     0.016 A 
BRANCH   7  12
ATOM     12  N   UNL A   1      38.074  32.993  38.290  1.00  0.00    -0.196 N 
ATOM     13  C   UNL A   1      37.255  30.873  40.988  1.00  0.00     0.024 C 
ATOM     14  C   UNL A   1      37.676  31.870  40.199  1.00  0.00     0.065 C 
ATOM     15  C   UNL A   1      37.480  31.808  38.733  1.00  0.00     0.280 C 
ATOM     16  C   UNL A   1      38.383  33.148  40.417  1.00  0.00     0.071 C 
ATOM     17  O   UNL A   1      36.957  30.891  38.120  1.00  0.00    -0.267 OA
ATOM     18  N   UNL A   1      38.633  33.770  39.296  1.00  0.00    -0.169 NA
ATOM     19  C   UNL A   1      38.760  33.719  41.744  1.00  0.00     0.069 C 
BRANCH  13  20
ATOM     20  C   UNL A   1      37.407  30.826  42.436  1.00  0.00    -0.019 A 
ATOM     21  C   UNL A   1      38.788  30.423  44.373  1.00  0.00     0.163 A 
ATOM     22  C   UNL A   1      38.595  30.367  42.991  1.00  0.00     0.058 A 
ATOM     23  C   UNL A   1      37.778  30.895  45.244  1.00  0.00     0.179 A 
ATOM     24  C   UNL A   1      36.558  31.297  44.670  1.00  0.00     0.087 A 
ATOM     25  C   UNL A   1      36.377  31.237  43.279  1.00  0.00     0.032 A 
ATOM     26  Cl  UNL A   1      35.199  31.950  45.518  1.00  0.00    -0.080 Cl
BRANCH  21  27
ATOM     27  O   UNL A   1      39.939  29.879  44.899  1.00  0.00    -0.490 OA
BRANCH  27  28
ATOM     28  C   UNL A   1      41.140  30.307  44.245  1.00  0.00     0.226 C 
ATOM     29  C   UNL A   1      42.370  29.585  44.778  1.00  0.00     0.049 C 
ENDBRANCH  27  28
ENDBRANCH  21  27
BRANCH  23  30
ATOM     30  O   UNL A   1      38.164  30.924  46.558  1.00  0.00    -0.491 OA
ATOM     31  C   UNL A   1      38.518  32.150  47.175  1.00  0.00     0.278 C 
ENDBRANCH  23  30
ENDBRANCH  13  20
ENDBRANCH   7  12
ENDBRANCH   4   6
ENDBRANCH   3   4
ENDBRANCH   2   3
ENDBRANCH   1   2
BRANCH   1  32
ATOM     32  O   UNL A   1      35.290  34.012  30.643  1.00  0.00    -0.374 OA
BRANCH  32  33
ATOM     33  C   UNL A   1      34.496  34.523  29.574  1.00  0.00     0.202 C 
BRANCH  33  34
ATOM     34  C   UNL A   1      33.856  33.516  28.607  1.00  0.00     0.261 C 
BRANCH  34  35
ATOM     35  O   UNL A   1      34.812  32.882  27.742  1.00  0.00    -0.460 OA
BRANCH  35  36
ATOM     36  C   UNL A   1      34.773  31.526  27.762  1.00  0.00     0.338 C 
ATOM     37  O   UNL A   1      34.008  30.805  27.144  1.00  0.00    -0.246 OA
BRANCH  36  38
ATOM     38  C   UNL A   1      35.932  31.005  28.511  1.00  0.00     0.060 A 
ATOM     39  C   UNL A   1      37.166  31.641  28.323  1.00  0.00     0.016 A 
ATOM     40  C   UNL A   1      35.831  29.877  29.326  1.00  0.00     0.016 A 
ATOM     41  C   UNL A   1      38.315  31.124  28.916  1.00  0.00     0.010 A 
ATOM     42  C   UNL A   1      36.987  29.355  29.916  1.00  0.00     0.010 A 
ATOM     43  C   UNL A   1      38.240  29.956  29.688  1.00  0.00    -0.014 A 
BRANCH  43  44
ATOM     44  C   UNL A   1      39.486  29.289  30.142  1.00  0.00     0.031 A 
ATOM     45  C   UNL A   1      40.175  29.792  31.381  1.00  0.00     0.074 A 
ATOM     46  C   UNL A   1      39.984  28.234  29.471  1.00  0.00     0.049 A 
ATOM     47  N   UNL A   1      41.298  29.400  31.927  1.00  0.00    -0.248 NA
ATOM     48  C   UNL A   1      39.511  30.893  32.094  1.00  0.00     0.031 C 
ATOM     49  C   UNL A   1      39.376  27.624  28.289  1.00  0.00     0.029 A 
ATOM     50  N   UNL A   1      41.118  27.492  29.686  1.00  0.00    -0.354 N 
ATOM     51  C   UNL A   1      41.484  30.215  33.039  1.00  0.00     0.074 A 
ATOM     52  C   UNL A   1      40.375  31.147  33.064  1.00  0.00     0.031 C 
ATOM     53  C   UNL A   1      40.143  26.597  27.885  1.00  0.00     0.029 A 
ATOM     54  C   UNL A   1      41.321  26.508  28.747  1.00  0.00     0.049 A 
ATOM     55  H   UNL A   1      41.730  27.650  30.442  1.00  0.00     0.167 HD
ATOM     56  C   UNL A   1      42.484  30.183  33.955  1.00  0.00     0.034 A 
ATOM     57  C   UNL A   1      42.351  25.652  28.586  1.00  0.00     0.034 A 
ATOM     58  C   UNL A   1      43.582  29.248  33.909  1.00  0.00     0.049 A 
ATOM     59  C   UNL A   1      43.503  25.702  29.562  1.00  0.00     0.074 A 
ATOM     60  C   UNL A   1      44.631  29.106  34.802  1.00  0.00     0.029 A 
ATOM     61  N   UNL A   1      43.788  28.307  32.907  1.00  0.00    -0.354 N 
ATOM     62  N   UNL A   1      43.663  26.468  30.618  1.00  0.00    -0.248 NA
ATOM     63  C   UNL A   1      44.611  24.768  29.325  1.00  0.00     0.031 C 
ATOM     64  C   UNL A   1      45.515  28.149  34.293  1.00  0.00     0.029 A 
ATOM     65  C   UNL A   1      44.970  27.617  33.136  1.00  0.00     0.049 A 
ATOM     66  H   UNL A   1      43.183  28.151  32.147  1.00  0.00     0.167 HD
ATOM     67  C   UNL A   1      44.870  26.076  31.192  1.00  0.00     0.074 A 
ATOM     68  C   UNL A   1      45.390  25.003  30.372  1.00  0.00     0.031 C 
ATOM     69  C   UNL A   1      45.488  26.555  32.305  1.00  0.00     0.034 A 
BRANCH  56  70
ATOM     70  C   UNL A   1      42.466  31.232  35.043  1.00  0.00     0.023 A 
ATOM     71  C   UNL A   1      42.859  32.562  34.808  1.00  0.00     0.031 A 
ATOM     72  C   UNL A   1      42.078  30.886  36.351  1.00  0.00     0.131 A 
ATOM     73  C   UNL A   1      42.931  33.470  35.875  1.00  0.00     0.055 A 
ATOM     74  C   UNL A   1      42.066  31.818  37.389  1.00  0.00     0.041 A 
ATOM     75  F   UNL A   1      41.717  29.627  36.646  1.00  0.00    -0.206 F 
ATOM     76  C   UNL A   1      42.511  33.116  37.158  1.00  0.00     0.022 A 
BRANCH  73  77
ATOM     77  S   UNL A   1      43.740  35.071  35.597  1.00  0.00     0.124 S 
ATOM     78  O   UNL A   1      45.115  34.780  35.998  1.00  0.00    -0.237 OA
ATOM     79  O   UNL A   1      43.522  35.290  34.172  1.00  0.00    -0.237 OA
ATOM     80  O   UNL A   1      43.019  35.978  36.487  1.00  0.00    -0.744 OA
ENDBRANCH  73  77
ENDBRANCH  56  70
BRANCH  57  81
ATOM     81  C   UNL A   1      42.366  24.692  27.445  1.00  0.00     0.023 A 
ATOM     82  C   UNL A   1      41.605  23.513  27.485  1.00  0.00     0.031 A 
ATOM     83  C   UNL A   1      43.188  24.907  26.324  1.00  0.00     0.131 A 
ATOM     84  C   UNL A   1      41.718  22.571  26.451  1.00  0.00     0.055 A 
ATOM     85  C   UNL A   1      43.249  23.997  25.268  1.00  0.00     0.041 A 
ATOM     86  F   UNL A   1      43.943  26.015  26.237  1.00  0.00    -0.206 F 
ATOM     87  C   UNL A   1      42.521  22.813  25.334  1.00  0.00     0.022 A 
BRANCH  84  88
ATOM     88  S   UNL A   1      40.875  20.976  26.634  1.00  0.00     0.124 S 
ATOM     89  O   UNL A   1      40.791  20.852  28.085  1.00  0.00    -0.237 OA
ATOM     90  O   UNL A   1      39.616  21.217  25.936  1.00  0.00    -0.237 OA
ATOM     91  O   UNL A   1      41.780  20.035  25.977  1.00  0.00    -0.744 OA
ENDBRANCH  84  88
ENDBRANCH  57  81
BRANCH  69  92
ATOM     92  C   UNL A   1      46.772  25.877  32.727  1.00  0.00     0.023 A 
ATOM     93  C   UNL A   1      46.788  24.808  33.640  1.00  0.00     0.031 A 
ATOM     94  C   UNL A   1      48.004  26.318  32.209  1.00  0.00     0.131 A 
ATOM     95  C   UNL A   1      48.011  24.256  34.051  1.00  0.00     0.055 A 
ATOM     96  C   UNL A   1      49.212  25.718  32.567  1.00  0.00     0.041 A 
ATOM     97  F   UNL A   1      48.054  27.338  31.338  1.00  0.00    -0.206 F 
ATOM     98  C   UNL A   1      49.221  24.690  33.505  1.00  0.00     0.022 A 
BRANCH  95  99
ATOM     99  S   UNL A   1      48.011  23.033  35.390  1.00  0.00     0.124 S 
ATOM    100  O   UNL A   1      46.994  23.568  36.289  1.00  0.00    -0.237 OA
ATOM    101  O   UNL A   1      47.658  21.802  34.690  1.00  0.00    -0.237 OA
ATOM    102  O   UNL A   1      49.378  23.083  35.903  1.00  0.00    -0.744 OA
ENDBRANCH  95  99
ENDBRANCH  69  92
ENDBRANCH  43  44
ENDBRANCH  36  38
ENDBRANCH  35  36
ENDBRANCH  34  35
ENDBRANCH  33  34
ENDBRANCH  32  33
ENDBRANCH   1  32
TORSDOF 22
ENDMDL
MODEL 2
REMARK VINA RESULT:      -9.4      9.495     14.453
REMARK SMILES CCOc1cc(/C=C2/C(=O)N(c3cccc(C(=O)OCCOCCOC(=O)c4ccc(-c5c6nc(c(-c7cc(S(=O)(=O)[O-])ccc7F)c7ccc([nH]7)c(-c7cc(S(=O)(=O)[O-])ccc7F)c7nc(c(-c8cc(S(=O)(=O)[O-])ccc8F)c8ccc5[nH]8)C=C7)C=C6)cc4)c3)N=C2C)cc(Cl)c1OC
REMARK SMILES IDX 21 1 20 2 19 3 17 4 18 5 16 6 12 7 13 8 91 9 14 10 15 11
REMARK SMILES IDX 11 12 7 13 8 14 9 15 93 16 10 17 92 18 94 19 6 20 4 21 5 22
REMARK SMILES IDX 98 23 96 24 95 25 97 26 3 27 2 28 1 29 99 30 100 31 22 32
REMARK SMILES IDX 23 33 24 34 25 35 26 36 27 37 28 38 29 39 90 40 30 41 89 42
REMARK SMILES IDX 31 43 32 44 33 45 83 46 34 47 88 48 82 49 84 50 35 51 87 52
REMARK SMILES IDX 81 53 80 54 36 56 68 57 48 58 67 59 49 60 52 61 66 62 85 63
REMARK SMILES IDX 50 64 51 65 65 67 86 68 53 69 37 70 38 71 46 72 39 73 45 74
REMARK SMILES IDX 47 75 44 76 40 77 41 78 42 79 43 80 69 81 70 82 78 83 71 84
REMARK SMILES IDX 77 85 79 86 76 87 72 88 73 89 74 90 75 91 54 92 55 93 63 94
REMARK SMILES IDX 56 95 62 96 64 97 61 98 57 99 58 100 59 101 60 102
REMARK H PARENT 84 55 52 66
REMARK Flexibility Score: inf
ROOT
ATOM      1  C   UNL A   1      39.273  21.740  26.113  1.00  0.00     0.202 C 
ENDROOT
BRANCH   1   2
ATOM      2  C   UNL A   1      38.044  22.206  25.321  1.00  0.00     0.261 C 
BRANCH   2   3
ATOM      3  O   UNL A   1      36.834  21.609  25.811  1.00  0.00    -0.460 OA
BRANCH   3   4
ATOM      4  C   UNL A   1      36.400  20.520  25.127  1.00  0.00     0.338 C 
ATOM      5  O   UNL A   1      36.977  19.456  24.987  1.00  0.00    -0.246 OA
BRANCH   4   6
ATOM      6  C   UNL A   1      34.984  20.725  24.743  1.00  0.00     0.062 A 
ATOM      7  C   UNL A   1      33.057  22.149  24.373  1.00  0.00     0.070 A 
ATOM      8  C   UNL A   1      32.254  21.002  24.286  1.00  0.00     0.028 A 
ATOM      9  C   UNL A   1      34.431  22.002  24.608  1.00  0.00     0.044 A 
ATOM     10  C   UNL A   1      32.812  19.726  24.382  1.00  0.00     0.003 A 
ATOM     11  C   UNL A   1      34.179  19.587  24.608  1.00  0.00     0.016 A 
BRANCH   7  12
ATOM     12  N   UNL A   1      32.477  23.428  24.253  1.00  0.00    -0.196 N 
ATOM     13  C   UNL A   1      31.917  26.669  22.977  1.00  0.00     0.024 C 
ATOM     14  C   UNL A   1      31.936  25.541  23.699  1.00  0.00     0.065 C 
ATOM     15  C   UNL A   1      32.756  24.385  23.273  1.00  0.00     0.280 C 
ATOM     16  C   UNL A   1      31.267  25.078  24.932  1.00  0.00     0.071 C 
ATOM     17  O   UNL A   1      33.453  24.332  22.272  1.00  0.00    -0.267 OA
ATOM     18  N   UNL A   1      31.568  23.840  25.220  1.00  0.00    -0.169 NA
ATOM     19  C   UNL A   1      30.370  25.900  25.797  1.00  0.00     0.069 C 
BRANCH  13  20
ATOM     20  C   UNL A   1      31.138  27.858  23.295  1.00  0.00    -0.019 A 
ATOM     21  C   UNL A   1      30.900  29.927  24.514  1.00  0.00     0.163 A 
ATOM     22  C   UNL A   1      31.581  28.730  24.281  1.00  0.00     0.058 A 
ATOM     23  C   UNL A   1      29.726  30.262  23.799  1.00  0.00     0.179 A 
ATOM     24  C   UNL A   1      29.256  29.338  22.849  1.00  0.00     0.087 A 
ATOM     25  C   UNL A   1      29.951  28.139  22.623  1.00  0.00     0.032 A 
ATOM     26  Cl  UNL A   1      27.878  29.543  21.822  1.00  0.00    -0.080 Cl
BRANCH  21  27
ATOM     27  O   UNL A   1      31.312  30.726  25.557  1.00  0.00    -0.490 OA
BRANCH  27  28
ATOM     28  C   UNL A   1      32.380  30.169  26.334  1.00  0.00     0.226 C 
ATOM     29  C   UNL A   1      32.980  31.188  27.294  1.00  0.00     0.049 C 
ENDBRANCH  27  28
ENDBRANCH  21  27
BRANCH  23  30
ATOM     30  O   UNL A   1      29.224  31.494  24.126  1.00  0.00    -0.491 OA
ATOM     31  C   UNL A   1      29.088  32.499  23.137  1.00  0.00     0.278 C 
ENDBRANCH  23  30
ENDBRANCH  13  20
ENDBRANCH   7  12
ENDBRANCH   4   6
ENDBRANCH   3   4
ENDBRANCH   2   3
ENDBRANCH   1   2
BRANCH   1  32
ATOM     32  O   UNL A   1      39.659  22.525  27.242  1.00  0.00    -0.374 OA
BRANCH  32  33
ATOM     33  C   UNL A   1      39.413  23.929  27.180  1.00  0.00     0.202 C 
BRANCH  33  34
ATOM     34  C   UNL A   1      40.458  24.812  26.481  1.00  0.00     0.261 C 
BRANCH  34  35
ATOM     35  O   UNL A   1      41.675  24.943  27.233  1.00  0.00    -0.460 OA
BRANCH  35  36
ATOM     36  C   UNL A   1      42.723  24.243  26.730  1.00  0.00     0.338 C 
ATOM     37  O   UNL A   1      42.707  23.097  26.314  1.00  0.00    -0.246 OA
BRANCH  36  38
ATOM     38  C   UNL A   1      43.889  25.133  26.575  1.00  0.00     0.060 A 
ATOM     39  C   UNL A   1      44.535  25.567  27.739  1.00  0.00     0.016 A 
ATOM     40  C   UNL A   1      44.302  25.588  25.322  1.00  0.00     0.016 A 
ATOM     41  C   UNL A   1      45.570  26.496  27.659  1.00  0.00     0.010 A 
ATOM     42  C   UNL A   1      45.337  26.526  25.243  1.00  0.00     0.010 A 
ATOM     43  C   UNL A   1      45.955  27.009  26.412  1.00  0.00    -0.014 A 
BRANCH  43  44
ATOM     44  C   UNL A   1      46.905  28.147  26.343  1.00  0.00     0.031 A 
ATOM     45  C   UNL A   1      46.375  29.550  26.468  1.00  0.00     0.074 A 
ATOM     46  C   UNL A   1      48.224  27.933  26.192  1.00  0.00     0.049 A 
ATOM     47  N   UNL A   1      47.011  30.691  26.381  1.00  0.00    -0.248 NA
ATOM     48  C   UNL A   1      44.932  29.681  26.715  1.00  0.00     0.031 C 
ATOM     49  C   UNL A   1      48.861  26.618  26.114  1.00  0.00     0.029 A 
ATOM     50  N   UNL A   1      49.267  28.818  26.075  1.00  0.00    -0.354 N 
ATOM     51  C   UNL A   1      46.043  31.677  26.547  1.00  0.00     0.074 A 
ATOM     52  C   UNL A   1      44.774  30.996  26.701  1.00  0.00     0.031 C 
ATOM     53  C   UNL A   1      50.186  26.783  25.965  1.00  0.00     0.029 A 
ATOM     54  C   UNL A   1      50.487  28.212  25.885  1.00  0.00     0.049 A 
ATOM     55  H   UNL A   1      49.152  29.795  26.121  1.00  0.00     0.167 HD
ATOM     56  C   UNL A   1      46.202  33.024  26.574  1.00  0.00     0.034 A 
ATOM     57  C   UNL A   1      51.702  28.748  25.651  1.00  0.00     0.034 A 
ATOM     58  C   UNL A   1      47.477  33.682  26.414  1.00  0.00     0.049 A 
ATOM     59  C   UNL A   1      51.837  30.252  25.585  1.00  0.00     0.074 A 
ATOM     60  C   UNL A   1      47.757  35.038  26.456  1.00  0.00     0.029 A 
ATOM     61  N   UNL A   1      48.682  33.039  26.161  1.00  0.00    -0.354 N 
ATOM     62  N   UNL A   1      50.919  31.176  25.757  1.00  0.00    -0.248 NA
ATOM     63  C   UNL A   1      53.176  30.783  25.298  1.00  0.00     0.031 C 
ATOM     64  C   UNL A   1      49.107  35.217  26.138  1.00  0.00     0.029 A 
ATOM     65  C   UNL A   1      49.696  33.972  25.997  1.00  0.00     0.049 A 
ATOM     66  H   UNL A   1      48.800  32.063  26.107  1.00  0.00     0.167 HD
ATOM     67  C   UNL A   1      51.581  32.396  25.640  1.00  0.00     0.074 A 
ATOM     68  C   UNL A   1      52.974  32.089  25.392  1.00  0.00     0.031 C 
ATOM     69  C   UNL A   1      51.083  33.657  25.739  1.00  0.00     0.034 A 
BRANCH  56  70
ATOM     70  C   UNL A   1      44.959  33.870  26.718  1.00  0.00     0.023 A 
ATOM     71  C   UNL A   1      44.485  34.297  27.971  1.00  0.00     0.031 A 
ATOM     72  C   UNL A   1      44.214  34.230  25.579  1.00  0.00     0.131 A 
ATOM     73  C   UNL A   1      43.265  34.986  28.062  1.00  0.00     0.055 A 
ATOM     74  C   UNL A   1      43.049  34.994  25.669  1.00  0.00     0.041 A 
ATOM     75  F   UNL A   1      44.599  33.832  24.357  1.00  0.00    -0.206 F 
ATOM     76  C   UNL A   1      42.559  35.362  26.918  1.00  0.00     0.022 A 
BRANCH  73  77
ATOM     77  S   UNL A   1      42.532  35.238  29.703  1.00  0.00     0.124 S 
ATOM     78  O   UNL A   1      41.104  35.247  29.389  1.00  0.00    -0.237 OA
ATOM     79  O   UNL A   1      43.016  34.079  30.445  1.00  0.00    -0.237 OA
ATOM     80  O   UNL A   1      43.077  36.525  30.127  1.00  0.00    -0.744 OA
ENDBRANCH  73  77
ENDBRANCH  56  70
BRANCH  57  81
ATOM     81  C   UNL A   1      52.887  27.871  25.428  1.00  0.00     0.023 A 
ATOM     82  C   UNL A   1      53.685  27.451  26.504  1.00  0.00     0.031 A 
ATOM     83  C   UNL A   1      53.276  27.489  24.132  1.00  0.00     0.131 A 
ATOM     84  C   UNL A   1      54.857  26.717  26.262  1.00  0.00     0.055 A 
ATOM     85  C   UNL A   1      54.408  26.705  23.902  1.00  0.00     0.041 A 
ATOM     86  F   UNL A   1      52.554  27.869  23.065  1.00  0.00    -0.206 F 
ATOM     87  C   UNL A   1      55.214  26.326  24.970  1.00  0.00     0.022 A 
BRANCH  84  88
ATOM     88  S   UNL A   1      55.962  26.365  27.656  1.00  0.00     0.124 S 
ATOM     89  O   UNL A   1      55.792  24.925  27.812  1.00  0.00    -0.237 OA
ATOM     90  O   UNL A   1      57.253  26.807  27.138  1.00  0.00    -0.237 OA
ATOM     91  O   UNL A   1      55.415  27.181  28.738  1.00  0.00    -0.744 OA
ENDBRANCH  84  88
ENDBRANCH  57  81
BRANCH  69  92
ATOM     92  C   UNL A   1      52.067  34.800  25.633  1.00  0.00     0.023 A 
ATOM     93  C   UNL A   1      52.622  35.415  26.768  1.00  0.00     0.031 A 
ATOM     94  C   UNL A   1      52.451  35.283  24.368  1.00  0.00     0.131 A 
ATOM     95  C   UNL A   1      53.481  36.515  26.619  1.00  0.00     0.055 A 
ATOM     96  C   UNL A   1      53.360  36.332  24.224  1.00  0.00     0.041 A 
ATOM     97  F   UNL A   1      51.950  34.740  23.247  1.00  0.00    -0.206 F 
ATOM     98  C   UNL A   1      53.871  36.964  25.354  1.00  0.00     0.022 A 
BRANCH  95  99
ATOM     99  S   UNL A   1      54.003  37.423  28.100  1.00  0.00     0.124 S 
ATOM    100  O   UNL A   1      53.167  36.822  29.133  1.00  0.00    -0.237 OA
ATOM    101  O   UNL A   1      55.427  37.113  28.171  1.00  0.00    -0.237 OA
ATOM    102  O   UNL A   1      53.689  38.814  27.780  1.00  0.00    -0.744 OA
ENDBRANCH  95  99
ENDBRANCH  69  92
ENDBRANCH  43  44
ENDBRANCH  36  38
ENDBRANCH  35  36
ENDBRANCH  34  35
ENDBRANCH  33  34
ENDBRANCH  32  33
ENDBRANCH   1  32
TORSDOF 22
ENDMDL
MODEL 3
REMARK VINA RESULT:      -9.2      6.675     13.188
REMARK SMILES CCOc1cc(/C=C2/C(=O)N(c3cccc(C(=O)OCCOCCOC(=O)c4ccc(-c5c6nc(c(-c7cc(S(=O)(=O)[O-])ccc7F)c7ccc([nH]7)c(-c7cc(S(=O)(=O)[O-])ccc7F)c7nc(c(-c8cc(S(=O)(=O)[O-])ccc8F)c8ccc5[nH]8)C=C7)C=C6)cc4)c3)N=C2C)cc(Cl)c1OC
REMARK SMILES IDX 21 1 20 2 19 3 17 4 18 5 16 6 12 7 13 8 91 9 14 10 15 11
REMARK SMILES IDX 11 12 7 13 8 14 9 15 93 16 10 17 92 18 94 19 6 20 4 21 5 22
REMARK SMILES IDX 98 23 96 24 95 25 97 26 3 27 2 28 1 29 99 30 100 31 22 32
REMARK SMILES IDX 23 33 24 34 25 35 26 36 27 37 28 38 29 39 90 40 30 41 89 42
REMARK SMILES IDX 31 43 32 44 33 45 83 46 34 47 88 48 82 49 84 50 35 51 87 52
REMARK SMILES IDX 81 53 80 54 36 56 68 57 48 58 67 59 49 60 52 61 66 62 85 63
REMARK SMILES IDX 50 64 51 65 65 67 86 68 53 69 37 70 38 71 46 72 39 73 45 74
REMARK SMILES IDX 47 75 44 76 40 77 41 78 42 79 43 80 69 81 70 82 78 83 71 84
REMARK SMILES IDX 77 85 79 86 76 87 72 88 73 89 74 90 75 91 54 92 55 93 63 94
REMARK SMILES IDX 56 95 62 96 64 97 61 98 57 99 58 100 59 101 60 102
REMARK H PARENT 84 55 52 66
REMARK Flexibility Score: inf
ROOT
ATOM      1  C   UNL A   1      45.797  21.946  25.031  1.00  0.00     0.202 C 
ENDROOT
BRANCH   1   2
ATOM      2  C   UNL A   1      46.421  23.112  24.253  1.00  0.00     0.261 C 
BRANCH   2   3
ATOM      3  O   UNL A   1      45.880  24.378  24.660  1.00  0.00    -0.460 OA
BRANCH   3   4
ATOM      4  C   UNL A   1      46.785  25.377  24.817  1.00  0.00     0.338 C 
ATOM      5  O   UNL A   1      47.973  25.348  24.548  1.00  0.00    -0.246 OA
BRANCH   4   6
ATOM      6  C   UNL A   1      46.067  26.627  25.164  1.00  0.00     0.062 A 
ATOM      7  C   UNL A   1      46.028  28.908  25.981  1.00  0.00     0.070 A 
ATOM      8  C   UNL A   1      44.628  28.833  26.056  1.00  0.00     0.028 A 
ATOM      9  C   UNL A   1      46.746  27.791  25.535  1.00  0.00     0.044 A 
ATOM     10  C   UNL A   1      43.949  27.685  25.649  1.00  0.00     0.003 A 
ATOM     11  C   UNL A   1      44.668  26.581  25.200  1.00  0.00     0.016 A 
BRANCH   7  12
ATOM     12  N   UNL A   1      46.694  30.085  26.378  1.00  0.00    -0.196 N 
ATOM     13  C   UNL A   1      47.220  33.530  26.926  1.00  0.00     0.024 C 
ATOM     14  C   UNL A   1      47.335  32.203  26.789  1.00  0.00     0.065 C 
ATOM     15  C   UNL A   1      46.177  31.384  26.365  1.00  0.00     0.280 C 
ATOM     16  C   UNL A   1      48.420  31.222  26.991  1.00  0.00     0.071 C 
ATOM     17  O   UNL A   1      45.057  31.802  26.121  1.00  0.00    -0.267 OA
ATOM     18  N   UNL A   1      48.021  29.996  26.780  1.00  0.00    -0.169 NA
ATOM     19  C   UNL A   1      49.829  31.546  27.364  1.00  0.00     0.069 C 
BRANCH  13  20
ATOM     20  C   UNL A   1      48.287  34.427  27.348  1.00  0.00    -0.019 A 
ATOM     21  C   UNL A   1      49.976  36.060  26.796  1.00  0.00     0.163 A 
ATOM     22  C   UNL A   1      49.027  35.116  26.396  1.00  0.00     0.058 A 
ATOM     23  C   UNL A   1      50.245  36.307  28.163  1.00  0.00     0.179 A 
ATOM     24  C   UNL A   1      49.531  35.555  29.114  1.00  0.00     0.087 A 
ATOM     25  C   UNL A   1      48.579  34.610  28.698  1.00  0.00     0.032 A 
ATOM     26  Cl  UNL A   1      49.649  35.708  30.833  1.00  0.00    -0.080 Cl
BRANCH  21  27
ATOM     27  O   UNL A   1      50.754  36.660  25.832  1.00  0.00    -0.490 OA
BRANCH  27  28
ATOM     28  C   UNL A   1      50.837  35.924  24.605  1.00  0.00     0.226 C 
ATOM     29  C   UNL A   1      52.119  36.228  23.842  1.00  0.00     0.049 C 
ENDBRANCH  27  28
ENDBRANCH  21  27
BRANCH  23  30
ATOM     30  O   UNL A   1      51.167  37.299  28.365  1.00  0.00    -0.491 OA
ATOM     31  C   UNL A   1      52.492  36.979  28.752  1.00  0.00     0.278 C 
ENDBRANCH  23  30
ENDBRANCH  13  20
ENDBRANCH   7  12
ENDBRANCH   4   6
ENDBRANCH   3   4
ENDBRANCH   2   3
ENDBRANCH   1   2
BRANCH   1  32
ATOM     32  O   UNL A   1      45.261  20.864  24.269  1.00  0.00    -0.374 OA
BRANCH  32  33
ATOM     33  C   UNL A   1      45.317  19.562  24.850  1.00  0.00     0.202 C 
BRANCH  33  34
ATOM     34  C   UNL A   1      43.989  18.850  25.149  1.00  0.00     0.261 C 
BRANCH  34  35
ATOM     35  O   UNL A   1      42.847  19.712  25.015  1.00  0.00    -0.460 OA
BRANCH  35  36
ATOM     36  C   UNL A   1      42.083  19.806  26.131  1.00  0.00     0.338 C 
ATOM     37  O   UNL A   1      41.542  18.892  26.730  1.00  0.00    -0.246 OA
BRANCH  36  38
ATOM     38  C   UNL A   1      42.137  21.183  26.658  1.00  0.00     0.060 A 
ATOM     39  C   UNL A   1      42.313  22.224  25.737  1.00  0.00     0.016 A 
ATOM     40  C   UNL A   1      42.086  21.447  28.027  1.00  0.00     0.016 A 
ATOM     41  C   UNL A   1      42.484  23.532  26.186  1.00  0.00     0.010 A 
ATOM     42  C   UNL A   1      42.264  22.760  28.476  1.00  0.00     0.010 A 
ATOM     43  C   UNL A   1      42.496  23.804  27.561  1.00  0.00    -0.014 A 
BRANCH  43  44
ATOM     44  C   UNL A   1      42.887  25.152  28.044  1.00  0.00     0.031 A 
ATOM     45  C   UNL A   1      44.332  25.423  28.363  1.00  0.00     0.074 A 
ATOM     46  C   UNL A   1      41.970  26.128  28.177  1.00  0.00     0.049 A 
ATOM     47  N   UNL A   1      44.889  26.503  28.850  1.00  0.00    -0.248 NA
ATOM     48  C   UNL A   1      45.273  24.323  28.108  1.00  0.00     0.031 C 
ATOM     49  C   UNL A   1      40.550  25.999  27.848  1.00  0.00     0.029 A 
ATOM     50  N   UNL A   1      42.095  27.418  28.626  1.00  0.00    -0.354 N 
ATOM     51  C   UNL A   1      46.243  26.209  28.972  1.00  0.00     0.074 A 
ATOM     52  C   UNL A   1      46.413  24.836  28.545  1.00  0.00     0.031 C 
ATOM     53  C   UNL A   1      39.937  27.167  28.103  1.00  0.00     0.029 A 
ATOM     54  C   UNL A   1      40.906  28.108  28.661  1.00  0.00     0.049 A 
ATOM     55  H   UNL A   1      42.955  27.813  28.898  1.00  0.00     0.167 HD
ATOM     56  C   UNL A   1      47.250  27.013  29.398  1.00  0.00     0.034 A 
ATOM     57  C   UNL A   1      40.628  29.348  29.115  1.00  0.00     0.034 A 
ATOM     58  C   UNL A   1      47.058  28.379  29.823  1.00  0.00     0.049 A 
ATOM     59  C   UNL A   1      41.750  30.190  29.677  1.00  0.00     0.074 A 
ATOM     60  C   UNL A   1      48.010  29.293  30.242  1.00  0.00     0.029 A 
ATOM     61  N   UNL A   1      45.830  29.024  29.905  1.00  0.00    -0.354 N 
ATOM     62  N   UNL A   1      43.030  29.907  29.776  1.00  0.00    -0.248 NA
ATOM     63  C   UNL A   1      41.389  31.520  30.184  1.00  0.00     0.031 C 
ATOM     64  C   UNL A   1      47.352  30.452  30.663  1.00  0.00     0.029 A 
ATOM     65  C   UNL A   1      45.997  30.305  30.413  1.00  0.00     0.049 A 
ATOM     66  H   UNL A   1      44.967  28.631  29.641  1.00  0.00     0.167 HD
ATOM     67  C   UNL A   1      43.629  31.042  30.319  1.00  0.00     0.074 A 
ATOM     68  C   UNL A   1      42.573  32.013  30.515  1.00  0.00     0.031 C 
ATOM     69  C   UNL A   1      44.936  31.264  30.617  1.00  0.00     0.034 A 
BRANCH  56  70
ATOM     70  C   UNL A   1      48.634  26.412  29.483  1.00  0.00     0.023 A 
ATOM     71  C   UNL A   1      49.089  25.742  30.633  1.00  0.00     0.031 A 
ATOM     72  C   UNL A   1      49.527  26.540  28.403  1.00  0.00     0.131 A 
ATOM     73  C   UNL A   1      50.419  25.299  30.705  1.00  0.00     0.055 A 
ATOM     74  C   UNL A   1      50.820  26.016  28.448  1.00  0.00     0.041 A 
ATOM     75  F   UNL A   1      49.162  27.191  27.287  1.00  0.00    -0.206 F 
ATOM     76  C   UNL A   1      51.279  25.406  29.611  1.00  0.00     0.022 A 
BRANCH  73  77
ATOM     77  S   UNL A   1      51.057  24.732  32.306  1.00  0.00     0.124 S 
ATOM     78  O   UNL A   1      50.016  25.198  33.220  1.00  0.00    -0.237 OA
ATOM     79  O   UNL A   1      51.143  23.288  32.117  1.00  0.00    -0.237 OA
ATOM     80  O   UNL A   1      52.338  25.424  32.428  1.00  0.00    -0.744 OA
ENDBRANCH  73  77
ENDBRANCH  56  70
BRANCH  57  81
ATOM     81  C   UNL A   1      39.231  29.868  29.091  1.00  0.00     0.023 A 
ATOM     82  C   UNL A   1      38.610  30.322  30.266  1.00  0.00     0.031 A 
ATOM     83  C   UNL A   1      38.473  29.864  27.906  1.00  0.00     0.131 A 
ATOM     84  C   UNL A   1      37.260  30.705  30.241  1.00  0.00     0.055 A 
ATOM     85  C   UNL A   1      37.150  30.306  27.874  1.00  0.00     0.041 A 
ATOM     86  F   UNL A   1      39.014  29.434  26.754  1.00  0.00    -0.206 F 
ATOM     87  C   UNL A   1      36.531  30.716  29.050  1.00  0.00     0.022 A 
BRANCH  84  88
ATOM     88  S   UNL A   1      36.441  31.094  31.812  1.00  0.00     0.124 S 
ATOM     89  O   UNL A   1      35.215  31.735  31.354  1.00  0.00    -0.237 OA
ATOM     90  O   UNL A   1      36.290  29.771  32.410  1.00  0.00    -0.237 OA
ATOM     91  O   UNL A   1      37.395  31.973  32.484  1.00  0.00    -0.744 OA
ENDBRANCH  84  88
ENDBRANCH  57  81
BRANCH  69  92
ATOM     92  C   UNL A   1      45.302  32.636  31.137  1.00  0.00     0.023 A 
ATOM     93  C   UNL A   1      45.628  32.861  32.486  1.00  0.00     0.031 A 
ATOM     94  C   UNL A   1      45.320  33.739  30.263  1.00  0.00     0.131 A 
ATOM     95  C   UNL A   1      45.897  34.164  32.933  1.00  0.00     0.055 A 
ATOM     96  C   UNL A   1      45.657  35.021  30.699  1.00  0.00     0.041 A 
ATOM     97  F   UNL A   1      45.012  33.588  28.965  1.00  0.00    -0.206 F 
ATOM     98  C   UNL A   1      45.935  35.242  32.045  1.00  0.00     0.022 A 
BRANCH  95  99
ATOM     99  S   UNL A   1      46.094  34.453  34.713  1.00  0.00     0.124 S 
ATOM    100  O   UNL A   1      44.715  34.392  35.185  1.00  0.00    -0.237 OA
ATOM    101  O   UNL A   1      46.956  33.346  35.116  1.00  0.00    -0.237 OA
ATOM    102  O   UNL A   1      46.713  35.775  34.781  1.00  0.00    -0.744 OA
ENDBRANCH  95  99
ENDBRANCH  69  92
ENDBRANCH  43  44
ENDBRANCH  36  38
ENDBRANCH  35  36
ENDBRANCH  34  35
ENDBRANCH  33  34
ENDBRANCH  32  33
ENDBRANCH   1  32
TORSDOF 22
ENDMDL
