MODEL 1
REMARK VINA RESULT:     -12.4      0.000      0.000
REMARK SMILES C[C@H](NC(=O)c1cccc(NC(=O)c2ccccc2C(=O)OCCOCCOC(=O)c2ccc(-c3c4nc(c(-c5cc(S(=O)(=O)[O-])ccc5F)c5ccc([nH]5)c(-c5cc(S(=O)(=O)[O-])ccc5F)c5nc(c(-c6cc(S(=O)(=O)[O-])ccc6F)c6ccc3[nH]6)C=C5)C=C4)cc2)c1)c1ccccc1
REMARK SMILES IDX 24 1 23 2 22 3 20 4 21 5 19 6 14 7 15 8 16 9 18 10 17 11
REMARK SMILES IDX 12 12 11 13 13 15 10 16 6 17 7 18 94 19 8 20 9 21 4 22 3 23
REMARK SMILES IDX 5 25 2 26 1 27 95 28 96 29 100 30 97 31 99 32 98 33 25 34
REMARK SMILES IDX 26 35 27 36 28 37 29 38 30 39 31 40 32 41 93 42 33 43 92 44
REMARK SMILES IDX 34 45 35 46 36 47 86 48 37 49 91 50 85 51 87 52 38 53 90 54
REMARK SMILES IDX 84 55 83 56 39 58 71 59 51 60 70 61 52 62 55 63 69 64 88 65
REMARK SMILES IDX 53 66 54 67 68 69 89 70 56 71 40 72 41 73 49 74 42 75 48 76
REMARK SMILES IDX 50 77 47 78 43 79 44 80 45 81 46 82 72 83 73 84 81 85 74 86
REMARK SMILES IDX 80 87 82 88 79 89 75 90 76 91 77 92 78 93 57 94 58 95 66 96
REMARK SMILES IDX 59 97 65 98 67 99 64 100 60 101 61 102 62 103 63 104
REMARK H PARENT 11 14 3 24 87 57 55 68
REMARK Flexibility Score: inf
ROOT
ATOM      1  C   UNL A   1      34.399  23.317  22.769  1.00  0.00     0.202 C 
ENDROOT
BRANCH   1   2
ATOM      2  C   UNL A   1      34.111  24.779  23.116  1.00  0.00     0.261 C 
BRANCH   2   3
ATOM      3  O   UNL A   1      32.984  25.409  22.514  1.00  0.00    -0.460 OA
BRANCH   3   4
ATOM      4  C   UNL A   1      33.148  26.728  22.294  1.00  0.00     0.339 C 
ATOM      5  O   UNL A   1      34.027  27.262  21.625  1.00  0.00    -0.246 OA
BRANCH   4   6
ATOM      6  C   UNL A   1      32.061  27.494  22.917  1.00  0.00     0.072 A 
ATOM      7  C   UNL A   1      32.077  27.972  24.236  1.00  0.00     0.054 A 
ATOM      8  C   UNL A   1      30.947  28.667  24.710  1.00  0.00     0.015 A 
ATOM      9  C   UNL A   1      29.856  28.930  23.877  1.00  0.00     0.001 A 
ATOM     10  C   UNL A   1      30.968  27.784  22.077  1.00  0.00     0.016 A 
ATOM     11  C   UNL A   1      29.871  28.497  22.556  1.00  0.00     0.001 A 
BRANCH   7  12
ATOM     12  C   UNL A   1      33.141  27.740  25.242  1.00  0.00     0.256 C 
ATOM     13  N   UNL A   1      33.266  26.626  26.044  1.00  0.00    -0.322 N 
ATOM     14  H   UNL A   1      34.016  26.692  26.678  1.00  0.00     0.170 HD
ATOM     15  O   UNL A   1      33.989  28.630  25.356  1.00  0.00    -0.269 OA
BRANCH  13  16
ATOM     16  C   UNL A   1      32.560  25.415  26.157  1.00  0.00     0.042 A 
ATOM     17  C   UNL A   1      32.687  23.076  26.845  1.00  0.00     0.041 A 
ATOM     18  C   UNL A   1      31.284  23.034  26.841  1.00  0.00     0.014 A 
ATOM     19  C   UNL A   1      33.314  24.254  26.429  1.00  0.00     0.040 A 
ATOM     20  C   UNL A   1      30.536  24.131  26.419  1.00  0.00     0.003 A 
ATOM     21  C   UNL A   1      31.177  25.315  26.062  1.00  0.00     0.026 A 
BRANCH  17  22
ATOM     22  C   UNL A   1      33.382  21.798  27.146  1.00  0.00     0.251 C 
ATOM     23  N   UNL A   1      33.217  20.595  26.519  1.00  0.00    -0.346 N 
ATOM     24  H   UNL A   1      33.751  19.908  26.981  1.00  0.00     0.164 HD
ATOM     25  O   UNL A   1      34.229  21.836  28.044  1.00  0.00    -0.269 OA
BRANCH  23  26
ATOM     26  C   UNL A   1      32.509  19.986  25.389  1.00  0.00     0.109 C 
ATOM     27  C   UNL A   1      32.467  20.736  24.079  1.00  0.00     0.036 C 
BRANCH  26  28
ATOM     28  C   UNL A   1      33.033  18.586  25.084  1.00  0.00    -0.026 A 
ATOM     29  C   UNL A   1      34.156  18.438  24.251  1.00  0.00     0.006 A 
ATOM     30  C   UNL A   1      32.525  17.451  25.734  1.00  0.00     0.006 A 
ATOM     31  C   UNL A   1      34.770  17.195  24.095  1.00  0.00     0.000 A 
ATOM     32  C   UNL A   1      33.144  16.206  25.577  1.00  0.00     0.000 A 
ATOM     33  C   UNL A   1      34.270  16.081  24.764  1.00  0.00     0.000 A 
ENDBRANCH  26  28
ENDBRANCH  23  26
ENDBRANCH  17  22
ENDBRANCH  13  16
ENDBRANCH   7  12
ENDBRANCH   4   6
ENDBRANCH   3   4
ENDBRANCH   2   3
ENDBRANCH   1   2
BRANCH   1  34
ATOM     34  O   UNL A   1      35.606  22.718  23.207  1.00  0.00    -0.374 OA
BRANCH  34  35
ATOM     35  C   UNL A   1      35.708  22.308  24.563  1.00  0.00     0.202 C 
BRANCH  35  36
ATOM     36  C   UNL A   1      36.686  21.192  24.955  1.00  0.00     0.261 C 
BRANCH  36  37
ATOM     37  O   UNL A   1      38.077  21.473  24.712  1.00  0.00    -0.460 OA
BRANCH  37  38
ATOM     38  C   UNL A   1      38.898  21.171  25.750  1.00  0.00     0.338 C 
ATOM     39  O   UNL A   1      39.321  20.062  26.043  1.00  0.00    -0.246 OA
BRANCH  38  40
ATOM     40  C   UNL A   1      39.351  22.385  26.455  1.00  0.00     0.060 A 
ATOM     41  C   UNL A   1      38.810  23.616  26.062  1.00  0.00     0.016 A 
ATOM     42  C   UNL A   1      40.419  22.337  27.353  1.00  0.00     0.016 A 
ATOM     43  C   UNL A   1      39.377  24.808  26.517  1.00  0.00     0.010 A 
ATOM     44  C   UNL A   1      40.993  23.533  27.799  1.00  0.00     0.010 A 
ATOM     45  C   UNL A   1      40.505  24.773  27.347  1.00  0.00    -0.014 A 
BRANCH  45  46
ATOM     46  C   UNL A   1      41.285  26.015  27.591  1.00  0.00     0.031 A 
ATOM     47  C   UNL A   1      40.657  27.122  28.398  1.00  0.00     0.074 A 
ATOM     48  C   UNL A   1      42.533  26.159  27.113  1.00  0.00     0.049 A 
ATOM     49  N   UNL A   1      41.122  28.309  28.687  1.00  0.00    -0.248 NA
ATOM     50  C   UNL A   1      39.321  26.844  28.944  1.00  0.00     0.031 C 
ATOM     51  C   UNL A   1      43.271  25.147  26.363  1.00  0.00     0.029 A 
ATOM     52  N   UNL A   1      43.396  27.224  27.185  1.00  0.00    -0.354 N 
ATOM     53  C   UNL A   1      40.135  28.928  29.450  1.00  0.00     0.074 A 
ATOM     54  C   UNL A   1      39.031  27.992  29.538  1.00  0.00     0.031 C 
ATOM     55  C   UNL A   1      44.475  25.644  26.031  1.00  0.00     0.029 A 
ATOM     56  C   UNL A   1      44.577  27.022  26.513  1.00  0.00     0.049 A 
ATOM     57  H   UNL A   1      43.188  28.054  27.673  1.00  0.00     0.167 HD
ATOM     58  C   UNL A   1      40.148  30.155  30.029  1.00  0.00     0.034 A 
ATOM     59  C   UNL A   1      45.609  27.861  26.290  1.00  0.00     0.034 A 
ATOM     60  C   UNL A   1      41.243  31.089  29.913  1.00  0.00     0.049 A 
ATOM     61  C   UNL A   1      45.559  29.263  26.846  1.00  0.00     0.074 A 
ATOM     62  C   UNL A   1      41.367  32.349  30.471  1.00  0.00     0.029 A 
ATOM     63  N   UNL A   1      42.398  30.871  29.171  1.00  0.00    -0.354 N 
ATOM     64  N   UNL A   1      44.625  29.835  27.570  1.00  0.00    -0.248 NA
ATOM     65  C   UNL A   1      46.709  30.131  26.554  1.00  0.00     0.031 C 
ATOM     66  C   UNL A   1      42.557  32.922  30.006  1.00  0.00     0.029 A 
ATOM     67  C   UNL A   1      43.218  31.988  29.224  1.00  0.00     0.049 A 
ATOM     68  H   UNL A   1      42.604  30.044  28.678  1.00  0.00     0.167 HD
ATOM     69  C   UNL A   1      45.092  31.118  27.849  1.00  0.00     0.074 A 
ATOM     70  C   UNL A   1      46.390  31.233  27.217  1.00  0.00     0.031 C 
ATOM     71  C   UNL A   1      44.505  32.104  28.576  1.00  0.00     0.034 A 
BRANCH  58  72
ATOM     72  C   UNL A   1      38.906  30.568  30.787  1.00  0.00     0.023 A 
ATOM     73  C   UNL A   1      37.892  31.332  30.184  1.00  0.00     0.031 A 
ATOM     74  C   UNL A   1      38.766  30.249  32.149  1.00  0.00     0.131 A 
ATOM     75  C   UNL A   1      36.834  31.831  30.960  1.00  0.00     0.055 A 
ATOM     76  C   UNL A   1      37.665  30.675  32.895  1.00  0.00     0.041 A 
ATOM     77  F   UNL A   1      39.710  29.539  32.787  1.00  0.00    -0.206 F 
ATOM     78  C   UNL A   1      36.702  31.489  32.307  1.00  0.00     0.022 A 
BRANCH  75  79
ATOM     79  S   UNL A   1      35.740  33.081  30.230  1.00  0.00     0.124 S 
ATOM     80  O   UNL A   1      35.818  34.155  31.218  1.00  0.00    -0.237 OA
ATOM     81  O   UNL A   1      36.378  33.346  28.946  1.00  0.00    -0.237 OA
ATOM     82  O   UNL A   1      34.447  32.405  30.158  1.00  0.00    -0.744 OA
ENDBRANCH  75  79
ENDBRANCH  58  72
BRANCH  59  83
ATOM     83  C   UNL A   1      46.771  27.412  25.474  1.00  0.00     0.023 A 
ATOM     84  C   UNL A   1      46.929  27.838  24.147  1.00  0.00     0.031 A 
ATOM     85  C   UNL A   1      47.724  26.524  26.004  1.00  0.00     0.131 A 
ATOM     86  C   UNL A   1      48.000  27.352  23.382  1.00  0.00     0.055 A 
ATOM     87  C   UNL A   1      48.812  26.077  25.252  1.00  0.00     0.041 A 
ATOM     88  F   UNL A   1      47.618  26.090  27.270  1.00  0.00    -0.206 F 
ATOM     89  C   UNL A   1      48.949  26.484  23.928  1.00  0.00     0.022 A 
BRANCH  86  90
ATOM     90  S   UNL A   1      48.110  27.836  21.637  1.00  0.00     0.124 S 
ATOM     91  O   UNL A   1      48.398  26.560  20.993  1.00  0.00    -0.237 OA
ATOM     92  O   UNL A   1      46.784  28.393  21.395  1.00  0.00    -0.237 OA
ATOM     93  O   UNL A   1      49.202  28.807  21.623  1.00  0.00    -0.744 OA
ENDBRANCH  86  90
ENDBRANCH  59  83
BRANCH  71  94
ATOM     94  C   UNL A   1      45.291  33.380  28.771  1.00  0.00     0.023 A 
ATOM     95  C   UNL A   1      46.184  33.552  29.843  1.00  0.00     0.031 A 
ATOM     96  C   UNL A   1      45.137  34.444  27.863  1.00  0.00     0.131 A 
ATOM     97  C   UNL A   1      46.851  34.776  30.008  1.00  0.00     0.055 A 
ATOM     98  C   UNL A   1      45.846  35.639  28.001  1.00  0.00     0.041 A 
ATOM     99  F   UNL A   1      44.296  34.338  26.822  1.00  0.00    -0.206 F 
ATOM    100  C   UNL A   1      46.700  35.815  29.085  1.00  0.00     0.022 A 
BRANCH  97 101
ATOM    101  S   UNL A   1      47.862  35.029  31.495  1.00  0.00     0.124 S 
ATOM    102  O   UNL A   1      47.699  33.758  32.192  1.00  0.00    -0.237 OA
ATOM    103  O   UNL A   1      49.184  35.285  30.934  1.00  0.00    -0.237 OA
ATOM    104  O   UNL A   1      47.234  36.177  32.146  1.00  0.00    -0.744 OA
ENDBRANCH  97 101
ENDBRANCH  71  94
ENDBRANCH  45  46
ENDBRANCH  38  40
ENDBRANCH  37  38
ENDBRANCH  36  37
ENDBRANCH  35  36
ENDBRANCH  34  35
ENDBRANCH   1  34
TORSDOF 22
ENDMDL
MODEL 2
REMARK VINA RESULT:     -12.1      1.865      7.284
REMARK SMILES C[C@H](NC(=O)c1cccc(NC(=O)c2ccccc2C(=O)OCCOCCOC(=O)c2ccc(-c3c4nc(c(-c5cc(S(=O)(=O)[O-])ccc5F)c5ccc([nH]5)c(-c5cc(S(=O)(=O)[O-])ccc5F)c5nc(c(-c6cc(S(=O)(=O)[O-])ccc6F)c6ccc3[nH]6)C=C5)C=C4)cc2)c1)c1ccccc1
REMARK SMILES IDX 24 1 23 2 22 3 20 4 21 5 19 6 14 7 15 8 16 9 18 10 17 11
REMARK SMILES IDX 12 12 11 13 13 15 10 16 6 17 7 18 94 19 8 20 9 21 4 22 3 23
REMARK SMILES IDX 5 25 2 26 1 27 95 28 96 29 100 30 97 31 99 32 98 33 25 34
REMARK SMILES IDX 26 35 27 36 28 37 29 38 30 39 31 40 32 41 93 42 33 43 92 44
REMARK SMILES IDX 34 45 35 46 36 47 86 48 37 49 91 50 85 51 87 52 38 53 90 54
REMARK SMILES IDX 84 55 83 56 39 58 71 59 51 60 70 61 52 62 55 63 69 64 88 65
REMARK SMILES IDX 53 66 54 67 68 69 89 70 56 71 40 72 41 73 49 74 42 75 48 76
REMARK SMILES IDX 50 77 47 78 43 79 44 80 45 81 46 82 72 83 73 84 81 85 74 86
REMARK SMILES IDX 80 87 82 88 79 89 75 90 76 91 77 92 78 93 57 94 58 95 66 96
REMARK SMILES IDX 59 97 65 98 67 99 64 100 60 101 61 102 62 103 63 104
REMARK H PARENT 11 14 3 24 87 57 55 68
REMARK Flexibility Score: inf
ROOT
ATOM      1  C   UNL A   1      34.563  23.217  22.896  1.00  0.00     0.202 C 
ENDROOT
BRANCH   1   2
ATOM      2  C   UNL A   1      34.297  24.664  23.319  1.00  0.00     0.261 C 
BRANCH   2   3
ATOM      3  O   UNL A   1      33.068  25.269  22.930  1.00  0.00    -0.460 OA
BRANCH   3   4
ATOM      4  C   UNL A   1      33.206  26.505  22.413  1.00  0.00     0.339 C 
ATOM      5  O   UNL A   1      34.032  26.871  21.585  1.00  0.00    -0.246 OA
BRANCH   4   6
ATOM      6  C   UNL A   1      32.158  27.398  22.925  1.00  0.00     0.072 A 
ATOM      7  C   UNL A   1      32.158  27.976  24.203  1.00  0.00     0.054 A 
ATOM      8  C   UNL A   1      31.068  28.790  24.570  1.00  0.00     0.015 A 
ATOM      9  C   UNL A   1      30.036  29.068  23.669  1.00  0.00     0.001 A 
ATOM     10  C   UNL A   1      31.127  27.702  22.015  1.00  0.00     0.016 A 
ATOM     11  C   UNL A   1      30.071  28.532  22.386  1.00  0.00     0.001 A 
BRANCH   7  12
ATOM     12  C   UNL A   1      33.158  27.744  25.273  1.00  0.00     0.256 C 
ATOM     13  N   UNL A   1      33.215  26.643  26.101  1.00  0.00    -0.322 N 
ATOM     14  H   UNL A   1      33.929  26.709  26.776  1.00  0.00     0.170 HD
ATOM     15  O   UNL A   1      34.015  28.620  25.420  1.00  0.00    -0.269 OA
BRANCH  13  16
ATOM     16  C   UNL A   1      32.481  25.449  26.196  1.00  0.00     0.042 A 
ATOM     17  C   UNL A   1      32.560  23.090  26.820  1.00  0.00     0.041 A 
ATOM     18  C   UNL A   1      31.157  23.083  26.840  1.00  0.00     0.014 A 
ATOM     19  C   UNL A   1      33.209  24.262  26.423  1.00  0.00     0.040 A 
ATOM     20  C   UNL A   1      30.429  24.209  26.462  1.00  0.00     0.003 A 
ATOM     21  C   UNL A   1      31.094  25.386  26.124  1.00  0.00     0.026 A 
BRANCH  17  22
ATOM     22  C   UNL A   1      33.227  21.787  27.074  1.00  0.00     0.251 C 
ATOM     23  N   UNL A   1      33.044  20.613  26.399  1.00  0.00    -0.346 N 
ATOM     24  H   UNL A   1      33.561  19.898  26.836  1.00  0.00     0.164 HD
ATOM     25  O   UNL A   1      34.069  21.772  27.979  1.00  0.00    -0.269 OA
BRANCH  23  26
ATOM     26  C   UNL A   1      32.332  20.064  25.240  1.00  0.00     0.109 C 
ATOM     27  C   UNL A   1      32.275  20.888  23.975  1.00  0.00     0.036 C 
BRANCH  26  28
ATOM     28  C   UNL A   1      32.866  18.689  24.851  1.00  0.00    -0.026 A 
ATOM     29  C   UNL A   1      32.801  17.636  25.781  1.00  0.00     0.006 A 
ATOM     30  C   UNL A   1      33.276  18.401  23.540  1.00  0.00     0.006 A 
ATOM     31  C   UNL A   1      33.111  16.330  25.404  1.00  0.00     0.000 A 
ATOM     32  C   UNL A   1      33.584  17.089  23.165  1.00  0.00     0.000 A 
ATOM     33  C   UNL A   1      33.494  16.054  24.094  1.00  0.00     0.000 A 
ENDBRANCH  26  28
ENDBRANCH  23  26
ENDBRANCH  17  22
ENDBRANCH  13  16
ENDBRANCH   7  12
ENDBRANCH   4   6
ENDBRANCH   3   4
ENDBRANCH   2   3
ENDBRANCH   1   2
BRANCH   1  34
ATOM     34  O   UNL A   1      35.715  22.548  23.375  1.00  0.00    -0.374 OA
BRANCH  34  35
ATOM     35  C   UNL A   1      35.904  22.440  24.780  1.00  0.00     0.202 C 
BRANCH  35  36
ATOM     36  C   UNL A   1      36.907  21.424  25.342  1.00  0.00     0.261 C 
BRANCH  36  37
ATOM     37  O   UNL A   1      38.279  21.628  24.956  1.00  0.00    -0.460 OA
BRANCH  37  38
ATOM     38  C   UNL A   1      39.182  21.361  25.934  1.00  0.00     0.338 C 
ATOM     39  O   UNL A   1      39.720  20.285  26.150  1.00  0.00    -0.246 OA
BRANCH  38  40
ATOM     40  C   UNL A   1      39.560  22.579  26.673  1.00  0.00     0.060 A 
ATOM     41  C   UNL A   1      38.903  23.775  26.353  1.00  0.00     0.016 A 
ATOM     42  C   UNL A   1      40.664  22.588  27.527  1.00  0.00     0.016 A 
ATOM     43  C   UNL A   1      39.387  24.992  26.836  1.00  0.00     0.010 A 
ATOM     44  C   UNL A   1      41.155  23.810  28.001  1.00  0.00     0.010 A 
ATOM     45  C   UNL A   1      40.547  25.021  27.622  1.00  0.00    -0.014 A 
BRANCH  45  46
ATOM     46  C   UNL A   1      41.230  26.314  27.888  1.00  0.00     0.031 A 
ATOM     47  C   UNL A   1      42.654  26.492  27.429  1.00  0.00     0.074 A 
ATOM     48  C   UNL A   1      40.597  27.319  28.517  1.00  0.00     0.049 A 
ATOM     49  N   UNL A   1      43.464  27.505  27.601  1.00  0.00    -0.248 NA
ATOM     50  C   UNL A   1      43.237  25.369  26.682  1.00  0.00     0.031 C 
ATOM     51  C   UNL A   1      39.207  27.292  28.965  1.00  0.00     0.029 A 
ATOM     52  N   UNL A   1      41.051  28.558  28.894  1.00  0.00    -0.354 N 
ATOM     53  C   UNL A   1      44.659  27.142  26.985  1.00  0.00     0.074 A 
ATOM     54  C   UNL A   1      44.472  25.799  26.475  1.00  0.00     0.031 C 
ATOM     55  C   UNL A   1      38.924  28.460  29.569  1.00  0.00     0.029 A 
ATOM     56  C   UNL A   1      40.122  29.299  29.584  1.00  0.00     0.049 A 
ATOM     57  H   UNL A   1      41.957  28.886  28.689  1.00  0.00     0.167 HD
ATOM     58  C   UNL A   1      45.801  27.863  26.849  1.00  0.00     0.034 A 
ATOM     59  C   UNL A   1      40.233  30.503  30.181  1.00  0.00     0.034 A 
ATOM     60  C   UNL A   1      45.984  29.191  27.384  1.00  0.00     0.049 A 
ATOM     61  C   UNL A   1      41.547  31.243  30.118  1.00  0.00     0.074 A 
ATOM     62  C   UNL A   1      47.091  30.016  27.291  1.00  0.00     0.029 A 
ATOM     63  N   UNL A   1      45.039  29.884  28.131  1.00  0.00    -0.354 N 
ATOM     64  N   UNL A   1      42.668  30.895  29.528  1.00  0.00    -0.248 NA
ATOM     65  C   UNL A   1      41.607  32.543  30.801  1.00  0.00     0.031 C 
ATOM     66  C   UNL A   1      46.846  31.171  28.043  1.00  0.00     0.029 A 
ATOM     67  C   UNL A   1      45.554  31.106  28.539  1.00  0.00     0.049 A 
ATOM     68  H   UNL A   1      44.135  29.555  28.342  1.00  0.00     0.167 HD
ATOM     69  C   UNL A   1      43.553  31.950  29.741  1.00  0.00     0.074 A 
ATOM     70  C   UNL A   1      42.836  32.945  30.511  1.00  0.00     0.031 C 
ATOM     71  C   UNL A   1      44.838  32.088  29.322  1.00  0.00     0.034 A 
BRANCH  58  72
ATOM     72  C   UNL A   1      46.956  27.189  26.142  1.00  0.00     0.023 A 
ATOM     73  C   UNL A   1      47.930  26.461  26.846  1.00  0.00     0.031 A 
ATOM     74  C   UNL A   1      47.120  27.333  24.753  1.00  0.00     0.131 A 
ATOM     75  C   UNL A   1      49.070  25.987  26.179  1.00  0.00     0.055 A 
ATOM     76  C   UNL A   1      48.213  26.782  24.080  1.00  0.00     0.041 A 
ATOM     77  F   UNL A   1      46.234  28.035  24.028  1.00  0.00    -0.206 F 
ATOM     78  C   UNL A   1      49.207  26.123  24.796  1.00  0.00     0.022 A 
BRANCH  75  79
ATOM     79  S   UNL A   1      50.453  25.355  27.169  1.00  0.00     0.124 S 
ATOM     80  O   UNL A   1      50.760  26.507  28.016  1.00  0.00    -0.237 OA
ATOM     81  O   UNL A   1      49.858  24.208  27.843  1.00  0.00    -0.237 OA
ATOM     82  O   UNL A   1      51.473  25.037  26.172  1.00  0.00    -0.744 OA
ENDBRANCH  75  79
ENDBRANCH  58  72
BRANCH  59  83
ATOM     83  C   UNL A   1      39.077  31.077  30.922  1.00  0.00     0.023 A 
ATOM     84  C   UNL A   1      38.084  31.810  30.255  1.00  0.00     0.031 A 
ATOM     85  C   UNL A   1      38.968  30.928  32.316  1.00  0.00     0.131 A 
ATOM     86  C   UNL A   1      37.037  32.391  30.987  1.00  0.00     0.055 A 
ATOM     87  C   UNL A   1      37.902  31.473  33.034  1.00  0.00     0.041 A 
ATOM     88  F   UNL A   1      39.892  30.233  32.999  1.00  0.00    -0.206 F 
ATOM     89  C   UNL A   1      36.932  32.219  32.369  1.00  0.00     0.022 A 
BRANCH  86  90
ATOM     90  S   UNL A   1      35.834  33.424  30.106  1.00  0.00     0.124 S 
ATOM     91  O   UNL A   1      34.866  32.431  29.653  1.00  0.00    -0.237 OA
ATOM     92  O   UNL A   1      35.383  34.327  31.159  1.00  0.00    -0.237 OA
ATOM     93  O   UNL A   1      36.630  34.049  29.052  1.00  0.00    -0.744 OA
ENDBRANCH  86  90
ENDBRANCH  59  83
BRANCH  71  94
ATOM     94  C   UNL A   1      45.535  33.389  29.646  1.00  0.00     0.023 A 
ATOM     95  C   UNL A   1      45.477  34.502  28.788  1.00  0.00     0.031 A 
ATOM     96  C   UNL A   1      46.273  33.512  30.837  1.00  0.00     0.131 A 
ATOM     97  C   UNL A   1      46.184  35.671  29.111  1.00  0.00     0.055 A 
ATOM     98  C   UNL A   1      46.929  34.696  31.180  1.00  0.00     0.041 A 
ATOM     99  F   UNL A   1      46.367  32.482  31.693  1.00  0.00    -0.206 F 
ATOM    100  C   UNL A   1      46.896  35.781  30.308  1.00  0.00     0.022 A 
BRANCH  97 101
ATOM    101  S   UNL A   1      46.231  37.026  27.904  1.00  0.00     0.124 S 
ATOM    102  O   UNL A   1      47.480  37.696  28.249  1.00  0.00    -0.237 OA
ATOM    103  O   UNL A   1      46.220  36.312  26.631  1.00  0.00    -0.237 OA
ATOM    104  O   UNL A   1      45.018  37.788  28.195  1.00  0.00    -0.744 OA
ENDBRANCH  97 101
ENDBRANCH  71  94
ENDBRANCH  45  46
ENDBRANCH  38  40
ENDBRANCH  37  38
ENDBRANCH  36  37
ENDBRANCH  35  36
ENDBRANCH  34  35
ENDBRANCH   1  34
TORSDOF 22
ENDMDL
MODEL 3
REMARK VINA RESULT:     -11.8      1.927      7.317
REMARK SMILES C[C@H](NC(=O)c1cccc(NC(=O)c2ccccc2C(=O)OCCOCCOC(=O)c2ccc(-c3c4nc(c(-c5cc(S(=O)(=O)[O-])ccc5F)c5ccc([nH]5)c(-c5cc(S(=O)(=O)[O-])ccc5F)c5nc(c(-c6cc(S(=O)(=O)[O-])ccc6F)c6ccc3[nH]6)C=C5)C=C4)cc2)c1)c1ccccc1
REMARK SMILES IDX 24 1 23 2 22 3 20 4 21 5 19 6 14 7 15 8 16 9 18 10 17 11
REMARK SMILES IDX 12 12 11 13 13 15 10 16 6 17 7 18 94 19 8 20 9 21 4 22 3 23
REMARK SMILES IDX 5 25 2 26 1 27 95 28 96 29 100 30 97 31 99 32 98 33 25 34
REMARK SMILES IDX 26 35 27 36 28 37 29 38 30 39 31 40 32 41 93 42 33 43 92 44
REMARK SMILES IDX 34 45 35 46 36 47 86 48 37 49 91 50 85 51 87 52 38 53 90 54
REMARK SMILES IDX 84 55 83 56 39 58 71 59 51 60 70 61 52 62 55 63 69 64 88 65
REMARK SMILES IDX 53 66 54 67 68 69 89 70 56 71 40 72 41 73 49 74 42 75 48 76
REMARK SMILES IDX 50 77 47 78 43 79 44 80 45 81 46 82 72 83 73 84 81 85 74 86
REMARK SMILES IDX 80 87 82 88 79 89 75 90 76 91 77 92 78 93 57 94 58 95 66 96
REMARK SMILES IDX 59 97 65 98 67 99 64 100 60 101 61 102 62 103 63 104
REMARK H PARENT 11 14 3 24 87 57 55 68
REMARK Flexibility Score: inf
ROOT
ATOM      1  C   UNL A   1      34.548  23.154  22.876  1.00  0.00     0.202 C 
ENDROOT
BRANCH   1   2
ATOM      2  C   UNL A   1      34.291  24.630  23.189  1.00  0.00     0.261 C 
BRANCH   2   3
ATOM      3  O   UNL A   1      33.081  25.221  22.726  1.00  0.00    -0.460 OA
BRANCH   3   4
ATOM      4  C   UNL A   1      33.204  26.516  22.375  1.00  0.00     0.339 C 
ATOM      5  O   UNL A   1      34.046  27.002  21.629  1.00  0.00    -0.246 OA
BRANCH   4   6
ATOM      6  C   UNL A   1      32.118  27.314  22.960  1.00  0.00     0.072 A 
ATOM      7  C   UNL A   1      32.111  27.809  24.273  1.00  0.00     0.054 A 
ATOM      8  C   UNL A   1      30.985  28.535  24.708  1.00  0.00     0.015 A 
ATOM      9  C   UNL A   1      29.921  28.810  23.844  1.00  0.00     0.001 A 
ATOM     10  C   UNL A   1      31.054  27.616  22.088  1.00  0.00     0.016 A 
ATOM     11  C   UNL A   1      29.961  28.360  22.529  1.00  0.00     0.001 A 
BRANCH   7  12
ATOM     12  C   UNL A   1      33.143  27.567  25.309  1.00  0.00     0.256 C 
ATOM     13  N   UNL A   1      33.245  26.444  26.102  1.00  0.00    -0.322 N 
ATOM     14  H   UNL A   1      33.974  26.505  26.760  1.00  0.00     0.170 HD
ATOM     15  O   UNL A   1      33.985  28.457  25.460  1.00  0.00    -0.269 OA
BRANCH  13  16
ATOM     16  C   UNL A   1      32.539  25.231  26.179  1.00  0.00     0.042 A 
ATOM     17  C   UNL A   1      32.679  22.860  26.744  1.00  0.00     0.041 A 
ATOM     18  C   UNL A   1      31.277  22.821  26.786  1.00  0.00     0.014 A 
ATOM     19  C   UNL A   1      33.296  24.056  26.366  1.00  0.00     0.040 A 
ATOM     20  C   UNL A   1      30.519  23.940  26.446  1.00  0.00     0.003 A 
ATOM     21  C   UNL A   1      31.152  25.139  26.127  1.00  0.00     0.026 A 
BRANCH  17  22
ATOM     22  C   UNL A   1      33.379  21.567  26.956  1.00  0.00     0.251 C 
ATOM     23  N   UNL A   1      33.182  20.395  26.282  1.00  0.00    -0.346 N 
ATOM     24  H   UNL A   1      33.731  19.685  26.688  1.00  0.00     0.164 HD
ATOM     25  O   UNL A   1      34.263  21.560  27.819  1.00  0.00    -0.269 OA
BRANCH  23  26
ATOM     26  C   UNL A   1      32.424  19.842  25.155  1.00  0.00     0.109 C 
ATOM     27  C   UNL A   1      32.471  20.569  23.832  1.00  0.00     0.036 C 
BRANCH  26  28
ATOM     28  C   UNL A   1      32.805  18.391  24.878  1.00  0.00    -0.026 A 
ATOM     29  C   UNL A   1      33.652  18.095  23.795  1.00  0.00     0.006 A 
ATOM     30  C   UNL A   1      32.463  17.357  25.764  1.00  0.00     0.006 A 
ATOM     31  C   UNL A   1      34.164  16.810  23.619  1.00  0.00     0.000 A 
ATOM     32  C   UNL A   1      32.980  16.070  25.586  1.00  0.00     0.000 A 
ATOM     33  C   UNL A   1      33.836  15.799  24.519  1.00  0.00     0.000 A 
ENDBRANCH  26  28
ENDBRANCH  23  26
ENDBRANCH  17  22
ENDBRANCH  13  16
ENDBRANCH   7  12
ENDBRANCH   4   6
ENDBRANCH   3   4
ENDBRANCH   2   3
ENDBRANCH   1   2
BRANCH   1  34
ATOM     34  O   UNL A   1      35.615  22.478  23.516  1.00  0.00    -0.374 OA
BRANCH  34  35
ATOM     35  C   UNL A   1      35.998  22.892  24.820  1.00  0.00     0.202 C 
BRANCH  35  36
ATOM     36  C   UNL A   1      36.944  22.018  25.655  1.00  0.00     0.261 C 
BRANCH  36  37
ATOM     37  O   UNL A   1      38.235  21.768  25.070  1.00  0.00    -0.460 OA
BRANCH  37  38
ATOM     38  C   UNL A   1      39.228  21.561  25.973  1.00  0.00     0.338 C 
ATOM     39  O   UNL A   1      39.841  20.518  26.149  1.00  0.00    -0.246 OA
BRANCH  38  40
ATOM     40  C   UNL A   1      39.597  22.806  26.671  1.00  0.00     0.060 A 
ATOM     41  C   UNL A   1      39.019  24.004  26.231  1.00  0.00     0.016 A 
ATOM     42  C   UNL A   1      40.627  22.822  27.613  1.00  0.00     0.016 A 
ATOM     43  C   UNL A   1      39.514  25.228  26.685  1.00  0.00     0.010 A 
ATOM     44  C   UNL A   1      41.129  24.050  28.058  1.00  0.00     0.010 A 
ATOM     45  C   UNL A   1      40.607  25.259  27.562  1.00  0.00    -0.014 A 
BRANCH  45  46
ATOM     46  C   UNL A   1      41.320  26.539  27.813  1.00  0.00     0.031 A 
ATOM     47  C   UNL A   1      42.743  26.683  27.338  1.00  0.00     0.074 A 
ATOM     48  C   UNL A   1      40.717  27.562  28.442  1.00  0.00     0.049 A 
ATOM     49  N   UNL A   1      43.577  27.678  27.493  1.00  0.00    -0.248 NA
ATOM     50  C   UNL A   1      43.294  25.542  26.591  1.00  0.00     0.031 C 
ATOM     51  C   UNL A   1      39.332  27.568  28.905  1.00  0.00     0.029 A 
ATOM     52  N   UNL A   1      41.202  28.793  28.806  1.00  0.00    -0.354 N 
ATOM     53  C   UNL A   1      44.757  27.286  26.867  1.00  0.00     0.074 A 
ATOM     54  C   UNL A   1      44.535  25.943  26.368  1.00  0.00     0.031 C 
ATOM     55  C   UNL A   1      39.081  28.745  29.505  1.00  0.00     0.029 A 
ATOM     56  C   UNL A   1      40.297  29.558  29.501  1.00  0.00     0.049 A 
ATOM     57  H   UNL A   1      42.113  29.099  28.589  1.00  0.00     0.167 HD
ATOM     58  C   UNL A   1      45.913  27.981  26.714  1.00  0.00     0.034 A 
ATOM     59  C   UNL A   1      40.441  30.763  30.089  1.00  0.00     0.034 A 
ATOM     60  C   UNL A   1      46.130  29.308  27.238  1.00  0.00     0.049 A 
ATOM     61  C   UNL A   1      41.770  31.474  30.007  1.00  0.00     0.074 A 
ATOM     62  C   UNL A   1      47.255  30.108  27.128  1.00  0.00     0.029 A 
ATOM     63  N   UNL A   1      45.210  30.026  27.991  1.00  0.00    -0.354 N 
ATOM     64  N   UNL A   1      42.877  31.098  29.407  1.00  0.00    -0.248 NA
ATOM     65  C   UNL A   1      41.866  32.776  30.681  1.00  0.00     0.031 C 
ATOM     66  C   UNL A   1      47.043  31.272  27.875  1.00  0.00     0.029 A 
ATOM     67  C   UNL A   1      45.755  31.239  28.385  1.00  0.00     0.049 A 
ATOM     68  H   UNL A   1      44.301  29.718  28.214  1.00  0.00     0.167 HD
ATOM     69  C   UNL A   1      43.787  32.134  29.603  1.00  0.00     0.074 A 
ATOM     70  C   UNL A   1      43.100  33.150  30.374  1.00  0.00     0.031 C 
ATOM     71  C   UNL A   1      45.070  32.241  29.170  1.00  0.00     0.034 A 
BRANCH  58  72
ATOM     72  C   UNL A   1      47.045  27.277  25.999  1.00  0.00     0.023 A 
ATOM     73  C   UNL A   1      47.989  26.501  26.693  1.00  0.00     0.031 A 
ATOM     74  C   UNL A   1      47.220  27.439  24.613  1.00  0.00     0.131 A 
ATOM     75  C   UNL A   1      49.113  25.997  26.021  1.00  0.00     0.055 A 
ATOM     76  C   UNL A   1      48.294  26.861  23.934  1.00  0.00     0.041 A 
ATOM     77  F   UNL A   1      46.364  28.186  23.898  1.00  0.00    -0.206 F 
ATOM     78  C   UNL A   1      49.261  26.153  24.641  1.00  0.00     0.022 A 
BRANCH  75  79
ATOM     79  S   UNL A   1      50.468  25.297  27.005  1.00  0.00     0.124 S 
ATOM     80  O   UNL A   1      50.788  26.408  27.899  1.00  0.00    -0.237 OA
ATOM     81  O   UNL A   1      49.839  24.138  27.625  1.00  0.00    -0.237 OA
ATOM     82  O   UNL A   1      51.494  24.995  26.010  1.00  0.00    -0.744 OA
ENDBRANCH  75  79
ENDBRANCH  58  72
BRANCH  59  83
ATOM     83  C   UNL A   1      39.306  31.367  30.839  1.00  0.00     0.023 A 
ATOM     84  C   UNL A   1      39.266  31.333  32.241  1.00  0.00     0.031 A 
ATOM     85  C   UNL A   1      38.227  31.960  30.159  1.00  0.00     0.131 A 
ATOM     86  C   UNL A   1      38.156  31.857  32.920  1.00  0.00     0.055 A 
ATOM     87  C   UNL A   1      37.144  32.517  30.840  1.00  0.00     0.041 A 
ATOM     88  F   UNL A   1      38.220  32.019  28.817  1.00  0.00    -0.206 F 
ATOM     89  C   UNL A   1      37.100  32.458  32.231  1.00  0.00     0.022 A 
BRANCH  86  90
ATOM     90  S   UNL A   1      38.088  31.695  34.725  1.00  0.00     0.124 S 
ATOM     91  O   UNL A   1      36.808  32.323  35.031  1.00  0.00    -0.237 OA
ATOM     92  O   UNL A   1      38.152  30.248  34.901  1.00  0.00    -0.237 OA
ATOM     93  O   UNL A   1      39.269  32.428  35.175  1.00  0.00    -0.744 OA
ENDBRANCH  86  90
ENDBRANCH  59  83
BRANCH  71  94
ATOM     94  C   UNL A   1      45.798  33.529  29.478  1.00  0.00     0.023 A 
ATOM     95  C   UNL A   1      46.609  33.675  30.617  1.00  0.00     0.031 A 
ATOM     96  C   UNL A   1      45.670  34.631  28.613  1.00  0.00     0.131 A 
ATOM     97  C   UNL A   1      47.223  34.909  30.885  1.00  0.00     0.055 A 
ATOM     98  C   UNL A   1      46.328  35.839  28.855  1.00  0.00     0.041 A 
ATOM     99  F   UNL A   1      44.906  34.552  27.512  1.00  0.00    -0.206 F 
ATOM    100  C   UNL A   1      47.101  35.987  30.003  1.00  0.00     0.022 A 
BRANCH  97 101
ATOM    101  S   UNL A   1      48.121  35.118  32.448  1.00  0.00     0.124 S 
ATOM    102  O   UNL A   1      49.165  34.106  32.337  1.00  0.00    -0.237 OA
ATOM    103  O   UNL A   1      48.566  36.505  32.370  1.00  0.00    -0.237 OA
ATOM    104  O   UNL A   1      47.106  34.851  33.467  1.00  0.00    -0.744 OA
ENDBRANCH  97 101
ENDBRANCH  71  94
ENDBRANCH  45  46
ENDBRANCH  38  40
ENDBRANCH  37  38
ENDBRANCH  36  37
ENDBRANCH  35  36
ENDBRANCH  34  35
ENDBRANCH   1  34
TORSDOF 22
ENDMDL
