MODEL 1
REMARK VINA RESULT:     -11.6      0.000      0.000
REMARK SMILES C[C@@](CC(=O)Nc1ccc(NC(=O)c2ccco2)cc1)(C(=O)OCCOCCOC(=O)c1ccc(-c2c3nc(c(-c4cc(S(=O)(=O)[O-])ccc4F)c4ccc([nH]4)c(-c4cc(S(=O)(=O)[O-])ccc4F)c4nc(c(-c5cc(S(=O)(=O)[O-])ccc5F)c5ccc2[nH]5)C=C4)C=C3)cc1)c1ccccc1
REMARK SMILES IDX 25 1 24 2 23 3 21 4 22 5 2 6 1 7 3 8 4 9 5 10 6 11 7 13 8 14
REMARK SMILES IDX 20 15 9 16 19 17 10 18 11 19 12 20 13 22 14 23 15 24 18 25
REMARK SMILES IDX 16 26 17 27 95 28 96 29 100 30 97 31 99 32 98 33 26 34 27 35
REMARK SMILES IDX 28 36 29 37 30 38 31 39 32 40 33 41 94 42 34 43 93 44 35 45
REMARK SMILES IDX 36 46 37 47 87 48 38 49 92 50 86 51 88 52 39 53 91 54 85 55
REMARK SMILES IDX 84 56 40 58 72 59 52 60 71 61 53 62 56 63 70 64 89 65 54 66
REMARK SMILES IDX 55 67 69 69 90 70 57 71 41 72 42 73 50 74 43 75 49 76 51 77
REMARK SMILES IDX 48 78 44 79 45 80 46 81 47 82 73 83 74 84 82 85 75 86 81 87
REMARK SMILES IDX 83 88 80 89 76 90 77 91 78 92 79 93 58 94 59 95 67 96 60 97
REMARK SMILES IDX 66 98 68 99 65 100 61 101 62 102 63 103 64 104
REMARK H PARENT 6 12 11 21 88 57 56 68
REMARK Flexibility Score: inf
ROOT
ATOM      1  C   UNL A   1      33.595  30.290  26.925  1.00  0.00     0.202 C 
ENDROOT
BRANCH   1   2
ATOM      2  C   UNL A   1      32.387  30.159  25.993  1.00  0.00     0.261 C 
BRANCH   2   3
ATOM      3  O   UNL A   1      32.424  28.870  25.357  1.00  0.00    -0.463 OA
BRANCH   3   4
ATOM      4  C   UNL A   1      32.395  28.864  23.994  1.00  0.00     0.316 C 
ATOM      5  O   UNL A   1      33.329  29.260  23.310  1.00  0.00    -0.251 OA
BRANCH   4   6
ATOM      6  C   UNL A   1      31.028  28.334  23.460  1.00  0.00     0.099 C 
ATOM      7  C   UNL A   1      31.245  27.611  22.104  1.00  0.00     0.029 C 
BRANCH   6   8
ATOM      8  C   UNL A   1      30.459  27.327  24.491  1.00  0.00     0.123 C 
BRANCH   8   9
ATOM      9  C   UNL A   1      29.323  26.399  24.022  1.00  0.00     0.225 C 
ATOM     10  O   UNL A   1      28.194  26.852  23.818  1.00  0.00    -0.275 OA
ATOM     11  N   UNL A   1      29.574  25.097  23.660  1.00  0.00    -0.326 N 
ATOM     12  H   UNL A   1      28.889  24.664  23.103  1.00  0.00     0.169 HD
BRANCH  11  13
ATOM     13  C   UNL A   1      30.683  24.316  23.984  1.00  0.00     0.041 A 
ATOM     14  C   UNL A   1      30.772  23.708  25.224  1.00  0.00     0.028 A 
ATOM     15  C   UNL A   1      31.732  24.168  23.091  1.00  0.00     0.028 A 
ATOM     16  C   UNL A   1      31.764  22.743  25.443  1.00  0.00     0.028 A 
ATOM     17  C   UNL A   1      32.692  23.177  23.287  1.00  0.00     0.028 A 
ATOM     18  C   UNL A   1      32.649  22.375  24.429  1.00  0.00     0.041 A 
BRANCH  18  19
ATOM     19  N   UNL A   1      33.445  21.215  24.399  1.00  0.00    -0.319 N 
ATOM     20  C   UNL A   1      34.762  20.960  24.724  1.00  0.00     0.291 C 
ATOM     21  H   UNL A   1      32.962  20.418  24.080  1.00  0.00     0.170 HD
ATOM     22  O   UNL A   1      35.098  19.779  24.839  1.00  0.00    -0.265 OA
BRANCH  20  23
ATOM     23  C   UNL A   1      35.685  22.044  24.911  1.00  0.00     0.191 A 
ATOM     24  C   UNL A   1      36.562  22.687  24.056  1.00  0.00     0.056 A 
ATOM     25  O   UNL A   1      35.780  22.589  26.161  1.00  0.00    -0.459 OA
ATOM     26  C   UNL A   1      37.271  23.628  24.846  1.00  0.00     0.043 A 
ATOM     27  C   UNL A   1      36.740  23.544  26.112  1.00  0.00     0.196 A 
ENDBRANCH  20  23
ENDBRANCH  18  19
ENDBRANCH  11  13
ENDBRANCH   8   9
ENDBRANCH   6   8
BRANCH   6  28
ATOM     28  C   UNL A   1      29.993  29.462  23.104  1.00  0.00    -0.030 A 
ATOM     29  C   UNL A   1      29.556  30.426  24.027  1.00  0.00     0.005 A 
ATOM     30  C   UNL A   1      29.580  29.652  21.761  1.00  0.00     0.005 A 
ATOM     31  C   UNL A   1      28.880  31.583  23.617  1.00  0.00     0.000 A 
ATOM     32  C   UNL A   1      28.926  30.818  21.347  1.00  0.00     0.000 A 
ATOM     33  C   UNL A   1      28.600  31.797  22.273  1.00  0.00     0.000 A 
ENDBRANCH   6  28
ENDBRANCH   4   6
ENDBRANCH   3   4
ENDBRANCH   2   3
ENDBRANCH   1   2
BRANCH   1  34
ATOM     34  O   UNL A   1      33.632  31.456  27.759  1.00  0.00    -0.374 OA
BRANCH  34  35
ATOM     35  C   UNL A   1      32.659  32.467  27.517  1.00  0.00     0.202 C 
BRANCH  35  36
ATOM     36  C   UNL A   1      33.115  33.933  27.642  1.00  0.00     0.261 C 
BRANCH  36  37
ATOM     37  O   UNL A   1      32.490  34.647  28.719  1.00  0.00    -0.460 OA
BRANCH  37  38
ATOM     38  C   UNL A   1      33.383  35.235  29.556  1.00  0.00     0.338 C 
ATOM     39  O   UNL A   1      33.267  36.329  30.095  1.00  0.00    -0.246 OA
BRANCH  38  40
ATOM     40  C   UNL A   1      34.481  34.315  29.895  1.00  0.00     0.060 A 
ATOM     41  C   UNL A   1      34.188  33.309  30.824  1.00  0.00     0.016 A 
ATOM     42  C   UNL A   1      35.784  34.482  29.418  1.00  0.00     0.016 A 
ATOM     43  C   UNL A   1      35.207  32.509  31.328  1.00  0.00     0.010 A 
ATOM     44  C   UNL A   1      36.811  33.675  29.931  1.00  0.00     0.010 A 
ATOM     45  C   UNL A   1      36.534  32.714  30.921  1.00  0.00    -0.014 A 
BRANCH  45  46
ATOM     46  C   UNL A   1      37.609  32.009  31.668  1.00  0.00     0.031 A 
ATOM     47  C   UNL A   1      38.356  30.887  30.996  1.00  0.00     0.074 A 
ATOM     48  C   UNL A   1      37.996  32.448  32.880  1.00  0.00     0.049 A 
ATOM     49  N   UNL A   1      39.408  30.225  31.407  1.00  0.00    -0.248 NA
ATOM     50  C   UNL A   1      37.852  30.458  29.683  1.00  0.00     0.031 C 
ATOM     51  C   UNL A   1      37.368  33.544  33.618  1.00  0.00     0.029 A 
ATOM     52  N   UNL A   1      39.023  32.041  33.693  1.00  0.00    -0.354 N 
ATOM     53  C   UNL A   1      39.707  29.319  30.396  1.00  0.00     0.074 A 
ATOM     54  C   UNL A   1      38.688  29.476  29.379  1.00  0.00     0.031 C 
ATOM     55  C   UNL A   1      38.031  33.727  34.773  1.00  0.00     0.029 A 
ATOM     56  C   UNL A   1      39.117  32.753  34.865  1.00  0.00     0.049 A 
ATOM     57  H   UNL A   1      39.637  31.306  33.459  1.00  0.00     0.167 HD
ATOM     58  C   UNL A   1      40.747  28.451  30.309  1.00  0.00     0.034 A 
ATOM     59  C   UNL A   1      39.977  32.632  35.897  1.00  0.00     0.034 A 
ATOM     60  C   UNL A   1      41.744  28.284  31.339  1.00  0.00     0.049 A 
ATOM     61  C   UNL A   1      41.090  31.616  35.807  1.00  0.00     0.074 A 
ATOM     62  C   UNL A   1      42.828  27.423  31.362  1.00  0.00     0.029 A 
ATOM     63  N   UNL A   1      41.777  28.989  32.536  1.00  0.00    -0.354 N 
ATOM     64  N   UNL A   1      41.367  30.776  34.835  1.00  0.00    -0.248 NA
ATOM     65  C   UNL A   1      42.018  31.549  36.942  1.00  0.00     0.031 C 
ATOM     66  C   UNL A   1      43.477  27.562  32.594  1.00  0.00     0.029 A 
ATOM     67  C   UNL A   1      42.844  28.563  33.314  1.00  0.00     0.049 A 
ATOM     68  H   UNL A   1      41.134  29.689  32.796  1.00  0.00     0.167 HD
ATOM     69  C   UNL A   1      42.515  30.097  35.238  1.00  0.00     0.074 A 
ATOM     70  C   UNL A   1      42.893  30.649  36.522  1.00  0.00     0.031 C 
ATOM     71  C   UNL A   1      43.195  29.104  34.607  1.00  0.00     0.034 A 
BRANCH  58  72
ATOM     72  C   UNL A   1      40.826  27.590  29.071  1.00  0.00     0.023 A 
ATOM     73  C   UNL A   1      41.751  27.857  28.046  1.00  0.00     0.031 A 
ATOM     74  C   UNL A   1      39.948  26.505  28.898  1.00  0.00     0.131 A 
ATOM     75  C   UNL A   1      41.736  27.090  26.870  1.00  0.00     0.055 A 
ATOM     76  C   UNL A   1      39.987  25.701  27.757  1.00  0.00     0.041 A 
ATOM     77  F   UNL A   1      39.028  26.217  29.831  1.00  0.00    -0.206 F 
ATOM     78  C   UNL A   1      40.875  25.999  26.729  1.00  0.00     0.022 A 
BRANCH  75  79
ATOM     79  S   UNL A   1      42.764  27.620  25.473  1.00  0.00     0.124 S 
ATOM     80  O   UNL A   1      42.749  26.429  24.627  1.00  0.00    -0.237 OA
ATOM     81  O   UNL A   1      42.035  28.776  24.964  1.00  0.00    -0.237 OA
ATOM     82  O   UNL A   1      44.054  27.919  26.091  1.00  0.00    -0.744 OA
ENDBRANCH  75  79
ENDBRANCH  58  72
BRANCH  59  83
ATOM     83  C   UNL A   1      39.810  33.468  37.121  1.00  0.00     0.023 A 
ATOM     84  C   UNL A   1      39.259  32.946  38.302  1.00  0.00     0.031 A 
ATOM     85  C   UNL A   1      40.147  34.834  37.099  1.00  0.00     0.131 A 
ATOM     86  C   UNL A   1      39.014  33.794  39.394  1.00  0.00     0.055 A 
ATOM     87  C   UNL A   1      39.951  35.661  38.206  1.00  0.00     0.041 A 
ATOM     88  F   UNL A   1      40.675  35.385  35.995  1.00  0.00    -0.206 F 
ATOM     89  C   UNL A   1      39.367  35.145  39.357  1.00  0.00     0.022 A 
BRANCH  86  90
ATOM     90  S   UNL A   1      38.135  33.128  40.835  1.00  0.00     0.124 S 
ATOM     91  O   UNL A   1      38.738  33.882  41.927  1.00  0.00    -0.237 OA
ATOM     92  O   UNL A   1      36.749  33.453  40.519  1.00  0.00    -0.237 OA
ATOM     93  O   UNL A   1      38.461  31.704  40.804  1.00  0.00    -0.744 OA
ENDBRANCH  86  90
ENDBRANCH  59  83
BRANCH  71  94
ATOM     94  C   UNL A   1      44.429  28.576  35.301  1.00  0.00     0.023 A 
ATOM     95  C   UNL A   1      44.340  27.652  36.359  1.00  0.00     0.031 A 
ATOM     96  C   UNL A   1      45.706  29.034  34.931  1.00  0.00     0.131 A 
ATOM     97  C   UNL A   1      45.495  27.274  37.057  1.00  0.00     0.055 A 
ATOM     98  C   UNL A   1      46.860  28.602  35.588  1.00  0.00     0.041 A 
ATOM     99  F   UNL A   1      45.853  29.915  33.929  1.00  0.00    -0.206 F 
ATOM    100  C   UNL A   1      46.757  27.732  36.670  1.00  0.00     0.022 A 
BRANCH  97 101
ATOM    101  S   UNL A   1      45.315  26.270  38.558  1.00  0.00     0.124 S 
ATOM    102  O   UNL A   1      43.900  26.444  38.871  1.00  0.00    -0.237 OA
ATOM    103  O   UNL A   1      45.707  24.944  38.094  1.00  0.00    -0.237 OA
ATOM    104  O   UNL A   1      46.239  26.895  39.503  1.00  0.00    -0.744 OA
ENDBRANCH  97 101
ENDBRANCH  71  94
ENDBRANCH  45  46
ENDBRANCH  38  40
ENDBRANCH  37  38
ENDBRANCH  36  37
ENDBRANCH  35  36
ENDBRANCH  34  35
ENDBRANCH   1  34
TORSDOF 23
ENDMDL
MODEL 2
REMARK VINA RESULT:     -11.5      1.746      7.373
REMARK SMILES C[C@@](CC(=O)Nc1ccc(NC(=O)c2ccco2)cc1)(C(=O)OCCOCCOC(=O)c1ccc(-c2c3nc(c(-c4cc(S(=O)(=O)[O-])ccc4F)c4ccc([nH]4)c(-c4cc(S(=O)(=O)[O-])ccc4F)c4nc(c(-c5cc(S(=O)(=O)[O-])ccc5F)c5ccc2[nH]5)C=C4)C=C3)cc1)c1ccccc1
REMARK SMILES IDX 25 1 24 2 23 3 21 4 22 5 2 6 1 7 3 8 4 9 5 10 6 11 7 13 8 14
REMARK SMILES IDX 20 15 9 16 19 17 10 18 11 19 12 20 13 22 14 23 15 24 18 25
REMARK SMILES IDX 16 26 17 27 95 28 96 29 100 30 97 31 99 32 98 33 26 34 27 35
REMARK SMILES IDX 28 36 29 37 30 38 31 39 32 40 33 41 94 42 34 43 93 44 35 45
REMARK SMILES IDX 36 46 37 47 87 48 38 49 92 50 86 51 88 52 39 53 91 54 85 55
REMARK SMILES IDX 84 56 40 58 72 59 52 60 71 61 53 62 56 63 70 64 89 65 54 66
REMARK SMILES IDX 55 67 69 69 90 70 57 71 41 72 42 73 50 74 43 75 49 76 51 77
REMARK SMILES IDX 48 78 44 79 45 80 46 81 47 82 73 83 74 84 82 85 75 86 81 87
REMARK SMILES IDX 83 88 80 89 76 90 77 91 78 92 79 93 58 94 59 95 67 96 60 97
REMARK SMILES IDX 66 98 68 99 65 100 61 101 62 102 63 103 64 104
REMARK H PARENT 6 12 11 21 88 57 56 68
REMARK Flexibility Score: inf
ROOT
ATOM      1  C   UNL A   1      33.700  29.349  26.698  1.00  0.00     0.202 C 
ENDROOT
BRANCH   1   2
ATOM      2  C   UNL A   1      32.554  28.399  26.336  1.00  0.00     0.261 C 
BRANCH   2   3
ATOM      3  O   UNL A   1      32.849  27.770  25.077  1.00  0.00    -0.463 OA
BRANCH   3   4
ATOM      4  C   UNL A   1      32.511  28.468  23.956  1.00  0.00     0.316 C 
ATOM      5  O   UNL A   1      33.235  29.324  23.465  1.00  0.00    -0.251 OA
BRANCH   4   6
ATOM      6  C   UNL A   1      31.098  28.054  23.438  1.00  0.00     0.099 C 
ATOM      7  C   UNL A   1      31.242  27.282  22.099  1.00  0.00     0.029 C 
BRANCH   6   8
ATOM      8  C   UNL A   1      30.441  27.130  24.494  1.00  0.00     0.123 C 
BRANCH   8   9
ATOM      9  C   UNL A   1      29.322  26.189  24.013  1.00  0.00     0.225 C 
ATOM     10  O   UNL A   1      28.185  26.624  23.817  1.00  0.00    -0.275 OA
ATOM     11  N   UNL A   1      29.596  24.897  23.632  1.00  0.00    -0.326 N 
ATOM     12  H   UNL A   1      28.917  24.459  23.070  1.00  0.00     0.169 HD
BRANCH  11  13
ATOM     13  C   UNL A   1      30.719  24.131  23.944  1.00  0.00     0.041 A 
ATOM     14  C   UNL A   1      30.830  23.524  25.182  1.00  0.00     0.028 A 
ATOM     15  C   UNL A   1      31.760  23.999  23.040  1.00  0.00     0.028 A 
ATOM     16  C   UNL A   1      31.838  22.572  25.390  1.00  0.00     0.028 A 
ATOM     17  C   UNL A   1      32.737  23.021  23.224  1.00  0.00     0.028 A 
ATOM     18  C   UNL A   1      32.716  22.218  24.366  1.00  0.00     0.041 A 
BRANCH  18  19
ATOM     19  N   UNL A   1      33.529  21.069  24.326  1.00  0.00    -0.319 N 
ATOM     20  C   UNL A   1      34.803  20.793  24.779  1.00  0.00     0.291 C 
ATOM     21  H   UNL A   1      33.098  20.302  23.884  1.00  0.00     0.170 HD
ATOM     22  O   UNL A   1      35.141  19.608  24.827  1.00  0.00    -0.265 OA
BRANCH  20  23
ATOM     23  C   UNL A   1      35.681  21.861  25.167  1.00  0.00     0.191 A 
ATOM     24  C   UNL A   1      35.639  22.784  26.196  1.00  0.00     0.056 A 
ATOM     25  O   UNL A   1      36.795  22.076  24.403  1.00  0.00    -0.459 OA
ATOM     26  C   UNL A   1      36.751  23.643  26.008  1.00  0.00     0.043 A 
ATOM     27  C   UNL A   1      37.434  23.154  24.919  1.00  0.00     0.196 A 
ENDBRANCH  20  23
ENDBRANCH  18  19
ENDBRANCH  11  13
ENDBRANCH   8   9
ENDBRANCH   6   8
BRANCH   6  28
ATOM     28  C   UNL A   1      30.171  29.265  23.055  1.00  0.00    -0.030 A 
ATOM     29  C   UNL A   1      29.419  29.315  21.870  1.00  0.00     0.005 A 
ATOM     30  C   UNL A   1      29.928  30.300  23.992  1.00  0.00     0.005 A 
ATOM     31  C   UNL A   1      28.387  30.246  21.693  1.00  0.00     0.000 A 
ATOM     32  C   UNL A   1      28.882  31.215  23.828  1.00  0.00     0.000 A 
ATOM     33  C   UNL A   1      28.093  31.171  22.688  1.00  0.00     0.000 A 
ENDBRANCH   6  28
ENDBRANCH   4   6
ENDBRANCH   3   4
ENDBRANCH   2   3
ENDBRANCH   1   2
BRANCH   1  34
ATOM     34  O   UNL A   1      33.437  30.750  26.545  1.00  0.00    -0.374 OA
BRANCH  34  35
ATOM     35  C   UNL A   1      32.080  31.174  26.610  1.00  0.00     0.202 C 
BRANCH  35  36
ATOM     36  C   UNL A   1      31.791  32.519  27.304  1.00  0.00     0.261 C 
BRANCH  36  37
ATOM     37  O   UNL A   1      32.866  33.465  27.207  1.00  0.00    -0.460 OA
BRANCH  37  38
ATOM     38  C   UNL A   1      33.423  33.764  28.410  1.00  0.00     0.338 C 
ATOM     39  O   UNL A   1      32.920  34.438  29.299  1.00  0.00    -0.246 OA
BRANCH  38  40
ATOM     40  C   UNL A   1      34.681  33.026  28.610  1.00  0.00     0.060 A 
ATOM     41  C   UNL A   1      34.628  31.921  29.466  1.00  0.00     0.016 A 
ATOM     42  C   UNL A   1      35.901  33.453  28.077  1.00  0.00     0.016 A 
ATOM     43  C   UNL A   1      35.800  31.276  29.845  1.00  0.00     0.010 A 
ATOM     44  C   UNL A   1      37.083  32.802  28.464  1.00  0.00     0.010 A 
ATOM     45  C   UNL A   1      37.041  31.738  29.385  1.00  0.00    -0.014 A 
BRANCH  45  46
ATOM     46  C   UNL A   1      38.268  31.180  30.010  1.00  0.00     0.031 A 
ATOM     47  C   UNL A   1      38.627  31.585  31.416  1.00  0.00     0.074 A 
ATOM     48  C   UNL A   1      38.982  30.229  29.379  1.00  0.00     0.049 A 
ATOM     49  N   UNL A   1      39.572  31.127  32.198  1.00  0.00    -0.248 NA
ATOM     50  C   UNL A   1      37.807  32.645  32.021  1.00  0.00     0.031 C 
ATOM     51  C   UNL A   1      38.714  29.734  28.029  1.00  0.00     0.029 A 
ATOM     52  N   UNL A   1      40.063  29.495  29.798  1.00  0.00    -0.354 N 
ATOM     53  C   UNL A   1      39.447  31.824  33.395  1.00  0.00     0.074 A 
ATOM     54  C   UNL A   1      38.372  32.778  33.212  1.00  0.00     0.031 C 
ATOM     55  C   UNL A   1      39.604  28.770  27.734  1.00  0.00     0.029 A 
ATOM     56  C   UNL A   1      40.513  28.591  28.864  1.00  0.00     0.049 A 
ATOM     57  H   UNL A   1      40.478  29.604  30.685  1.00  0.00     0.167 HD
ATOM     58  C   UNL A   1      40.145  31.670  34.548  1.00  0.00     0.034 A 
ATOM     59  C   UNL A   1      41.542  27.721  28.913  1.00  0.00     0.034 A 
ATOM     60  C   UNL A   1      41.231  30.733  34.712  1.00  0.00     0.049 A 
ATOM     61  C   UNL A   1      42.347  27.610  30.185  1.00  0.00     0.074 A 
ATOM     62  C   UNL A   1      42.017  30.507  35.830  1.00  0.00     0.029 A 
ATOM     63  N   UNL A   1      41.692  29.869  33.727  1.00  0.00    -0.354 N 
ATOM     64  N   UNL A   1      42.205  28.267  31.315  1.00  0.00    -0.248 NA
ATOM     65  C   UNL A   1      43.434  26.624  30.197  1.00  0.00     0.031 C 
ATOM     66  C   UNL A   1      42.989  29.555  35.501  1.00  0.00     0.029 A 
ATOM     67  C   UNL A   1      42.766  29.129  34.202  1.00  0.00     0.049 A 
ATOM     68  H   UNL A   1      41.312  29.792  32.821  1.00  0.00     0.167 HD
ATOM     69  C   UNL A   1      43.174  27.756  32.175  1.00  0.00     0.074 A 
ATOM     70  C   UNL A   1      43.869  26.716  31.444  1.00  0.00     0.031 C 
ATOM     71  C   UNL A   1      43.469  28.114  33.453  1.00  0.00     0.034 A 
BRANCH  58  72
ATOM     72  C   UNL A   1      39.775  32.568  35.704  1.00  0.00     0.023 A 
ATOM     73  C   UNL A   1      38.920  32.131  36.732  1.00  0.00     0.031 A 
ATOM     74  C   UNL A   1      40.261  33.886  35.769  1.00  0.00     0.131 A 
ATOM     75  C   UNL A   1      38.527  33.022  37.744  1.00  0.00     0.055 A 
ATOM     76  C   UNL A   1      39.924  34.744  36.818  1.00  0.00     0.041 A 
ATOM     77  F   UNL A   1      41.061  34.366  34.805  1.00  0.00    -0.206 F 
ATOM     78  C   UNL A   1      39.042  34.319  37.806  1.00  0.00     0.022 A 
BRANCH  75  79
ATOM     79  S   UNL A   1      37.230  32.505  38.902  1.00  0.00     0.124 S 
ATOM     80  O   UNL A   1      37.614  33.224  40.114  1.00  0.00    -0.237 OA
ATOM     81  O   UNL A   1      36.014  32.966  38.242  1.00  0.00    -0.237 OA
ATOM     82  O   UNL A   1      37.391  31.054  38.970  1.00  0.00    -0.744 OA
ENDBRANCH  75  79
ENDBRANCH  58  72
BRANCH  59  83
ATOM     83  C   UNL A   1      41.899  26.906  27.716  1.00  0.00     0.023 A 
ATOM     84  C   UNL A   1      41.707  25.515  27.687  1.00  0.00     0.031 A 
ATOM     85  C   UNL A   1      42.502  27.511  26.598  1.00  0.00     0.131 A 
ATOM     86  C   UNL A   1      42.161  24.769  26.587  1.00  0.00     0.055 A 
ATOM     87  C   UNL A   1      42.901  26.772  25.484  1.00  0.00     0.041 A 
ATOM     88  F   UNL A   1      42.709  28.837  26.574  1.00  0.00    -0.206 F 
ATOM     89  C   UNL A   1      42.745  25.391  25.480  1.00  0.00     0.022 A 
BRANCH  86  90
ATOM     90  S   UNL A   1      42.063  22.959  26.661  1.00  0.00     0.124 S 
ATOM     91  O   UNL A   1      40.838  22.695  25.916  1.00  0.00    -0.237 OA
ATOM     92  O   UNL A   1      43.308  22.564  26.010  1.00  0.00    -0.237 OA
ATOM     93  O   UNL A   1      41.996  22.680  28.093  1.00  0.00    -0.744 OA
ENDBRANCH  86  90
ENDBRANCH  59  83
BRANCH  71  94
ATOM     94  C   UNL A   1      44.580  27.350  34.135  1.00  0.00     0.023 A 
ATOM     95  C   UNL A   1      44.313  26.228  34.942  1.00  0.00     0.031 A 
ATOM     96  C   UNL A   1      45.914  27.772  34.012  1.00  0.00     0.131 A 
ATOM     97  C   UNL A   1      45.355  25.615  35.654  1.00  0.00     0.055 A 
ATOM     98  C   UNL A   1      46.957  27.116  34.671  1.00  0.00     0.041 A 
ATOM     99  F   UNL A   1      46.229  28.835  33.255  1.00  0.00    -0.206 F 
ATOM    100  C   UNL A   1      46.677  26.043  35.513  1.00  0.00     0.022 A 
BRANCH  97 101
ATOM    101  S   UNL A   1      44.941  24.328  36.864  1.00  0.00     0.124 S 
ATOM    102  O   UNL A   1      44.614  23.196  36.003  1.00  0.00    -0.237 OA
ATOM    103  O   UNL A   1      46.178  24.210  37.628  1.00  0.00    -0.237 OA
ATOM    104  O   UNL A   1      43.811  24.896  37.597  1.00  0.00    -0.744 OA
ENDBRANCH  97 101
ENDBRANCH  71  94
ENDBRANCH  45  46
ENDBRANCH  38  40
ENDBRANCH  37  38
ENDBRANCH  36  37
ENDBRANCH  35  36
ENDBRANCH  34  35
ENDBRANCH   1  34
TORSDOF 23
ENDMDL
MODEL 3
REMARK VINA RESULT:     -11.5      1.594      2.125
REMARK SMILES C[C@@](CC(=O)Nc1ccc(NC(=O)c2ccco2)cc1)(C(=O)OCCOCCOC(=O)c1ccc(-c2c3nc(c(-c4cc(S(=O)(=O)[O-])ccc4F)c4ccc([nH]4)c(-c4cc(S(=O)(=O)[O-])ccc4F)c4nc(c(-c5cc(S(=O)(=O)[O-])ccc5F)c5ccc2[nH]5)C=C4)C=C3)cc1)c1ccccc1
REMARK SMILES IDX 25 1 24 2 23 3 21 4 22 5 2 6 1 7 3 8 4 9 5 10 6 11 7 13 8 14
REMARK SMILES IDX 20 15 9 16 19 17 10 18 11 19 12 20 13 22 14 23 15 24 18 25
REMARK SMILES IDX 16 26 17 27 95 28 96 29 100 30 97 31 99 32 98 33 26 34 27 35
REMARK SMILES IDX 28 36 29 37 30 38 31 39 32 40 33 41 94 42 34 43 93 44 35 45
REMARK SMILES IDX 36 46 37 47 87 48 38 49 92 50 86 51 88 52 39 53 91 54 85 55
REMARK SMILES IDX 84 56 40 58 72 59 52 60 71 61 53 62 56 63 70 64 89 65 54 66
REMARK SMILES IDX 55 67 69 69 90 70 57 71 41 72 42 73 50 74 43 75 49 76 51 77
REMARK SMILES IDX 48 78 44 79 45 80 46 81 47 82 73 83 74 84 82 85 75 86 81 87
REMARK SMILES IDX 83 88 80 89 76 90 77 91 78 92 79 93 58 94 59 95 67 96 60 97
REMARK SMILES IDX 66 98 68 99 65 100 61 101 62 102 63 103 64 104
REMARK H PARENT 6 12 11 21 88 57 56 68
REMARK Flexibility Score: inf
ROOT
ATOM      1  C   UNL A   1      33.445  29.998  26.834  1.00  0.00     0.202 C 
ENDROOT
BRANCH   1   2
ATOM      2  C   UNL A   1      32.901  30.112  25.407  1.00  0.00     0.261 C 
BRANCH   2   3
ATOM      3  O   UNL A   1      32.605  28.794  24.914  1.00  0.00    -0.463 OA
BRANCH   3   4
ATOM      4  C   UNL A   1      32.366  28.686  23.576  1.00  0.00     0.316 C 
ATOM      5  O   UNL A   1      33.239  28.839  22.733  1.00  0.00    -0.251 OA
BRANCH   4   6
ATOM      6  C   UNL A   1      30.859  28.390  23.294  1.00  0.00     0.099 C 
ATOM      7  C   UNL A   1      30.735  27.475  22.047  1.00  0.00     0.029 C 
BRANCH   6   8
ATOM      8  C   UNL A   1      30.267  27.659  24.525  1.00  0.00     0.123 C 
BRANCH   8   9
ATOM      9  C   UNL A   1      29.432  26.392  24.262  1.00  0.00     0.225 C 
ATOM     10  O   UNL A   1      28.263  26.486  23.882  1.00  0.00    -0.275 OA
ATOM     11  N   UNL A   1      30.010  25.146  24.280  1.00  0.00    -0.326 N 
ATOM     12  H   UNL A   1      29.510  24.431  23.824  1.00  0.00     0.169 HD
BRANCH  11  13
ATOM     13  C   UNL A   1      31.219  24.769  24.864  1.00  0.00     0.041 A 
ATOM     14  C   UNL A   1      31.247  24.266  26.153  1.00  0.00     0.028 A 
ATOM     15  C   UNL A   1      32.415  24.932  24.185  1.00  0.00     0.028 A 
ATOM     16  C   UNL A   1      32.424  23.674  26.631  1.00  0.00     0.028 A 
ATOM     17  C   UNL A   1      33.576  24.305  24.637  1.00  0.00     0.028 A 
ATOM     18  C   UNL A   1      33.558  23.571  25.824  1.00  0.00     0.041 A 
BRANCH  18  19
ATOM     19  N   UNL A   1      34.661  22.724  26.043  1.00  0.00    -0.319 N 
ATOM     20  C   UNL A   1      34.987  21.459  25.599  1.00  0.00     0.291 C 
ATOM     21  H   UNL A   1      35.343  23.117  26.634  1.00  0.00     0.170 HD
ATOM     22  O   UNL A   1      36.153  21.087  25.757  1.00  0.00    -0.265 OA
BRANCH  20  23
ATOM     23  C   UNL A   1      33.989  20.626  24.989  1.00  0.00     0.191 A 
ATOM     24  C   UNL A   1      33.187  20.786  23.873  1.00  0.00     0.056 A 
ATOM     25  O   UNL A   1      33.714  19.426  25.584  1.00  0.00    -0.459 OA
ATOM     26  C   UNL A   1      32.337  19.653  23.827  1.00  0.00     0.043 A 
ATOM     27  C   UNL A   1      32.715  18.845  24.874  1.00  0.00     0.196 A 
ENDBRANCH  20  23
ENDBRANCH  18  19
ENDBRANCH  11  13
ENDBRANCH   8   9
ENDBRANCH   6   8
BRANCH   6  28
ATOM     28  C   UNL A   1      30.016  29.656  22.896  1.00  0.00    -0.030 A 
ATOM     29  C   UNL A   1      29.562  29.898  21.590  1.00  0.00     0.005 A 
ATOM     30  C   UNL A   1      29.534  30.534  23.898  1.00  0.00     0.005 A 
ATOM     31  C   UNL A   1      28.575  30.856  21.321  1.00  0.00     0.000 A 
ATOM     32  C   UNL A   1      28.532  31.475  23.636  1.00  0.00     0.000 A 
ATOM     33  C   UNL A   1      28.032  31.617  22.349  1.00  0.00     0.000 A 
ENDBRANCH   6  28
ENDBRANCH   4   6
ENDBRANCH   3   4
ENDBRANCH   2   3
ENDBRANCH   1   2
BRANCH   1  34
ATOM     34  O   UNL A   1      33.134  31.082  27.722  1.00  0.00    -0.374 OA
BRANCH  34  35
ATOM     35  C   UNL A   1      32.157  32.023  27.291  1.00  0.00     0.202 C 
BRANCH  35  36
ATOM     36  C   UNL A   1      32.572  33.505  27.248  1.00  0.00     0.261 C 
BRANCH  36  37
ATOM     37  O   UNL A   1      32.506  34.165  28.521  1.00  0.00    -0.460 OA
BRANCH  37  38
ATOM     38  C   UNL A   1      33.651  34.822  28.840  1.00  0.00     0.338 C 
ATOM     39  O   UNL A   1      33.784  36.030  28.983  1.00  0.00    -0.246 OA
BRANCH  38  40
ATOM     40  C   UNL A   1      34.732  33.877  29.171  1.00  0.00     0.060 A 
ATOM     41  C   UNL A   1      34.402  32.831  30.040  1.00  0.00     0.016 A 
ATOM     42  C   UNL A   1      36.051  34.058  28.746  1.00  0.00     0.016 A 
ATOM     43  C   UNL A   1      35.399  32.000  30.539  1.00  0.00     0.010 A 
ATOM     44  C   UNL A   1      37.056  33.219  29.254  1.00  0.00     0.010 A 
ATOM     45  C   UNL A   1      36.739  32.214  30.187  1.00  0.00    -0.014 A 
BRANCH  45  46
ATOM     46  C   UNL A   1      37.784  31.466  30.934  1.00  0.00     0.031 A 
ATOM     47  C   UNL A   1      38.585  30.410  30.219  1.00  0.00     0.074 A 
ATOM     48  C   UNL A   1      38.099  31.814  32.196  1.00  0.00     0.049 A 
ATOM     49  N   UNL A   1      39.624  29.731  30.635  1.00  0.00    -0.248 NA
ATOM     50  C   UNL A   1      38.159  30.079  28.851  1.00  0.00     0.031 C 
ATOM     51  C   UNL A   1      37.415  32.841  32.981  1.00  0.00     0.029 A 
ATOM     52  N   UNL A   1      39.088  31.357  33.030  1.00  0.00    -0.354 N 
ATOM     53  C   UNL A   1      39.992  28.910  29.574  1.00  0.00     0.074 A 
ATOM     54  C   UNL A   1      39.026  29.134  28.518  1.00  0.00     0.031 C 
ATOM     55  C   UNL A   1      38.011  32.940  34.182  1.00  0.00     0.029 A 
ATOM     56  C   UNL A   1      39.106  31.975  34.257  1.00  0.00     0.049 A 
ATOM     57  H   UNL A   1      39.725  30.650  32.773  1.00  0.00     0.167 HD
ATOM     58  C   UNL A   1      41.049  28.065  29.477  1.00  0.00     0.034 A 
ATOM     59  C   UNL A   1      39.912  31.785  35.322  1.00  0.00     0.034 A 
ATOM     60  C   UNL A   1      41.992  27.830  30.544  1.00  0.00     0.049 A 
ATOM     61  C   UNL A   1      41.045  30.793  35.214  1.00  0.00     0.074 A 
ATOM     62  C   UNL A   1      43.088  26.983  30.559  1.00  0.00     0.029 A 
ATOM     63  N   UNL A   1      41.949  28.439  31.792  1.00  0.00    -0.354 N 
ATOM     64  N   UNL A   1      41.388  30.035  34.197  1.00  0.00    -0.248 NA
ATOM     65  C   UNL A   1      41.912  30.649  36.390  1.00  0.00     0.031 C 
ATOM     66  C   UNL A   1      43.668  27.033  31.832  1.00  0.00     0.029 A 
ATOM     67  C   UNL A   1      42.981  27.967  32.592  1.00  0.00     0.049 A 
ATOM     68  H   UNL A   1      41.282  29.108  32.070  1.00  0.00     0.167 HD
ATOM     69  C   UNL A   1      42.523  29.340  34.608  1.00  0.00     0.074 A 
ATOM     70  C   UNL A   1      42.823  29.795  35.950  1.00  0.00     0.031 C 
ATOM     71  C   UNL A   1      43.253  28.408  33.940  1.00  0.00     0.034 A 
BRANCH  58  72
ATOM     72  C   UNL A   1      41.208  27.304  28.182  1.00  0.00     0.023 A 
ATOM     73  C   UNL A   1      40.877  25.941  28.082  1.00  0.00     0.031 A 
ATOM     74  C   UNL A   1      41.723  27.941  27.039  1.00  0.00     0.131 A 
ATOM     75  C   UNL A   1      41.123  25.245  26.888  1.00  0.00     0.055 A 
ATOM     76  C   UNL A   1      41.897  27.260  25.832  1.00  0.00     0.041 A 
ATOM     77  F   UNL A   1      42.080  29.234  27.080  1.00  0.00    -0.206 F 
ATOM     78  C   UNL A   1      41.609  25.902  25.754  1.00  0.00     0.022 A 
BRANCH  75  79
ATOM     79  S   UNL A   1      40.924  23.442  26.875  1.00  0.00     0.124 S 
ATOM     80  O   UNL A   1      41.303  23.094  28.242  1.00  0.00    -0.237 OA
ATOM     81  O   UNL A   1      39.514  23.282  26.540  1.00  0.00    -0.237 OA
ATOM     82  O   UNL A   1      41.863  23.002  25.845  1.00  0.00    -0.744 OA
ENDBRANCH  75  79
ENDBRANCH  58  72
BRANCH  59  83
ATOM     83  C   UNL A   1      39.666  32.520  36.596  1.00  0.00     0.023 A 
ATOM     84  C   UNL A   1      38.712  32.083  37.528  1.00  0.00     0.031 A 
ATOM     85  C   UNL A   1      40.349  33.721  36.867  1.00  0.00     0.131 A 
ATOM     86  C   UNL A   1      38.430  32.865  38.660  1.00  0.00     0.055 A 
ATOM     87  C   UNL A   1      40.104  34.466  38.020  1.00  0.00     0.041 A 
ATOM     88  F   UNL A   1      41.271  34.185  36.008  1.00  0.00    -0.206 F 
ATOM     89  C   UNL A   1      39.128  34.047  38.918  1.00  0.00     0.022 A 
BRANCH  86  90
ATOM     90  S   UNL A   1      37.066  32.365  39.747  1.00  0.00     0.124 S 
ATOM     91  O   UNL A   1      35.941  32.332  38.820  1.00  0.00    -0.237 OA
ATOM     92  O   UNL A   1      37.531  31.072  40.238  1.00  0.00    -0.237 OA
ATOM     93  O   UNL A   1      37.020  33.429  40.748  1.00  0.00    -0.744 OA
ENDBRANCH  86  90
ENDBRANCH  59  83
BRANCH  71  94
ATOM     94  C   UNL A   1      44.456  27.843  34.658  1.00  0.00     0.023 A 
ATOM     95  C   UNL A   1      44.377  26.650  35.399  1.00  0.00     0.031 A 
ATOM     96  C   UNL A   1      45.684  28.526  34.636  1.00  0.00     0.131 A 
ATOM     97  C   UNL A   1      45.481  26.217  36.149  1.00  0.00     0.055 A 
ATOM     98  C   UNL A   1      46.801  28.055  35.331  1.00  0.00     0.041 A 
ATOM     99  F   UNL A   1      45.820  29.669  33.945  1.00  0.00    -0.206 F 
ATOM    100  C   UNL A   1      46.696  26.904  36.109  1.00  0.00     0.022 A 
BRANCH  97 101
ATOM    101  S   UNL A   1      45.269  24.811  37.275  1.00  0.00     0.124 S 
ATOM    102  O   UNL A   1      44.801  23.765  36.371  1.00  0.00    -0.237 OA
ATOM    103  O   UNL A   1      46.616  24.635  37.809  1.00  0.00    -0.237 OA
ATOM    104  O   UNL A   1      44.278  25.288  38.238  1.00  0.00    -0.744 OA
ENDBRANCH  97 101
ENDBRANCH  71  94
ENDBRANCH  45  46
ENDBRANCH  38  40
ENDBRANCH  37  38
ENDBRANCH  36  37
ENDBRANCH  35  36
ENDBRANCH  34  35
ENDBRANCH   1  34
TORSDOF 23
ENDMDL
