MODEL 1
REMARK VINA RESULT:     -12.7      0.000      0.000
REMARK SMILES COc1ccccc1[C@@H]1C[N@@H+](Cc2cn3cc(C)ccc3n2)C[C@H]1C(=O)OCCOCCOC(=O)c1ccc(-c2c3nc(c(-c4cc(S(=O)(=O)[O-])ccc4F)c4ccc([nH]4)c(-c4cc(S(=O)(=O)[O-])ccc4F)c4nc(c(-c5cc(S(=O)(=O)[O-])ccc5F)c5ccc2[nH]5)C=C4)C=C3)cc1
REMARK SMILES IDX 31 1 30 2 29 3 28 4 27 5 25 6 26 7 24 8 9 9 10 10 11 11
REMARK SMILES IDX 23 12 8 14 3 15 4 16 5 17 7 18 6 19 2 20 1 21 12 22 13 23
REMARK SMILES IDX 14 24 22 25 15 26 21 27 16 28 20 29 17 30 19 31 18 32 32 33
REMARK SMILES IDX 33 34 34 35 35 36 36 37 37 38 98 39 38 40 97 41 39 42 40 43
REMARK SMILES IDX 41 44 91 45 42 46 96 47 90 48 92 49 43 50 95 51 89 52 88 53
REMARK SMILES IDX 44 55 76 56 56 57 75 58 57 59 60 60 74 61 93 62 58 63 59 64
REMARK SMILES IDX 73 66 94 67 61 68 45 69 46 70 54 71 47 72 53 73 55 74 52 75
REMARK SMILES IDX 48 76 49 77 50 78 51 79 77 80 78 81 86 82 79 83 85 84 87 85
REMARK SMILES IDX 84 86 80 87 81 88 82 89 83 90 62 91 63 92 71 93 64 94 70 95
REMARK SMILES IDX 72 96 69 97 65 98 66 99 67 100 68 101
REMARK H PARENT 11 13 92 54 60 65
REMARK Flexibility Score: inf
ROOT
ATOM      1  C   UNL A   1      33.955  30.200  27.160  1.00  0.00     0.202 C 
ENDROOT
BRANCH   1   2
ATOM      2  O   UNL A   1      32.803  29.693  26.496  1.00  0.00    -0.374 OA
BRANCH   2   3
ATOM      3  C   UNL A   1      31.944  28.827  27.245  1.00  0.00     0.202 C 
BRANCH   3   4
ATOM      4  C   UNL A   1      31.649  27.482  26.583  1.00  0.00     0.261 C 
BRANCH   4   5
ATOM      5  O   UNL A   1      32.848  26.695  26.411  1.00  0.00    -0.463 OA
BRANCH   5   6
ATOM      6  C   UNL A   1      32.620  25.408  26.073  1.00  0.00     0.315 C 
ATOM      7  O   UNL A   1      31.833  24.667  26.665  1.00  0.00    -0.252 OA
BRANCH   6   8
ATOM      8  C   UNL A   1      33.410  24.859  24.913  1.00  0.00     0.167 C 
ATOM      9  C   UNL A   1      32.944  23.798  23.912  1.00  0.00     0.098 C 
ATOM     10  C   UNL A   1      33.593  24.248  22.588  1.00  0.00     0.272 C 
ATOM     11  N   UNL A   1      33.827  25.695  22.673  1.00  0.00    -0.329 N 
ATOM     12  C   UNL A   1      33.795  26.077  24.082  1.00  0.00     0.278 C 
ATOM     13  H   UNL A   1      34.745  25.866  22.265  1.00  0.00     0.348 HD
BRANCH   9  14
ATOM     14  C   UNL A   1      33.280  22.330  24.210  1.00  0.00     0.004 A 
ATOM     15  C   UNL A   1      34.483  21.838  24.765  1.00  0.00     0.122 A 
ATOM     16  C   UNL A   1      34.639  20.468  25.047  1.00  0.00     0.047 A 
ATOM     17  C   UNL A   1      33.656  19.549  24.686  1.00  0.00     0.004 A 
ATOM     18  C   UNL A   1      32.336  21.364  23.792  1.00  0.00     0.008 A 
ATOM     19  C   UNL A   1      32.528  19.993  24.009  1.00  0.00     0.001 A 
BRANCH  15  20
ATOM     20  O   UNL A   1      35.666  22.536  24.704  1.00  0.00    -0.496 OA
ATOM     21  C   UNL A   1      36.810  21.820  24.273  1.00  0.00     0.278 C 
ENDBRANCH  15  20
ENDBRANCH   9  14
BRANCH  11  22
ATOM     22  C   UNL A   1      32.970  26.548  21.839  1.00  0.00     0.321 C 
BRANCH  22  23
ATOM     23  C   UNL A   1      31.835  27.185  22.571  1.00  0.00     0.114 A 
ATOM     24  C   UNL A   1      31.713  28.535  22.799  1.00  0.00     0.122 A 
ATOM     25  N   UNL A   1      30.692  26.513  22.977  1.00  0.00    -0.228 NA
ATOM     26  N   UNL A   1      30.399  28.717  23.102  1.00  0.00    -0.306 N 
ATOM     27  C   UNL A   1      29.814  27.466  23.234  1.00  0.00     0.137 A 
ATOM     28  C   UNL A   1      29.710  29.894  22.913  1.00  0.00     0.096 A 
ATOM     29  C   UNL A   1      28.400  27.457  23.422  1.00  0.00     0.048 A 
ATOM     30  C   UNL A   1      28.393  29.806  22.693  1.00  0.00    -0.034 A 
ATOM     31  C   UNL A   1      27.705  28.586  23.148  1.00  0.00     0.009 A 
ATOM     32  C   UNL A   1      27.912  30.745  21.631  1.00  0.00     0.046 C 
ENDBRANCH  22  23
ENDBRANCH  11  22
ENDBRANCH   6   8
ENDBRANCH   5   6
ENDBRANCH   4   5
ENDBRANCH   3   4
ENDBRANCH   2   3
ENDBRANCH   1   2
BRANCH   1  33
ATOM     33  C   UNL A   1      35.135  29.249  27.269  1.00  0.00     0.261 C 
BRANCH  33  34
ATOM     34  O   UNL A   1      36.327  29.915  27.651  1.00  0.00    -0.460 OA
BRANCH  34  35
ATOM     35  C   UNL A   1      36.770  29.756  28.932  1.00  0.00     0.338 C 
ATOM     36  O   UNL A   1      36.265  30.192  29.937  1.00  0.00    -0.246 OA
BRANCH  35  37
ATOM     37  C   UNL A   1      38.038  28.991  28.818  1.00  0.00     0.060 A 
ATOM     38  C   UNL A   1      38.501  28.032  29.735  1.00  0.00     0.016 A 
ATOM     39  C   UNL A   1      38.808  29.274  27.711  1.00  0.00     0.016 A 
ATOM     40  C   UNL A   1      39.805  27.479  29.595  1.00  0.00     0.010 A 
ATOM     41  C   UNL A   1      39.991  28.631  27.555  1.00  0.00     0.010 A 
ATOM     42  C   UNL A   1      40.596  27.865  28.516  1.00  0.00    -0.014 A 
BRANCH  42  43
ATOM     43  C   UNL A   1      41.978  27.525  28.115  1.00  0.00     0.031 A 
ATOM     44  C   UNL A   1      42.097  26.265  27.323  1.00  0.00     0.074 A 
ATOM     45  C   UNL A   1      42.985  28.450  28.164  1.00  0.00     0.049 A 
ATOM     46  N   UNL A   1      42.006  25.063  27.804  1.00  0.00    -0.248 NA
ATOM     47  C   UNL A   1      42.097  26.252  25.843  1.00  0.00     0.031 C 
ATOM     48  C   UNL A   1      42.923  29.849  28.646  1.00  0.00     0.029 A 
ATOM     49  N   UNL A   1      44.299  28.356  27.772  1.00  0.00    -0.354 N 
ATOM     50  C   UNL A   1      42.386  24.247  26.747  1.00  0.00     0.074 A 
ATOM     51  C   UNL A   1      41.993  24.949  25.571  1.00  0.00     0.031 C 
ATOM     52  C   UNL A   1      44.101  30.488  28.430  1.00  0.00     0.029 A 
ATOM     53  C   UNL A   1      45.070  29.522  27.937  1.00  0.00     0.049 A 
ATOM     54  H   UNL A   1      44.675  27.527  27.398  1.00  0.00     0.167 HD
ATOM     55  C   UNL A   1      43.425  23.369  26.876  1.00  0.00     0.034 A 
ATOM     56  C   UNL A   1      46.433  29.661  27.909  1.00  0.00     0.034 A 
ATOM     57  C   UNL A   1      43.844  23.300  28.264  1.00  0.00     0.049 A 
ATOM     58  C   UNL A   1      46.969  28.342  28.308  1.00  0.00     0.074 A 
ATOM     59  C   UNL A   1      43.182  23.092  29.457  1.00  0.00     0.029 A 
ATOM     60  N   UNL A   1      45.030  23.923  28.594  1.00  0.00    -0.354 N 
ATOM     61  N   UNL A   1      46.782  27.838  29.496  1.00  0.00    -0.248 NA
ATOM     62  C   UNL A   1      47.268  27.377  27.265  1.00  0.00     0.031 C 
ATOM     63  C   UNL A   1      43.754  24.034  30.360  1.00  0.00     0.029 A 
ATOM     64  C   UNL A   1      44.840  24.659  29.740  1.00  0.00     0.049 A 
ATOM     65  H   UNL A   1      45.874  23.852  28.092  1.00  0.00     0.167 HD
ATOM     66  C   UNL A   1      46.448  26.515  29.260  1.00  0.00     0.074 A 
ATOM     67  C   UNL A   1      46.890  26.257  27.890  1.00  0.00     0.031 C 
ATOM     68  C   UNL A   1      45.595  25.851  30.096  1.00  0.00     0.034 A 
BRANCH  55  69
ATOM     69  C   UNL A   1      44.340  22.884  25.766  1.00  0.00     0.023 A 
ATOM     70  C   UNL A   1      44.395  21.491  25.583  1.00  0.00     0.031 A 
ATOM     71  C   UNL A   1      45.311  23.630  25.057  1.00  0.00     0.131 A 
ATOM     72  C   UNL A   1      45.408  20.896  24.816  1.00  0.00     0.055 A 
ATOM     73  C   UNL A   1      46.276  23.036  24.234  1.00  0.00     0.041 A 
ATOM     74  F   UNL A   1      45.451  24.954  25.181  1.00  0.00    -0.206 F 
ATOM     75  C   UNL A   1      46.348  21.659  24.132  1.00  0.00     0.022 A 
BRANCH  72  76
ATOM     76  S   UNL A   1      45.569  19.096  24.878  1.00  0.00     0.124 S 
ATOM     77  O   UNL A   1      44.344  18.722  25.578  1.00  0.00    -0.237 OA
ATOM     78  O   UNL A   1      45.632  18.753  23.461  1.00  0.00    -0.237 OA
ATOM     79  O   UNL A   1      46.804  18.892  25.627  1.00  0.00    -0.744 OA
ENDBRANCH  72  76
ENDBRANCH  55  69
BRANCH  56  80
ATOM     80  C   UNL A   1      47.302  30.739  27.331  1.00  0.00     0.023 A 
ATOM     81  C   UNL A   1      46.806  31.949  26.773  1.00  0.00     0.031 A 
ATOM     82  C   UNL A   1      48.684  30.704  27.606  1.00  0.00     0.131 A 
ATOM     83  C   UNL A   1      47.675  33.052  26.541  1.00  0.00     0.055 A 
ATOM     84  C   UNL A   1      49.532  31.798  27.389  1.00  0.00     0.041 A 
ATOM     85  F   UNL A   1      49.240  29.629  28.189  1.00  0.00    -0.206 F 
ATOM     86  C   UNL A   1      49.029  32.980  26.867  1.00  0.00     0.022 A 
BRANCH  83  87
ATOM     87  S   UNL A   1      47.048  34.646  25.887  1.00  0.00     0.124 S 
ATOM     88  O   UNL A   1      48.245  35.240  25.304  1.00  0.00    -0.237 OA
ATOM     89  O   UNL A   1      46.014  34.217  24.952  1.00  0.00    -0.237 OA
ATOM     90  O   UNL A   1      46.544  35.333  27.077  1.00  0.00    -0.744 OA
ENDBRANCH  83  87
ENDBRANCH  56  80
BRANCH  68  91
ATOM     91  C   UNL A   1      45.279  26.483  31.446  1.00  0.00     0.023 A 
ATOM     92  C   UNL A   1      44.181  27.333  31.717  1.00  0.00     0.031 A 
ATOM     93  C   UNL A   1      46.077  26.098  32.537  1.00  0.00     0.131 A 
ATOM     94  C   UNL A   1      43.917  27.757  33.037  1.00  0.00     0.055 A 
ATOM     95  C   UNL A   1      45.799  26.494  33.844  1.00  0.00     0.041 A 
ATOM     96  F   UNL A   1      47.128  25.281  32.355  1.00  0.00    -0.206 F 
ATOM     97  C   UNL A   1      44.717  27.329  34.100  1.00  0.00     0.022 A 
BRANCH  94  98
ATOM     98  S   UNL A   1      42.523  28.879  33.391  1.00  0.00     0.124 S 
ATOM     99  O   UNL A   1      41.377  28.192  32.806  1.00  0.00    -0.237 OA
ATOM    100  O   UNL A   1      42.540  28.959  34.849  1.00  0.00    -0.237 OA
ATOM    101  O   UNL A   1      42.903  30.119  32.711  1.00  0.00    -0.744 OA
ENDBRANCH  94  98
ENDBRANCH  68  91
ENDBRANCH  42  43
ENDBRANCH  35  37
ENDBRANCH  34  35
ENDBRANCH  33  34
ENDBRANCH   1  33
TORSDOF 21
ENDMDL
MODEL 2
REMARK VINA RESULT:     -12.5      3.283      9.090
REMARK SMILES COc1ccccc1[C@@H]1C[N@@H+](Cc2cn3cc(C)ccc3n2)C[C@H]1C(=O)OCCOCCOC(=O)c1ccc(-c2c3nc(c(-c4cc(S(=O)(=O)[O-])ccc4F)c4ccc([nH]4)c(-c4cc(S(=O)(=O)[O-])ccc4F)c4nc(c(-c5cc(S(=O)(=O)[O-])ccc5F)c5ccc2[nH]5)C=C4)C=C3)cc1
REMARK SMILES IDX 31 1 30 2 29 3 28 4 27 5 25 6 26 7 24 8 9 9 10 10 11 11
REMARK SMILES IDX 23 12 8 14 3 15 4 16 5 17 7 18 6 19 2 20 1 21 12 22 13 23
REMARK SMILES IDX 14 24 22 25 15 26 21 27 16 28 20 29 17 30 19 31 18 32 32 33
REMARK SMILES IDX 33 34 34 35 35 36 36 37 37 38 98 39 38 40 97 41 39 42 40 43
REMARK SMILES IDX 41 44 91 45 42 46 96 47 90 48 92 49 43 50 95 51 89 52 88 53
REMARK SMILES IDX 44 55 76 56 56 57 75 58 57 59 60 60 74 61 93 62 58 63 59 64
REMARK SMILES IDX 73 66 94 67 61 68 45 69 46 70 54 71 47 72 53 73 55 74 52 75
REMARK SMILES IDX 48 76 49 77 50 78 51 79 77 80 78 81 86 82 79 83 85 84 87 85
REMARK SMILES IDX 84 86 80 87 81 88 82 89 83 90 62 91 63 92 71 93 64 94 70 95
REMARK SMILES IDX 72 96 69 97 65 98 66 99 67 100 68 101
REMARK H PARENT 11 13 92 54 60 65
REMARK Flexibility Score: inf
ROOT
ATOM      1  C   UNL A   1      40.242  19.649  25.841  1.00  0.00     0.202 C 
ENDROOT
BRANCH   1   2
ATOM      2  O   UNL A   1      39.749  20.696  26.671  1.00  0.00    -0.374 OA
BRANCH   2   3
ATOM      3  C   UNL A   1      39.374  21.918  26.027  1.00  0.00     0.202 C 
BRANCH   3   4
ATOM      4  C   UNL A   1      37.930  21.968  25.531  1.00  0.00     0.261 C 
BRANCH   4   5
ATOM      5  O   UNL A   1      37.286  23.213  25.880  1.00  0.00    -0.463 OA
BRANCH   5   6
ATOM      6  C   UNL A   1      36.352  23.619  24.993  1.00  0.00     0.315 C 
ATOM      7  O   UNL A   1      36.454  23.486  23.772  1.00  0.00    -0.252 OA
BRANCH   6   8
ATOM      8  C   UNL A   1      35.131  24.300  25.555  1.00  0.00     0.167 C 
ATOM      9  C   UNL A   1      33.851  24.654  24.792  1.00  0.00     0.098 C 
ATOM     10  C   UNL A   1      32.741  24.443  25.840  1.00  0.00     0.272 C 
ATOM     11  N   UNL A   1      33.235  23.475  26.827  1.00  0.00    -0.329 N 
ATOM     12  C   UNL A   1      34.691  23.427  26.724  1.00  0.00     0.278 C 
ATOM     13  H   UNL A   1      32.941  23.815  27.742  1.00  0.00     0.348 HD
BRANCH   9  14
ATOM     14  C   UNL A   1      33.749  26.053  24.168  1.00  0.00     0.004 A 
ATOM     15  C   UNL A   1      33.515  26.352  22.807  1.00  0.00     0.122 A 
ATOM     16  C   UNL A   1      33.381  27.685  22.374  1.00  0.00     0.047 A 
ATOM     17  C   UNL A   1      33.584  28.745  23.256  1.00  0.00     0.004 A 
ATOM     18  C   UNL A   1      34.020  27.150  25.017  1.00  0.00     0.008 A 
ATOM     19  C   UNL A   1      33.957  28.475  24.566  1.00  0.00     0.001 A 
BRANCH  15  20
ATOM     20  O   UNL A   1      33.782  25.459  21.797  1.00  0.00    -0.496 OA
ATOM     21  C   UNL A   1      32.772  25.277  20.819  1.00  0.00     0.278 C 
ENDBRANCH  15  20
ENDBRANCH   9  14
BRANCH  11  22
ATOM     22  C   UNL A   1      32.625  22.139  26.799  1.00  0.00     0.321 C 
BRANCH  22  23
ATOM     23  C   UNL A   1      33.000  21.314  25.613  1.00  0.00     0.114 A 
ATOM     24  C   UNL A   1      34.096  20.486  25.554  1.00  0.00     0.122 A 
ATOM     25  N   UNL A   1      32.210  21.165  24.485  1.00  0.00    -0.228 NA
ATOM     26  N   UNL A   1      33.838  19.646  24.516  1.00  0.00    -0.306 N 
ATOM     27  C   UNL A   1      32.701  20.105  23.867  1.00  0.00     0.137 A 
ATOM     28  C   UNL A   1      34.361  18.378  24.388  1.00  0.00     0.096 A 
ATOM     29  C   UNL A   1      32.199  19.271  22.824  1.00  0.00     0.048 A 
ATOM     30  C   UNL A   1      33.639  17.481  23.707  1.00  0.00    -0.034 A 
ATOM     31  C   UNL A   1      32.641  17.993  22.751  1.00  0.00     0.009 A 
ATOM     32  C   UNL A   1      33.637  16.125  24.341  1.00  0.00     0.046 C 
ENDBRANCH  22  23
ENDBRANCH  11  22
ENDBRANCH   6   8
ENDBRANCH   5   6
ENDBRANCH   4   5
ENDBRANCH   3   4
ENDBRANCH   2   3
ENDBRANCH   1   2
BRANCH   1  33
ATOM     33  C   UNL A   1      41.667  19.197  26.113  1.00  0.00     0.261 C 
BRANCH  33  34
ATOM     34  O   UNL A   1      42.551  19.549  25.062  1.00  0.00    -0.460 OA
BRANCH  34  35
ATOM     35  C   UNL A   1      43.711  20.190  25.385  1.00  0.00     0.338 C 
ATOM     36  O   UNL A   1      44.831  19.749  25.318  1.00  0.00    -0.246 OA
BRANCH  35  37
ATOM     37  C   UNL A   1      43.295  21.520  25.900  1.00  0.00     0.060 A 
ATOM     38  C   UNL A   1      43.229  22.705  25.148  1.00  0.00     0.016 A 
ATOM     39  C   UNL A   1      42.958  21.564  27.235  1.00  0.00     0.016 A 
ATOM     40  C   UNL A   1      42.963  23.947  25.791  1.00  0.00     0.010 A 
ATOM     41  C   UNL A   1      42.592  22.750  27.779  1.00  0.00     0.010 A 
ATOM     42  C   UNL A   1      42.726  23.967  27.162  1.00  0.00    -0.014 A 
BRANCH  42  43
ATOM     43  C   UNL A   1      42.473  25.064  28.120  1.00  0.00     0.031 A 
ATOM     44  C   UNL A   1      41.082  25.605  28.084  1.00  0.00     0.074 A 
ATOM     45  C   UNL A   1      43.321  25.312  29.165  1.00  0.00     0.049 A 
ATOM     46  N   UNL A   1      40.601  26.381  27.160  1.00  0.00    -0.248 NA
ATOM     47  C   UNL A   1      40.015  25.118  28.984  1.00  0.00     0.031 C 
ATOM     48  C   UNL A   1      44.594  24.631  29.494  1.00  0.00     0.029 A 
ATOM     49  N   UNL A   1      43.226  26.222  30.190  1.00  0.00    -0.354 N 
ATOM     50  C   UNL A   1      39.368  26.777  27.662  1.00  0.00     0.074 A 
ATOM     51  C   UNL A   1      38.924  25.689  28.467  1.00  0.00     0.031 C 
ATOM     52  C   UNL A   1      45.093  25.082  30.674  1.00  0.00     0.029 A 
ATOM     53  C   UNL A   1      44.275  26.194  31.129  1.00  0.00     0.049 A 
ATOM     54  H   UNL A   1      42.473  26.851  30.264  1.00  0.00     0.167 HD
ATOM     55  C   UNL A   1      39.068  28.100  27.822  1.00  0.00     0.034 A 
ATOM     56  C   UNL A   1      44.607  27.130  32.074  1.00  0.00     0.034 A 
ATOM     57  C   UNL A   1      40.094  28.918  27.202  1.00  0.00     0.049 A 
ATOM     58  C   UNL A   1      44.108  28.416  31.542  1.00  0.00     0.074 A 
ATOM     59  C   UNL A   1      40.682  28.938  25.954  1.00  0.00     0.029 A 
ATOM     60  N   UNL A   1      40.974  29.566  28.045  1.00  0.00    -0.354 N 
ATOM     61  N   UNL A   1      44.583  28.959  30.456  1.00  0.00    -0.248 NA
ATOM     62  C   UNL A   1      42.769  28.841  31.912  1.00  0.00     0.031 C 
ATOM     63  C   UNL A   1      42.070  29.134  26.209  1.00  0.00     0.029 A 
ATOM     64  C   UNL A   1      42.252  29.388  27.572  1.00  0.00     0.049 A 
ATOM     65  H   UNL A   1      40.727  30.073  28.852  1.00  0.00     0.167 HD
ATOM     66  C   UNL A   1      43.462  29.381  29.761  1.00  0.00     0.074 A 
ATOM     67  C   UNL A   1      42.392  29.402  30.759  1.00  0.00     0.031 C 
ATOM     68  C   UNL A   1      43.452  29.397  28.395  1.00  0.00     0.034 A 
BRANCH  55  69
ATOM     69  C   UNL A   1      38.121  28.692  28.850  1.00  0.00     0.023 A 
ATOM     70  C   UNL A   1      37.127  29.549  28.345  1.00  0.00     0.031 A 
ATOM     71  C   UNL A   1      38.255  28.679  30.259  1.00  0.00     0.131 A 
ATOM     72  C   UNL A   1      36.391  30.391  29.193  1.00  0.00     0.055 A 
ATOM     73  C   UNL A   1      37.467  29.467  31.106  1.00  0.00     0.041 A 
ATOM     74  F   UNL A   1      39.202  27.984  30.898  1.00  0.00    -0.206 F 
ATOM     75  C   UNL A   1      36.548  30.353  30.574  1.00  0.00     0.022 A 
BRANCH  72  76
ATOM     76  S   UNL A   1      35.350  31.658  28.430  1.00  0.00     0.124 S 
ATOM     77  O   UNL A   1      34.643  30.879  27.419  1.00  0.00    -0.237 OA
ATOM     78  O   UNL A   1      34.555  32.114  29.565  1.00  0.00    -0.237 OA
ATOM     79  O   UNL A   1      36.316  32.623  27.914  1.00  0.00    -0.744 OA
ENDBRANCH  72  76
ENDBRANCH  55  69
BRANCH  56  80
ATOM     80  C   UNL A   1      45.083  26.978  33.488  1.00  0.00     0.023 A 
ATOM     81  C   UNL A   1      44.229  27.018  34.625  1.00  0.00     0.031 A 
ATOM     82  C   UNL A   1      46.384  26.481  33.707  1.00  0.00     0.131 A 
ATOM     83  C   UNL A   1      44.682  26.553  35.891  1.00  0.00     0.055 A 
ATOM     84  C   UNL A   1      46.820  26.011  34.953  1.00  0.00     0.041 A 
ATOM     85  F   UNL A   1      47.246  26.346  32.688  1.00  0.00    -0.206 F 
ATOM     86  C   UNL A   1      45.968  26.033  36.047  1.00  0.00     0.022 A 
BRANCH  83  87
ATOM     87  S   UNL A   1      43.580  26.531  37.355  1.00  0.00     0.124 S 
ATOM     88  O   UNL A   1      42.391  27.218  36.866  1.00  0.00    -0.237 OA
ATOM     89  O   UNL A   1      43.440  25.104  37.623  1.00  0.00    -0.237 OA
ATOM     90  O   UNL A   1      44.337  27.268  38.369  1.00  0.00    -0.744 OA
ENDBRANCH  83  87
ENDBRANCH  56  80
BRANCH  68  91
ATOM     91  C   UNL A   1      44.783  29.252  27.668  1.00  0.00     0.023 A 
ATOM     92  C   UNL A   1      45.322  28.039  27.178  1.00  0.00     0.031 A 
ATOM     93  C   UNL A   1      45.476  30.435  27.356  1.00  0.00     0.131 A 
ATOM     94  C   UNL A   1      46.504  28.045  26.407  1.00  0.00     0.055 A 
ATOM     95  C   UNL A   1      46.627  30.442  26.570  1.00  0.00     0.041 A 
ATOM     96  F   UNL A   1      45.014  31.624  27.776  1.00  0.00    -0.206 F 
ATOM     97  C   UNL A   1      47.149  29.244  26.094  1.00  0.00     0.022 A 
BRANCH  94  98
ATOM     98  S   UNL A   1      47.225  26.483  25.799  1.00  0.00     0.124 S 
ATOM     99  O   UNL A   1      48.656  26.664  26.014  1.00  0.00    -0.237 OA
ATOM    100  O   UNL A   1      46.577  25.482  26.643  1.00  0.00    -0.237 OA
ATOM    101  O   UNL A   1      46.820  26.446  24.393  1.00  0.00    -0.744 OA
ENDBRANCH  94  98
ENDBRANCH  68  91
ENDBRANCH  42  43
ENDBRANCH  35  37
ENDBRANCH  34  35
ENDBRANCH  33  34
ENDBRANCH   1  33
TORSDOF 21
ENDMDL
MODEL 3
REMARK VINA RESULT:     -12.3      1.244      4.050
REMARK SMILES COc1ccccc1[C@@H]1C[N@@H+](Cc2cn3cc(C)ccc3n2)C[C@H]1C(=O)OCCOCCOC(=O)c1ccc(-c2c3nc(c(-c4cc(S(=O)(=O)[O-])ccc4F)c4ccc([nH]4)c(-c4cc(S(=O)(=O)[O-])ccc4F)c4nc(c(-c5cc(S(=O)(=O)[O-])ccc5F)c5ccc2[nH]5)C=C4)C=C3)cc1
REMARK SMILES IDX 31 1 30 2 29 3 28 4 27 5 25 6 26 7 24 8 9 9 10 10 11 11
REMARK SMILES IDX 23 12 8 14 3 15 4 16 5 17 7 18 6 19 2 20 1 21 12 22 13 23
REMARK SMILES IDX 14 24 22 25 15 26 21 27 16 28 20 29 17 30 19 31 18 32 32 33
REMARK SMILES IDX 33 34 34 35 35 36 36 37 37 38 98 39 38 40 97 41 39 42 40 43
REMARK SMILES IDX 41 44 91 45 42 46 96 47 90 48 92 49 43 50 95 51 89 52 88 53
REMARK SMILES IDX 44 55 76 56 56 57 75 58 57 59 60 60 74 61 93 62 58 63 59 64
REMARK SMILES IDX 73 66 94 67 61 68 45 69 46 70 54 71 47 72 53 73 55 74 52 75
REMARK SMILES IDX 48 76 49 77 50 78 51 79 77 80 78 81 86 82 79 83 85 84 87 85
REMARK SMILES IDX 84 86 80 87 81 88 82 89 83 90 62 91 63 92 71 93 64 94 70 95
REMARK SMILES IDX 72 96 69 97 65 98 66 99 67 100 68 101
REMARK H PARENT 11 13 92 54 60 65
REMARK Flexibility Score: inf
ROOT
ATOM      1  C   UNL A   1      34.627  30.929  28.101  1.00  0.00     0.202 C 
ENDROOT
BRANCH   1   2
ATOM      2  O   UNL A   1      33.634  31.034  27.086  1.00  0.00    -0.374 OA
BRANCH   2   3
ATOM      3  C   UNL A   1      32.675  29.974  26.998  1.00  0.00     0.202 C 
BRANCH   3   4
ATOM      4  C   UNL A   1      33.230  28.579  27.280  1.00  0.00     0.261 C 
BRANCH   4   5
ATOM      5  O   UNL A   1      32.189  27.577  27.272  1.00  0.00    -0.463 OA
BRANCH   5   6
ATOM      6  C   UNL A   1      32.353  26.618  26.336  1.00  0.00     0.315 C 
ATOM      7  O   UNL A   1      33.444  26.133  26.027  1.00  0.00    -0.252 OA
BRANCH   6   8
ATOM      8  C   UNL A   1      31.115  26.149  25.617  1.00  0.00     0.167 C 
ATOM      9  C   UNL A   1      30.851  26.224  24.110  1.00  0.00     0.098 C 
ATOM     10  C   UNL A   1      30.049  24.939  23.825  1.00  0.00     0.272 C 
ATOM     11  N   UNL A   1      30.389  23.959  24.864  1.00  0.00    -0.329 N 
ATOM     12  C   UNL A   1      30.969  24.680  25.994  1.00  0.00     0.278 C 
ATOM     13  H   UNL A   1      29.518  23.500  25.128  1.00  0.00     0.348 HD
BRANCH   9  14
ATOM     14  C   UNL A   1      30.112  27.455  23.569  1.00  0.00     0.004 A 
ATOM     15  C   UNL A   1      30.688  28.700  23.228  1.00  0.00     0.122 A 
ATOM     16  C   UNL A   1      29.903  29.732  22.680  1.00  0.00     0.047 A 
ATOM     17  C   UNL A   1      28.522  29.592  22.563  1.00  0.00     0.004 A 
ATOM     18  C   UNL A   1      28.702  27.375  23.504  1.00  0.00     0.008 A 
ATOM     19  C   UNL A   1      27.916  28.432  23.026  1.00  0.00     0.001 A 
BRANCH  15  20
ATOM     20  O   UNL A   1      31.893  29.122  23.739  1.00  0.00    -0.496 OA
ATOM     21  C   UNL A   1      33.056  28.765  23.012  1.00  0.00     0.278 C 
ENDBRANCH  15  20
ENDBRANCH   9  14
BRANCH  11  22
ATOM     22  C   UNL A   1      31.210  22.815  24.445  1.00  0.00     0.321 C 
BRANCH  22  23
ATOM     23  C   UNL A   1      32.676  23.000  24.655  1.00  0.00     0.114 A 
ATOM     24  C   UNL A   1      33.390  22.458  25.698  1.00  0.00     0.122 A 
ATOM     25  N   UNL A   1      33.524  23.610  23.744  1.00  0.00    -0.228 NA
ATOM     26  N   UNL A   1      34.687  22.511  25.293  1.00  0.00    -0.306 N 
ATOM     27  C   UNL A   1      34.739  23.245  24.116  1.00  0.00     0.137 A 
ATOM     28  C   UNL A   1      35.680  21.668  25.739  1.00  0.00     0.096 A 
ATOM     29  C   UNL A   1      36.008  23.297  23.469  1.00  0.00     0.048 A 
ATOM     30  C   UNL A   1      36.700  21.425  24.908  1.00  0.00    -0.034 A 
ATOM     31  C   UNL A   1      36.959  22.407  23.840  1.00  0.00     0.009 A 
ATOM     32  C   UNL A   1      37.130  19.991  24.910  1.00  0.00     0.046 C 
ENDBRANCH  22  23
ENDBRANCH  11  22
ENDBRANCH   6   8
ENDBRANCH   5   6
ENDBRANCH   4   5
ENDBRANCH   3   4
ENDBRANCH   2   3
ENDBRANCH   1   2
BRANCH   1  33
ATOM     33  C   UNL A   1      36.013  30.513  27.637  1.00  0.00     0.261 C 
BRANCH  33  34
ATOM     34  O   UNL A   1      36.979  30.619  28.670  1.00  0.00    -0.460 OA
BRANCH  34  35
ATOM     35  C   UNL A   1      36.991  29.659  29.639  1.00  0.00     0.338 C 
ATOM     36  O   UNL A   1      36.194  29.516  30.534  1.00  0.00    -0.246 OA
BRANCH  35  37
ATOM     37  C   UNL A   1      38.227  28.871  29.398  1.00  0.00     0.060 A 
ATOM     38  C   UNL A   1      38.658  27.771  30.159  1.00  0.00     0.016 A 
ATOM     39  C   UNL A   1      38.999  29.283  28.334  1.00  0.00     0.016 A 
ATOM     40  C   UNL A   1      39.938  27.196  29.922  1.00  0.00     0.010 A 
ATOM     41  C   UNL A   1      40.154  28.625  28.070  1.00  0.00     0.010 A 
ATOM     42  C   UNL A   1      40.736  27.705  28.901  1.00  0.00    -0.014 A 
BRANCH  42  43
ATOM     43  C   UNL A   1      42.100  27.375  28.435  1.00  0.00     0.031 A 
ATOM     44  C   UNL A   1      42.186  26.135  27.609  1.00  0.00     0.074 A 
ATOM     45  C   UNL A   1      43.109  28.299  28.466  1.00  0.00     0.049 A 
ATOM     46  N   UNL A   1      42.114  24.922  28.065  1.00  0.00    -0.248 NA
ATOM     47  C   UNL A   1      42.126  26.157  26.131  1.00  0.00     0.031 C 
ATOM     48  C   UNL A   1      43.067  29.686  28.983  1.00  0.00     0.029 A 
ATOM     49  N   UNL A   1      44.405  28.215  28.018  1.00  0.00    -0.354 N 
ATOM     50  C   UNL A   1      42.450  24.131  26.974  1.00  0.00     0.074 A 
ATOM     51  C   UNL A   1      42.010  24.861  25.833  1.00  0.00     0.031 C 
ATOM     52  C   UNL A   1      44.236  30.331  28.735  1.00  0.00     0.029 A 
ATOM     53  C   UNL A   1      45.183  29.377  28.180  1.00  0.00     0.049 A 
ATOM     54  H   UNL A   1      44.766  27.396  27.609  1.00  0.00     0.167 HD
ATOM     55  C   UNL A   1      43.492  23.251  27.040  1.00  0.00     0.034 A 
ATOM     56  C   UNL A   1      46.544  29.518  28.099  1.00  0.00     0.034 A 
ATOM     57  C   UNL A   1      43.968  23.149  28.408  1.00  0.00     0.049 A 
ATOM     58  C   UNL A   1      47.095  28.190  28.444  1.00  0.00     0.074 A 
ATOM     59  C   UNL A   1      43.355  22.912  29.621  1.00  0.00     0.029 A 
ATOM     60  N   UNL A   1      45.167  23.764  28.703  1.00  0.00    -0.354 N 
ATOM     61  N   UNL A   1      46.956  27.657  29.626  1.00  0.00    -0.248 NA
ATOM     62  C   UNL A   1      47.351  27.249  27.367  1.00  0.00     0.031 C 
ATOM     63  C   UNL A   1      43.964  23.832  30.522  1.00  0.00     0.029 A 
ATOM     64  C   UNL A   1      45.024  24.472  29.873  1.00  0.00     0.049 A 
ATOM     65  H   UNL A   1      45.990  23.705  28.166  1.00  0.00     0.167 HD
ATOM     66  C   UNL A   1      46.612  26.340  29.373  1.00  0.00     0.074 A 
ATOM     67  C   UNL A   1      46.998  26.115  27.980  1.00  0.00     0.031 C 
ATOM     68  C   UNL A   1      45.794  25.655  30.227  1.00  0.00     0.034 A 
BRANCH  55  69
ATOM     69  C   UNL A   1      44.361  22.793  25.882  1.00  0.00     0.023 A 
ATOM     70  C   UNL A   1      44.410  21.404  25.666  1.00  0.00     0.031 A 
ATOM     71  C   UNL A   1      45.301  23.557  25.150  1.00  0.00     0.131 A 
ATOM     72  C   UNL A   1      45.392  20.829  24.845  1.00  0.00     0.055 A 
ATOM     73  C   UNL A   1      46.231  22.984  24.274  1.00  0.00     0.041 A 
ATOM     74  F   UNL A   1      45.444  24.878  25.297  1.00  0.00    -0.206 F 
ATOM     75  C   UNL A   1      46.302  21.609  24.139  1.00  0.00     0.022 A 
BRANCH  72  76
ATOM     76  S   UNL A   1      45.558  19.028  24.859  1.00  0.00     0.124 S 
ATOM     77  O   UNL A   1      44.305  18.629  25.491  1.00  0.00    -0.237 OA
ATOM     78  O   UNL A   1      45.687  18.728  23.437  1.00  0.00    -0.237 OA
ATOM     79  O   UNL A   1      46.760  18.806  25.658  1.00  0.00    -0.744 OA
ENDBRANCH  72  76
ENDBRANCH  55  69
BRANCH  56  80
ATOM     80  C   UNL A   1      47.390  30.609  27.512  1.00  0.00     0.023 A 
ATOM     81  C   UNL A   1      46.866  31.759  26.860  1.00  0.00     0.031 A 
ATOM     82  C   UNL A   1      48.753  30.664  27.866  1.00  0.00     0.131 A 
ATOM     83  C   UNL A   1      47.689  32.894  26.617  1.00  0.00     0.055 A 
ATOM     84  C   UNL A   1      49.555  31.789  27.637  1.00  0.00     0.041 A 
ATOM     85  F   UNL A   1      49.327  29.654  28.539  1.00  0.00    -0.206 F 
ATOM     86  C   UNL A   1      49.024  32.914  27.023  1.00  0.00     0.022 A 
BRANCH  83  87
ATOM     87  S   UNL A   1      47.022  34.414  25.840  1.00  0.00     0.124 S 
ATOM     88  O   UNL A   1      46.814  35.289  26.987  1.00  0.00    -0.237 OA
ATOM     89  O   UNL A   1      48.088  34.792  24.919  1.00  0.00    -0.237 OA
ATOM     90  O   UNL A   1      45.791  33.958  25.191  1.00  0.00    -0.744 OA
ENDBRANCH  83  87
ENDBRANCH  56  80
BRANCH  68  91
ATOM     91  C   UNL A   1      45.533  26.255  31.603  1.00  0.00     0.023 A 
ATOM     92  C   UNL A   1      44.434  27.077  31.946  1.00  0.00     0.031 A 
ATOM     93  C   UNL A   1      46.392  25.865  32.646  1.00  0.00     0.131 A 
ATOM     94  C   UNL A   1      44.228  27.470  33.285  1.00  0.00     0.055 A 
ATOM     95  C   UNL A   1      46.171  26.230  33.973  1.00  0.00     0.041 A 
ATOM     96  F   UNL A   1      47.448  25.073  32.396  1.00  0.00    -0.206 F 
ATOM     97  C   UNL A   1      45.088  27.038  34.298  1.00  0.00     0.022 A 
BRANCH  94  98
ATOM     98  S   UNL A   1      42.833  28.558  33.731  1.00  0.00     0.124 S 
ATOM     99  O   UNL A   1      41.695  27.943  33.056  1.00  0.00    -0.237 OA
ATOM    100  O   UNL A   1      42.822  28.483  35.189  1.00  0.00    -0.237 OA
ATOM    101  O   UNL A   1      43.230  29.860  33.192  1.00  0.00    -0.744 OA
ENDBRANCH  94  98
ENDBRANCH  68  91
ENDBRANCH  42  43
ENDBRANCH  35  37
ENDBRANCH  34  35
ENDBRANCH  33  34
ENDBRANCH   1  33
TORSDOF 21
ENDMDL
