MODEL 1
REMARK VINA RESULT:     -12.5      0.000      0.000
REMARK SMILES Cc1ccc(N2C(=O)C[C@H](Sc3ccccc3C(=O)OCCOCCOC(=O)c3ccc(-c4c5nc(c(-c6cc(S(=O)(=O)[O-])ccc6F)c6ccc([nH]6)c(-c6cc(S(=O)(=O)[O-])ccc6F)c6nc(c(-c7cc(S(=O)(=O)[O-])ccc7F)c7ccc4[nH]7)C=C6)C=C5)cc3)C2=O)cc1
REMARK SMILES IDX 23 1 22 2 21 3 20 4 18 5 19 6 17 7 12 8 13 9 14 10 16 11
REMARK SMILES IDX 15 12 11 13 10 14 6 15 7 16 92 17 8 18 9 19 93 20 5 21 1 22
REMARK SMILES IDX 2 23 3 24 95 25 4 26 94 27 24 28 25 29 26 30 27 31 28 32
REMARK SMILES IDX 29 33 30 34 91 35 31 36 90 37 32 38 33 39 34 40 84 41 35 42
REMARK SMILES IDX 89 43 83 44 85 45 36 46 88 47 82 48 81 49 37 51 69 52 49 53
REMARK SMILES IDX 68 54 50 55 53 56 67 57 86 58 51 59 52 60 66 62 87 63 54 64
REMARK SMILES IDX 38 65 39 66 47 67 40 68 46 69 48 70 45 71 41 72 42 73 43 74
REMARK SMILES IDX 44 75 70 76 71 77 79 78 72 79 78 80 80 81 77 82 73 83 74 84
REMARK SMILES IDX 75 85 76 86 55 87 56 88 64 89 57 90 63 91 65 92 62 93 58 94
REMARK SMILES IDX 59 95 60 96 61 97
REMARK H PARENT 85 50 53 61
REMARK Flexibility Score: inf
ROOT
ATOM      1  O   UNL A   1      34.068  28.238  26.211  1.00  0.00    -0.374 OA
ENDROOT
BRANCH   1   2
ATOM      2  C   UNL A   1      33.181  27.156  26.061  1.00  0.00     0.202 C 
BRANCH   2   3
ATOM      3  C   UNL A   1      34.021  26.308  25.207  1.00  0.00     0.261 C 
BRANCH   3   4
ATOM      4  O   UNL A   1      34.256  25.004  25.766  1.00  0.00    -0.460 OA
BRANCH   4   5
ATOM      5  C   UNL A   1      35.045  24.068  25.172  1.00  0.00     0.339 C 
ATOM      6  O   UNL A   1      36.215  24.123  24.911  1.00  0.00    -0.246 OA
BRANCH   5   7
ATOM      7  C   UNL A   1      34.173  22.897  24.939  1.00  0.00     0.073 A 
ATOM      8  C   UNL A   1      33.430  22.726  23.760  1.00  0.00     0.023 A 
ATOM      9  C   UNL A   1      32.772  21.495  23.595  1.00  0.00     0.016 A 
ATOM     10  C   UNL A   1      32.850  20.481  24.560  1.00  0.00     0.001 A 
ATOM     11  C   UNL A   1      34.169  21.906  25.945  1.00  0.00     0.017 A 
ATOM     12  C   UNL A   1      33.529  20.696  25.749  1.00  0.00     0.001 A 
BRANCH   8  13
ATOM     13  S   UNL A   1      33.043  24.002  22.552  1.00  0.00    -0.111 SA
BRANCH  13  14
ATOM     14  C   UNL A   1      31.378  24.613  22.954  1.00  0.00     0.151 C 
ATOM     15  N   UNL A   1      30.265  26.576  23.490  1.00  0.00    -0.250 N 
ATOM     16  C   UNL A   1      30.043  25.722  24.546  1.00  0.00     0.235 C 
ATOM     17  C   UNL A   1      31.038  26.008  22.505  1.00  0.00     0.247 C 
ATOM     18  O   UNL A   1      29.288  25.876  25.496  1.00  0.00    -0.274 OA
ATOM     19  C   UNL A   1      31.027  24.593  24.431  1.00  0.00     0.126 C 
ATOM     20  O   UNL A   1      31.247  26.469  21.390  1.00  0.00    -0.273 OA
BRANCH  15  21
ATOM     21  C   UNL A   1      29.759  27.887  23.415  1.00  0.00     0.052 A 
ATOM     22  C   UNL A   1      28.225  31.912  23.284  1.00  0.00     0.044 C 
ATOM     23  C   UNL A   1      28.753  30.511  23.363  1.00  0.00    -0.051 A 
ATOM     24  C   UNL A   1      27.980  29.438  22.897  1.00  0.00     0.005 A 
ATOM     25  C   UNL A   1      30.037  30.259  23.854  1.00  0.00     0.005 A 
ATOM     26  C   UNL A   1      28.463  28.128  22.963  1.00  0.00     0.027 A 
ATOM     27  C   UNL A   1      30.553  28.962  23.840  1.00  0.00     0.027 A 
ENDBRANCH  15  21
ENDBRANCH  13  14
ENDBRANCH   8  13
ENDBRANCH   5   7
ENDBRANCH   4   5
ENDBRANCH   3   4
ENDBRANCH   2   3
ENDBRANCH   1   2
BRANCH   1  28
ATOM     28  C   UNL A   1      33.461  29.451  25.940  1.00  0.00     0.202 C 
BRANCH  28  29
ATOM     29  C   UNL A   1      33.228  30.118  27.277  1.00  0.00     0.261 C 
BRANCH  29  30
ATOM     30  O   UNL A   1      34.131  31.265  27.474  1.00  0.00    -0.460 OA
BRANCH  30  31
ATOM     31  C   UNL A   1      34.914  31.382  28.597  1.00  0.00     0.338 C 
ATOM     32  O   UNL A   1      34.679  32.155  29.517  1.00  0.00    -0.246 OA
BRANCH  31  33
ATOM     33  C   UNL A   1      35.999  30.346  28.701  1.00  0.00     0.060 A 
ATOM     34  C   UNL A   1      36.293  29.703  29.926  1.00  0.00     0.016 A 
ATOM     35  C   UNL A   1      36.847  30.145  27.620  1.00  0.00     0.016 A 
ATOM     36  C   UNL A   1      37.537  29.063  30.126  1.00  0.00     0.010 A 
ATOM     37  C   UNL A   1      38.086  29.558  27.838  1.00  0.00     0.010 A 
ATOM     38  C   UNL A   1      38.483  29.087  29.107  1.00  0.00    -0.014 A 
BRANCH  38  39
ATOM     39  C   UNL A   1      39.907  28.695  29.229  1.00  0.00     0.031 A 
ATOM     40  C   UNL A   1      40.232  27.301  28.886  1.00  0.00     0.074 A 
ATOM     41  C   UNL A   1      40.936  29.575  29.405  1.00  0.00     0.049 A 
ATOM     42  N   UNL A   1      41.353  26.745  29.168  1.00  0.00    -0.248 NA
ATOM     43  C   UNL A   1      39.293  26.371  28.259  1.00  0.00     0.031 C 
ATOM     44  C   UNL A   1      42.362  29.465  29.064  1.00  0.00     0.029 A 
ATOM     45  N   UNL A   1      40.904  30.878  29.898  1.00  0.00    -0.354 N 
ATOM     46  C   UNL A   1      41.438  25.604  28.413  1.00  0.00     0.074 A 
ATOM     47  C   UNL A   1      40.077  25.309  28.056  1.00  0.00     0.031 C 
ATOM     48  C   UNL A   1      43.053  30.474  29.645  1.00  0.00     0.029 A 
ATOM     49  C   UNL A   1      42.119  31.210  30.491  1.00  0.00     0.049 A 
ATOM     50  H   UNL A   1      40.130  31.482  29.834  1.00  0.00     0.167 HD
ATOM     51  C   UNL A   1      42.678  25.175  28.049  1.00  0.00     0.034 A 
ATOM     52  C   UNL A   1      42.151  31.487  31.822  1.00  0.00     0.034 A 
ATOM     53  C   UNL A   1      43.724  25.986  28.715  1.00  0.00     0.049 A 
ATOM     54  C   UNL A   1      42.897  30.344  32.475  1.00  0.00     0.074 A 
ATOM     55  C   UNL A   1      44.693  26.883  28.296  1.00  0.00     0.029 A 
ATOM     56  N   UNL A   1      43.653  26.146  30.097  1.00  0.00    -0.354 N 
ATOM     57  N   UNL A   1      43.223  29.262  31.818  1.00  0.00    -0.248 NA
ATOM     58  C   UNL A   1      43.358  30.296  33.853  1.00  0.00     0.031 C 
ATOM     59  C   UNL A   1      45.165  27.599  29.451  1.00  0.00     0.029 A 
ATOM     60  C   UNL A   1      44.512  27.114  30.572  1.00  0.00     0.049 A 
ATOM     61  H   UNL A   1      43.052  25.622  30.674  1.00  0.00     0.167 HD
ATOM     62  C   UNL A   1      43.993  28.441  32.568  1.00  0.00     0.074 A 
ATOM     63  C   UNL A   1      43.958  29.088  33.880  1.00  0.00     0.031 C 
ATOM     64  C   UNL A   1      44.591  27.334  32.020  1.00  0.00     0.034 A 
BRANCH  51  65
ATOM     65  C   UNL A   1      42.979  24.158  26.960  1.00  0.00     0.023 A 
ATOM     66  C   UNL A   1      42.359  22.894  27.045  1.00  0.00     0.031 A 
ATOM     67  C   UNL A   1      43.868  24.302  25.869  1.00  0.00     0.131 A 
ATOM     68  C   UNL A   1      42.630  21.869  26.116  1.00  0.00     0.055 A 
ATOM     69  C   UNL A   1      44.114  23.295  24.927  1.00  0.00     0.041 A 
ATOM     70  F   UNL A   1      44.579  25.409  25.645  1.00  0.00    -0.206 F 
ATOM     71  C   UNL A   1      43.497  22.065  25.048  1.00  0.00     0.022 A 
BRANCH  68  72
ATOM     72  S   UNL A   1      41.839  20.255  26.336  1.00  0.00     0.124 S 
ATOM     73  O   UNL A   1      42.266  19.889  27.683  1.00  0.00    -0.237 OA
ATOM     74  O   UNL A   1      40.427  20.576  26.167  1.00  0.00    -0.237 OA
ATOM     75  O   UNL A   1      42.420  19.446  25.265  1.00  0.00    -0.744 OA
ENDBRANCH  68  72
ENDBRANCH  51  65
BRANCH  52  76
ATOM     76  C   UNL A   1      40.909  32.224  32.295  1.00  0.00     0.023 A 
ATOM     77  C   UNL A   1      40.015  31.577  33.203  1.00  0.00     0.031 A 
ATOM     78  C   UNL A   1      40.854  33.628  32.259  1.00  0.00     0.131 A 
ATOM     79  C   UNL A   1      39.208  32.324  34.105  1.00  0.00     0.055 A 
ATOM     80  C   UNL A   1      40.052  34.364  33.151  1.00  0.00     0.041 A 
ATOM     81  F   UNL A   1      41.681  34.319  31.462  1.00  0.00    -0.206 F 
ATOM     82  C   UNL A   1      39.254  33.721  34.098  1.00  0.00     0.022 A 
BRANCH  79  83
ATOM     83  S   UNL A   1      38.449  31.489  35.571  1.00  0.00     0.124 S 
ATOM     84  O   UNL A   1      38.234  30.131  35.091  1.00  0.00    -0.237 OA
ATOM     85  O   UNL A   1      39.471  31.647  36.603  1.00  0.00    -0.237 OA
ATOM     86  O   UNL A   1      37.235  32.268  35.811  1.00  0.00    -0.744 OA
ENDBRANCH  79  83
ENDBRANCH  52  76
BRANCH  64  87
ATOM     87  C   UNL A   1      45.291  26.304  32.854  1.00  0.00     0.023 A 
ATOM     88  C   UNL A   1      44.592  25.517  33.763  1.00  0.00     0.031 A 
ATOM     89  C   UNL A   1      46.676  26.040  32.732  1.00  0.00     0.131 A 
ATOM     90  C   UNL A   1      45.188  24.383  34.319  1.00  0.00     0.055 A 
ATOM     91  C   UNL A   1      47.302  24.986  33.390  1.00  0.00     0.041 A 
ATOM     92  F   UNL A   1      47.483  26.750  31.933  1.00  0.00    -0.206 F 
ATOM     93  C   UNL A   1      46.545  24.116  34.153  1.00  0.00     0.022 A 
BRANCH  90  94
ATOM     94  S   UNL A   1      44.102  23.197  35.132  1.00  0.00     0.124 S 
ATOM     95  O   UNL A   1      43.830  22.234  34.068  1.00  0.00    -0.237 OA
ATOM     96  O   UNL A   1      44.954  22.713  36.215  1.00  0.00    -0.237 OA
ATOM     97  O   UNL A   1      42.961  24.009  35.548  1.00  0.00    -0.744 OA
ENDBRANCH  90  94
ENDBRANCH  64  87
ENDBRANCH  38  39
ENDBRANCH  31  33
ENDBRANCH  30  31
ENDBRANCH  29  30
ENDBRANCH  28  29
ENDBRANCH   1  28
TORSDOF 20
ENDMDL
MODEL 2
REMARK VINA RESULT:     -12.0      4.249      9.961
REMARK SMILES Cc1ccc(N2C(=O)C[C@H](Sc3ccccc3C(=O)OCCOCCOC(=O)c3ccc(-c4c5nc(c(-c6cc(S(=O)(=O)[O-])ccc6F)c6ccc([nH]6)c(-c6cc(S(=O)(=O)[O-])ccc6F)c6nc(c(-c7cc(S(=O)(=O)[O-])ccc7F)c7ccc4[nH]7)C=C6)C=C5)cc3)C2=O)cc1
REMARK SMILES IDX 23 1 22 2 21 3 20 4 18 5 19 6 17 7 12 8 13 9 14 10 16 11
REMARK SMILES IDX 15 12 11 13 10 14 6 15 7 16 92 17 8 18 9 19 93 20 5 21 1 22
REMARK SMILES IDX 2 23 3 24 95 25 4 26 94 27 24 28 25 29 26 30 27 31 28 32
REMARK SMILES IDX 29 33 30 34 91 35 31 36 90 37 32 38 33 39 34 40 84 41 35 42
REMARK SMILES IDX 89 43 83 44 85 45 36 46 88 47 82 48 81 49 37 51 69 52 49 53
REMARK SMILES IDX 68 54 50 55 53 56 67 57 86 58 51 59 52 60 66 62 87 63 54 64
REMARK SMILES IDX 38 65 39 66 47 67 40 68 46 69 48 70 45 71 41 72 42 73 43 74
REMARK SMILES IDX 44 75 70 76 71 77 79 78 72 79 78 80 80 81 77 82 73 83 74 84
REMARK SMILES IDX 75 85 76 86 55 87 56 88 64 89 57 90 63 91 65 92 62 93 58 94
REMARK SMILES IDX 59 95 60 96 61 97
REMARK H PARENT 85 50 53 61
REMARK Flexibility Score: inf
ROOT
ATOM      1  O   UNL A   1      37.781  23.033  24.654  1.00  0.00    -0.374 OA
ENDROOT
BRANCH   1   2
ATOM      2  C   UNL A   1      36.504  23.272  24.111  1.00  0.00     0.202 C 
BRANCH   2   3
ATOM      3  C   UNL A   1      35.822  23.686  25.343  1.00  0.00     0.261 C 
BRANCH   3   4
ATOM      4  O   UNL A   1      34.852  24.726  25.126  1.00  0.00    -0.460 OA
BRANCH   4   5
ATOM      5  C   UNL A   1      33.766  24.911  25.923  1.00  0.00     0.339 C 
ATOM      6  O   UNL A   1      33.388  24.249  26.849  1.00  0.00    -0.246 OA
BRANCH   5   7
ATOM      7  C   UNL A   1      33.131  26.160  25.453  1.00  0.00     0.073 A 
ATOM      8  C   UNL A   1      31.741  26.363  25.479  1.00  0.00     0.023 A 
ATOM      9  C   UNL A   1      31.279  27.651  25.160  1.00  0.00     0.016 A 
ATOM     10  C   UNL A   1      32.161  28.690  24.828  1.00  0.00     0.001 A 
ATOM     11  C   UNL A   1      34.002  27.188  25.029  1.00  0.00     0.017 A 
ATOM     12  C   UNL A   1      33.522  28.452  24.738  1.00  0.00     0.001 A 
BRANCH   8  13
ATOM     13  S   UNL A   1      30.484  25.087  25.651  1.00  0.00    -0.111 SA
BRANCH  13  14
ATOM     14  C   UNL A   1      30.817  23.850  24.361  1.00  0.00     0.151 C 
ATOM     15  N   UNL A   1      32.206  22.047  23.915  1.00  0.00    -0.250 N 
ATOM     16  C   UNL A   1      32.428  22.948  22.898  1.00  0.00     0.235 C 
ATOM     17  C   UNL A   1      31.272  22.492  24.821  1.00  0.00     0.247 C 
ATOM     18  O   UNL A   1      33.082  22.788  21.878  1.00  0.00    -0.274 OA
ATOM     19  C   UNL A   1      31.847  24.266  23.325  1.00  0.00     0.126 C 
ATOM     20  O   UNL A   1      30.759  21.834  25.717  1.00  0.00    -0.273 OA
BRANCH  15  21
ATOM     21  C   UNL A   1      32.857  20.804  24.024  1.00  0.00     0.052 A 
ATOM     22  C   UNL A   1      34.769  16.962  24.410  1.00  0.00     0.044 C 
ATOM     23  C   UNL A   1      34.082  18.290  24.301  1.00  0.00    -0.051 A 
ATOM     24  C   UNL A   1      34.702  19.447  24.795  1.00  0.00     0.005 A 
ATOM     25  C   UNL A   1      32.844  18.403  23.664  1.00  0.00     0.005 A 
ATOM     26  C   UNL A   1      34.072  20.691  24.696  1.00  0.00     0.027 A 
ATOM     27  C   UNL A   1      32.255  19.657  23.489  1.00  0.00     0.027 A 
ENDBRANCH  15  21
ENDBRANCH  13  14
ENDBRANCH   8  13
ENDBRANCH   5   7
ENDBRANCH   4   5
ENDBRANCH   3   4
ENDBRANCH   2   3
ENDBRANCH   1   2
BRANCH   1  28
ATOM     28  C   UNL A   1      37.847  21.820  25.316  1.00  0.00     0.202 C 
BRANCH  28  29
ATOM     29  C   UNL A   1      39.099  21.866  26.164  1.00  0.00     0.261 C 
BRANCH  29  30
ATOM     30  O   UNL A   1      39.699  23.211  26.170  1.00  0.00    -0.460 OA
BRANCH  30  31
ATOM     31  C   UNL A   1      40.258  23.746  27.305  1.00  0.00     0.338 C 
ATOM     32  O   UNL A   1      41.080  23.166  28.003  1.00  0.00    -0.246 OA
BRANCH  31  33
ATOM     33  C   UNL A   1      39.919  25.194  27.534  1.00  0.00     0.060 A 
ATOM     34  C   UNL A   1      40.394  26.209  26.672  1.00  0.00     0.016 A 
ATOM     35  C   UNL A   1      39.278  25.560  28.710  1.00  0.00     0.016 A 
ATOM     36  C   UNL A   1      40.433  27.557  27.095  1.00  0.00     0.010 A 
ATOM     37  C   UNL A   1      39.365  26.878  29.139  1.00  0.00     0.010 A 
ATOM     38  C   UNL A   1      40.014  27.875  28.383  1.00  0.00    -0.014 A 
BRANCH  38  39
ATOM     39  C   UNL A   1      40.219  29.171  29.072  1.00  0.00     0.031 A 
ATOM     40  C   UNL A   1      39.124  30.149  28.962  1.00  0.00     0.074 A 
ATOM     41  C   UNL A   1      41.220  29.419  29.967  1.00  0.00     0.049 A 
ATOM     42  N   UNL A   1      39.242  31.384  29.286  1.00  0.00    -0.248 NA
ATOM     43  C   UNL A   1      37.808  29.845  28.400  1.00  0.00     0.031 C 
ATOM     44  C   UNL A   1      41.302  30.387  31.071  1.00  0.00     0.029 A 
ATOM     45  N   UNL A   1      42.434  28.756  30.134  1.00  0.00    -0.354 N 
ATOM     46  C   UNL A   1      37.974  31.896  29.388  1.00  0.00     0.074 A 
ATOM     47  C   UNL A   1      37.160  30.990  28.626  1.00  0.00     0.031 C 
ATOM     48  C   UNL A   1      42.574  30.449  31.532  1.00  0.00     0.029 A 
ATOM     49  C   UNL A   1      43.395  29.614  30.662  1.00  0.00     0.049 A 
ATOM     50  H   UNL A   1      42.592  27.811  29.910  1.00  0.00     0.167 HD
ATOM     51  C   UNL A   1      37.774  32.922  30.262  1.00  0.00     0.034 A 
ATOM     52  C   UNL A   1      44.495  29.911  29.920  1.00  0.00     0.034 A 
ATOM     53  C   UNL A   1      39.065  33.388  30.820  1.00  0.00     0.049 A 
ATOM     54  C   UNL A   1      44.362  31.367  29.530  1.00  0.00     0.074 A 
ATOM     55  C   UNL A   1      39.657  33.383  32.072  1.00  0.00     0.029 A 
ATOM     56  N   UNL A   1      40.091  33.701  29.933  1.00  0.00    -0.354 N 
ATOM     57  N   UNL A   1      43.267  32.047  29.747  1.00  0.00    -0.248 NA
ATOM     58  C   UNL A   1      45.389  32.186  28.908  1.00  0.00     0.031 C 
ATOM     59  C   UNL A   1      41.057  33.663  31.903  1.00  0.00     0.029 A 
ATOM     60  C   UNL A   1      41.309  33.874  30.556  1.00  0.00     0.049 A 
ATOM     61  H   UNL A   1      39.961  33.790  28.962  1.00  0.00     0.167 HD
ATOM     62  C   UNL A   1      43.426  33.353  29.434  1.00  0.00     0.074 A 
ATOM     63  C   UNL A   1      44.748  33.368  28.806  1.00  0.00     0.031 C 
ATOM     64  C   UNL A   1      42.462  34.279  29.747  1.00  0.00     0.034 A 
BRANCH  51  65
ATOM     65  C   UNL A   1      36.424  33.400  30.771  1.00  0.00     0.023 A 
ATOM     66  C   UNL A   1      35.592  34.106  29.878  1.00  0.00     0.031 A 
ATOM     67  C   UNL A   1      35.901  33.268  32.079  1.00  0.00     0.131 A 
ATOM     68  C   UNL A   1      34.352  34.641  30.283  1.00  0.00     0.055 A 
ATOM     69  C   UNL A   1      34.654  33.772  32.474  1.00  0.00     0.041 A 
ATOM     70  F   UNL A   1      36.558  32.667  33.073  1.00  0.00    -0.206 F 
ATOM     71  C   UNL A   1      33.872  34.469  31.575  1.00  0.00     0.022 A 
BRANCH  68  72
ATOM     72  S   UNL A   1      33.376  35.591  29.090  1.00  0.00     0.124 S 
ATOM     73  O   UNL A   1      32.531  34.559  28.498  1.00  0.00    -0.237 OA
ATOM     74  O   UNL A   1      32.709  36.568  29.942  1.00  0.00    -0.237 OA
ATOM     75  O   UNL A   1      34.388  36.147  28.191  1.00  0.00    -0.744 OA
ENDBRANCH  68  72
ENDBRANCH  51  65
BRANCH  52  76
ATOM     76  C   UNL A   1      44.980  28.731  29.095  1.00  0.00     0.023 A 
ATOM     77  C   UNL A   1      45.130  28.880  27.682  1.00  0.00     0.031 A 
ATOM     78  C   UNL A   1      45.714  27.693  29.695  1.00  0.00     0.131 A 
ATOM     79  C   UNL A   1      46.066  28.099  26.951  1.00  0.00     0.055 A 
ATOM     80  C   UNL A   1      46.639  26.920  28.968  1.00  0.00     0.041 A 
ATOM     81  F   UNL A   1      45.661  27.502  31.020  1.00  0.00    -0.206 F 
ATOM     82  C   UNL A   1      46.845  27.140  27.605  1.00  0.00     0.022 A 
BRANCH  79  83
ATOM     83  S   UNL A   1      46.590  28.633  25.258  1.00  0.00     0.124 S 
ATOM     84  O   UNL A   1      47.992  28.242  25.219  1.00  0.00    -0.237 OA
ATOM     85  O   UNL A   1      45.693  27.880  24.386  1.00  0.00    -0.237 OA
ATOM     86  O   UNL A   1      46.341  30.074  25.267  1.00  0.00    -0.744 OA
ENDBRANCH  79  83
ENDBRANCH  52  76
BRANCH  64  87
ATOM     87  C   UNL A   1      42.516  35.693  29.252  1.00  0.00     0.023 A 
ATOM     88  C   UNL A   1      43.268  36.659  29.912  1.00  0.00     0.031 A 
ATOM     89  C   UNL A   1      41.857  36.110  28.071  1.00  0.00     0.131 A 
ATOM     90  C   UNL A   1      43.542  37.882  29.295  1.00  0.00     0.055 A 
ATOM     91  C   UNL A   1      42.025  37.378  27.523  1.00  0.00     0.041 A 
ATOM     92  F   UNL A   1      41.060  35.302  27.360  1.00  0.00    -0.206 F 
ATOM     93  C   UNL A   1      42.915  38.259  28.110  1.00  0.00     0.022 A 
BRANCH  90  94
ATOM     94  S   UNL A   1      44.854  38.889  30.012  1.00  0.00     0.124 S 
ATOM     95  O   UNL A   1      44.764  38.563  31.432  1.00  0.00    -0.237 OA
ATOM     96  O   UNL A   1      46.031  38.370  29.321  1.00  0.00    -0.237 OA
ATOM     97  O   UNL A   1      44.470  40.252  29.656  1.00  0.00    -0.744 OA
ENDBRANCH  90  94
ENDBRANCH  64  87
ENDBRANCH  38  39
ENDBRANCH  31  33
ENDBRANCH  30  31
ENDBRANCH  29  30
ENDBRANCH  28  29
ENDBRANCH   1  28
TORSDOF 20
ENDMDL
MODEL 3
REMARK VINA RESULT:     -11.9      2.329      4.549
REMARK SMILES Cc1ccc(N2C(=O)C[C@H](Sc3ccccc3C(=O)OCCOCCOC(=O)c3ccc(-c4c5nc(c(-c6cc(S(=O)(=O)[O-])ccc6F)c6ccc([nH]6)c(-c6cc(S(=O)(=O)[O-])ccc6F)c6nc(c(-c7cc(S(=O)(=O)[O-])ccc7F)c7ccc4[nH]7)C=C6)C=C5)cc3)C2=O)cc1
REMARK SMILES IDX 23 1 22 2 21 3 20 4 18 5 19 6 17 7 12 8 13 9 14 10 16 11
REMARK SMILES IDX 15 12 11 13 10 14 6 15 7 16 92 17 8 18 9 19 93 20 5 21 1 22
REMARK SMILES IDX 2 23 3 24 95 25 4 26 94 27 24 28 25 29 26 30 27 31 28 32
REMARK SMILES IDX 29 33 30 34 91 35 31 36 90 37 32 38 33 39 34 40 84 41 35 42
REMARK SMILES IDX 89 43 83 44 85 45 36 46 88 47 82 48 81 49 37 51 69 52 49 53
REMARK SMILES IDX 68 54 50 55 53 56 67 57 86 58 51 59 52 60 66 62 87 63 54 64
REMARK SMILES IDX 38 65 39 66 47 67 40 68 46 69 48 70 45 71 41 72 42 73 43 74
REMARK SMILES IDX 44 75 70 76 71 77 79 78 72 79 78 80 80 81 77 82 73 83 74 84
REMARK SMILES IDX 75 85 76 86 55 87 56 88 64 89 57 90 63 91 65 92 62 93 58 94
REMARK SMILES IDX 59 95 60 96 61 97
REMARK H PARENT 85 50 53 61
REMARK Flexibility Score: inf
ROOT
ATOM      1  O   UNL A   1      32.434  30.002  27.446  1.00  0.00    -0.374 OA
ENDROOT
BRANCH   1   2
ATOM      2  C   UNL A   1      33.068  28.744  27.444  1.00  0.00     0.202 C 
BRANCH   2   3
ATOM      3  C   UNL A   1      32.074  28.006  26.655  1.00  0.00     0.261 C 
BRANCH   3   4
ATOM      4  O   UNL A   1      31.282  28.858  25.809  1.00  0.00    -0.460 OA
BRANCH   4   5
ATOM      5  C   UNL A   1      31.685  29.269  24.577  1.00  0.00     0.339 C 
ATOM      6  O   UNL A   1      32.799  29.446  24.167  1.00  0.00    -0.246 OA
BRANCH   5   7
ATOM      7  C   UNL A   1      30.450  29.416  23.778  1.00  0.00     0.073 A 
ATOM      8  C   UNL A   1      30.009  28.436  22.874  1.00  0.00     0.023 A 
ATOM      9  C   UNL A   1      28.739  28.622  22.301  1.00  0.00     0.016 A 
ATOM     10  C   UNL A   1      27.945  29.734  22.615  1.00  0.00     0.001 A 
ATOM     11  C   UNL A   1      29.681  30.576  24.016  1.00  0.00     0.017 A 
ATOM     12  C   UNL A   1      28.427  30.726  23.454  1.00  0.00     0.001 A 
BRANCH   8  13
ATOM     13  S   UNL A   1      30.997  27.093  22.197  1.00  0.00    -0.111 SA
BRANCH  13  14
ATOM     14  C   UNL A   1      31.450  26.023  23.595  1.00  0.00     0.151 C 
ATOM     15  N   UNL A   1      33.022  24.429  24.204  1.00  0.00    -0.250 N 
ATOM     16  C   UNL A   1      31.799  23.808  24.319  1.00  0.00     0.235 C 
ATOM     17  C   UNL A   1      32.914  25.735  23.787  1.00  0.00     0.247 C 
ATOM     18  O   UNL A   1      31.552  22.710  24.797  1.00  0.00    -0.274 OA
ATOM     19  C   UNL A   1      30.791  24.654  23.595  1.00  0.00     0.126 C 
ATOM     20  O   UNL A   1      33.812  26.567  23.765  1.00  0.00    -0.273 OA
BRANCH  15  21
ATOM     21  C   UNL A   1      34.253  23.807  24.483  1.00  0.00     0.052 A 
ATOM     22  C   UNL A   1      38.060  21.992  25.363  1.00  0.00     0.044 C 
ATOM     23  C   UNL A   1      36.751  22.654  25.056  1.00  0.00    -0.051 A 
ATOM     24  C   UNL A   1      36.186  22.539  23.778  1.00  0.00     0.005 A 
ATOM     25  C   UNL A   1      36.053  23.349  26.047  1.00  0.00     0.005 A 
ATOM     26  C   UNL A   1      34.964  23.150  23.481  1.00  0.00     0.027 A 
ATOM     27  C   UNL A   1      34.793  23.886  25.774  1.00  0.00     0.027 A 
ENDBRANCH  15  21
ENDBRANCH  13  14
ENDBRANCH   8  13
ENDBRANCH   5   7
ENDBRANCH   4   5
ENDBRANCH   3   4
ENDBRANCH   2   3
ENDBRANCH   1   2
BRANCH   1  28
ATOM     28  C   UNL A   1      33.344  31.043  27.476  1.00  0.00     0.202 C 
BRANCH  28  29
ATOM     29  C   UNL A   1      34.694  30.437  27.163  1.00  0.00     0.261 C 
BRANCH  29  30
ATOM     30  O   UNL A   1      35.794  31.311  27.604  1.00  0.00    -0.460 OA
BRANCH  30  31
ATOM     31  C   UNL A   1      36.422  31.126  28.812  1.00  0.00     0.338 C 
ATOM     32  O   UNL A   1      36.167  31.771  29.821  1.00  0.00    -0.246 OA
BRANCH  31  33
ATOM     33  C   UNL A   1      37.334  29.930  28.855  1.00  0.00     0.060 A 
ATOM     34  C   UNL A   1      37.334  29.040  29.954  1.00  0.00     0.016 A 
ATOM     35  C   UNL A   1      38.318  29.797  27.886  1.00  0.00     0.016 A 
ATOM     36  C   UNL A   1      38.434  28.187  30.193  1.00  0.00     0.010 A 
ATOM     37  C   UNL A   1      39.418  28.992  28.152  1.00  0.00     0.010 A 
ATOM     38  C   UNL A   1      39.533  28.245  29.342  1.00  0.00    -0.014 A 
BRANCH  38  39
ATOM     39  C   UNL A   1      40.856  27.618  29.581  1.00  0.00     0.031 A 
ATOM     40  C   UNL A   1      41.035  26.254  29.059  1.00  0.00     0.074 A 
ATOM     41  C   UNL A   1      41.956  28.289  30.031  1.00  0.00     0.049 A 
ATOM     42  N   UNL A   1      42.013  25.492  29.388  1.00  0.00    -0.248 NA
ATOM     43  C   UNL A   1      40.084  25.584  28.172  1.00  0.00     0.031 C 
ATOM     44  C   UNL A   1      43.389  28.004  29.863  1.00  0.00     0.029 A 
ATOM     45  N   UNL A   1      42.028  29.497  30.723  1.00  0.00    -0.354 N 
ATOM     46  C   UNL A   1      42.055  24.473  28.472  1.00  0.00     0.074 A 
ATOM     47  C   UNL A   1      40.737  24.452  27.899  1.00  0.00     0.031 C 
ATOM     48  C   UNL A   1      44.114  28.797  30.686  1.00  0.00     0.029 A 
ATOM     49  C   UNL A   1      43.172  29.543  31.514  1.00  0.00     0.049 A 
ATOM     50  H   UNL A   1      41.362  30.219  30.660  1.00  0.00     0.167 HD
ATOM     51  C   UNL A   1      43.266  23.909  28.206  1.00  0.00     0.034 A 
ATOM     52  C   UNL A   1      43.039  29.618  32.866  1.00  0.00     0.034 A 
ATOM     53  C   UNL A   1      44.299  24.439  29.126  1.00  0.00     0.049 A 
ATOM     54  C   UNL A   1      43.514  28.289  33.413  1.00  0.00     0.074 A 
ATOM     55  C   UNL A   1      45.434  25.222  28.988  1.00  0.00     0.029 A 
ATOM     56  N   UNL A   1      44.042  24.409  30.494  1.00  0.00    -0.354 N 
ATOM     57  N   UNL A   1      43.785  27.275  32.634  1.00  0.00    -0.248 NA
ATOM     58  C   UNL A   1      43.749  27.971  34.811  1.00  0.00     0.031 C 
ATOM     59  C   UNL A   1      45.818  25.681  30.296  1.00  0.00     0.029 A 
ATOM     60  C   UNL A   1      44.942  25.150  31.229  1.00  0.00     0.049 A 
ATOM     61  H   UNL A   1      43.293  23.911  30.894  1.00  0.00     0.167 HD
ATOM     62  C   UNL A   1      44.312  26.244  33.332  1.00  0.00     0.074 A 
ATOM     63  C   UNL A   1      44.166  26.693  34.717  1.00  0.00     0.031 C 
ATOM     64  C   UNL A   1      44.830  25.145  32.690  1.00  0.00     0.034 A 
BRANCH  51  65
ATOM     65  C   UNL A   1      43.587  23.023  27.013  1.00  0.00     0.023 A 
ATOM     66  C   UNL A   1      43.046  21.722  26.990  1.00  0.00     0.031 A 
ATOM     67  C   UNL A   1      44.426  23.329  25.916  1.00  0.00     0.131 A 
ATOM     68  C   UNL A   1      43.342  20.811  25.956  1.00  0.00     0.055 A 
ATOM     69  C   UNL A   1      44.696  22.435  24.870  1.00  0.00     0.041 A 
ATOM     70  F   UNL A   1      45.062  24.494  25.781  1.00  0.00    -0.206 F 
ATOM     71  C   UNL A   1      44.158  21.164  24.887  1.00  0.00     0.022 A 
BRANCH  68  72
ATOM     72  S   UNL A   1      42.657  19.137  26.038  1.00  0.00     0.124 S 
ATOM     73  O   UNL A   1      41.398  19.289  25.315  1.00  0.00    -0.237 OA
ATOM     74  O   UNL A   1      43.691  18.346  25.383  1.00  0.00    -0.237 OA
ATOM     75  O   UNL A   1      42.516  18.899  27.474  1.00  0.00    -0.744 OA
ENDBRANCH  68  72
ENDBRANCH  51  65
BRANCH  52  76
ATOM     76  C   UNL A   1      41.853  30.467  33.289  1.00  0.00     0.023 A 
ATOM     77  C   UNL A   1      41.871  31.873  33.030  1.00  0.00     0.031 A 
ATOM     78  C   UNL A   1      40.589  29.884  33.482  1.00  0.00     0.131 A 
ATOM     79  C   UNL A   1      40.667  32.607  32.854  1.00  0.00     0.055 A 
ATOM     80  C   UNL A   1      39.398  30.615  33.310  1.00  0.00     0.041 A 
ATOM     81  F   UNL A   1      40.475  28.566  33.696  1.00  0.00    -0.206 F 
ATOM     82  C   UNL A   1      39.429  31.967  32.963  1.00  0.00     0.022 A 
BRANCH  79  83
ATOM     83  S   UNL A   1      40.712  34.274  32.050  1.00  0.00     0.124 S 
ATOM     84  O   UNL A   1      41.624  35.018  32.907  1.00  0.00    -0.237 OA
ATOM     85  O   UNL A   1      41.199  33.975  30.706  1.00  0.00    -0.237 OA
ATOM     86  O   UNL A   1      39.316  34.707  32.094  1.00  0.00    -0.744 OA
ENDBRANCH  79  83
ENDBRANCH  52  76
BRANCH  64  87
ATOM     87  C   UNL A   1      45.247  23.908  33.427  1.00  0.00     0.023 A 
ATOM     88  C   UNL A   1      46.540  23.764  33.918  1.00  0.00     0.031 A 
ATOM     89  C   UNL A   1      44.348  22.852  33.709  1.00  0.00     0.131 A 
ATOM     90  C   UNL A   1      46.838  22.755  34.836  1.00  0.00     0.055 A 
ATOM     91  C   UNL A   1      44.686  21.773  34.521  1.00  0.00     0.041 A 
ATOM     92  F   UNL A   1      43.087  22.832  33.260  1.00  0.00    -0.206 F 
ATOM     93  C   UNL A   1      45.925  21.746  35.134  1.00  0.00     0.022 A 
BRANCH  90  94
ATOM     94  S   UNL A   1      48.392  22.896  35.738  1.00  0.00     0.124 S 
ATOM     95  O   UNL A   1      48.316  21.781  36.678  1.00  0.00    -0.237 OA
ATOM     96  O   UNL A   1      49.369  22.746  34.663  1.00  0.00    -0.237 OA
ATOM     97  O   UNL A   1      48.319  24.226  36.337  1.00  0.00    -0.744 OA
ENDBRANCH  90  94
ENDBRANCH  64  87
ENDBRANCH  38  39
ENDBRANCH  31  33
ENDBRANCH  30  31
ENDBRANCH  29  30
ENDBRANCH  28  29
ENDBRANCH   1  28
TORSDOF 20
ENDMDL
