MODEL 1
REMARK VINA RESULT:     -10.6      0.000      0.000
REMARK SMILES C[C@@H](C(=O)OCCOCCOC(=O)c1ccc(-c2c3nc(c(-c4cc(S(=O)(=O)[O-])ccc4F)c4ccc([nH]4)c(-c4cc(S(=O)(=O)[O-])ccc4F)c4nc(c(-c5cc(S(=O)(=O)[O-])ccc5F)c5ccc2[nH]5)C=C4)C=C3)cc1)c1cccn(C(F)F)c1=O
REMARK SMILES IDX 9 1 8 2 7 3 6 4 5 5 3 6 4 7 2 8 1 9 77 10 78 11 85 12 79 13
REMARK SMILES IDX 81 14 86 15 80 16 82 17 83 18 84 19 10 20 11 21 12 22 13 23
REMARK SMILES IDX 14 24 15 25 76 26 16 27 75 28 17 29 18 30 19 31 69 32 20 33
REMARK SMILES IDX 74 34 68 35 70 36 21 37 73 38 67 39 66 40 22 42 54 43 34 44
REMARK SMILES IDX 53 45 35 46 38 47 52 48 71 49 36 50 37 51 51 53 72 54 39 55
REMARK SMILES IDX 23 56 24 57 32 58 25 59 31 60 33 61 30 62 26 63 27 64 28 65
REMARK SMILES IDX 29 66 55 67 56 68 64 69 57 70 63 71 65 72 62 73 58 74 59 75
REMARK SMILES IDX 60 76 61 77 40 78 41 79 49 80 42 81 48 82 50 83 47 84 43 85
REMARK SMILES IDX 44 86 45 87 46 88
REMARK H PARENT 70 41 38 52
REMARK Flexibility Score: inf
ROOT
ATOM      1  C   UNL A   1      35.945  20.148  24.965  1.00  0.00     0.202 C 
ENDROOT
BRANCH   1   2
ATOM      2  O   UNL A   1      35.295  21.287  25.531  1.00  0.00    -0.374 OA
BRANCH   2   3
ATOM      3  C   UNL A   1      33.987  21.596  25.042  1.00  0.00     0.202 C 
BRANCH   3   4
ATOM      4  C   UNL A   1      32.821  20.934  25.781  1.00  0.00     0.261 C 
BRANCH   4   5
ATOM      5  O   UNL A   1      31.586  21.602  25.469  1.00  0.00    -0.463 OA
BRANCH   5   6
ATOM      6  C   UNL A   1      31.339  22.755  26.144  1.00  0.00     0.313 C 
ATOM      7  O   UNL A   1      31.414  22.875  27.362  1.00  0.00    -0.252 OA
BRANCH   6   8
ATOM      8  C   UNL A   1      31.011  23.927  25.211  1.00  0.00     0.132 C 
ATOM      9  C   UNL A   1      30.923  23.590  23.719  1.00  0.00     0.025 C 
BRANCH   8  10
ATOM     10  C   UNL A   1      31.988  25.070  25.442  1.00  0.00     0.032 A 
ATOM     11  C   UNL A   1      33.286  25.088  25.078  1.00  0.00     0.012 A 
ATOM     12  C   UNL A   1      31.453  26.259  26.191  1.00  0.00     0.259 A 
ATOM     13  C   UNL A   1      34.143  26.211  25.356  1.00  0.00     0.019 A 
ATOM     14  N   UNL A   1      32.355  27.269  26.475  1.00  0.00    -0.258 N 
ATOM     15  O   UNL A   1      30.270  26.295  26.524  1.00  0.00    -0.269 OA
ATOM     16  C   UNL A   1      33.668  27.248  26.049  1.00  0.00     0.095 A 
BRANCH  14  17
ATOM     17  C   UNL A   1      31.890  28.373  27.272  1.00  0.00     0.451 C 
ATOM     18  F   UNL A   1      31.622  27.936  28.533  1.00  0.00    -0.185 F 
ATOM     19  F   UNL A   1      32.881  29.297  27.399  1.00  0.00    -0.185 F 
ENDBRANCH  14  17
ENDBRANCH   8  10
ENDBRANCH   6   8
ENDBRANCH   5   6
ENDBRANCH   4   5
ENDBRANCH   3   4
ENDBRANCH   2   3
ENDBRANCH   1   2
BRANCH   1  20
ATOM     20  C   UNL A   1      37.475  20.151  24.914  1.00  0.00     0.261 C 
BRANCH  20  21
ATOM     21  O   UNL A   1      38.037  21.320  25.526  1.00  0.00    -0.460 OA
BRANCH  21  22
ATOM     22  C   UNL A   1      39.237  21.112  26.119  1.00  0.00     0.338 C 
ATOM     23  O   UNL A   1      39.929  20.105  26.037  1.00  0.00    -0.246 OA
BRANCH  22  24
ATOM     24  C   UNL A   1      39.720  22.361  26.734  1.00  0.00     0.060 A 
ATOM     25  C   UNL A   1      39.148  23.557  26.281  1.00  0.00     0.016 A 
ATOM     26  C   UNL A   1      40.740  22.376  27.687  1.00  0.00     0.016 A 
ATOM     27  C   UNL A   1      39.637  24.778  26.733  1.00  0.00     0.010 A 
ATOM     28  C   UNL A   1      41.235  23.605  28.136  1.00  0.00     0.010 A 
ATOM     29  C   UNL A   1      40.713  24.808  27.629  1.00  0.00    -0.014 A 
BRANCH  29  30
ATOM     30  C   UNL A   1      41.394  26.099  27.892  1.00  0.00     0.031 A 
ATOM     31  C   UNL A   1      40.642  27.175  28.626  1.00  0.00     0.074 A 
ATOM     32  C   UNL A   1      42.675  26.285  27.529  1.00  0.00     0.049 A 
ATOM     33  N   UNL A   1      41.023  28.382  28.953  1.00  0.00    -0.248 NA
ATOM     34  C   UNL A   1      39.271  26.843  29.044  1.00  0.00     0.031 C 
ATOM     35  C   UNL A   1      43.515  25.291  26.863  1.00  0.00     0.029 A 
ATOM     36  N   UNL A   1      43.494  27.376  27.673  1.00  0.00    -0.354 N 
ATOM     37  C   UNL A   1      39.941  28.957  29.609  1.00  0.00     0.074 A 
ATOM     38  C   UNL A   1      38.874  27.978  29.600  1.00  0.00     0.031 C 
ATOM     39  C   UNL A   1      44.733  25.821  26.654  1.00  0.00     0.029 A 
ATOM     40  C   UNL A   1      44.746  27.201  27.132  1.00  0.00     0.049 A 
ATOM     41  H   UNL A   1      43.212  28.206  28.121  1.00  0.00     0.167 HD
ATOM     42  C   UNL A   1      39.848  30.186  30.175  1.00  0.00     0.034 A 
ATOM     43  C   UNL A   1      45.774  28.066  27.017  1.00  0.00     0.034 A 
ATOM     44  C   UNL A   1      40.921  31.150  30.167  1.00  0.00     0.049 A 
ATOM     45  C   UNL A   1      45.616  29.462  27.574  1.00  0.00     0.074 A 
ATOM     46  C   UNL A   1      40.947  32.417  30.724  1.00  0.00     0.029 A 
ATOM     47  N   UNL A   1      42.157  30.961  29.558  1.00  0.00    -0.354 N 
ATOM     48  N   UNL A   1      44.590  29.992  28.200  1.00  0.00    -0.248 NA
ATOM     49  C   UNL A   1      46.758  30.371  27.415  1.00  0.00     0.031 C 
ATOM     50  C   UNL A   1      42.163  33.020  30.385  1.00  0.00     0.029 A 
ATOM     51  C   UNL A   1      42.934  32.101  29.691  1.00  0.00     0.049 A 
ATOM     52  H   UNL A   1      42.438  30.137  29.098  1.00  0.00     0.167 HD
ATOM     53  C   UNL A   1      44.979  31.287  28.538  1.00  0.00     0.074 A 
ATOM     54  C   UNL A   1      46.334  31.450  28.056  1.00  0.00     0.031 C 
ATOM     55  C   UNL A   1      44.282  32.251  29.193  1.00  0.00     0.034 A 
BRANCH  42  56
ATOM     56  C   UNL A   1      38.523  30.570  30.790  1.00  0.00     0.023 A 
ATOM     57  C   UNL A   1      37.510  31.196  30.044  1.00  0.00     0.031 A 
ATOM     58  C   UNL A   1      38.284  30.334  32.156  1.00  0.00     0.131 A 
ATOM     59  C   UNL A   1      36.336  31.629  30.682  1.00  0.00     0.055 A 
ATOM     60  C   UNL A   1      37.082  30.694  32.767  1.00  0.00     0.041 A 
ATOM     61  F   UNL A   1      39.224  29.763  32.926  1.00  0.00    -0.206 F 
ATOM     62  C   UNL A   1      36.105  31.359  32.033  1.00  0.00     0.022 A 
BRANCH  59  63
ATOM     63  S   UNL A   1      35.180  32.677  29.757  1.00  0.00     0.124 S 
ATOM     64  O   UNL A   1      34.282  33.132  30.817  1.00  0.00    -0.237 OA
ATOM     65  O   UNL A   1      36.060  33.690  29.187  1.00  0.00    -0.237 OA
ATOM     66  O   UNL A   1      34.579  31.758  28.794  1.00  0.00    -0.744 OA
ENDBRANCH  59  63
ENDBRANCH  42  56
BRANCH  43  67
ATOM     67  C   UNL A   1      47.028  27.663  26.319  1.00  0.00     0.023 A 
ATOM     68  C   UNL A   1      47.210  27.912  24.949  1.00  0.00     0.031 A 
ATOM     69  C   UNL A   1      48.043  26.971  27.004  1.00  0.00     0.131 A 
ATOM     70  C   UNL A   1      48.358  27.432  24.298  1.00  0.00     0.055 A 
ATOM     71  C   UNL A   1      49.208  26.544  26.364  1.00  0.00     0.041 A 
ATOM     72  F   UNL A   1      47.920  26.705  28.313  1.00  0.00    -0.206 F 
ATOM     73  C   UNL A   1      49.364  26.763  24.999  1.00  0.00     0.022 A 
BRANCH  70  74
ATOM     74  S   UNL A   1      48.477  27.622  22.499  1.00  0.00     0.124 S 
ATOM     75  O   UNL A   1      47.223  28.299  22.187  1.00  0.00    -0.237 OA
ATOM     76  O   UNL A   1      49.690  28.421  22.358  1.00  0.00    -0.237 OA
ATOM     77  O   UNL A   1      48.581  26.246  22.017  1.00  0.00    -0.744 OA
ENDBRANCH  70  74
ENDBRANCH  43  67
BRANCH  55  78
ATOM     78  C   UNL A   1      44.999  33.551  29.466  1.00  0.00     0.023 A 
ATOM     79  C   UNL A   1      45.739  33.759  30.643  1.00  0.00     0.031 A 
ATOM     80  C   UNL A   1      44.933  34.603  28.534  1.00  0.00     0.131 A 
ATOM     81  C   UNL A   1      46.335  35.007  30.884  1.00  0.00     0.055 A 
ATOM     82  C   UNL A   1      45.580  35.820  28.750  1.00  0.00     0.041 A 
ATOM     83  F   UNL A   1      44.238  34.462  27.393  1.00  0.00    -0.206 F 
ATOM     84  C   UNL A   1      46.275  36.032  29.937  1.00  0.00     0.022 A 
BRANCH  81  85
ATOM     85  S   UNL A   1      47.109  35.305  32.497  1.00  0.00     0.124 S 
ATOM     86  O   UNL A   1      46.079  34.840  33.419  1.00  0.00    -0.237 OA
ATOM     87  O   UNL A   1      48.316  34.488  32.421  1.00  0.00    -0.237 OA
ATOM     88  O   UNL A   1      47.341  36.750  32.504  1.00  0.00    -0.744 OA
ENDBRANCH  81  85
ENDBRANCH  55  78
ENDBRANCH  29  30
ENDBRANCH  22  24
ENDBRANCH  21  22
ENDBRANCH  20  21
ENDBRANCH   1  20
TORSDOF 19
ENDMDL
MODEL 2
REMARK VINA RESULT:     -10.4      1.198      7.743
REMARK SMILES C[C@@H](C(=O)OCCOCCOC(=O)c1ccc(-c2c3nc(c(-c4cc(S(=O)(=O)[O-])ccc4F)c4ccc([nH]4)c(-c4cc(S(=O)(=O)[O-])ccc4F)c4nc(c(-c5cc(S(=O)(=O)[O-])ccc5F)c5ccc2[nH]5)C=C4)C=C3)cc1)c1cccn(C(F)F)c1=O
REMARK SMILES IDX 9 1 8 2 7 3 6 4 5 5 3 6 4 7 2 8 1 9 77 10 78 11 85 12 79 13
REMARK SMILES IDX 81 14 86 15 80 16 82 17 83 18 84 19 10 20 11 21 12 22 13 23
REMARK SMILES IDX 14 24 15 25 76 26 16 27 75 28 17 29 18 30 19 31 69 32 20 33
REMARK SMILES IDX 74 34 68 35 70 36 21 37 73 38 67 39 66 40 22 42 54 43 34 44
REMARK SMILES IDX 53 45 35 46 38 47 52 48 71 49 36 50 37 51 51 53 72 54 39 55
REMARK SMILES IDX 23 56 24 57 32 58 25 59 31 60 33 61 30 62 26 63 27 64 28 65
REMARK SMILES IDX 29 66 55 67 56 68 64 69 57 70 63 71 65 72 62 73 58 74 59 75
REMARK SMILES IDX 60 76 61 77 40 78 41 79 49 80 42 81 48 82 50 83 47 84 43 85
REMARK SMILES IDX 44 86 45 87 46 88
REMARK H PARENT 70 41 38 52
REMARK Flexibility Score: inf
ROOT
ATOM      1  C   UNL A   1      35.932  21.017  25.197  1.00  0.00     0.202 C 
ENDROOT
BRANCH   1   2
ATOM      2  O   UNL A   1      35.578  21.645  26.430  1.00  0.00    -0.374 OA
BRANCH   2   3
ATOM      3  C   UNL A   1      34.200  21.595  26.810  1.00  0.00     0.202 C 
BRANCH   3   4
ATOM      4  C   UNL A   1      33.556  22.935  27.176  1.00  0.00     0.261 C 
BRANCH   4   5
ATOM      5  O   UNL A   1      33.063  23.593  25.995  1.00  0.00    -0.463 OA
BRANCH   5   6
ATOM      6  C   UNL A   1      33.038  24.951  26.030  1.00  0.00     0.313 C 
ATOM      7  O   UNL A   1      33.998  25.669  25.769  1.00  0.00    -0.252 OA
BRANCH   6   8
ATOM      8  C   UNL A   1      31.651  25.508  26.370  1.00  0.00     0.132 C 
ATOM      9  C   UNL A   1      30.467  24.575  26.088  1.00  0.00     0.025 C 
BRANCH   8  10
ATOM     10  C   UNL A   1      31.444  26.852  25.690  1.00  0.00     0.032 A 
ATOM     11  C   UNL A   1      31.104  27.043  24.399  1.00  0.00     0.012 A 
ATOM     12  C   UNL A   1      31.695  28.069  26.537  1.00  0.00     0.259 A 
ATOM     13  C   UNL A   1      30.948  28.358  23.836  1.00  0.00     0.019 A 
ATOM     14  N   UNL A   1      31.586  29.295  25.905  1.00  0.00    -0.258 N 
ATOM     15  O   UNL A   1      31.986  27.944  27.725  1.00  0.00    -0.269 OA
ATOM     16  C   UNL A   1      31.204  29.432  24.586  1.00  0.00     0.095 A 
BRANCH  14  17
ATOM     17  C   UNL A   1      31.913  30.470  26.669  1.00  0.00     0.451 C 
ATOM     18  F   UNL A   1      33.255  30.691  26.603  1.00  0.00    -0.185 F 
ATOM     19  F   UNL A   1      31.327  31.561  26.108  1.00  0.00    -0.185 F 
ENDBRANCH  14  17
ENDBRANCH   8  10
ENDBRANCH   6   8
ENDBRANCH   5   6
ENDBRANCH   4   5
ENDBRANCH   3   4
ENDBRANCH   2   3
ENDBRANCH   1   2
BRANCH   1  20
ATOM     20  C   UNL A   1      37.401  20.645  24.981  1.00  0.00     0.261 C 
BRANCH  20  21
ATOM     21  O   UNL A   1      38.281  21.758  25.191  1.00  0.00    -0.460 OA
BRANCH  21  22
ATOM     22  C   UNL A   1      39.298  21.508  26.049  1.00  0.00     0.338 C 
ATOM     23  O   UNL A   1      39.940  20.468  26.138  1.00  0.00    -0.246 OA
BRANCH  22  24
ATOM     24  C   UNL A   1      39.684  22.744  26.751  1.00  0.00     0.060 A 
ATOM     25  C   UNL A   1      38.953  23.901  26.452  1.00  0.00     0.016 A 
ATOM     26  C   UNL A   1      40.762  22.792  27.637  1.00  0.00     0.016 A 
ATOM     27  C   UNL A   1      39.337  25.125  26.989  1.00  0.00     0.010 A 
ATOM     28  C   UNL A   1      41.151  24.025  28.170  1.00  0.00     0.010 A 
ATOM     29  C   UNL A   1      40.464  25.200  27.816  1.00  0.00    -0.014 A 
BRANCH  29  30
ATOM     30  C   UNL A   1      41.017  26.532  28.160  1.00  0.00     0.031 A 
ATOM     31  C   UNL A   1      42.442  26.839  27.787  1.00  0.00     0.074 A 
ATOM     32  C   UNL A   1      40.247  27.465  28.746  1.00  0.00     0.049 A 
ATOM     33  N   UNL A   1      43.142  27.923  27.997  1.00  0.00    -0.248 NA
ATOM     34  C   UNL A   1      43.175  25.777  27.081  1.00  0.00     0.031 C 
ATOM     35  C   UNL A   1      38.839  27.294  29.101  1.00  0.00     0.029 A 
ATOM     36  N   UNL A   1      40.541  28.745  29.144  1.00  0.00    -0.354 N 
ATOM     37  C   UNL A   1      44.399  27.673  27.458  1.00  0.00     0.074 A 
ATOM     38  C   UNL A   1      44.375  26.320  26.944  1.00  0.00     0.031 C 
ATOM     39  C   UNL A   1      38.392  28.428  29.668  1.00  0.00     0.029 A 
ATOM     40  C   UNL A   1      39.489  29.388  29.752  1.00  0.00     0.049 A 
ATOM     41  H   UNL A   1      41.421  29.162  29.007  1.00  0.00     0.167 HD
ATOM     42  C   UNL A   1      45.472  28.500  27.390  1.00  0.00     0.034 A 
ATOM     43  C   UNL A   1      39.431  30.604  30.332  1.00  0.00     0.034 A 
ATOM     44  C   UNL A   1      45.477  29.843  27.917  1.00  0.00     0.049 A 
ATOM     45  C   UNL A   1      40.667  31.474  30.326  1.00  0.00     0.074 A 
ATOM     46  C   UNL A   1      46.499  30.776  27.888  1.00  0.00     0.029 A 
ATOM     47  N   UNL A   1      44.413  30.442  28.580  1.00  0.00    -0.354 N 
ATOM     48  N   UNL A   1      41.847  31.229  29.806  1.00  0.00    -0.248 NA
ATOM     49  C   UNL A   1      40.557  32.784  30.980  1.00  0.00     0.031 C 
ATOM     50  C   UNL A   1      46.081  31.906  28.601  1.00  0.00     0.029 A 
ATOM     51  C   UNL A   1      44.768  31.715  29.000  1.00  0.00     0.049 A 
ATOM     52  H   UNL A   1      43.534  30.023  28.730  1.00  0.00     0.167 HD
ATOM     53  C   UNL A   1      42.610  32.372  30.041  1.00  0.00     0.074 A 
ATOM     54  C   UNL A   1      41.750  33.306  30.739  1.00  0.00     0.031 C 
ATOM     55  C   UNL A   1      43.900  32.630  29.706  1.00  0.00     0.034 A 
BRANCH  42  56
ATOM     56  C   UNL A   1      46.739  27.946  26.782  1.00  0.00     0.023 A 
ATOM     57  C   UNL A   1      47.032  28.089  25.415  1.00  0.00     0.031 A 
ATOM     58  C   UNL A   1      47.653  27.235  27.580  1.00  0.00     0.131 A 
ATOM     59  C   UNL A   1      48.169  27.469  24.874  1.00  0.00     0.055 A 
ATOM     60  C   UNL A   1      48.823  26.689  27.052  1.00  0.00     0.041 A 
ATOM     61  F   UNL A   1      47.414  27.043  28.887  1.00  0.00    -0.206 F 
ATOM     62  C   UNL A   1      49.080  26.791  25.688  1.00  0.00     0.022 A 
BRANCH  59  63
ATOM     63  S   UNL A   1      48.367  27.434  23.071  1.00  0.00     0.124 S 
ATOM     64  O   UNL A   1      49.664  28.087  22.904  1.00  0.00    -0.237 OA
ATOM     65  O   UNL A   1      48.327  26.007  22.776  1.00  0.00    -0.237 OA
ATOM     66  O   UNL A   1      47.225  28.205  22.586  1.00  0.00    -0.744 OA
ENDBRANCH  59  63
ENDBRANCH  42  56
BRANCH  43  67
ATOM     67  C   UNL A   1      38.180  31.065  30.999  1.00  0.00     0.023 A 
ATOM     68  C   UNL A   1      37.168  31.719  30.277  1.00  0.00     0.031 A 
ATOM     69  C   UNL A   1      38.002  30.906  32.385  1.00  0.00     0.131 A 
ATOM     70  C   UNL A   1      36.047  32.230  30.950  1.00  0.00     0.055 A 
ATOM     71  C   UNL A   1      36.859  31.367  33.041  1.00  0.00     0.041 A 
ATOM     72  F   UNL A   1      38.938  30.290  33.124  1.00  0.00    -0.206 F 
ATOM     73  C   UNL A   1      35.879  32.046  32.325  1.00  0.00     0.022 A 
BRANCH  70  74
ATOM     74  S   UNL A   1      34.848  33.216  30.013  1.00  0.00     0.124 S 
ATOM     75  O   UNL A   1      34.010  33.755  31.079  1.00  0.00    -0.237 OA
ATOM     76  O   UNL A   1      35.711  34.172  29.329  1.00  0.00    -0.237 OA
ATOM     77  O   UNL A   1      34.201  32.233  29.147  1.00  0.00    -0.744 OA
ENDBRANCH  70  74
ENDBRANCH  43  67
BRANCH  55  78
ATOM     78  C   UNL A   1      44.439  33.998  30.050  1.00  0.00     0.023 A 
ATOM     79  C   UNL A   1      45.100  34.253  31.264  1.00  0.00     0.031 A 
ATOM     80  C   UNL A   1      44.280  35.066  29.149  1.00  0.00     0.131 A 
ATOM     81  C   UNL A   1      45.526  35.555  31.569  1.00  0.00     0.055 A 
ATOM     82  C   UNL A   1      44.762  36.345  29.430  1.00  0.00     0.041 A 
ATOM     83  F   UNL A   1      43.654  34.882  27.974  1.00  0.00    -0.206 F 
ATOM     84  C   UNL A   1      45.377  36.598  30.652  1.00  0.00     0.022 A 
BRANCH  81  85
ATOM     85  S   UNL A   1      46.192  35.889  33.223  1.00  0.00     0.124 S 
ATOM     86  O   UNL A   1      44.980  36.164  33.989  1.00  0.00    -0.237 OA
ATOM     87  O   UNL A   1      46.878  34.641  33.541  1.00  0.00    -0.237 OA
ATOM     88  O   UNL A   1      47.068  37.041  33.013  1.00  0.00    -0.744 OA
ENDBRANCH  81  85
ENDBRANCH  55  78
ENDBRANCH  29  30
ENDBRANCH  22  24
ENDBRANCH  21  22
ENDBRANCH  20  21
ENDBRANCH   1  20
TORSDOF 19
ENDMDL
MODEL 3
REMARK VINA RESULT:     -10.3      1.808      7.906
REMARK SMILES C[C@@H](C(=O)OCCOCCOC(=O)c1ccc(-c2c3nc(c(-c4cc(S(=O)(=O)[O-])ccc4F)c4ccc([nH]4)c(-c4cc(S(=O)(=O)[O-])ccc4F)c4nc(c(-c5cc(S(=O)(=O)[O-])ccc5F)c5ccc2[nH]5)C=C4)C=C3)cc1)c1cccn(C(F)F)c1=O
REMARK SMILES IDX 9 1 8 2 7 3 6 4 5 5 3 6 4 7 2 8 1 9 77 10 78 11 85 12 79 13
REMARK SMILES IDX 81 14 86 15 80 16 82 17 83 18 84 19 10 20 11 21 12 22 13 23
REMARK SMILES IDX 14 24 15 25 76 26 16 27 75 28 17 29 18 30 19 31 69 32 20 33
REMARK SMILES IDX 74 34 68 35 70 36 21 37 73 38 67 39 66 40 22 42 54 43 34 44
REMARK SMILES IDX 53 45 35 46 38 47 52 48 71 49 36 50 37 51 51 53 72 54 39 55
REMARK SMILES IDX 23 56 24 57 32 58 25 59 31 60 33 61 30 62 26 63 27 64 28 65
REMARK SMILES IDX 29 66 55 67 56 68 64 69 57 70 63 71 65 72 62 73 58 74 59 75
REMARK SMILES IDX 60 76 61 77 40 78 41 79 49 80 42 81 48 82 50 83 47 84 43 85
REMARK SMILES IDX 44 86 45 87 46 88
REMARK H PARENT 70 41 38 52
REMARK Flexibility Score: inf
ROOT
ATOM      1  C   UNL A   1      37.212  19.454  24.856  1.00  0.00     0.202 C 
ENDROOT
BRANCH   1   2
ATOM      2  O   UNL A   1      36.429  20.547  25.337  1.00  0.00    -0.374 OA
BRANCH   2   3
ATOM      3  C   UNL A   1      35.045  20.561  24.975  1.00  0.00     0.202 C 
BRANCH   3   4
ATOM      4  C   UNL A   1      34.176  21.600  25.689  1.00  0.00     0.261 C 
BRANCH   4   5
ATOM      5  O   UNL A   1      34.823  22.885  25.681  1.00  0.00    -0.463 OA
BRANCH   5   6
ATOM      6  C   UNL A   1      34.934  23.494  24.472  1.00  0.00     0.313 C 
ATOM      7  O   UNL A   1      35.996  23.685  23.887  1.00  0.00    -0.252 OA
BRANCH   6   8
ATOM      8  C   UNL A   1      33.575  23.871  23.872  1.00  0.00     0.132 C 
ATOM      9  C   UNL A   1      33.348  23.452  22.415  1.00  0.00     0.025 C 
BRANCH   8  10
ATOM     10  C   UNL A   1      33.320  25.360  24.044  1.00  0.00     0.032 A 
ATOM     11  C   UNL A   1      33.672  26.329  23.176  1.00  0.00     0.012 A 
ATOM     12  C   UNL A   1      32.658  25.775  25.329  1.00  0.00     0.259 A 
ATOM     13  C   UNL A   1      33.404  27.720  23.433  1.00  0.00     0.019 A 
ATOM     14  N   UNL A   1      32.494  27.134  25.529  1.00  0.00    -0.258 N 
ATOM     15  O   UNL A   1      32.301  24.924  26.141  1.00  0.00    -0.269 OA
ATOM     16  C   UNL A   1      32.846  28.082  24.590  1.00  0.00     0.095 A 
BRANCH  14  17
ATOM     17  C   UNL A   1      31.950  27.561  26.791  1.00  0.00     0.451 C 
ATOM     18  F   UNL A   1      32.003  28.919  26.868  1.00  0.00    -0.185 F 
ATOM     19  F   UNL A   1      30.632  27.233  26.858  1.00  0.00    -0.185 F 
ENDBRANCH  14  17
ENDBRANCH   8  10
ENDBRANCH   6   8
ENDBRANCH   5   6
ENDBRANCH   4   5
ENDBRANCH   3   4
ENDBRANCH   2   3
ENDBRANCH   1   2
BRANCH   1  20
ATOM     20  C   UNL A   1      38.645  19.317  25.380  1.00  0.00     0.261 C 
BRANCH  20  21
ATOM     21  O   UNL A   1      39.246  20.590  25.657  1.00  0.00    -0.460 OA
BRANCH  21  22
ATOM     22  C   UNL A   1      40.277  20.537  26.532  1.00  0.00     0.338 C 
ATOM     23  O   UNL A   1      41.015  19.581  26.736  1.00  0.00    -0.246 OA
BRANCH  22  24
ATOM     24  C   UNL A   1      40.540  21.876  27.086  1.00  0.00     0.060 A 
ATOM     25  C   UNL A   1      39.818  22.945  26.538  1.00  0.00     0.016 A 
ATOM     26  C   UNL A   1      41.500  22.099  28.075  1.00  0.00     0.016 A 
ATOM     27  C   UNL A   1      40.099  24.249  26.932  1.00  0.00     0.010 A 
ATOM     28  C   UNL A   1      41.786  23.411  28.464  1.00  0.00     0.010 A 
ATOM     29  C   UNL A   1      41.115  24.492  27.864  1.00  0.00    -0.014 A 
BRANCH  29  30
ATOM     30  C   UNL A   1      41.584  25.883  28.072  1.00  0.00     0.031 A 
ATOM     31  C   UNL A   1      42.922  26.283  27.514  1.00  0.00     0.074 A 
ATOM     32  C   UNL A   1      40.807  26.783  28.701  1.00  0.00     0.049 A 
ATOM     33  N   UNL A   1      43.544  27.431  27.585  1.00  0.00    -0.248 NA
ATOM     34  C   UNL A   1      43.659  25.244  26.779  1.00  0.00     0.031 C 
ATOM     35  C   UNL A   1      39.471  26.518  29.232  1.00  0.00     0.029 A 
ATOM     36  N   UNL A   1      41.032  28.104  28.996  1.00  0.00    -0.354 N 
ATOM     37  C   UNL A   1      44.747  27.254  26.910  1.00  0.00     0.074 A 
ATOM     38  C   UNL A   1      44.782  25.874  26.470  1.00  0.00     0.031 C 
ATOM     39  C   UNL A   1      38.995  27.644  29.791  1.00  0.00     0.029 A 
ATOM     40  C   UNL A   1      40.005  28.694  29.695  1.00  0.00     0.049 A 
ATOM     41  H   UNL A   1      41.849  28.583  28.732  1.00  0.00     0.167 HD
ATOM     42  C   UNL A   1      45.726  28.160  26.672  1.00  0.00     0.034 A 
ATOM     43  C   UNL A   1      39.907  29.934  30.216  1.00  0.00     0.034 A 
ATOM     44  C   UNL A   1      45.674  29.529  27.126  1.00  0.00     0.049 A 
ATOM     45  C   UNL A   1      41.051  30.900  30.017  1.00  0.00     0.074 A 
ATOM     46  C   UNL A   1      46.599  30.539  26.928  1.00  0.00     0.029 A 
ATOM     47  N   UNL A   1      44.645  30.077  27.883  1.00  0.00    -0.354 N 
ATOM     48  N   UNL A   1      42.180  30.722  29.371  1.00  0.00    -0.248 NA
ATOM     49  C   UNL A   1      40.903  32.233  30.613  1.00  0.00     0.031 C 
ATOM     50  C   UNL A   1      46.168  31.671  27.628  1.00  0.00     0.029 A 
ATOM     51  C   UNL A   1      44.932  31.397  28.193  1.00  0.00     0.049 A 
ATOM     52  H   UNL A   1      43.831  29.596  28.159  1.00  0.00     0.167 HD
ATOM     53  C   UNL A   1      42.861  31.936  29.454  1.00  0.00     0.074 A 
ATOM     54  C   UNL A   1      42.009  32.836  30.204  1.00  0.00     0.031 C 
ATOM     55  C   UNL A   1      44.076  32.278  28.953  1.00  0.00     0.034 A 
BRANCH  42  56
ATOM     56  C   UNL A   1      46.958  27.677  25.942  1.00  0.00     0.023 A 
ATOM     57  C   UNL A   1      47.187  27.977  24.588  1.00  0.00     0.031 A 
ATOM     58  C   UNL A   1      47.902  26.875  26.607  1.00  0.00     0.131 A 
ATOM     59  C   UNL A   1      48.291  27.420  23.924  1.00  0.00     0.055 A 
ATOM     60  C   UNL A   1      49.041  26.390  25.963  1.00  0.00     0.041 A 
ATOM     61  F   UNL A   1      47.725  26.534  27.893  1.00  0.00    -0.206 F 
ATOM     62  C   UNL A   1      49.234  26.649  24.609  1.00  0.00     0.022 A 
BRANCH  59  63
ATOM     63  S   UNL A   1      48.402  27.594  22.122  1.00  0.00     0.124 S 
ATOM     64  O   UNL A   1      48.652  26.216  21.707  1.00  0.00    -0.237 OA
ATOM     65  O   UNL A   1      47.093  28.138  21.777  1.00  0.00    -0.237 OA
ATOM     66  O   UNL A   1      49.527  28.507  21.934  1.00  0.00    -0.744 OA
ENDBRANCH  59  63
ENDBRANCH  42  56
BRANCH  43  67
ATOM     67  C   UNL A   1      38.706  30.329  31.006  1.00  0.00     0.023 A 
ATOM     68  C   UNL A   1      37.642  31.026  30.413  1.00  0.00     0.031 A 
ATOM     69  C   UNL A   1      38.631  30.062  32.385  1.00  0.00     0.131 A 
ATOM     70  C   UNL A   1      36.571  31.473  31.203  1.00  0.00     0.055 A 
ATOM     71  C   UNL A   1      37.538  30.460  33.156  1.00  0.00     0.041 A 
ATOM     72  F   UNL A   1      39.621  29.400  33.004  1.00  0.00    -0.206 F 
ATOM     73  C   UNL A   1      36.505  31.182  32.568  1.00  0.00     0.022 A 
BRANCH  70  74
ATOM     74  S   UNL A   1      35.302  32.516  30.435  1.00  0.00     0.124 S 
ATOM     75  O   UNL A   1      34.938  31.728  29.263  1.00  0.00    -0.237 OA
ATOM     76  O   UNL A   1      34.298  32.599  31.491  1.00  0.00    -0.237 OA
ATOM     77  O   UNL A   1      36.010  33.763  30.154  1.00  0.00    -0.744 OA
ENDBRANCH  70  74
ENDBRANCH  43  67
BRANCH  55  78
ATOM     78  C   UNL A   1      44.528  33.704  29.160  1.00  0.00     0.023 A 
ATOM     79  C   UNL A   1      44.032  34.762  28.379  1.00  0.00     0.031 A 
ATOM     80  C   UNL A   1      45.478  34.005  30.153  1.00  0.00     0.131 A 
ATOM     81  C   UNL A   1      44.530  36.061  28.564  1.00  0.00     0.055 A 
ATOM     82  C   UNL A   1      45.923  35.309  30.374  1.00  0.00     0.041 A 
ATOM     83  F   UNL A   1      45.989  33.034  30.927  1.00  0.00    -0.206 F 
ATOM     84  C   UNL A   1      45.459  36.344  29.568  1.00  0.00     0.022 A 
BRANCH  81  85
ATOM     85  S   UNL A   1      44.019  37.362  27.408  1.00  0.00     0.124 S 
ATOM     86  O   UNL A   1      43.500  38.384  28.311  1.00  0.00    -0.237 OA
ATOM     87  O   UNL A   1      45.269  37.686  26.728  1.00  0.00    -0.237 OA
ATOM     88  O   UNL A   1      43.014  36.704  26.573  1.00  0.00    -0.744 OA
ENDBRANCH  81  85
ENDBRANCH  55  78
ENDBRANCH  29  30
ENDBRANCH  22  24
ENDBRANCH  21  22
ENDBRANCH  20  21
ENDBRANCH   1  20
TORSDOF 19
ENDMDL
