MODEL 1
REMARK VINA RESULT:     -12.0      0.000      0.000
REMARK SMILES C[C@H]1[C@@H](C(=O)OCCOCCOC(=O)c2ccc(-c3c4nc(c(-c5cc(S(=O)(=O)[O-])ccc5F)c5ccc([nH]5)c(-c5cc(S(=O)(=O)[O-])ccc5F)c5nc(c(-c6cc(S(=O)(=O)[O-])ccc6F)c6ccc3[nH]6)C=C5)C=C4)cc2)CCN1C(=O)c1cc2cc(F)ccc2s1
REMARK SMILES IDX 10 1 9 2 8 3 7 4 6 5 4 6 5 7 3 8 1 9 2 10 80 11 78 12 79 13
REMARK SMILES IDX 81 14 82 15 83 16 84 17 92 18 85 19 91 20 86 21 90 22 87 23
REMARK SMILES IDX 89 24 88 25 11 26 12 27 13 28 14 29 15 30 16 31 77 32 17 33
REMARK SMILES IDX 76 34 18 35 19 36 20 37 70 38 21 39 75 40 69 41 71 42 22 43
REMARK SMILES IDX 74 44 68 45 67 46 23 48 55 49 35 50 54 51 36 52 39 53 53 54
REMARK SMILES IDX 72 55 37 56 38 57 52 59 73 60 40 61 24 62 25 63 33 64 26 65
REMARK SMILES IDX 32 66 34 67 31 68 27 69 28 70 29 71 30 72 56 73 57 74 65 75
REMARK SMILES IDX 58 76 64 77 66 78 63 79 59 80 60 81 61 82 62 83 41 84 42 85
REMARK SMILES IDX 50 86 43 87 49 88 51 89 48 90 44 91 45 92 46 93 47 94
REMARK H PARENT 71 47 39 58
REMARK Flexibility Score: inf
ROOT
ATOM      1  C   UNL A   1      31.498  30.155  25.680  1.00  0.00     0.202 C 
ENDROOT
BRANCH   1   2
ATOM      2  O   UNL A   1      32.464  29.161  26.014  1.00  0.00    -0.374 OA
BRANCH   2   3
ATOM      3  C   UNL A   1      33.406  28.804  24.997  1.00  0.00     0.202 C 
BRANCH   3   4
ATOM      4  C   UNL A   1      33.262  27.378  24.463  1.00  0.00     0.261 C 
BRANCH   4   5
ATOM      5  O   UNL A   1      32.431  27.386  23.284  1.00  0.00    -0.463 OA
BRANCH   5   6
ATOM      6  C   UNL A   1      31.238  26.769  23.386  1.00  0.00     0.311 C 
ATOM      7  O   UNL A   1      30.202  27.321  23.743  1.00  0.00    -0.252 OA
BRANCH   6   8
ATOM      8  C   UNL A   1      31.232  25.326  22.916  1.00  0.00     0.123 C 
ATOM      9  C   UNL A   1      31.113  24.317  25.351  1.00  0.00     0.032 C 
ATOM     10  C   UNL A   1      31.232  24.093  23.853  1.00  0.00     0.096 C 
ATOM     11  N   UNL A   1      32.419  23.320  23.466  1.00  0.00    -0.334 N 
ATOM     12  C   UNL A   1      32.416  25.120  21.955  1.00  0.00     0.039 C 
ATOM     13  C   UNL A   1      33.290  24.072  22.597  1.00  0.00     0.121 C 
BRANCH  11  14
ATOM     14  C   UNL A   1      32.485  21.938  23.419  1.00  0.00     0.264 C 
ATOM     15  O   UNL A   1      32.264  21.337  22.365  1.00  0.00    -0.268 OA
BRANCH  14  16
ATOM     16  C   UNL A   1      32.938  21.205  24.581  1.00  0.00     0.093 A 
ATOM     17  C   UNL A   1      32.214  20.256  25.278  1.00  0.00     0.034 A 
ATOM     18  S   UNL A   1      34.613  20.833  24.693  1.00  0.00    -0.130 S 
ATOM     19  C   UNL A   1      32.877  18.983  25.116  1.00  0.00    -0.004 A 
ATOM     20  C   UNL A   1      34.211  19.151  24.721  1.00  0.00     0.035 A 
ATOM     21  C   UNL A   1      32.350  17.672  25.162  1.00  0.00     0.048 A 
ATOM     22  C   UNL A   1      35.026  18.062  24.361  1.00  0.00     0.022 A 
ATOM     23  C   UNL A   1      33.134  16.609  24.720  1.00  0.00     0.123 A 
ATOM     24  C   UNL A   1      34.448  16.792  24.319  1.00  0.00     0.041 A 
ATOM     25  F   UNL A   1      32.586  15.388  24.637  1.00  0.00    -0.207 F 
ENDBRANCH  14  16
ENDBRANCH  11  14
ENDBRANCH   6   8
ENDBRANCH   5   6
ENDBRANCH   4   5
ENDBRANCH   3   4
ENDBRANCH   2   3
ENDBRANCH   1   2
BRANCH   1  26
ATOM     26  C   UNL A   1      31.663  31.520  26.357  1.00  0.00     0.261 C 
BRANCH  26  27
ATOM     27  O   UNL A   1      32.493  31.456  27.527  1.00  0.00    -0.460 OA
BRANCH  27  28
ATOM     28  C   UNL A   1      33.317  32.524  27.675  1.00  0.00     0.338 C 
ATOM     29  O   UNL A   1      32.983  33.695  27.740  1.00  0.00    -0.246 OA
BRANCH  28  30
ATOM     30  C   UNL A   1      34.704  32.081  27.922  1.00  0.00     0.060 A 
ATOM     31  C   UNL A   1      34.900  30.706  28.098  1.00  0.00     0.016 A 
ATOM     32  C   UNL A   1      35.771  32.972  28.067  1.00  0.00     0.016 A 
ATOM     33  C   UNL A   1      36.140  30.224  28.501  1.00  0.00     0.010 A 
ATOM     34  C   UNL A   1      37.021  32.485  28.474  1.00  0.00     0.010 A 
ATOM     35  C   UNL A   1      37.194  31.115  28.744  1.00  0.00    -0.014 A 
BRANCH  35  36
ATOM     36  C   UNL A   1      38.390  30.606  29.462  1.00  0.00     0.031 A 
ATOM     37  C   UNL A   1      38.600  31.012  30.897  1.00  0.00     0.074 A 
ATOM     38  C   UNL A   1      39.213  29.713  28.882  1.00  0.00     0.049 A 
ATOM     39  N   UNL A   1      39.509  30.617  31.751  1.00  0.00    -0.248 NA
ATOM     40  C   UNL A   1      37.654  31.999  31.440  1.00  0.00     0.031 C 
ATOM     41  C   UNL A   1      39.087  29.218  27.511  1.00  0.00     0.029 A 
ATOM     42  N   UNL A   1      40.307  29.051  29.379  1.00  0.00    -0.354 N 
ATOM     43  C   UNL A   1      39.239  31.295  32.935  1.00  0.00     0.074 A 
ATOM     44  C   UNL A   1      38.115  32.168  32.671  1.00  0.00     0.031 C 
ATOM     45  C   UNL A   1      40.062  28.323  27.280  1.00  0.00     0.029 A 
ATOM     46  C   UNL A   1      40.892  28.195  28.477  1.00  0.00     0.049 A 
ATOM     47  H   UNL A   1      40.641  29.177  30.297  1.00  0.00     0.167 HD
ATOM     48  C   UNL A   1      39.860  31.190  34.137  1.00  0.00     0.034 A 
ATOM     49  C   UNL A   1      41.975  27.402  28.603  1.00  0.00     0.034 A 
ATOM     50  C   UNL A   1      40.989  30.327  34.382  1.00  0.00     0.049 A 
ATOM     51  C   UNL A   1      42.690  27.347  29.933  1.00  0.00     0.074 A 
ATOM     52  C   UNL A   1      41.695  30.140  35.557  1.00  0.00     0.029 A 
ATOM     53  N   UNL A   1      41.587  29.512  33.428  1.00  0.00    -0.354 N 
ATOM     54  N   UNL A   1      42.412  27.981  31.049  1.00  0.00    -0.248 NA
ATOM     55  C   UNL A   1      43.850  26.453  30.022  1.00  0.00     0.031 C 
ATOM     56  C   UNL A   1      42.756  29.265  35.299  1.00  0.00     0.029 A 
ATOM     57  C   UNL A   1      42.669  28.843  33.981  1.00  0.00     0.049 A 
ATOM     58  H   UNL A   1      41.285  29.421  32.496  1.00  0.00     0.167 HD
ATOM     59  C   UNL A   1      43.347  27.537  31.981  1.00  0.00     0.074 A 
ATOM     60  C   UNL A   1      44.181  26.568  31.299  1.00  0.00     0.031 C 
ATOM     61  C   UNL A   1      43.503  27.893  33.283  1.00  0.00     0.034 A 
BRANCH  48  62
ATOM     62  C   UNL A   1      39.353  32.072  35.254  1.00  0.00     0.023 A 
ATOM     63  C   UNL A   1      39.785  33.402  35.403  1.00  0.00     0.031 A 
ATOM     64  C   UNL A   1      38.456  31.561  36.209  1.00  0.00     0.131 A 
ATOM     65  C   UNL A   1      39.379  34.150  36.520  1.00  0.00     0.055 A 
ATOM     66  C   UNL A   1      37.994  32.337  37.275  1.00  0.00     0.041 A 
ATOM     67  F   UNL A   1      38.027  30.292  36.133  1.00  0.00    -0.206 F 
ATOM     68  C   UNL A   1      38.468  33.633  37.443  1.00  0.00     0.022 A 
BRANCH  65  69
ATOM     69  S   UNL A   1      40.172  35.753  36.827  1.00  0.00     0.124 S 
ATOM     70  O   UNL A   1      41.588  35.398  36.762  1.00  0.00    -0.237 OA
ATOM     71  O   UNL A   1      39.666  36.571  35.732  1.00  0.00    -0.237 OA
ATOM     72  O   UNL A   1      39.692  36.123  38.157  1.00  0.00    -0.744 OA
ENDBRANCH  65  69
ENDBRANCH  48  62
BRANCH  49  73
ATOM     73  C   UNL A   1      42.471  26.610  27.441  1.00  0.00     0.023 A 
ATOM     74  C   UNL A   1      42.118  25.262  27.270  1.00  0.00     0.031 A 
ATOM     75  C   UNL A   1      43.356  27.184  26.511  1.00  0.00     0.131 A 
ATOM     76  C   UNL A   1      42.683  24.520  26.220  1.00  0.00     0.055 A 
ATOM     77  C   UNL A   1      43.875  26.455  25.440  1.00  0.00     0.041 A 
ATOM     78  F   UNL A   1      43.724  28.470  26.627  1.00  0.00    -0.206 F 
ATOM     79  C   UNL A   1      43.550  25.110  25.297  1.00  0.00     0.022 A 
BRANCH  76  80
ATOM     80  S   UNL A   1      42.330  22.742  26.122  1.00  0.00     0.124 S 
ATOM     81  O   UNL A   1      42.901  22.395  24.827  1.00  0.00    -0.237 OA
ATOM     82  O   UNL A   1      43.035  22.231  27.293  1.00  0.00    -0.237 OA
ATOM     83  O   UNL A   1      40.872  22.681  26.200  1.00  0.00    -0.744 OA
ENDBRANCH  76  80
ENDBRANCH  49  73
BRANCH  61  84
ATOM     84  C   UNL A   1      44.595  27.193  34.056  1.00  0.00     0.023 A 
ATOM     85  C   UNL A   1      44.406  25.914  34.609  1.00  0.00     0.031 A 
ATOM     86  C   UNL A   1      45.833  27.827  34.267  1.00  0.00     0.131 A 
ATOM     87  C   UNL A   1      45.411  25.340  35.403  1.00  0.00     0.055 A 
ATOM     88  C   UNL A   1      46.852  27.224  35.005  1.00  0.00     0.041 A 
ATOM     89  F   UNL A   1      46.068  29.049  33.763  1.00  0.00    -0.206 F 
ATOM     90  C   UNL A   1      46.639  25.981  35.592  1.00  0.00     0.022 A 
BRANCH  87  91
ATOM     91  S   UNL A   1      45.049  23.795  36.283  1.00  0.00     0.124 S 
ATOM     92  O   UNL A   1      44.912  24.254  37.661  1.00  0.00    -0.237 OA
ATOM     93  O   UNL A   1      43.820  23.349  35.634  1.00  0.00    -0.237 OA
ATOM     94  O   UNL A   1      46.225  22.967  36.019  1.00  0.00    -0.744 OA
ENDBRANCH  87  91
ENDBRANCH  61  84
ENDBRANCH  35  36
ENDBRANCH  28  30
ENDBRANCH  27  28
ENDBRANCH  26  27
ENDBRANCH   1  26
TORSDOF 19
ENDMDL
MODEL 2
REMARK VINA RESULT:     -11.6      4.696     10.176
REMARK SMILES C[C@H]1[C@@H](C(=O)OCCOCCOC(=O)c2ccc(-c3c4nc(c(-c5cc(S(=O)(=O)[O-])ccc5F)c5ccc([nH]5)c(-c5cc(S(=O)(=O)[O-])ccc5F)c5nc(c(-c6cc(S(=O)(=O)[O-])ccc6F)c6ccc3[nH]6)C=C5)C=C4)cc2)CCN1C(=O)c1cc2cc(F)ccc2s1
REMARK SMILES IDX 10 1 9 2 8 3 7 4 6 5 4 6 5 7 3 8 1 9 2 10 80 11 78 12 79 13
REMARK SMILES IDX 81 14 82 15 83 16 84 17 92 18 85 19 91 20 86 21 90 22 87 23
REMARK SMILES IDX 89 24 88 25 11 26 12 27 13 28 14 29 15 30 16 31 77 32 17 33
REMARK SMILES IDX 76 34 18 35 19 36 20 37 70 38 21 39 75 40 69 41 71 42 22 43
REMARK SMILES IDX 74 44 68 45 67 46 23 48 55 49 35 50 54 51 36 52 39 53 53 54
REMARK SMILES IDX 72 55 37 56 38 57 52 59 73 60 40 61 24 62 25 63 33 64 26 65
REMARK SMILES IDX 32 66 34 67 31 68 27 69 28 70 29 71 30 72 56 73 57 74 65 75
REMARK SMILES IDX 58 76 64 77 66 78 63 79 59 80 60 81 61 82 62 83 41 84 42 85
REMARK SMILES IDX 50 86 43 87 49 88 51 89 48 90 44 91 45 92 46 93 47 94
REMARK H PARENT 71 47 39 58
REMARK Flexibility Score: inf
ROOT
ATOM      1  C   UNL A   1      36.360  20.709  24.721  1.00  0.00     0.202 C 
ENDROOT
BRANCH   1   2
ATOM      2  O   UNL A   1      35.415  20.772  25.786  1.00  0.00    -0.374 OA
BRANCH   2   3
ATOM      3  C   UNL A   1      34.068  20.395  25.481  1.00  0.00     0.202 C 
BRANCH   3   4
ATOM      4  C   UNL A   1      33.370  21.287  24.453  1.00  0.00     0.261 C 
BRANCH   4   5
ATOM      5  O   UNL A   1      32.227  21.921  25.061  1.00  0.00    -0.463 OA
BRANCH   5   6
ATOM      6  C   UNL A   1      32.485  22.935  25.910  1.00  0.00     0.311 C 
ATOM      7  O   UNL A   1      32.647  22.799  27.119  1.00  0.00    -0.252 OA
BRANCH   6   8
ATOM      8  C   UNL A   1      32.674  24.284  25.243  1.00  0.00     0.123 C 
ATOM      9  C   UNL A   1      30.970  23.789  23.290  1.00  0.00     0.032 C 
ATOM     10  C   UNL A   1      31.993  24.719  23.921  1.00  0.00     0.096 C 
ATOM     11  N   UNL A   1      33.097  25.075  23.023  1.00  0.00    -0.334 N 
ATOM     12  C   UNL A   1      34.180  24.519  25.033  1.00  0.00     0.039 C 
ATOM     13  C   UNL A   1      34.373  24.649  23.543  1.00  0.00     0.121 C 
BRANCH  11  14
ATOM     14  C   UNL A   1      33.080  26.126  22.121  1.00  0.00     0.264 C 
ATOM     15  O   UNL A   1      33.182  25.913  20.911  1.00  0.00    -0.268 OA
BRANCH  14  16
ATOM     16  C   UNL A   1      32.813  27.467  22.595  1.00  0.00     0.093 A 
ATOM     17  C   UNL A   1      31.666  27.889  23.240  1.00  0.00     0.034 A 
ATOM     18  S   UNL A   1      34.147  28.405  23.140  1.00  0.00    -0.130 S 
ATOM     19  C   UNL A   1      32.025  28.264  24.588  1.00  0.00    -0.004 A 
ATOM     20  C   UNL A   1      33.399  28.515  24.697  1.00  0.00     0.035 A 
ATOM     21  C   UNL A   1      31.246  28.271  25.767  1.00  0.00     0.048 A 
ATOM     22  C   UNL A   1      34.019  28.758  25.936  1.00  0.00     0.022 A 
ATOM     23  C   UNL A   1      31.878  28.424  26.998  1.00  0.00     0.123 A 
ATOM     24  C   UNL A   1      33.241  28.658  27.091  1.00  0.00     0.041 A 
ATOM     25  F   UNL A   1      31.157  28.293  28.120  1.00  0.00    -0.207 F 
ENDBRANCH  14  16
ENDBRANCH  11  14
ENDBRANCH   6   8
ENDBRANCH   5   6
ENDBRANCH   4   5
ENDBRANCH   3   4
ENDBRANCH   2   3
ENDBRANCH   1   2
BRANCH   1  26
ATOM     26  C   UNL A   1      37.799  20.347  25.106  1.00  0.00     0.261 C 
BRANCH  26  27
ATOM     27  O   UNL A   1      38.628  21.507  25.281  1.00  0.00    -0.460 OA
BRANCH  27  28
ATOM     28  C   UNL A   1      39.694  21.302  26.097  1.00  0.00     0.338 C 
ATOM     29  O   UNL A   1      40.418  20.321  26.112  1.00  0.00    -0.246 OA
BRANCH  28  30
ATOM     30  C   UNL A   1      39.990  22.518  26.882  1.00  0.00     0.060 A 
ATOM     31  C   UNL A   1      39.355  23.698  26.472  1.00  0.00     0.016 A 
ATOM     32  C   UNL A   1      40.917  22.539  27.926  1.00  0.00     0.016 A 
ATOM     33  C   UNL A   1      39.707  24.913  27.047  1.00  0.00     0.010 A 
ATOM     34  C   UNL A   1      41.272  23.767  28.504  1.00  0.00     0.010 A 
ATOM     35  C   UNL A   1      40.705  24.964  28.029  1.00  0.00    -0.014 A 
BRANCH  35  36
ATOM     36  C   UNL A   1      41.266  26.291  28.389  1.00  0.00     0.031 A 
ATOM     37  C   UNL A   1      42.668  26.626  27.952  1.00  0.00     0.074 A 
ATOM     38  C   UNL A   1      40.505  27.217  28.999  1.00  0.00     0.049 A 
ATOM     39  N   UNL A   1      43.329  27.750  28.063  1.00  0.00    -0.248 NA
ATOM     40  C   UNL A   1      43.425  25.546  27.302  1.00  0.00     0.031 C 
ATOM     41  C   UNL A   1      39.123  27.018  29.435  1.00  0.00     0.029 A 
ATOM     42  N   UNL A   1      40.781  28.517  29.340  1.00  0.00    -0.354 N 
ATOM     43  C   UNL A   1      44.574  27.517  27.487  1.00  0.00     0.074 A 
ATOM     44  C   UNL A   1      44.593  26.129  27.077  1.00  0.00     0.031 C 
ATOM     45  C   UNL A   1      38.669  28.160  29.979  1.00  0.00     0.029 A 
ATOM     46  C   UNL A   1      39.731  29.164  29.948  1.00  0.00     0.049 A 
ATOM     47  H   UNL A   1      41.650  28.947  29.165  1.00  0.00     0.167 HD
ATOM     48  C   UNL A   1      45.601  28.384  27.300  1.00  0.00     0.034 A 
ATOM     49  C   UNL A   1      39.641  30.421  30.426  1.00  0.00     0.034 A 
ATOM     50  C   UNL A   1      45.574  29.761  27.725  1.00  0.00     0.049 A 
ATOM     51  C   UNL A   1      40.819  31.352  30.263  1.00  0.00     0.074 A 
ATOM     52  C   UNL A   1      46.554  30.729  27.589  1.00  0.00     0.029 A 
ATOM     53  N   UNL A   1      44.510  30.368  28.385  1.00  0.00    -0.354 N 
ATOM     54  N   UNL A   1      41.983  31.123  29.700  1.00  0.00    -0.248 NA
ATOM     55  C   UNL A   1      40.660  32.715  30.784  1.00  0.00     0.031 C 
ATOM     56  C   UNL A   1      46.112  31.896  28.220  1.00  0.00     0.029 A 
ATOM     57  C   UNL A   1      44.823  31.685  28.686  1.00  0.00     0.049 A 
ATOM     58  H   UNL A   1      43.659  29.926  28.605  1.00  0.00     0.167 HD
ATOM     59  C   UNL A   1      42.684  32.325  29.772  1.00  0.00     0.074 A 
ATOM     60  C   UNL A   1      41.801  33.278  30.416  1.00  0.00     0.031 C 
ATOM     61  C   UNL A   1      43.939  32.619  29.344  1.00  0.00     0.034 A 
BRANCH  48  62
ATOM     62  C   UNL A   1      46.852  27.841  26.650  1.00  0.00     0.023 A 
ATOM     63  C   UNL A   1      47.128  28.047  25.286  1.00  0.00     0.031 A 
ATOM     64  C   UNL A   1      47.760  27.068  27.396  1.00  0.00     0.131 A 
ATOM     65  C   UNL A   1      48.242  27.427  24.696  1.00  0.00     0.055 A 
ATOM     66  C   UNL A   1      48.907  26.520  26.819  1.00  0.00     0.041 A 
ATOM     67  F   UNL A   1      47.537  26.817  28.695  1.00  0.00    -0.206 F 
ATOM     68  C   UNL A   1      49.145  26.685  25.458  1.00  0.00     0.022 A 
BRANCH  65  69
ATOM     69  S   UNL A   1      48.410  27.483  22.890  1.00  0.00     0.124 S 
ATOM     70  O   UNL A   1      47.225  28.247  22.506  1.00  0.00    -0.237 OA
ATOM     71  O   UNL A   1      49.691  28.157  22.713  1.00  0.00    -0.237 OA
ATOM     72  O   UNL A   1      48.386  26.075  22.500  1.00  0.00    -0.744 OA
ENDBRANCH  65  69
ENDBRANCH  48  62
BRANCH  49  73
ATOM     73  C   UNL A   1      38.404  30.877  31.124  1.00  0.00     0.023 A 
ATOM     74  C   UNL A   1      37.371  31.529  30.431  1.00  0.00     0.031 A 
ATOM     75  C   UNL A   1      38.265  30.712  32.513  1.00  0.00     0.131 A 
ATOM     76  C   UNL A   1      36.266  32.032  31.137  1.00  0.00     0.055 A 
ATOM     77  C   UNL A   1      37.142  31.170  33.203  1.00  0.00     0.041 A 
ATOM     78  F   UNL A   1      39.223  30.093  33.222  1.00  0.00    -0.206 F 
ATOM     79  C   UNL A   1      36.139  31.847  32.516  1.00  0.00     0.022 A 
BRANCH  76  80
ATOM     80  S   UNL A   1      35.029  33.007  30.236  1.00  0.00     0.124 S 
ATOM     81  O   UNL A   1      34.148  33.441  31.314  1.00  0.00    -0.237 OA
ATOM     82  O   UNL A   1      35.851  34.045  29.623  1.00  0.00    -0.237 OA
ATOM     83  O   UNL A   1      34.449  32.043  29.304  1.00  0.00    -0.744 OA
ENDBRANCH  76  80
ENDBRANCH  49  73
BRANCH  61  84
ATOM     84  C   UNL A   1      44.407  34.043  29.526  1.00  0.00     0.023 A 
ATOM     85  C   UNL A   1      45.087  34.455  30.686  1.00  0.00     0.031 A 
ATOM     86  C   UNL A   1      44.141  35.008  28.538  1.00  0.00     0.131 A 
ATOM     87  C   UNL A   1      45.418  35.808  30.859  1.00  0.00     0.055 A 
ATOM     88  C   UNL A   1      44.529  36.341  28.688  1.00  0.00     0.041 A 
ATOM     89  F   UNL A   1      43.494  34.672  27.411  1.00  0.00    -0.206 F 
ATOM     90  C   UNL A   1      45.156  36.751  29.861  1.00  0.00     0.022 A 
BRANCH  87  91
ATOM     91  S   UNL A   1      46.091  36.341  32.458  1.00  0.00     0.124 S 
ATOM     92  O   UNL A   1      44.889  36.429  33.280  1.00  0.00    -0.237 OA
ATOM     93  O   UNL A   1      47.010  35.256  32.785  1.00  0.00    -0.237 OA
ATOM     94  O   UNL A   1      46.727  37.622  32.152  1.00  0.00    -0.744 OA
ENDBRANCH  87  91
ENDBRANCH  61  84
ENDBRANCH  35  36
ENDBRANCH  28  30
ENDBRANCH  27  28
ENDBRANCH  26  27
ENDBRANCH   1  26
TORSDOF 19
ENDMDL
MODEL 3
REMARK VINA RESULT:     -11.6      2.412      7.918
REMARK SMILES C[C@H]1[C@@H](C(=O)OCCOCCOC(=O)c2ccc(-c3c4nc(c(-c5cc(S(=O)(=O)[O-])ccc5F)c5ccc([nH]5)c(-c5cc(S(=O)(=O)[O-])ccc5F)c5nc(c(-c6cc(S(=O)(=O)[O-])ccc6F)c6ccc3[nH]6)C=C5)C=C4)cc2)CCN1C(=O)c1cc2cc(F)ccc2s1
REMARK SMILES IDX 10 1 9 2 8 3 7 4 6 5 4 6 5 7 3 8 1 9 2 10 80 11 78 12 79 13
REMARK SMILES IDX 81 14 82 15 83 16 84 17 92 18 85 19 91 20 86 21 90 22 87 23
REMARK SMILES IDX 89 24 88 25 11 26 12 27 13 28 14 29 15 30 16 31 77 32 17 33
REMARK SMILES IDX 76 34 18 35 19 36 20 37 70 38 21 39 75 40 69 41 71 42 22 43
REMARK SMILES IDX 74 44 68 45 67 46 23 48 55 49 35 50 54 51 36 52 39 53 53 54
REMARK SMILES IDX 72 55 37 56 38 57 52 59 73 60 40 61 24 62 25 63 33 64 26 65
REMARK SMILES IDX 32 66 34 67 31 68 27 69 28 70 29 71 30 72 56 73 57 74 65 75
REMARK SMILES IDX 58 76 64 77 66 78 63 79 59 80 60 81 61 82 62 83 41 84 42 85
REMARK SMILES IDX 50 86 43 87 49 88 51 89 48 90 44 91 45 92 46 93 47 94
REMARK H PARENT 71 47 39 58
REMARK Flexibility Score: inf
ROOT
ATOM      1  C   UNL A   1      31.403  32.036  26.714  1.00  0.00     0.202 C 
ENDROOT
BRANCH   1   2
ATOM      2  O   UNL A   1      32.052  30.869  27.213  1.00  0.00    -0.374 OA
BRANCH   2   3
ATOM      3  C   UNL A   1      33.253  30.460  26.550  1.00  0.00     0.202 C 
BRANCH   3   4
ATOM      4  C   UNL A   1      33.215  29.045  25.970  1.00  0.00     0.261 C 
BRANCH   4   5
ATOM      5  O   UNL A   1      31.844  28.633  25.797  1.00  0.00    -0.463 OA
BRANCH   5   6
ATOM      6  C   UNL A   1      31.420  27.618  26.576  1.00  0.00     0.311 C 
ATOM      7  O   UNL A   1      31.421  27.642  27.803  1.00  0.00    -0.252 OA
BRANCH   6   8
ATOM      8  C   UNL A   1      30.823  26.447  25.818  1.00  0.00     0.123 C 
ATOM      9  C   UNL A   1      32.901  24.869  26.208  1.00  0.00     0.032 C 
ATOM     10  C   UNL A   1      31.545  25.100  25.565  1.00  0.00     0.096 C 
ATOM     11  N   UNL A   1      31.551  24.941  24.106  1.00  0.00    -0.334 N 
ATOM     12  C   UNL A   1      30.365  26.942  24.435  1.00  0.00     0.039 C 
ATOM     13  C   UNL A   1      31.167  26.155  23.430  1.00  0.00     0.121 C 
BRANCH  11  14
ATOM     14  C   UNL A   1      31.376  23.740  23.438  1.00  0.00     0.264 C 
ATOM     15  O   UNL A   1      30.246  23.357  23.126  1.00  0.00    -0.268 OA
BRANCH  14  16
ATOM     16  C   UNL A   1      32.535  22.995  22.994  1.00  0.00     0.093 A 
ATOM     17  C   UNL A   1      33.738  23.535  22.579  1.00  0.00     0.034 A 
ATOM     18  S   UNL A   1      32.820  21.456  23.704  1.00  0.00    -0.130 S 
ATOM     19  C   UNL A   1      34.753  23.144  23.529  1.00  0.00    -0.004 A 
ATOM     20  C   UNL A   1      34.346  22.033  24.280  1.00  0.00     0.035 A 
ATOM     21  C   UNL A   1      35.965  23.782  23.877  1.00  0.00     0.048 A 
ATOM     22  C   UNL A   1      35.098  21.549  25.366  1.00  0.00     0.022 A 
ATOM     23  C   UNL A   1      36.658  23.354  25.007  1.00  0.00     0.123 A 
ATOM     24  C   UNL A   1      36.236  22.261  25.748  1.00  0.00     0.041 A 
ATOM     25  F   UNL A   1      37.732  24.047  25.412  1.00  0.00    -0.207 F 
ENDBRANCH  14  16
ENDBRANCH  11  14
ENDBRANCH   6   8
ENDBRANCH   5   6
ENDBRANCH   4   5
ENDBRANCH   3   4
ENDBRANCH   2   3
ENDBRANCH   1   2
BRANCH   1  26
ATOM     26  C   UNL A   1      32.165  33.357  26.864  1.00  0.00     0.261 C 
BRANCH  26  27
ATOM     27  O   UNL A   1      32.253  33.788  28.231  1.00  0.00    -0.460 OA
BRANCH  27  28
ATOM     28  C   UNL A   1      33.342  34.554  28.495  1.00  0.00     0.338 C 
ATOM     29  O   UNL A   1      33.368  35.769  28.594  1.00  0.00    -0.246 OA
BRANCH  28  30
ATOM     30  C   UNL A   1      34.507  33.707  28.826  1.00  0.00     0.060 A 
ATOM     31  C   UNL A   1      34.234  32.487  29.457  1.00  0.00     0.016 A 
ATOM     32  C   UNL A   1      35.826  34.116  28.614  1.00  0.00     0.016 A 
ATOM     33  C   UNL A   1      35.276  31.712  29.953  1.00  0.00     0.010 A 
ATOM     34  C   UNL A   1      36.875  33.332  29.116  1.00  0.00     0.010 A 
ATOM     35  C   UNL A   1      36.600  32.154  29.833  1.00  0.00    -0.014 A 
BRANCH  35  36
ATOM     36  C   UNL A   1      37.643  31.467  30.636  1.00  0.00     0.031 A 
ATOM     37  C   UNL A   1      38.493  30.417  29.970  1.00  0.00     0.074 A 
ATOM     38  C   UNL A   1      37.900  31.847  31.901  1.00  0.00     0.049 A 
ATOM     39  N   UNL A   1      39.523  29.759  30.438  1.00  0.00    -0.248 NA
ATOM     40  C   UNL A   1      38.130  30.062  28.590  1.00  0.00     0.031 C 
ATOM     41  C   UNL A   1      37.167  32.877  32.636  1.00  0.00     0.029 A 
ATOM     42  N   UNL A   1      38.859  31.422  32.785  1.00  0.00    -0.354 N 
ATOM     43  C   UNL A   1      39.939  28.922  29.408  1.00  0.00     0.074 A 
ATOM     44  C   UNL A   1      39.016  29.117  28.310  1.00  0.00     0.031 C 
ATOM     45  C   UNL A   1      37.711  33.011  33.858  1.00  0.00     0.029 A 
ATOM     46  C   UNL A   1      38.815  32.064  33.999  1.00  0.00     0.049 A 
ATOM     47  H   UNL A   1      39.518  30.723  32.568  1.00  0.00     0.167 HD
ATOM     48  C   UNL A   1      41.003  28.080  29.371  1.00  0.00     0.034 A 
ATOM     49  C   UNL A   1      39.578  31.902  35.099  1.00  0.00     0.034 A 
ATOM     50  C   UNL A   1      41.907  27.884  30.477  1.00  0.00     0.049 A 
ATOM     51  C   UNL A   1      40.719  30.913  35.059  1.00  0.00     0.074 A 
ATOM     52  C   UNL A   1      43.015  27.059  30.553  1.00  0.00     0.029 A 
ATOM     53  N   UNL A   1      41.799  28.515  31.712  1.00  0.00    -0.354 N 
ATOM     54  N   UNL A   1      41.112  30.142  34.071  1.00  0.00    -0.248 NA
ATOM     55  C   UNL A   1      41.530  30.791  36.276  1.00  0.00     0.031 C 
ATOM     56  C   UNL A   1      43.538  27.141  31.848  1.00  0.00     0.029 A 
ATOM     57  C   UNL A   1      42.803  28.076  32.562  1.00  0.00     0.049 A 
ATOM     58  H   UNL A   1      41.111  29.178  31.948  1.00  0.00     0.167 HD
ATOM     59  C   UNL A   1      42.236  29.465  34.540  1.00  0.00     0.074 A 
ATOM     60  C   UNL A   1      42.466  29.936  35.891  1.00  0.00     0.031 C 
ATOM     61  C   UNL A   1      43.010  28.542  33.913  1.00  0.00     0.034 A 
BRANCH  48  62
ATOM     62  C   UNL A   1      41.203  27.277  28.107  1.00  0.00     0.023 A 
ATOM     63  C   UNL A   1      40.992  25.887  28.071  1.00  0.00     0.031 A 
ATOM     64  C   UNL A   1      41.654  27.905  26.932  1.00  0.00     0.131 A 
ATOM     65  C   UNL A   1      41.300  25.162  26.908  1.00  0.00     0.055 A 
ATOM     66  C   UNL A   1      41.885  27.188  25.756  1.00  0.00     0.041 A 
ATOM     67  F   UNL A   1      41.897  29.225  26.913  1.00  0.00    -0.206 F 
ATOM     68  C   UNL A   1      41.723  25.807  25.744  1.00  0.00     0.022 A 
BRANCH  65  69
ATOM     69  S   UNL A   1      41.284  23.349  26.986  1.00  0.00     0.124 S 
ATOM     70  O   UNL A   1      42.046  22.995  25.791  1.00  0.00    -0.237 OA
ATOM     71  O   UNL A   1      41.935  23.082  28.263  1.00  0.00    -0.237 OA
ATOM     72  O   UNL A   1      39.861  23.017  26.929  1.00  0.00    -0.744 OA
ENDBRANCH  65  69
ENDBRANCH  48  62
BRANCH  49  73
ATOM     73  C   UNL A   1      39.284  32.672  36.342  1.00  0.00     0.023 A 
ATOM     74  C   UNL A   1      38.448  32.153  37.344  1.00  0.00     0.031 A 
ATOM     75  C   UNL A   1      39.796  33.970  36.517  1.00  0.00     0.131 A 
ATOM     76  C   UNL A   1      38.113  32.945  38.454  1.00  0.00     0.055 A 
ATOM     77  C   UNL A   1      39.499  34.734  37.647  1.00  0.00     0.041 A 
ATOM     78  F   UNL A   1      40.601  34.513  35.591  1.00  0.00    -0.206 F 
ATOM     79  C   UNL A   1      38.642  34.227  38.618  1.00  0.00     0.022 A 
BRANCH  76  80
ATOM     80  S   UNL A   1      36.907  32.303  39.648  1.00  0.00     0.124 S 
ATOM     81  O   UNL A   1      37.026  33.264  40.738  1.00  0.00    -0.237 OA
ATOM     82  O   UNL A   1      35.667  32.353  38.880  1.00  0.00    -0.237 OA
ATOM     83  O   UNL A   1      37.401  30.959  39.942  1.00  0.00    -0.744 OA
ENDBRANCH  76  80
ENDBRANCH  49  73
BRANCH  61  84
ATOM     84  C   UNL A   1      44.201  28.017  34.679  1.00  0.00     0.023 A 
ATOM     85  C   UNL A   1      44.169  26.774  35.336  1.00  0.00     0.031 A 
ATOM     86  C   UNL A   1      45.376  28.785  34.777  1.00  0.00     0.131 A 
ATOM     87  C   UNL A   1      45.261  26.368  36.118  1.00  0.00     0.055 A 
ATOM     88  C   UNL A   1      46.483  28.347  35.504  1.00  0.00     0.041 A 
ATOM     89  F   UNL A   1      45.462  29.980  34.171  1.00  0.00    -0.206 F 
ATOM     90  C   UNL A   1      46.424  27.140  36.194  1.00  0.00     0.022 A 
BRANCH  87  91
ATOM     91  S   UNL A   1      45.099  24.870  37.129  1.00  0.00     0.124 S 
ATOM     92  O   UNL A   1      44.022  24.159  36.449  1.00  0.00    -0.237 OA
ATOM     93  O   UNL A   1      46.426  24.275  37.017  1.00  0.00    -0.237 OA
ATOM     94  O   UNL A   1      44.760  25.386  38.455  1.00  0.00    -0.744 OA
ENDBRANCH  87  91
ENDBRANCH  61  84
ENDBRANCH  35  36
ENDBRANCH  28  30
ENDBRANCH  27  28
ENDBRANCH  26  27
ENDBRANCH   1  26
TORSDOF 19
ENDMDL
