MODEL 1
REMARK VINA RESULT:     -10.7      0.000      0.000
REMARK SMILES CCc1cn(C[C@H](NC(=O)c2ccco2)C(=O)OCCOCCOC(=O)c2ccc(-c3c4nc(c(-c5cc(S(=O)(=O)[O-])ccc5F)c5ccc([nH]5)c(-c5cc(S(=O)(=O)[O-])ccc5F)c5nc(c(-c6cc(S(=O)(=O)[O-])ccc6F)c6ccc3[nH]6)C=C5)C=C4)cc2)c(=O)[nH]c1=O
REMARK SMILES IDX 21 1 20 2 19 3 18 4 16 5 17 6 7 7 6 8 5 9 3 10 4 11 93 12
REMARK SMILES IDX 92 13 94 14 90 15 91 17 2 18 1 19 8 20 9 21 10 23 11 24
REMARK SMILES IDX 12 25 15 26 13 27 14 28 22 29 23 30 24 31 25 32 26 33 27 34
REMARK SMILES IDX 28 35 89 36 29 37 88 38 30 39 31 40 32 41 82 42 33 43 87 44
REMARK SMILES IDX 81 45 83 46 34 47 86 48 80 49 79 50 35 52 67 53 47 54 66 55
REMARK SMILES IDX 48 56 51 57 65 58 84 59 49 60 50 61 64 63 85 64 52 65 36 66
REMARK SMILES IDX 37 67 45 68 38 69 44 70 46 71 43 72 39 73 40 74 41 75 42 76
REMARK SMILES IDX 68 77 69 78 77 79 70 80 76 81 78 82 75 83 71 84 72 85 73 86
REMARK SMILES IDX 74 87 53 88 54 89 62 90 55 91 61 92 63 93 60 94 56 95 57 96
REMARK SMILES IDX 58 97 59 98
REMARK H PARENT 92 16 8 22 83 51 51 62
REMARK Flexibility Score: inf
ROOT
ATOM      1  O   UNL A   1      33.190  30.358  26.437  1.00  0.00    -0.374 OA
ENDROOT
BRANCH   1   2
ATOM      2  C   UNL A   1      33.672  29.039  26.681  1.00  0.00     0.202 C 
BRANCH   2   3
ATOM      3  C   UNL A   1      33.249  27.937  25.704  1.00  0.00     0.261 C 
BRANCH   3   4
ATOM      4  O   UNL A   1      31.824  27.861  25.558  1.00  0.00    -0.462 OA
BRANCH   4   5
ATOM      5  C   UNL A   1      31.199  27.040  26.441  1.00  0.00     0.330 C 
ATOM      6  O   UNL A   1      31.011  27.285  27.630  1.00  0.00    -0.250 OA
BRANCH   5   7
ATOM      7  C   UNL A   1      30.716  25.737  25.808  1.00  0.00     0.212 C 
BRANCH   7   8
ATOM      8  C   UNL A   1      30.192  26.056  24.399  1.00  0.00     0.164 C 
BRANCH   8   9
ATOM      9  N   UNL A   1      31.141  25.904  23.284  1.00  0.00    -0.298 N 
ATOM     10  C   UNL A   1      32.754  24.456  22.277  1.00  0.00     0.033 A 
ATOM     11  C   UNL A   1      31.999  24.824  23.319  1.00  0.00     0.100 A 
ATOM     12  C   UNL A   1      32.641  25.265  21.039  1.00  0.00     0.256 A 
ATOM     13  N   UNL A   1      31.887  26.398  21.130  1.00  0.00    -0.274 N 
ATOM     14  O   UNL A   1      33.168  24.920  19.989  1.00  0.00    -0.269 OA
ATOM     15  C   UNL A   1      31.087  26.748  22.181  1.00  0.00     0.328 A 
ATOM     16  H   UNL A   1      31.923  27.022  20.369  1.00  0.00     0.175 HD
ATOM     17  O   UNL A   1      30.379  27.748  22.112  1.00  0.00    -0.248 OA
BRANCH  10  18
ATOM     18  C   UNL A   1      33.672  23.264  22.249  1.00  0.00     0.039 C 
ATOM     19  C   UNL A   1      34.895  23.365  23.155  1.00  0.00     0.009 C 
ENDBRANCH  10  18
ENDBRANCH   8   9
ENDBRANCH   7   8
BRANCH   7  20
ATOM     20  N   UNL A   1      29.798  24.876  26.562  1.00  0.00    -0.334 N 
ATOM     21  C   UNL A   1      30.017  23.562  26.929  1.00  0.00     0.287 C 
ATOM     22  H   UNL A   1      28.940  25.275  26.834  1.00  0.00     0.164 HD
ATOM     23  O   UNL A   1      29.090  22.903  27.391  1.00  0.00    -0.266 OA
BRANCH  21  24
ATOM     24  C   UNL A   1      31.346  23.020  26.719  1.00  0.00     0.191 A 
ATOM     25  C   UNL A   1      31.879  22.191  25.748  1.00  0.00     0.056 A 
ATOM     26  O   UNL A   1      32.309  23.283  27.659  1.00  0.00    -0.459 OA
ATOM     27  C   UNL A   1      33.204  21.892  26.143  1.00  0.00     0.043 A 
ATOM     28  C   UNL A   1      33.421  22.590  27.307  1.00  0.00     0.196 A 
ENDBRANCH  21  24
ENDBRANCH   7  20
ENDBRANCH   5   7
ENDBRANCH   4   5
ENDBRANCH   3   4
ENDBRANCH   2   3
ENDBRANCH   1   2
BRANCH   1  29
ATOM     29  C   UNL A   1      33.609  31.409  27.307  1.00  0.00     0.202 C 
BRANCH  29  30
ATOM     30  C   UNL A   1      32.757  32.682  27.421  1.00  0.00     0.261 C 
BRANCH  30  31
ATOM     31  O   UNL A   1      33.528  33.869  27.672  1.00  0.00    -0.460 OA
BRANCH  31  32
ATOM     32  C   UNL A   1      33.548  34.279  28.967  1.00  0.00     0.338 C 
ATOM     33  O   UNL A   1      32.664  34.875  29.564  1.00  0.00    -0.246 OA
BRANCH  32  34
ATOM     34  C   UNL A   1      34.724  33.698  29.636  1.00  0.00     0.060 A 
ATOM     35  C   UNL A   1      34.575  32.795  30.689  1.00  0.00     0.016 A 
ATOM     36  C   UNL A   1      35.996  34.035  29.158  1.00  0.00     0.016 A 
ATOM     37  C   UNL A   1      35.713  32.219  31.260  1.00  0.00     0.010 A 
ATOM     38  C   UNL A   1      37.130  33.469  29.737  1.00  0.00     0.010 A 
ATOM     39  C   UNL A   1      36.997  32.543  30.782  1.00  0.00    -0.014 A 
BRANCH  39  40
ATOM     40  C   UNL A   1      38.193  31.813  31.267  1.00  0.00     0.031 A 
ATOM     41  C   UNL A   1      38.878  32.193  32.543  1.00  0.00     0.074 A 
ATOM     42  C   UNL A   1      38.698  30.833  30.492  1.00  0.00     0.049 A 
ATOM     43  N   UNL A   1      39.932  31.652  33.096  1.00  0.00    -0.248 NA
ATOM     44  C   UNL A   1      38.318  33.327  33.292  1.00  0.00     0.031 C 
ATOM     45  C   UNL A   1      38.132  30.419  29.210  1.00  0.00     0.029 A 
ATOM     46  N   UNL A   1      39.796  30.026  30.654  1.00  0.00    -0.354 N 
ATOM     47  C   UNL A   1      40.163  32.372  34.260  1.00  0.00     0.074 A 
ATOM     48  C   UNL A   1      39.159  33.414  34.315  1.00  0.00     0.031 C 
ATOM     49  C   UNL A   1      38.880  29.429  28.703  1.00  0.00     0.029 A 
ATOM     50  C   UNL A   1      40.004  29.167  29.600  1.00  0.00     0.049 A 
ATOM     51  H   UNL A   1      40.377  30.057  31.448  1.00  0.00     0.167 HD
ATOM     52  C   UNL A   1      41.120  32.165  35.197  1.00  0.00     0.034 A 
ATOM     53  C   UNL A   1      40.994  28.279  29.367  1.00  0.00     0.034 A 
ATOM     54  C   UNL A   1      42.106  31.115  35.119  1.00  0.00     0.049 A 
ATOM     55  C   UNL A   1      42.061  28.083  30.411  1.00  0.00     0.074 A 
ATOM     56  C   UNL A   1      43.055  30.770  36.065  1.00  0.00     0.029 A 
ATOM     57  N   UNL A   1      42.292  30.260  34.041  1.00  0.00    -0.354 N 
ATOM     58  N   UNL A   1      42.189  28.679  31.574  1.00  0.00    -0.248 NA
ATOM     59  C   UNL A   1      43.112  27.094  30.129  1.00  0.00     0.031 C 
ATOM     60  C   UNL A   1      43.873  29.780  35.522  1.00  0.00     0.029 A 
ATOM     61  C   UNL A   1      43.378  29.431  34.276  1.00  0.00     0.049 A 
ATOM     62  H   UNL A   1      41.735  30.246  33.229  1.00  0.00     0.167 HD
ATOM     63  C   UNL A   1      43.321  28.129  32.166  1.00  0.00     0.074 A 
ATOM     64  C   UNL A   1      43.829  27.134  31.246  1.00  0.00     0.031 C 
ATOM     65  C   UNL A   1      43.884  28.431  33.363  1.00  0.00     0.034 A 
BRANCH  52  66
ATOM     66  C   UNL A   1      41.166  33.060  36.412  1.00  0.00     0.023 A 
ATOM     67  C   UNL A   1      40.429  32.719  37.563  1.00  0.00     0.031 A 
ATOM     68  C   UNL A   1      41.787  34.320  36.372  1.00  0.00     0.131 A 
ATOM     69  C   UNL A   1      40.293  33.644  38.605  1.00  0.00     0.055 A 
ATOM     70  C   UNL A   1      41.691  35.219  37.435  1.00  0.00     0.041 A 
ATOM     71  F   UNL A   1      42.487  34.700  35.290  1.00  0.00    -0.206 F 
ATOM     72  C   UNL A   1      40.926  34.890  38.550  1.00  0.00     0.022 A 
BRANCH  69  73
ATOM     73  S   UNL A   1      39.218  33.304  40.027  1.00  0.00     0.124 S 
ATOM     74  O   UNL A   1      40.193  33.003  41.073  1.00  0.00    -0.237 OA
ATOM     75  O   UNL A   1      38.506  34.570  40.183  1.00  0.00    -0.237 OA
ATOM     76  O   UNL A   1      38.406  32.173  39.593  1.00  0.00    -0.744 OA
ENDBRANCH  69  73
ENDBRANCH  52  66
BRANCH  53  77
ATOM     77  C   UNL A   1      40.959  27.493  28.100  1.00  0.00     0.023 A 
ATOM     78  C   UNL A   1      40.612  26.127  28.115  1.00  0.00     0.031 A 
ATOM     79  C   UNL A   1      41.420  28.044  26.894  1.00  0.00     0.131 A 
ATOM     80  C   UNL A   1      40.825  25.342  26.975  1.00  0.00     0.055 A 
ATOM     81  C   UNL A   1      41.555  27.273  25.738  1.00  0.00     0.041 A 
ATOM     82  F   UNL A   1      41.775  29.337  26.833  1.00  0.00    -0.206 F 
ATOM     83  C   UNL A   1      41.278  25.910  25.781  1.00  0.00     0.022 A 
BRANCH  80  84
ATOM     84  S   UNL A   1      40.677  23.535  27.056  1.00  0.00     0.124 S 
ATOM     85  O   UNL A   1      41.183  23.246  28.395  1.00  0.00    -0.237 OA
ATOM     86  O   UNL A   1      39.240  23.348  26.871  1.00  0.00    -0.237 OA
ATOM     87  O   UNL A   1      41.511  23.071  25.953  1.00  0.00    -0.744 OA
ENDBRANCH  80  84
ENDBRANCH  53  77
BRANCH  65  88
ATOM     88  C   UNL A   1      45.140  27.706  33.791  1.00  0.00     0.023 A 
ATOM     89  C   UNL A   1      45.046  26.540  34.577  1.00  0.00     0.031 A 
ATOM     90  C   UNL A   1      46.409  28.280  33.605  1.00  0.00     0.131 A 
ATOM     91  C   UNL A   1      46.186  26.032  35.213  1.00  0.00     0.055 A 
ATOM     92  C   UNL A   1      47.553  27.734  34.192  1.00  0.00     0.041 A 
ATOM     93  F   UNL A   1      46.553  29.394  32.870  1.00  0.00    -0.206 F 
ATOM     94  C   UNL A   1      47.441  26.620  35.018  1.00  0.00     0.022 A 
BRANCH  91  95
ATOM     95  S   UNL A   1      46.065  24.666  36.402  1.00  0.00     0.124 S 
ATOM     96  O   UNL A   1      44.845  25.006  37.131  1.00  0.00    -0.237 OA
ATOM     97  O   UNL A   1      45.963  23.505  35.523  1.00  0.00    -0.237 OA
ATOM     98  O   UNL A   1      47.296  24.764  37.178  1.00  0.00    -0.744 OA
ENDBRANCH  91  95
ENDBRANCH  65  88
ENDBRANCH  39  40
ENDBRANCH  32  34
ENDBRANCH  31  32
ENDBRANCH  30  31
ENDBRANCH  29  30
ENDBRANCH   1  29
TORSDOF 22
ENDMDL
MODEL 2
REMARK VINA RESULT:     -10.5      2.242      3.132
REMARK SMILES CCc1cn(C[C@H](NC(=O)c2ccco2)C(=O)OCCOCCOC(=O)c2ccc(-c3c4nc(c(-c5cc(S(=O)(=O)[O-])ccc5F)c5ccc([nH]5)c(-c5cc(S(=O)(=O)[O-])ccc5F)c5nc(c(-c6cc(S(=O)(=O)[O-])ccc6F)c6ccc3[nH]6)C=C5)C=C4)cc2)c(=O)[nH]c1=O
REMARK SMILES IDX 21 1 20 2 19 3 18 4 16 5 17 6 7 7 6 8 5 9 3 10 4 11 93 12
REMARK SMILES IDX 92 13 94 14 90 15 91 17 2 18 1 19 8 20 9 21 10 23 11 24
REMARK SMILES IDX 12 25 15 26 13 27 14 28 22 29 23 30 24 31 25 32 26 33 27 34
REMARK SMILES IDX 28 35 89 36 29 37 88 38 30 39 31 40 32 41 82 42 33 43 87 44
REMARK SMILES IDX 81 45 83 46 34 47 86 48 80 49 79 50 35 52 67 53 47 54 66 55
REMARK SMILES IDX 48 56 51 57 65 58 84 59 49 60 50 61 64 63 85 64 52 65 36 66
REMARK SMILES IDX 37 67 45 68 38 69 44 70 46 71 43 72 39 73 40 74 41 75 42 76
REMARK SMILES IDX 68 77 69 78 77 79 70 80 76 81 78 82 75 83 71 84 72 85 73 86
REMARK SMILES IDX 74 87 53 88 54 89 62 90 55 91 61 92 63 93 60 94 56 95 57 96
REMARK SMILES IDX 58 97 59 98
REMARK H PARENT 92 16 8 22 83 51 51 62
REMARK Flexibility Score: inf
ROOT
ATOM      1  O   UNL A   1      33.005  28.142  25.814  1.00  0.00    -0.374 OA
ENDROOT
BRANCH   1   2
ATOM      2  C   UNL A   1      32.110  27.700  26.832  1.00  0.00     0.202 C 
BRANCH   2   3
ATOM      3  C   UNL A   1      31.192  26.518  26.504  1.00  0.00     0.261 C 
BRANCH   3   4
ATOM      4  O   UNL A   1      31.899  25.270  26.499  1.00  0.00    -0.462 OA
BRANCH   4   5
ATOM      5  C   UNL A   1      31.119  24.168  26.349  1.00  0.00     0.330 C 
ATOM      6  O   UNL A   1      30.074  23.949  26.956  1.00  0.00    -0.250 OA
BRANCH   5   7
ATOM      7  C   UNL A   1      31.662  23.186  25.314  1.00  0.00     0.212 C 
BRANCH   7   8
ATOM      8  C   UNL A   1      31.076  23.564  23.944  1.00  0.00     0.164 C 
BRANCH   8   9
ATOM      9  N   UNL A   1      31.718  24.678  23.228  1.00  0.00    -0.298 N 
ATOM     10  C   UNL A   1      31.570  27.004  22.698  1.00  0.00     0.033 A 
ATOM     11  C   UNL A   1      31.020  25.864  23.131  1.00  0.00     0.100 A 
ATOM     12  C   UNL A   1      33.002  26.961  22.312  1.00  0.00     0.256 A 
ATOM     13  N   UNL A   1      33.581  25.726  22.295  1.00  0.00    -0.274 N 
ATOM     14  O   UNL A   1      33.633  27.978  22.054  1.00  0.00    -0.269 OA
ATOM     15  C   UNL A   1      33.029  24.573  22.776  1.00  0.00     0.328 A 
ATOM     16  H   UNL A   1      34.481  25.660  21.899  1.00  0.00     0.175 HD
ATOM     17  O   UNL A   1      33.684  23.535  22.793  1.00  0.00    -0.248 OA
BRANCH  10  18
ATOM     18  C   UNL A   1      30.865  28.331  22.614  1.00  0.00     0.039 C 
ATOM     19  C   UNL A   1      29.453  28.354  23.191  1.00  0.00     0.009 C 
ENDBRANCH  10  18
ENDBRANCH   8   9
ENDBRANCH   7   8
BRANCH   7  20
ATOM     20  N   UNL A   1      31.571  21.746  25.580  1.00  0.00    -0.334 N 
ATOM     21  C   UNL A   1      32.622  20.849  25.621  1.00  0.00     0.287 C 
ATOM     22  H   UNL A   1      30.671  21.383  25.748  1.00  0.00     0.164 HD
ATOM     23  O   UNL A   1      32.384  19.645  25.667  1.00  0.00    -0.266 OA
BRANCH  21  24
ATOM     24  C   UNL A   1      33.966  21.390  25.580  1.00  0.00     0.191 A 
ATOM     25  C   UNL A   1      34.613  22.355  26.333  1.00  0.00     0.056 A 
ATOM     26  O   UNL A   1      34.808  20.960  24.588  1.00  0.00    -0.459 OA
ATOM     27  C   UNL A   1      35.881  22.559  25.739  1.00  0.00     0.043 A 
ATOM     28  C   UNL A   1      35.956  21.678  24.687  1.00  0.00     0.196 A 
ENDBRANCH  21  24
ENDBRANCH   7  20
ENDBRANCH   5   7
ENDBRANCH   4   5
ENDBRANCH   3   4
ENDBRANCH   2   3
ENDBRANCH   1   2
BRANCH   1  29
ATOM     29  C   UNL A   1      32.951  29.508  25.404  1.00  0.00     0.202 C 
BRANCH  29  30
ATOM     30  C   UNL A   1      32.253  30.540  26.304  1.00  0.00     0.261 C 
BRANCH  30  31
ATOM     31  O   UNL A   1      32.930  30.764  27.552  1.00  0.00    -0.460 OA
BRANCH  31  32
ATOM     32  C   UNL A   1      33.843  31.770  27.538  1.00  0.00     0.338 C 
ATOM     33  O   UNL A   1      33.628  32.957  27.346  1.00  0.00    -0.246 OA
BRANCH  32  34
ATOM     34  C   UNL A   1      35.135  31.251  28.017  1.00  0.00     0.060 A 
ATOM     35  C   UNL A   1      36.242  32.091  28.141  1.00  0.00     0.016 A 
ATOM     36  C   UNL A   1      35.214  29.905  28.393  1.00  0.00     0.016 A 
ATOM     37  C   UNL A   1      37.435  31.577  28.656  1.00  0.00     0.010 A 
ATOM     38  C   UNL A   1      36.409  29.390  28.894  1.00  0.00     0.010 A 
ATOM     39  C   UNL A   1      37.524  30.227  29.045  1.00  0.00    -0.014 A 
BRANCH  39  40
ATOM     40  C   UNL A   1      38.729  29.717  29.745  1.00  0.00     0.031 A 
ATOM     41  C   UNL A   1      39.149  30.262  31.075  1.00  0.00     0.074 A 
ATOM     42  C   UNL A   1      39.483  28.792  29.121  1.00  0.00     0.049 A 
ATOM     43  N   UNL A   1      40.176  29.921  31.809  1.00  0.00    -0.248 NA
ATOM     44  C   UNL A   1      38.321  31.329  31.654  1.00  0.00     0.031 C 
ATOM     45  C   UNL A   1      39.185  28.233  27.805  1.00  0.00     0.029 A 
ATOM     46  N   UNL A   1      40.651  28.175  29.495  1.00  0.00    -0.354 N 
ATOM     47  C   UNL A   1      40.120  30.723  32.940  1.00  0.00     0.074 A 
ATOM     48  C   UNL A   1      38.976  31.597  32.777  1.00  0.00     0.031 C 
ATOM     49  C   UNL A   1      40.138  27.348  27.481  1.00  0.00     0.029 A 
ATOM     50  C   UNL A   1      41.141  27.309  28.545  1.00  0.00     0.049 A 
ATOM     51  H   UNL A   1      41.094  28.335  30.359  1.00  0.00     0.167 HD
ATOM     52  C   UNL A   1      40.944  30.715  34.015  1.00  0.00     0.034 A 
ATOM     53  C   UNL A   1      42.275  26.577  28.518  1.00  0.00     0.034 A 
ATOM     54  C   UNL A   1      42.075  29.829  34.152  1.00  0.00     0.049 A 
ATOM     55  C   UNL A   1      43.188  26.601  29.714  1.00  0.00     0.074 A 
ATOM     56  C   UNL A   1      42.910  29.683  35.246  1.00  0.00     0.029 A 
ATOM     57  N   UNL A   1      42.545  28.963  33.175  1.00  0.00    -0.354 N 
ATOM     58  N   UNL A   1      43.050  27.266  30.838  1.00  0.00    -0.248 NA
ATOM     59  C   UNL A   1      44.404  25.777  29.656  1.00  0.00     0.031 C 
ATOM     60  C   UNL A   1      43.937  28.808  34.896  1.00  0.00     0.029 A 
ATOM     61  C   UNL A   1      43.693  28.326  33.621  1.00  0.00     0.049 A 
ATOM     62  H   UNL A   1      42.126  28.822  32.296  1.00  0.00     0.167 HD
ATOM     63  C   UNL A   1      44.149  26.930  31.623  1.00  0.00     0.074 A 
ATOM     64  C   UNL A   1      44.931  25.982  30.857  1.00  0.00     0.031 C 
ATOM     65  C   UNL A   1      44.474  27.374  32.863  1.00  0.00     0.034 A 
BRANCH  52  66
ATOM     66  C   UNL A   1      40.673  31.665  35.157  1.00  0.00     0.023 A 
ATOM     67  C   UNL A   1      39.581  31.434  36.017  1.00  0.00     0.031 A 
ATOM     68  C   UNL A   1      41.378  32.873  35.289  1.00  0.00     0.131 A 
ATOM     69  C   UNL A   1      39.196  32.418  36.935  1.00  0.00     0.055 A 
ATOM     70  C   UNL A   1      41.022  33.830  36.241  1.00  0.00     0.041 A 
ATOM     71  F   UNL A   1      42.416  33.147  34.482  1.00  0.00    -0.206 F 
ATOM     72  C   UNL A   1      39.915  33.612  37.057  1.00  0.00     0.022 A 
BRANCH  69  73
ATOM     73  S   UNL A   1      37.698  32.227  37.942  1.00  0.00     0.124 S 
ATOM     74  O   UNL A   1      38.130  32.774  39.227  1.00  0.00    -0.237 OA
ATOM     75  O   UNL A   1      36.731  33.043  37.210  1.00  0.00    -0.237 OA
ATOM     76  O   UNL A   1      37.448  30.791  37.933  1.00  0.00    -0.744 OA
ENDBRANCH  69  73
ENDBRANCH  52  66
BRANCH  53  77
ATOM     77  C   UNL A   1      42.547  25.734  27.318  1.00  0.00     0.023 A 
ATOM     78  C   UNL A   1      42.044  24.420  27.238  1.00  0.00     0.031 A 
ATOM     79  C   UNL A   1      43.436  26.163  26.320  1.00  0.00     0.131 A 
ATOM     80  C   UNL A   1      42.509  23.556  26.239  1.00  0.00     0.055 A 
ATOM     81  C   UNL A   1      43.835  25.321  25.280  1.00  0.00     0.041 A 
ATOM     82  F   UNL A   1      43.952  27.401  26.361  1.00  0.00    -0.206 F 
ATOM     83  C   UNL A   1      43.388  24.004  25.249  1.00  0.00     0.022 A 
BRANCH  80  84
ATOM     84  S   UNL A   1      42.117  21.785  26.291  1.00  0.00     0.124 S 
ATOM     85  O   UNL A   1      42.486  21.430  27.658  1.00  0.00    -0.237 OA
ATOM     86  O   UNL A   1      40.684  21.792  26.006  1.00  0.00    -0.237 OA
ATOM     87  O   UNL A   1      42.956  21.214  25.243  1.00  0.00    -0.744 OA
ENDBRANCH  80  84
ENDBRANCH  53  77
BRANCH  65  88
ATOM     88  C   UNL A   1      45.744  26.876  33.515  1.00  0.00     0.023 A 
ATOM     89  C   UNL A   1      46.976  27.489  33.213  1.00  0.00     0.031 A 
ATOM     90  C   UNL A   1      45.760  25.681  34.254  1.00  0.00     0.131 A 
ATOM     91  C   UNL A   1      48.175  26.863  33.578  1.00  0.00     0.055 A 
ATOM     92  C   UNL A   1      46.957  25.092  34.667  1.00  0.00     0.041 A 
ATOM     93  F   UNL A   1      44.614  25.054  34.562  1.00  0.00    -0.206 F 
ATOM     94  C   UNL A   1      48.172  25.671  34.310  1.00  0.00     0.022 A 
BRANCH  91  95
ATOM     95  S   UNL A   1      49.777  27.510  33.019  1.00  0.00     0.124 S 
ATOM     96  O   UNL A   1      49.409  28.207  31.788  1.00  0.00    -0.237 OA
ATOM     97  O   UNL A   1      50.164  28.371  34.132  1.00  0.00    -0.237 OA
ATOM     98  O   UNL A   1      50.593  26.315  32.832  1.00  0.00    -0.744 OA
ENDBRANCH  91  95
ENDBRANCH  65  88
ENDBRANCH  39  40
ENDBRANCH  32  34
ENDBRANCH  31  32
ENDBRANCH  30  31
ENDBRANCH  29  30
ENDBRANCH   1  29
TORSDOF 22
ENDMDL
MODEL 3
REMARK VINA RESULT:     -10.4      1.765      7.689
REMARK SMILES CCc1cn(C[C@H](NC(=O)c2ccco2)C(=O)OCCOCCOC(=O)c2ccc(-c3c4nc(c(-c5cc(S(=O)(=O)[O-])ccc5F)c5ccc([nH]5)c(-c5cc(S(=O)(=O)[O-])ccc5F)c5nc(c(-c6cc(S(=O)(=O)[O-])ccc6F)c6ccc3[nH]6)C=C5)C=C4)cc2)c(=O)[nH]c1=O
REMARK SMILES IDX 21 1 20 2 19 3 18 4 16 5 17 6 7 7 6 8 5 9 3 10 4 11 93 12
REMARK SMILES IDX 92 13 94 14 90 15 91 17 2 18 1 19 8 20 9 21 10 23 11 24
REMARK SMILES IDX 12 25 15 26 13 27 14 28 22 29 23 30 24 31 25 32 26 33 27 34
REMARK SMILES IDX 28 35 89 36 29 37 88 38 30 39 31 40 32 41 82 42 33 43 87 44
REMARK SMILES IDX 81 45 83 46 34 47 86 48 80 49 79 50 35 52 67 53 47 54 66 55
REMARK SMILES IDX 48 56 51 57 65 58 84 59 49 60 50 61 64 63 85 64 52 65 36 66
REMARK SMILES IDX 37 67 45 68 38 69 44 70 46 71 43 72 39 73 40 74 41 75 42 76
REMARK SMILES IDX 68 77 69 78 77 79 70 80 76 81 78 82 75 83 71 84 72 85 73 86
REMARK SMILES IDX 74 87 53 88 54 89 62 90 55 91 61 92 63 93 60 94 56 95 57 96
REMARK SMILES IDX 58 97 59 98
REMARK H PARENT 92 16 8 22 83 51 51 62
REMARK Flexibility Score: inf
ROOT
ATOM      1  O   UNL A   1      32.642  27.730  27.029  1.00  0.00    -0.374 OA
ENDROOT
BRANCH   1   2
ATOM      2  C   UNL A   1      33.506  26.955  26.203  1.00  0.00     0.202 C 
BRANCH   2   3
ATOM      3  C   UNL A   1      33.185  25.466  26.039  1.00  0.00     0.261 C 
BRANCH   3   4
ATOM      4  O   UNL A   1      32.104  25.050  26.885  1.00  0.00    -0.462 OA
BRANCH   4   5
ATOM      5  C   UNL A   1      31.014  24.573  26.231  1.00  0.00     0.330 C 
ATOM      6  O   UNL A   1      29.847  24.848  26.499  1.00  0.00    -0.250 OA
BRANCH   5   7
ATOM      7  C   UNL A   1      31.369  23.636  25.078  1.00  0.00     0.212 C 
BRANCH   7   8
ATOM      8  C   UNL A   1      30.722  24.190  23.798  1.00  0.00     0.164 C 
BRANCH   8   9
ATOM      9  N   UNL A   1      31.512  25.154  23.015  1.00  0.00    -0.298 N 
ATOM     10  C   UNL A   1      31.931  27.474  22.623  1.00  0.00     0.033 A 
ATOM     11  C   UNL A   1      31.170  26.487  23.109  1.00  0.00     0.100 A 
ATOM     12  C   UNL A   1      33.199  27.087  21.958  1.00  0.00     0.256 A 
ATOM     13  N   UNL A   1      33.395  25.750  21.774  1.00  0.00    -0.274 N 
ATOM     14  O   UNL A   1      34.034  27.917  21.621  1.00  0.00    -0.269 OA
ATOM     15  C   UNL A   1      32.637  24.746  22.307  1.00  0.00     0.328 A 
ATOM     16  H   UNL A   1      34.153  25.483  21.205  1.00  0.00     0.175 HD
ATOM     17  O   UNL A   1      32.966  23.574  22.150  1.00  0.00    -0.248 OA
BRANCH  10  18
ATOM     18  C   UNL A   1      31.624  28.944  22.736  1.00  0.00     0.039 C 
ATOM     19  C   UNL A   1      30.199  29.278  23.164  1.00  0.00     0.009 C 
ENDBRANCH  10  18
ENDBRANCH   8   9
ENDBRANCH   7   8
BRANCH   7  20
ATOM     20  N   UNL A   1      31.145  22.195  25.236  1.00  0.00    -0.334 N 
ATOM     21  C   UNL A   1      32.118  21.215  25.302  1.00  0.00     0.287 C 
ATOM     22  H   UNL A   1      30.210  21.897  25.302  1.00  0.00     0.164 HD
ATOM     23  O   UNL A   1      31.787  20.034  25.245  1.00  0.00    -0.266 OA
BRANCH  21  24
ATOM     24  C   UNL A   1      33.498  21.647  25.412  1.00  0.00     0.191 A 
ATOM     25  C   UNL A   1      34.559  21.631  24.522  1.00  0.00     0.056 A 
ATOM     26  O   UNL A   1      33.937  22.116  26.622  1.00  0.00    -0.459 OA
ATOM     27  C   UNL A   1      35.703  22.057  25.239  1.00  0.00     0.043 A 
ATOM     28  C   UNL A   1      35.269  22.351  26.510  1.00  0.00     0.196 A 
ENDBRANCH  21  24
ENDBRANCH   7  20
ENDBRANCH   5   7
ENDBRANCH   4   5
ENDBRANCH   3   4
ENDBRANCH   2   3
ENDBRANCH   1   2
BRANCH   1  29
ATOM     29  C   UNL A   1      31.831  28.733  26.417  1.00  0.00     0.202 C 
BRANCH  29  30
ATOM     30  C   UNL A   1      32.129  30.216  26.689  1.00  0.00     0.261 C 
BRANCH  30  31
ATOM     31  O   UNL A   1      33.510  30.569  26.498  1.00  0.00    -0.460 OA
BRANCH  31  32
ATOM     32  C   UNL A   1      33.953  31.594  27.271  1.00  0.00     0.338 C 
ATOM     33  O   UNL A   1      33.396  32.664  27.465  1.00  0.00    -0.246 OA
BRANCH  32  34
ATOM     34  C   UNL A   1      35.124  31.143  28.040  1.00  0.00     0.060 A 
ATOM     35  C   UNL A   1      35.107  29.926  28.723  1.00  0.00     0.016 A 
ATOM     36  C   UNL A   1      36.275  31.940  28.032  1.00  0.00     0.016 A 
ATOM     37  C   UNL A   1      36.258  29.503  29.392  1.00  0.00     0.010 A 
ATOM     38  C   UNL A   1      37.418  31.522  28.711  1.00  0.00     0.010 A 
ATOM     39  C   UNL A   1      37.423  30.292  29.383  1.00  0.00    -0.014 A 
BRANCH  39  40
ATOM     40  C   UNL A   1      38.695  29.775  29.946  1.00  0.00     0.031 A 
ATOM     41  C   UNL A   1      39.475  28.698  29.257  1.00  0.00     0.074 A 
ATOM     42  C   UNL A   1      39.102  30.250  31.139  1.00  0.00     0.049 A 
ATOM     43  N   UNL A   1      40.599  28.143  29.625  1.00  0.00    -0.248 NA
ATOM     44  C   UNL A   1      38.923  28.170  28.002  1.00  0.00     0.031 C 
ATOM     45  C   UNL A   1      38.388  31.264  31.912  1.00  0.00     0.029 A 
ATOM     46  N   UNL A   1      40.192  29.940  31.913  1.00  0.00    -0.354 N 
ATOM     47  C   UNL A   1      40.898  27.203  28.648  1.00  0.00     0.074 A 
ATOM     48  C   UNL A   1      39.814  27.238  27.689  1.00  0.00     0.031 C 
ATOM     49  C   UNL A   1      39.062  31.501  33.047  1.00  0.00     0.029 A 
ATOM     50  C   UNL A   1      40.230  30.624  33.105  1.00  0.00     0.049 A 
ATOM     51  H   UNL A   1      40.881  29.291  31.641  1.00  0.00     0.167 HD
ATOM     52  C   UNL A   1      41.986  26.401  28.563  1.00  0.00     0.034 A 
ATOM     53  C   UNL A   1      41.094  30.548  34.140  1.00  0.00     0.034 A 
ATOM     54  C   UNL A   1      43.054  26.390  29.532  1.00  0.00     0.049 A 
ATOM     55  C   UNL A   1      42.283  29.631  34.034  1.00  0.00     0.074 A 
ATOM     56  C   UNL A   1      44.241  25.680  29.481  1.00  0.00     0.029 A 
ATOM     57  N   UNL A   1      43.066  27.095  30.728  1.00  0.00    -0.354 N 
ATOM     58  N   UNL A   1      42.625  28.845  33.039  1.00  0.00    -0.248 NA
ATOM     59  C   UNL A   1      43.211  29.589  35.173  1.00  0.00     0.031 C 
ATOM     60  C   UNL A   1      44.920  25.875  30.682  1.00  0.00     0.029 A 
ATOM     61  C   UNL A   1      44.210  26.787  31.447  1.00  0.00     0.049 A 
ATOM     62  H   UNL A   1      42.365  27.720  31.023  1.00  0.00     0.167 HD
ATOM     63  C   UNL A   1      43.811  28.229  33.425  1.00  0.00     0.074 A 
ATOM     64  C   UNL A   1      44.143  28.751  34.734  1.00  0.00     0.031 C 
ATOM     65  C   UNL A   1      44.550  27.311  32.751  1.00  0.00     0.034 A 
BRANCH  52  66
ATOM     66  C   UNL A   1      42.121  25.467  27.383  1.00  0.00     0.023 A 
ATOM     67  C   UNL A   1      41.608  24.157  27.464  1.00  0.00     0.031 A 
ATOM     68  C   UNL A   1      42.899  25.807  26.263  1.00  0.00     0.131 A 
ATOM     69  C   UNL A   1      41.918  23.224  26.468  1.00  0.00     0.055 A 
ATOM     70  C   UNL A   1      43.162  24.888  25.247  1.00  0.00     0.041 A 
ATOM     71  F   UNL A   1      43.424  27.038  26.148  1.00  0.00    -0.206 F 
ATOM     72  C   UNL A   1      42.686  23.584  25.356  1.00  0.00     0.022 A 
BRANCH  69  73
ATOM     73  S   UNL A   1      41.414  21.487  26.620  1.00  0.00     0.124 S 
ATOM     74  O   UNL A   1      41.772  21.192  28.006  1.00  0.00    -0.237 OA
ATOM     75  O   UNL A   1      39.980  21.560  26.349  1.00  0.00    -0.237 OA
ATOM     76  O   UNL A   1      42.212  20.799  25.613  1.00  0.00    -0.744 OA
ENDBRANCH  69  73
ENDBRANCH  52  66
BRANCH  53  77
ATOM     77  C   UNL A   1      40.857  31.418  35.329  1.00  0.00     0.023 A 
ATOM     78  C   UNL A   1      39.744  31.198  36.165  1.00  0.00     0.031 A 
ATOM     79  C   UNL A   1      41.636  32.564  35.553  1.00  0.00     0.131 A 
ATOM     80  C   UNL A   1      39.389  32.160  37.118  1.00  0.00     0.055 A 
ATOM     81  C   UNL A   1      41.322  33.480  36.558  1.00  0.00     0.041 A 
ATOM     82  F   UNL A   1      42.698  32.822  34.775  1.00  0.00    -0.206 F 
ATOM     83  C   UNL A   1      40.181  33.292  37.332  1.00  0.00     0.022 A 
BRANCH  80  84
ATOM     84  S   UNL A   1      37.802  32.055  37.992  1.00  0.00     0.124 S 
ATOM     85  O   UNL A   1      38.177  32.426  39.353  1.00  0.00    -0.237 OA
ATOM     86  O   UNL A   1      37.000  33.038  37.268  1.00  0.00    -0.237 OA
ATOM     87  O   UNL A   1      37.397  30.665  37.807  1.00  0.00    -0.744 OA
ENDBRANCH  80  84
ENDBRANCH  53  77
BRANCH  65  88
ATOM     88  C   UNL A   1      45.806  26.763  33.390  1.00  0.00     0.023 A 
ATOM     89  C   UNL A   1      45.729  25.653  34.254  1.00  0.00     0.031 A 
ATOM     90  C   UNL A   1      47.023  27.462  33.313  1.00  0.00     0.131 A 
ATOM     91  C   UNL A   1      46.822  25.322  35.065  1.00  0.00     0.055 A 
ATOM     92  C   UNL A   1      48.129  27.091  34.080  1.00  0.00     0.041 A 
ATOM     93  F   UNL A   1      47.147  28.530  32.511  1.00  0.00    -0.206 F 
ATOM     94  C   UNL A   1      48.025  26.031  34.977  1.00  0.00     0.022 A 
BRANCH  91  95
ATOM     95  S   UNL A   1      46.687  24.038  36.341  1.00  0.00     0.124 S 
ATOM     96  O   UNL A   1      47.956  23.329  36.194  1.00  0.00    -0.237 OA
ATOM     97  O   UNL A   1      46.554  24.831  37.559  1.00  0.00    -0.237 OA
ATOM     98  O   UNL A   1      45.504  23.278  35.951  1.00  0.00    -0.744 OA
ENDBRANCH  91  95
ENDBRANCH  65  88
ENDBRANCH  39  40
ENDBRANCH  32  34
ENDBRANCH  31  32
ENDBRANCH  30  31
ENDBRANCH  29  30
ENDBRANCH   1  29
TORSDOF 22
ENDMDL
