MODEL 1
REMARK VINA RESULT:     -11.5      0.000      0.000
REMARK SMILES NS(=O)(=O)c1ccc(-n2nc(C(F)(F)F)cc2-c2ccc(CC(=O)OCCOCCOC(=O)c3ccc(-c4c5nc(c(-c6cc(S(=O)(=O)[O-])ccc6F)c6ccc([nH]6)c(-c6cc(S(=O)(=O)[O-])ccc6F)c6nc(c(-c7cc(S(=O)(=O)[O-])ccc7F)c7ccc4[nH]7)C=C6)C=C5)cc3)cc2)cc1
REMARK SMILES IDX 27 1 26 2 25 3 23 4 24 5 22 6 21 7 18 8 19 9 98 10 20 11
REMARK SMILES IDX 97 12 17 13 9 14 10 15 11 16 16 17 8 18 5 19 6 20 100 21
REMARK SMILES IDX 7 22 99 23 2 24 3 25 4 26 1 27 12 30 13 31 14 32 15 33 28 34
REMARK SMILES IDX 29 35 30 36 31 37 32 38 33 39 34 40 35 41 96 42 36 43 95 44
REMARK SMILES IDX 37 45 38 46 39 47 89 48 40 49 94 50 88 51 90 52 41 53 93 54
REMARK SMILES IDX 87 55 86 56 42 58 74 59 54 60 73 61 55 62 58 63 72 64 91 65
REMARK SMILES IDX 56 66 57 67 71 69 92 70 59 71 43 72 44 73 52 74 45 75 51 76
REMARK SMILES IDX 53 77 50 78 46 79 47 80 48 81 49 82 75 83 76 84 84 85 77 86
REMARK SMILES IDX 83 87 85 88 82 89 78 90 79 91 80 92 81 93 60 94 61 95 69 96
REMARK SMILES IDX 62 97 68 98 70 99 67 100 63 101 64 102 65 103 66 104
REMARK H PARENT 1 28 1 29 90 57 58 68
REMARK Flexibility Score: inf
ROOT
ATOM      1  C   UNL A   1      33.814  35.322  29.736  1.00  0.00     0.202 C 
ENDROOT
BRANCH   1   2
ATOM      2  C   UNL A   1      33.772  34.387  28.519  1.00  0.00     0.261 C 
BRANCH   2   3
ATOM      3  O   UNL A   1      32.467  34.078  28.003  1.00  0.00    -0.463 OA
BRANCH   3   4
ATOM      4  C   UNL A   1      32.346  32.832  27.473  1.00  0.00     0.310 C 
ATOM      5  O   UNL A   1      31.430  32.479  26.733  1.00  0.00    -0.252 OA
BRANCH   4   6
ATOM      6  C   UNL A   1      33.389  31.846  27.931  1.00  0.00     0.158 C 
BRANCH   6   7
ATOM      7  C   UNL A   1      33.386  30.437  27.390  1.00  0.00    -0.037 A 
ATOM      8  C   UNL A   1      33.305  27.936  26.092  1.00  0.00     0.000 A 
ATOM      9  C   UNL A   1      34.476  28.704  26.092  1.00  0.00     0.010 A 
ATOM     10  C   UNL A   1      32.174  28.426  26.756  1.00  0.00     0.010 A 
ATOM     11  C   UNL A   1      34.523  29.932  26.748  1.00  0.00     0.005 A 
ATOM     12  C   UNL A   1      32.216  29.664  27.404  1.00  0.00     0.005 A 
BRANCH   8  13
ATOM     13  C   UNL A   1      33.259  26.671  25.358  1.00  0.00     0.075 A 
ATOM     14  N   UNL A   1      32.235  26.234  24.506  1.00  0.00    -0.233 N 
ATOM     15  N   UNL A   1      32.316  24.891  24.305  1.00  0.00    -0.163 NA
ATOM     16  C   UNL A   1      33.527  24.538  24.779  1.00  0.00     0.167 A 
ATOM     17  C   UNL A   1      34.140  25.616  25.452  1.00  0.00     0.064 A 
BRANCH  14  18
ATOM     18  C   UNL A   1      31.218  27.025  23.885  1.00  0.00     0.065 A 
ATOM     19  C   UNL A   1      29.148  28.643  22.850  1.00  0.00     0.082 A 
ATOM     20  C   UNL A   1      28.868  27.556  23.667  1.00  0.00     0.024 A 
ATOM     21  C   UNL A   1      30.472  28.914  22.507  1.00  0.00     0.024 A 
ATOM     22  C   UNL A   1      29.882  26.759  24.186  1.00  0.00     0.030 A 
ATOM     23  C   UNL A   1      31.512  28.110  23.040  1.00  0.00     0.030 A 
BRANCH  19  24
ATOM     24  S   UNL A   1      27.780  29.739  22.557  1.00  0.00     0.238 S 
ATOM     25  O   UNL A   1      28.032  30.974  23.256  1.00  0.00    -0.207 OA
ATOM     26  O   UNL A   1      26.583  28.962  22.824  1.00  0.00    -0.207 OA
BRANCH  24  27
ATOM     27  N   UNL A   1      27.794  30.053  20.931  1.00  0.00    -0.225 NA
ATOM     28  H   UNL A   1      28.566  30.683  20.713  1.00  0.00     0.137 HD
ATOM     29  H   UNL A   1      26.912  30.489  20.661  1.00  0.00     0.137 HD
ENDBRANCH  24  27
ENDBRANCH  19  24
ENDBRANCH  14  18
BRANCH  16  30
ATOM     30  C   UNL A   1      34.134  23.169  24.689  1.00  0.00     0.435 C 
ATOM     31  F   UNL A   1      33.756  22.454  23.603  1.00  0.00    -0.164 F 
ATOM     32  F   UNL A   1      35.494  23.219  24.712  1.00  0.00    -0.164 F 
ATOM     33  F   UNL A   1      33.789  22.414  25.776  1.00  0.00    -0.164 F 
ENDBRANCH  16  30
ENDBRANCH   8  13
ENDBRANCH   6   7
ENDBRANCH   4   6
ENDBRANCH   3   4
ENDBRANCH   2   3
ENDBRANCH   1   2
BRANCH   1  34
ATOM     34  O   UNL A   1      33.492  34.784  31.009  1.00  0.00    -0.374 OA
BRANCH  34  35
ATOM     35  C   UNL A   1      34.558  34.228  31.769  1.00  0.00     0.202 C 
BRANCH  35  36
ATOM     36  C   UNL A   1      34.615  32.715  31.951  1.00  0.00     0.261 C 
BRANCH  36  37
ATOM     37  O   UNL A   1      35.784  32.097  31.383  1.00  0.00    -0.460 OA
BRANCH  37  38
ATOM     38  C   UNL A   1      36.766  31.793  32.280  1.00  0.00     0.338 C 
ATOM     39  O   UNL A   1      36.889  32.250  33.404  1.00  0.00    -0.246 OA
BRANCH  38  40
ATOM     40  C   UNL A   1      37.840  31.079  31.560  1.00  0.00     0.060 A 
ATOM     41  C   UNL A   1      37.646  29.706  31.396  1.00  0.00     0.016 A 
ATOM     42  C   UNL A   1      39.110  31.649  31.405  1.00  0.00     0.016 A 
ATOM     43  C   UNL A   1      38.755  28.878  31.305  1.00  0.00     0.010 A 
ATOM     44  C   UNL A   1      40.217  30.808  31.326  1.00  0.00     0.010 A 
ATOM     45  C   UNL A   1      40.045  29.419  31.383  1.00  0.00    -0.014 A 
BRANCH  45  46
ATOM     46  C   UNL A   1      41.189  28.519  31.215  1.00  0.00     0.031 A 
ATOM     47  C   UNL A   1      41.825  28.284  32.509  1.00  0.00     0.074 A 
ATOM     48  C   UNL A   1      41.721  27.954  30.112  1.00  0.00     0.049 A 
ATOM     49  N   UNL A   1      42.905  28.871  32.900  1.00  0.00    -0.248 NA
ATOM     50  C   UNL A   1      41.092  27.567  33.553  1.00  0.00     0.031 C 
ATOM     51  C   UNL A   1      41.288  28.104  28.744  1.00  0.00     0.029 A 
ATOM     52  N   UNL A   1      42.768  27.081  29.973  1.00  0.00    -0.354 N 
ATOM     53  C   UNL A   1      43.131  28.372  34.160  1.00  0.00     0.074 A 
ATOM     54  C   UNL A   1      41.880  27.814  34.601  1.00  0.00     0.031 C 
ATOM     55  C   UNL A   1      41.854  27.179  27.938  1.00  0.00     0.029 A 
ATOM     56  C   UNL A   1      42.840  26.463  28.722  1.00  0.00     0.049 A 
ATOM     57  H   UNL A   1      43.415  26.905  30.694  1.00  0.00     0.167 HD
ATOM     58  C   UNL A   1      44.405  28.165  34.575  1.00  0.00     0.034 A 
ATOM     59  C   UNL A   1      43.718  25.531  28.260  1.00  0.00     0.034 A 
ATOM     60  C   UNL A   1      45.351  28.953  33.805  1.00  0.00     0.049 A 
ATOM     61  C   UNL A   1      44.973  25.741  29.009  1.00  0.00     0.074 A 
ATOM     62  C   UNL A   1      45.457  30.301  33.503  1.00  0.00     0.029 A 
ATOM     63  N   UNL A   1      46.167  28.314  32.897  1.00  0.00    -0.354 N 
ATOM     64  N   UNL A   1      45.730  26.788  28.829  1.00  0.00    -0.248 NA
ATOM     65  C   UNL A   1      45.127  25.073  30.291  1.00  0.00     0.031 C 
ATOM     66  C   UNL A   1      45.951  30.360  32.167  1.00  0.00     0.029 A 
ATOM     67  C   UNL A   1      46.183  29.053  31.736  1.00  0.00     0.049 A 
ATOM     68  H   UNL A   1      46.655  27.472  33.051  1.00  0.00     0.167 HD
ATOM     69  C   UNL A   1      46.085  27.181  30.107  1.00  0.00     0.074 A 
ATOM     70  C   UNL A   1      45.781  26.030  30.955  1.00  0.00     0.031 C 
ATOM     71  C   UNL A   1      46.325  28.492  30.404  1.00  0.00     0.034 A 
BRANCH  58  72
ATOM     72  C   UNL A   1      44.781  26.969  35.407  1.00  0.00     0.023 A 
ATOM     73  C   UNL A   1      44.733  25.720  34.777  1.00  0.00     0.031 A 
ATOM     74  C   UNL A   1      44.933  26.947  36.816  1.00  0.00     0.131 A 
ATOM     75  C   UNL A   1      44.759  24.539  35.534  1.00  0.00     0.055 A 
ATOM     76  C   UNL A   1      45.046  25.771  37.555  1.00  0.00     0.041 A 
ATOM     77  F   UNL A   1      44.884  28.045  37.580  1.00  0.00    -0.206 F 
ATOM     78  C   UNL A   1      44.927  24.553  36.917  1.00  0.00     0.022 A 
BRANCH  75  79
ATOM     79  S   UNL A   1      44.384  22.988  34.689  1.00  0.00     0.124 S 
ATOM     80  O   UNL A   1      45.051  23.188  33.407  1.00  0.00    -0.237 OA
ATOM     81  O   UNL A   1      44.986  22.009  35.586  1.00  0.00    -0.237 OA
ATOM     82  O   UNL A   1      42.924  22.979  34.640  1.00  0.00    -0.744 OA
ENDBRANCH  75  79
ENDBRANCH  58  72
BRANCH  59  83
ATOM     83  C   UNL A   1      43.413  24.313  27.454  1.00  0.00     0.023 A 
ATOM     84  C   UNL A   1      44.233  23.854  26.395  1.00  0.00     0.031 A 
ATOM     85  C   UNL A   1      42.418  23.421  27.904  1.00  0.00     0.131 A 
ATOM     86  C   UNL A   1      44.039  22.562  25.840  1.00  0.00     0.055 A 
ATOM     87  C   UNL A   1      42.247  22.148  27.357  1.00  0.00     0.041 A 
ATOM     88  F   UNL A   1      41.641  23.717  28.959  1.00  0.00    -0.206 F 
ATOM     89  C   UNL A   1      43.049  21.711  26.323  1.00  0.00     0.022 A 
BRANCH  86  90
ATOM     90  S   UNL A   1      45.155  21.901  24.560  1.00  0.00     0.124 S 
ATOM     91  O   UNL A   1      45.142  22.959  23.557  1.00  0.00    -0.237 OA
ATOM     92  O   UNL A   1      46.401  21.718  25.297  1.00  0.00    -0.237 OA
ATOM     93  O   UNL A   1      44.506  20.655  24.146  1.00  0.00    -0.744 OA
ENDBRANCH  86  90
ENDBRANCH  59  83
BRANCH  71  94
ATOM     94  C   UNL A   1      46.544  29.464  29.255  1.00  0.00     0.023 A 
ATOM     95  C   UNL A   1      45.516  30.125  28.540  1.00  0.00     0.031 A 
ATOM     96  C   UNL A   1      47.873  29.810  28.949  1.00  0.00     0.131 A 
ATOM     97  C   UNL A   1      45.839  31.087  27.559  1.00  0.00     0.055 A 
ATOM     98  C   UNL A   1      48.190  30.765  27.983  1.00  0.00     0.041 A 
ATOM     99  F   UNL A   1      48.894  29.242  29.613  1.00  0.00    -0.206 F 
ATOM    100  C   UNL A   1      47.174  31.403  27.279  1.00  0.00     0.022 A 
BRANCH  97 101
ATOM    101  S   UNL A   1      44.528  31.939  26.617  1.00  0.00     0.124 S 
ATOM    102  O   UNL A   1      44.050  32.962  27.537  1.00  0.00    -0.237 OA
ATOM    103  O   UNL A   1      45.228  32.441  25.433  1.00  0.00    -0.237 OA
ATOM    104  O   UNL A   1      43.564  30.877  26.328  1.00  0.00    -0.744 OA
ENDBRANCH  97 101
ENDBRANCH  71  94
ENDBRANCH  45  46
ENDBRANCH  38  40
ENDBRANCH  37  38
ENDBRANCH  36  37
ENDBRANCH  35  36
ENDBRANCH  34  35
ENDBRANCH   1  34
TORSDOF 23
ENDMDL
MODEL 2
REMARK VINA RESULT:     -11.1      3.431      7.367
REMARK SMILES NS(=O)(=O)c1ccc(-n2nc(C(F)(F)F)cc2-c2ccc(CC(=O)OCCOCCOC(=O)c3ccc(-c4c5nc(c(-c6cc(S(=O)(=O)[O-])ccc6F)c6ccc([nH]6)c(-c6cc(S(=O)(=O)[O-])ccc6F)c6nc(c(-c7cc(S(=O)(=O)[O-])ccc7F)c7ccc4[nH]7)C=C6)C=C5)cc3)cc2)cc1
REMARK SMILES IDX 27 1 26 2 25 3 23 4 24 5 22 6 21 7 18 8 19 9 98 10 20 11
REMARK SMILES IDX 97 12 17 13 9 14 10 15 11 16 16 17 8 18 5 19 6 20 100 21
REMARK SMILES IDX 7 22 99 23 2 24 3 25 4 26 1 27 12 30 13 31 14 32 15 33 28 34
REMARK SMILES IDX 29 35 30 36 31 37 32 38 33 39 34 40 35 41 96 42 36 43 95 44
REMARK SMILES IDX 37 45 38 46 39 47 89 48 40 49 94 50 88 51 90 52 41 53 93 54
REMARK SMILES IDX 87 55 86 56 42 58 74 59 54 60 73 61 55 62 58 63 72 64 91 65
REMARK SMILES IDX 56 66 57 67 71 69 92 70 59 71 43 72 44 73 52 74 45 75 51 76
REMARK SMILES IDX 53 77 50 78 46 79 47 80 48 81 49 82 75 83 76 84 84 85 77 86
REMARK SMILES IDX 83 87 85 88 82 89 78 90 79 91 80 92 81 93 60 94 61 95 69 96
REMARK SMILES IDX 62 97 68 98 70 99 67 100 63 101 64 102 65 103 66 104
REMARK H PARENT 1 28 1 29 90 57 58 68
REMARK Flexibility Score: inf
ROOT
ATOM      1  C   UNL A   1      35.739  33.979  31.577  1.00  0.00     0.202 C 
ENDROOT
BRANCH   1   2
ATOM      2  C   UNL A   1      36.002  33.423  30.171  1.00  0.00     0.261 C 
BRANCH   2   3
ATOM      3  O   UNL A   1      34.924  32.689  29.568  1.00  0.00    -0.463 OA
BRANCH   3   4
ATOM      4  C   UNL A   1      35.185  32.221  28.318  1.00  0.00     0.310 C 
ATOM      5  O   UNL A   1      35.597  32.915  27.391  1.00  0.00    -0.252 OA
BRANCH   4   6
ATOM      6  C   UNL A   1      34.843  30.770  28.102  1.00  0.00     0.158 C 
BRANCH   6   7
ATOM      7  C   UNL A   1      33.729  30.389  27.157  1.00  0.00    -0.037 A 
ATOM      8  C   UNL A   1      31.775  29.896  25.186  1.00  0.00     0.000 A 
ATOM      9  C   UNL A   1      33.001  29.221  25.162  1.00  0.00     0.010 A 
ATOM     10  C   UNL A   1      31.529  30.816  26.212  1.00  0.00     0.010 A 
ATOM     11  C   UNL A   1      33.960  29.450  26.145  1.00  0.00     0.005 A 
ATOM     12  C   UNL A   1      32.497  31.057  27.192  1.00  0.00     0.005 A 
BRANCH   8  13
ATOM     13  C   UNL A   1      30.797  29.677  24.119  1.00  0.00     0.075 A 
ATOM     14  N   UNL A   1      30.831  28.670  23.145  1.00  0.00    -0.233 N 
ATOM     15  N   UNL A   1      30.014  28.979  22.102  1.00  0.00    -0.163 NA
ATOM     16  C   UNL A   1      29.264  30.010  22.540  1.00  0.00     0.167 A 
ATOM     17  C   UNL A   1      29.728  30.480  23.787  1.00  0.00     0.064 A 
BRANCH  14  18
ATOM     18  C   UNL A   1      31.582  27.452  23.174  1.00  0.00     0.065 A 
ATOM     19  C   UNL A   1      32.884  24.947  23.202  1.00  0.00     0.082 A 
ATOM     20  C   UNL A   1      31.919  25.264  24.148  1.00  0.00     0.024 A 
ATOM     21  C   UNL A   1      33.240  25.898  22.247  1.00  0.00     0.024 A 
ATOM     22  C   UNL A   1      31.268  26.493  24.137  1.00  0.00     0.030 A 
ATOM     23  C   UNL A   1      32.574  27.151  22.224  1.00  0.00     0.030 A 
BRANCH  19  24
ATOM     24  S   UNL A   1      33.362  23.235  23.155  1.00  0.00     0.238 S 
ATOM     25  O   UNL A   1      32.757  22.565  24.277  1.00  0.00    -0.207 OA
ATOM     26  O   UNL A   1      34.802  23.229  22.970  1.00  0.00    -0.207 OA
BRANCH  24  27
ATOM     27  N   UNL A   1      32.699  22.621  21.766  1.00  0.00    -0.225 NA
ATOM     28  H   UNL A   1      32.828  23.288  21.005  1.00  0.00     0.137 HD
ATOM     29  H   UNL A   1      31.702  22.457  21.909  1.00  0.00     0.137 HD
ENDBRANCH  24  27
ENDBRANCH  19  24
ENDBRANCH  14  18
BRANCH  16  30
ATOM     30  C   UNL A   1      28.132  30.645  21.787  1.00  0.00     0.435 C 
ATOM     31  F   UNL A   1      28.393  31.887  21.316  1.00  0.00    -0.164 F 
ATOM     32  F   UNL A   1      27.726  29.872  20.743  1.00  0.00    -0.164 F 
ATOM     33  F   UNL A   1      27.029  30.770  22.586  1.00  0.00    -0.164 F 
ENDBRANCH  16  30
ENDBRANCH   8  13
ENDBRANCH   6   7
ENDBRANCH   4   6
ENDBRANCH   3   4
ENDBRANCH   2   3
ENDBRANCH   1   2
BRANCH   1  34
ATOM     34  O   UNL A   1      35.790  33.082  32.675  1.00  0.00    -0.374 OA
BRANCH  34  35
ATOM     35  C   UNL A   1      35.758  31.690  32.381  1.00  0.00     0.202 C 
BRANCH  35  36
ATOM     36  C   UNL A   1      37.038  30.878  32.546  1.00  0.00     0.261 C 
BRANCH  36  37
ATOM     37  O   UNL A   1      37.709  30.577  31.307  1.00  0.00    -0.460 OA
BRANCH  37  38
ATOM     38  C   UNL A   1      37.135  29.581  30.572  1.00  0.00     0.338 C 
ATOM     39  O   UNL A   1      36.021  29.112  30.731  1.00  0.00    -0.246 OA
BRANCH  38  40
ATOM     40  C   UNL A   1      38.194  28.934  29.771  1.00  0.00     0.060 A 
ATOM     41  C   UNL A   1      38.879  27.895  30.406  1.00  0.00     0.016 A 
ATOM     42  C   UNL A   1      38.727  29.558  28.637  1.00  0.00     0.016 A 
ATOM     43  C   UNL A   1      40.193  27.639  30.043  1.00  0.00     0.010 A 
ATOM     44  C   UNL A   1      40.051  29.302  28.290  1.00  0.00     0.010 A 
ATOM     45  C   UNL A   1      40.816  28.418  29.061  1.00  0.00    -0.014 A 
BRANCH  45  46
ATOM     46  C   UNL A   1      42.183  28.071  28.660  1.00  0.00     0.031 A 
ATOM     47  C   UNL A   1      42.184  26.781  27.976  1.00  0.00     0.074 A 
ATOM     48  C   UNL A   1      43.355  28.710  28.854  1.00  0.00     0.049 A 
ATOM     49  N   UNL A   1      42.535  25.670  28.529  1.00  0.00    -0.248 NA
ATOM     50  C   UNL A   1      41.501  26.646  26.688  1.00  0.00     0.031 C 
ATOM     51  C   UNL A   1      43.581  29.952  29.551  1.00  0.00     0.029 A 
ATOM     52  N   UNL A   1      44.622  28.395  28.438  1.00  0.00    -0.354 N 
ATOM     53  C   UNL A   1      42.370  24.727  27.544  1.00  0.00     0.074 A 
ATOM     54  C   UNL A   1      41.497  25.318  26.565  1.00  0.00     0.031 C 
ATOM     55  C   UNL A   1      44.815  30.443  29.307  1.00  0.00     0.029 A 
ATOM     56  C   UNL A   1      45.542  29.441  28.554  1.00  0.00     0.049 A 
ATOM     57  H   UNL A   1      44.864  27.507  28.089  1.00  0.00     0.167 HD
ATOM     58  C   UNL A   1      43.236  23.687  27.467  1.00  0.00     0.034 A 
ATOM     59  C   UNL A   1      46.857  29.485  28.207  1.00  0.00     0.034 A 
ATOM     60  C   UNL A   1      43.920  23.468  28.730  1.00  0.00     0.049 A 
ATOM     61  C   UNL A   1      47.357  28.100  28.311  1.00  0.00     0.074 A 
ATOM     62  C   UNL A   1      43.491  23.273  30.033  1.00  0.00     0.029 A 
ATOM     63  N   UNL A   1      45.252  23.805  28.834  1.00  0.00    -0.354 N 
ATOM     64  N   UNL A   1      47.507  27.493  29.455  1.00  0.00    -0.248 NA
ATOM     65  C   UNL A   1      47.210  27.230  27.156  1.00  0.00     0.031 C 
ATOM     66  C   UNL A   1      44.442  23.943  30.856  1.00  0.00     0.029 A 
ATOM     67  C   UNL A   1      45.438  24.462  30.029  1.00  0.00     0.049 A 
ATOM     68  H   UNL A   1      45.951  23.610  28.168  1.00  0.00     0.167 HD
ATOM     69  C   UNL A   1      47.002  26.222  29.239  1.00  0.00     0.074 A 
ATOM     70  C   UNL A   1      46.940  26.083  27.785  1.00  0.00     0.031 C 
ATOM     71  C   UNL A   1      46.420  25.510  30.248  1.00  0.00     0.034 A 
BRANCH  58  72
ATOM     72  C   UNL A   1      43.713  23.151  26.144  1.00  0.00     0.023 A 
ATOM     73  C   UNL A   1      43.649  21.765  25.962  1.00  0.00     0.031 A 
ATOM     74  C   UNL A   1      44.449  23.872  25.170  1.00  0.00     0.131 A 
ATOM     75  C   UNL A   1      44.347  21.153  24.910  1.00  0.00     0.055 A 
ATOM     76  C   UNL A   1      45.069  23.267  24.078  1.00  0.00     0.041 A 
ATOM     77  F   UNL A   1      44.702  25.183  25.258  1.00  0.00    -0.206 F 
ATOM     78  C   UNL A   1      45.047  21.893  23.960  1.00  0.00     0.022 A 
BRANCH  75  79
ATOM     79  S   UNL A   1      44.472  19.352  24.919  1.00  0.00     0.124 S 
ATOM     80  O   UNL A   1      44.454  19.053  23.491  1.00  0.00    -0.237 OA
ATOM     81  O   UNL A   1      45.742  19.146  25.606  1.00  0.00    -0.237 OA
ATOM     82  O   UNL A   1      43.284  18.937  25.660  1.00  0.00    -0.744 OA
ENDBRANCH  75  79
ENDBRANCH  58  72
BRANCH  59  83
ATOM     83  C   UNL A   1      47.579  30.591  27.512  1.00  0.00     0.023 A 
ATOM     84  C   UNL A   1      46.926  31.713  26.946  1.00  0.00     0.031 A 
ATOM     85  C   UNL A   1      48.981  30.681  27.632  1.00  0.00     0.131 A 
ATOM     86  C   UNL A   1      47.670  32.849  26.533  1.00  0.00     0.055 A 
ATOM     87  C   UNL A   1      49.699  31.810  27.232  1.00  0.00     0.041 A 
ATOM     88  F   UNL A   1      49.693  29.714  28.232  1.00  0.00    -0.206 F 
ATOM     89  C   UNL A   1      49.053  32.897  26.679  1.00  0.00     0.022 A 
BRANCH  86  90
ATOM     90  S   UNL A   1      46.844  34.350  25.913  1.00  0.00     0.124 S 
ATOM     91  O   UNL A   1      45.613  33.818  25.342  1.00  0.00    -0.237 OA
ATOM     92  O   UNL A   1      46.707  35.153  27.123  1.00  0.00    -0.237 OA
ATOM     93  O   UNL A   1      47.793  34.886  24.934  1.00  0.00    -0.744 OA
ENDBRANCH  86  90
ENDBRANCH  59  83
BRANCH  71  94
ATOM     94  C   UNL A   1      46.642  25.973  31.680  1.00  0.00     0.023 A 
ATOM     95  C   UNL A   1      45.655  26.557  32.509  1.00  0.00     0.031 A 
ATOM     96  C   UNL A   1      47.897  25.703  32.255  1.00  0.00     0.131 A 
ATOM     97  C   UNL A   1      45.946  26.853  33.858  1.00  0.00     0.055 A 
ATOM     98  C   UNL A   1      48.181  25.991  33.590  1.00  0.00     0.041 A 
ATOM     99  F   UNL A   1      48.868  25.121  31.530  1.00  0.00    -0.206 F 
ATOM    100  C   UNL A   1      47.208  26.574  34.396  1.00  0.00     0.022 A 
BRANCH  97 101
ATOM    101  S   UNL A   1      44.691  27.620  34.939  1.00  0.00     0.124 S 
ATOM    102  O   UNL A   1      43.426  27.155  34.385  1.00  0.00    -0.237 OA
ATOM    103  O   UNL A   1      45.019  27.101  36.268  1.00  0.00    -0.237 OA
ATOM    104  O   UNL A   1      44.934  29.055  34.787  1.00  0.00    -0.744 OA
ENDBRANCH  97 101
ENDBRANCH  71  94
ENDBRANCH  45  46
ENDBRANCH  38  40
ENDBRANCH  37  38
ENDBRANCH  36  37
ENDBRANCH  35  36
ENDBRANCH  34  35
ENDBRANCH   1  34
TORSDOF 23
ENDMDL
MODEL 3
REMARK VINA RESULT:     -10.8      3.505      9.218
REMARK SMILES NS(=O)(=O)c1ccc(-n2nc(C(F)(F)F)cc2-c2ccc(CC(=O)OCCOCCOC(=O)c3ccc(-c4c5nc(c(-c6cc(S(=O)(=O)[O-])ccc6F)c6ccc([nH]6)c(-c6cc(S(=O)(=O)[O-])ccc6F)c6nc(c(-c7cc(S(=O)(=O)[O-])ccc7F)c7ccc4[nH]7)C=C6)C=C5)cc3)cc2)cc1
REMARK SMILES IDX 27 1 26 2 25 3 23 4 24 5 22 6 21 7 18 8 19 9 98 10 20 11
REMARK SMILES IDX 97 12 17 13 9 14 10 15 11 16 16 17 8 18 5 19 6 20 100 21
REMARK SMILES IDX 7 22 99 23 2 24 3 25 4 26 1 27 12 30 13 31 14 32 15 33 28 34
REMARK SMILES IDX 29 35 30 36 31 37 32 38 33 39 34 40 35 41 96 42 36 43 95 44
REMARK SMILES IDX 37 45 38 46 39 47 89 48 40 49 94 50 88 51 90 52 41 53 93 54
REMARK SMILES IDX 87 55 86 56 42 58 74 59 54 60 73 61 55 62 58 63 72 64 91 65
REMARK SMILES IDX 56 66 57 67 71 69 92 70 59 71 43 72 44 73 52 74 45 75 51 76
REMARK SMILES IDX 53 77 50 78 46 79 47 80 48 81 49 82 75 83 76 84 84 85 77 86
REMARK SMILES IDX 83 87 85 88 82 89 78 90 79 91 80 92 81 93 60 94 61 95 69 96
REMARK SMILES IDX 62 97 68 98 70 99 67 100 63 101 64 102 65 103 66 104
REMARK H PARENT 1 28 1 29 90 57 58 68
REMARK Flexibility Score: inf
ROOT
ATOM      1  C   UNL A   1      34.743  20.668  25.052  1.00  0.00     0.202 C 
ENDROOT
BRANCH   1   2
ATOM      2  C   UNL A   1      33.230  20.915  25.146  1.00  0.00     0.261 C 
BRANCH   2   3
ATOM      3  O   UNL A   1      32.522  20.986  23.897  1.00  0.00    -0.463 OA
BRANCH   3   4
ATOM      4  C   UNL A   1      32.384  22.240  23.393  1.00  0.00     0.310 C 
ATOM      5  O   UNL A   1      32.966  22.652  22.392  1.00  0.00    -0.252 OA
BRANCH   4   6
ATOM      6  C   UNL A   1      31.515  23.160  24.212  1.00  0.00     0.158 C 
BRANCH   6   7
ATOM      7  C   UNL A   1      32.110  24.390  24.852  1.00  0.00    -0.037 A 
ATOM      8  C   UNL A   1      33.038  26.861  25.842  1.00  0.00     0.000 A 
ATOM      9  C   UNL A   1      31.865  26.285  26.343  1.00  0.00     0.010 A 
ATOM     10  C   UNL A   1      33.751  26.185  24.844  1.00  0.00     0.010 A 
ATOM     11  C   UNL A   1      31.415  25.056  25.868  1.00  0.00     0.005 A 
ATOM     12  C   UNL A   1      33.293  24.957  24.357  1.00  0.00     0.005 A 
BRANCH   8  13
ATOM     13  C   UNL A   1      33.472  28.175  26.318  1.00  0.00     0.075 A 
ATOM     14  N   UNL A   1      33.008  29.422  25.874  1.00  0.00    -0.233 N 
ATOM     15  N   UNL A   1      33.872  30.412  26.229  1.00  0.00    -0.163 NA
ATOM     16  C   UNL A   1      34.706  29.844  27.123  1.00  0.00     0.167 A 
ATOM     17  C   UNL A   1      34.495  28.451  27.198  1.00  0.00     0.064 A 
BRANCH  14  18
ATOM     18  C   UNL A   1      31.803  29.701  25.156  1.00  0.00     0.065 A 
ATOM     19  C   UNL A   1      29.511  30.431  23.677  1.00  0.00     0.082 A 
ATOM     20  C   UNL A   1      29.953  31.203  24.742  1.00  0.00     0.024 A 
ATOM     21  C   UNL A   1      30.191  29.256  23.359  1.00  0.00     0.024 A 
ATOM     22  C   UNL A   1      31.085  30.854  25.471  1.00  0.00     0.030 A 
ATOM     23  C   UNL A   1      31.351  28.898  24.093  1.00  0.00     0.030 A 
BRANCH  19  24
ATOM     24  S   UNL A   1      28.270  31.191  22.657  1.00  0.00     0.238 S 
ATOM     25  O   UNL A   1      27.953  32.481  23.215  1.00  0.00    -0.207 OA
ATOM     26  O   UNL A   1      27.239  30.186  22.469  1.00  0.00    -0.207 OA
BRANCH  24  27
ATOM     27  N   UNL A   1      28.983  31.427  21.181  1.00  0.00    -0.225 NA
ATOM     28  H   UNL A   1      29.971  31.643  21.312  1.00  0.00     0.137 HD
ATOM     29  H   UNL A   1      28.526  32.204  20.702  1.00  0.00     0.137 HD
ENDBRANCH  24  27
ENDBRANCH  19  24
ENDBRANCH  14  18
BRANCH  16  30
ATOM     30  C   UNL A   1      35.777  30.559  27.892  1.00  0.00     0.435 C 
ATOM     31  F   UNL A   1      37.042  30.255  27.516  1.00  0.00    -0.164 F 
ATOM     32  F   UNL A   1      35.628  31.911  27.824  1.00  0.00    -0.164 F 
ATOM     33  F   UNL A   1      35.698  30.262  29.224  1.00  0.00    -0.164 F 
ENDBRANCH  16  30
ENDBRANCH   8  13
ENDBRANCH   6   7
ENDBRANCH   4   6
ENDBRANCH   3   4
ENDBRANCH   2   3
ENDBRANCH   1   2
BRANCH   1  34
ATOM     34  O   UNL A   1      35.606  21.472  25.841  1.00  0.00    -0.374 OA
BRANCH  34  35
ATOM     35  C   UNL A   1      36.594  22.232  25.155  1.00  0.00     0.202 C 
BRANCH  35  36
ATOM     36  C   UNL A   1      38.042  22.142  25.625  1.00  0.00     0.261 C 
BRANCH  36  37
ATOM     37  O   UNL A   1      38.514  23.319  26.307  1.00  0.00    -0.460 OA
BRANCH  37  38
ATOM     38  C   UNL A   1      39.839  23.300  26.632  1.00  0.00     0.338 C 
ATOM     39  O   UNL A   1      40.662  22.475  26.275  1.00  0.00    -0.246 OA
BRANCH  38  40
ATOM     40  C   UNL A   1      40.050  24.243  27.749  1.00  0.00     0.060 A 
ATOM     41  C   UNL A   1      39.032  25.179  27.948  1.00  0.00     0.016 A 
ATOM     42  C   UNL A   1      41.321  24.437  28.303  1.00  0.00     0.016 A 
ATOM     43  C   UNL A   1      39.351  26.409  28.503  1.00  0.00     0.010 A 
ATOM     44  C   UNL A   1      41.634  25.679  28.848  1.00  0.00     0.010 A 
ATOM     45  C   UNL A   1      40.676  26.701  28.851  1.00  0.00    -0.014 A 
BRANCH  45  46
ATOM     46  C   UNL A   1      40.960  27.986  29.497  1.00  0.00     0.031 A 
ATOM     47  C   UNL A   1      42.063  28.650  28.808  1.00  0.00     0.074 A 
ATOM     48  C   UNL A   1      40.414  28.576  30.579  1.00  0.00     0.049 A 
ATOM     49  N   UNL A   1      43.279  28.665  29.237  1.00  0.00    -0.248 NA
ATOM     50  C   UNL A   1      41.885  29.097  27.425  1.00  0.00     0.031 C 
ATOM     51  C   UNL A   1      39.367  28.067  31.431  1.00  0.00     0.029 A 
ATOM     52  N   UNL A   1      40.661  29.797  31.150  1.00  0.00    -0.354 N 
ATOM     53  C   UNL A   1      43.971  29.376  28.287  1.00  0.00     0.074 A 
ATOM     54  C   UNL A   1      43.151  29.370  27.105  1.00  0.00     0.031 C 
ATOM     55  C   UNL A   1      38.868  29.030  32.236  1.00  0.00     0.029 A 
ATOM     56  C   UNL A   1      39.694  30.209  32.070  1.00  0.00     0.049 A 
ATOM     57  H   UNL A   1      41.454  30.338  30.930  1.00  0.00     0.167 HD
ATOM     58  C   UNL A   1      44.991  30.183  28.671  1.00  0.00     0.034 A 
ATOM     59  C   UNL A   1      39.608  31.364  32.785  1.00  0.00     0.034 A 
ATOM     60  C   UNL A   1      45.507  29.806  29.975  1.00  0.00     0.049 A 
ATOM     61  C   UNL A   1      40.994  31.838  32.969  1.00  0.00     0.074 A 
ATOM     62  C   UNL A   1      45.978  28.620  30.515  1.00  0.00     0.029 A 
ATOM     63  N   UNL A   1      45.238  30.615  31.059  1.00  0.00    -0.354 N 
ATOM     64  N   UNL A   1      41.848  31.226  33.742  1.00  0.00    -0.248 NA
ATOM     65  C   UNL A   1      41.578  32.669  31.930  1.00  0.00     0.031 C 
ATOM     66  C   UNL A   1      45.537  28.611  31.870  1.00  0.00     0.029 A 
ATOM     67  C   UNL A   1      44.872  29.812  32.115  1.00  0.00     0.049 A 
ATOM     68  H   UNL A   1      45.297  31.597  31.074  1.00  0.00     0.167 HD
ATOM     69  C   UNL A   1      43.023  31.207  33.011  1.00  0.00     0.074 A 
ATOM     70  C   UNL A   1      42.829  32.204  31.959  1.00  0.00     0.031 C 
ATOM     71  C   UNL A   1      43.928  30.194  33.151  1.00  0.00     0.034 A 
BRANCH  58  72
ATOM     72  C   UNL A   1      45.227  31.521  28.024  1.00  0.00     0.023 A 
ATOM     73  C   UNL A   1      46.529  31.793  27.589  1.00  0.00     0.031 A 
ATOM     74  C   UNL A   1      44.335  32.624  28.038  1.00  0.00     0.131 A 
ATOM     75  C   UNL A   1      46.913  33.104  27.268  1.00  0.00     0.055 A 
ATOM     76  C   UNL A   1      44.699  33.906  27.635  1.00  0.00     0.041 A 
ATOM     77  F   UNL A   1      43.092  32.560  28.531  1.00  0.00    -0.206 F 
ATOM     78  C   UNL A   1      46.006  34.161  27.275  1.00  0.00     0.022 A 
BRANCH  75  79
ATOM     79  S   UNL A   1      48.671  33.428  27.016  1.00  0.00     0.124 S 
ATOM     80  O   UNL A   1      48.736  34.868  27.244  1.00  0.00    -0.237 OA
ATOM     81  O   UNL A   1      49.277  32.584  28.039  1.00  0.00    -0.237 OA
ATOM     82  O   UNL A   1      48.896  33.002  25.637  1.00  0.00    -0.744 OA
ENDBRANCH  75  79
ENDBRANCH  58  72
BRANCH  59  83
ATOM     83  C   UNL A   1      38.394  32.197  33.027  1.00  0.00     0.023 A 
ATOM     84  C   UNL A   1      37.541  32.651  31.991  1.00  0.00     0.031 A 
ATOM     85  C   UNL A   1      37.907  32.340  34.343  1.00  0.00     0.131 A 
ATOM     86  C   UNL A   1      36.273  33.211  32.294  1.00  0.00     0.055 A 
ATOM     87  C   UNL A   1      36.652  32.883  34.625  1.00  0.00     0.041 A 
ATOM     88  F   UNL A   1      38.593  31.866  35.395  1.00  0.00    -0.206 F 
ATOM     89  C   UNL A   1      35.830  33.324  33.608  1.00  0.00     0.022 A 
BRANCH  86  90
ATOM     90  S   UNL A   1      35.109  33.691  30.977  1.00  0.00     0.124 S 
ATOM     91  O   UNL A   1      34.362  32.458  30.754  1.00  0.00    -0.237 OA
ATOM     92  O   UNL A   1      34.377  34.792  31.593  1.00  0.00    -0.237 OA
ATOM     93  O   UNL A   1      35.983  34.086  29.870  1.00  0.00    -0.744 OA
ENDBRANCH  86  90
ENDBRANCH  59  83
BRANCH  71  94
ATOM     94  C   UNL A   1      43.805  29.279  34.359  1.00  0.00     0.023 A 
ATOM     95  C   UNL A   1      43.181  28.008  34.358  1.00  0.00     0.031 A 
ATOM     96  C   UNL A   1      44.455  29.682  35.540  1.00  0.00     0.131 A 
ATOM     97  C   UNL A   1      43.217  27.199  35.514  1.00  0.00     0.055 A 
ATOM     98  C   UNL A   1      44.495  28.878  36.679  1.00  0.00     0.041 A 
ATOM     99  F   UNL A   1      45.094  30.863  35.596  1.00  0.00    -0.206 F 
ATOM    100  C   UNL A   1      43.870  27.635  36.673  1.00  0.00     0.022 A 
BRANCH  97 101
ATOM    101  S   UNL A   1      42.405  25.565  35.537  1.00  0.00     0.124 S 
ATOM    102  O   UNL A   1      41.001  25.873  35.300  1.00  0.00    -0.237 OA
ATOM    103  O   UNL A   1      43.074  24.833  34.460  1.00  0.00    -0.237 OA
ATOM    104  O   UNL A   1      42.700  25.050  36.874  1.00  0.00    -0.744 OA
ENDBRANCH  97 101
ENDBRANCH  71  94
ENDBRANCH  45  46
ENDBRANCH  38  40
ENDBRANCH  37  38
ENDBRANCH  36  37
ENDBRANCH  35  36
ENDBRANCH  34  35
ENDBRANCH   1  34
TORSDOF 23
ENDMDL
