MODEL 1
REMARK VINA RESULT:     -10.4      0.000      0.000
REMARK SMILES CCN(C[C@H](C)C(=O)OCCOCCOC(=O)c1ccc(-c2c3nc(c(-c4cc(S(=O)(=O)[O-])ccc4F)c4ccc([nH]4)c(-c4cc(S(=O)(=O)[O-])ccc4F)c4nc(c(-c5cc(S(=O)(=O)[O-])ccc5F)c5ccc2[nH]5)C=C4)C=C3)cc1)c1ccc(C(=O)NC)nn1
REMARK SMILES IDX 11 1 10 2 9 3 7 4 8 5 5 6 6 7 4 8 3 9 2 10 1 11 81 12 82 13
REMARK SMILES IDX 90 14 83 15 89 16 84 17 85 18 86 19 87 20 88 21 12 23 13 24
REMARK SMILES IDX 14 25 15 26 16 27 17 28 18 29 19 30 80 31 20 32 79 33 21 34
REMARK SMILES IDX 22 35 23 36 73 37 24 38 78 39 72 40 74 41 25 42 77 43 71 44
REMARK SMILES IDX 70 45 26 47 58 48 38 49 57 50 39 51 42 52 56 53 75 54 40 55
REMARK SMILES IDX 41 56 55 58 76 59 43 60 27 61 28 62 36 63 29 64 35 65 37 66
REMARK SMILES IDX 34 67 30 68 31 69 32 70 33 71 59 72 60 73 68 74 61 75 67 76
REMARK SMILES IDX 69 77 66 78 62 79 63 80 64 81 65 82 44 83 45 84 53 85 46 86
REMARK SMILES IDX 52 87 54 88 51 89 47 90 48 91 49 92 50 93
REMARK H PARENT 87 22 74 46 42 57
REMARK Flexibility Score: inf
ROOT
ATOM      1  C   UNL A   1      34.649  22.565  26.471  1.00  0.00     0.202 C 
ENDROOT
BRANCH   1   2
ATOM      2  C   UNL A   1      33.236  22.276  26.987  1.00  0.00     0.261 C 
BRANCH   2   3
ATOM      3  O   UNL A   1      32.226  22.607  26.022  1.00  0.00    -0.463 OA
BRANCH   3   4
ATOM      4  C   UNL A   1      31.627  23.814  26.198  1.00  0.00     0.310 C 
ATOM      5  O   UNL A   1      31.336  24.296  27.288  1.00  0.00    -0.252 OA
BRANCH   4   6
ATOM      6  C   UNL A   1      31.378  24.555  24.897  1.00  0.00     0.115 C 
ATOM      7  C   UNL A   1      30.824  23.709  23.749  1.00  0.00     0.022 C 
BRANCH   6   8
ATOM      8  C   UNL A   1      30.454  25.738  25.220  1.00  0.00     0.133 C 
BRANCH   8   9
ATOM      9  N   UNL A   1      30.840  26.947  24.492  1.00  0.00    -0.355 N 
BRANCH   9  10
ATOM     10  C   UNL A   1      30.431  27.158  23.116  1.00  0.00     0.115 C 
ATOM     11  C   UNL A   1      29.330  28.203  23.015  1.00  0.00     0.027 C 
ENDBRANCH   9  10
BRANCH   9  12
ATOM     12  C   UNL A   1      31.433  27.964  25.212  1.00  0.00     0.151 A 
ATOM     13  C   UNL A   1      31.387  27.980  26.601  1.00  0.00     0.051 A 
ATOM     14  N   UNL A   1      32.150  28.906  24.569  1.00  0.00    -0.132 NA
ATOM     15  C   UNL A   1      32.108  28.937  27.322  1.00  0.00     0.040 A 
ATOM     16  N   UNL A   1      32.869  29.863  25.272  1.00  0.00    -0.143 NA
ATOM     17  C   UNL A   1      32.845  29.875  26.622  1.00  0.00     0.150 A 
BRANCH  17  18
ATOM     18  C   UNL A   1      33.747  30.876  27.265  1.00  0.00     0.271 C 
ATOM     19  O   UNL A   1      33.314  31.986  27.578  1.00  0.00    -0.267 OA
ATOM     20  N   UNL A   1      35.075  30.631  27.534  1.00  0.00    -0.354 N 
ATOM     21  C   UNL A   1      35.863  29.424  27.485  1.00  0.00     0.143 C 
ATOM     22  H   UNL A   1      35.580  31.429  27.811  1.00  0.00     0.163 HD
ENDBRANCH  17  18
ENDBRANCH   9  12
ENDBRANCH   8   9
ENDBRANCH   6   8
ENDBRANCH   4   6
ENDBRANCH   3   4
ENDBRANCH   2   3
ENDBRANCH   1   2
BRANCH   1  23
ATOM     23  O   UNL A   1      35.015  21.986  25.221  1.00  0.00    -0.374 OA
BRANCH  23  24
ATOM     24  C   UNL A   1      35.411  20.614  25.206  1.00  0.00     0.202 C 
BRANCH  24  25
ATOM     25  C   UNL A   1      36.880  20.303  24.883  1.00  0.00     0.261 C 
BRANCH  25  26
ATOM     26  O   UNL A   1      37.758  21.416  25.141  1.00  0.00    -0.460 OA
BRANCH  26  27
ATOM     27  C   UNL A   1      38.877  21.106  25.841  1.00  0.00     0.338 C 
ATOM     28  O   UNL A   1      39.470  20.032  25.839  1.00  0.00    -0.246 OA
BRANCH  27  29
ATOM     29  C   UNL A   1      39.431  22.306  26.490  1.00  0.00     0.060 A 
ATOM     30  C   UNL A   1      38.917  23.550  26.104  1.00  0.00     0.016 A 
ATOM     31  C   UNL A   1      40.504  22.228  27.382  1.00  0.00     0.016 A 
ATOM     32  C   UNL A   1      39.501  24.725  26.575  1.00  0.00     0.010 A 
ATOM     33  C   UNL A   1      41.094  23.410  27.845  1.00  0.00     0.010 A 
ATOM     34  C   UNL A   1      40.617  24.664  27.419  1.00  0.00    -0.014 A 
BRANCH  34  35
ATOM     35  C   UNL A   1      41.363  25.908  27.733  1.00  0.00     0.031 A 
ATOM     36  C   UNL A   1      40.687  26.983  28.541  1.00  0.00     0.074 A 
ATOM     37  C   UNL A   1      42.641  26.061  27.340  1.00  0.00     0.049 A 
ATOM     38  N   UNL A   1      41.136  28.157  28.905  1.00  0.00    -0.248 NA
ATOM     39  C   UNL A   1      39.319  26.693  28.993  1.00  0.00     0.031 C 
ATOM     40  C   UNL A   1      43.418  25.067  26.600  1.00  0.00     0.029 A 
ATOM     41  N   UNL A   1      43.508  27.110  27.508  1.00  0.00    -0.354 N 
ATOM     42  C   UNL A   1      40.106  28.749  29.630  1.00  0.00     0.074 A 
ATOM     43  C   UNL A   1      38.998  27.816  29.618  1.00  0.00     0.031 C 
ATOM     44  C   UNL A   1      44.646  25.561  26.367  1.00  0.00     0.029 A 
ATOM     45  C   UNL A   1      44.730  26.918  26.907  1.00  0.00     0.049 A 
ATOM     46  H   UNL A   1      43.279  27.924  28.011  1.00  0.00     0.167 HD
ATOM     47  C   UNL A   1      40.091  29.953  30.253  1.00  0.00     0.034 A 
ATOM     48  C   UNL A   1      45.785  27.749  26.782  1.00  0.00     0.034 A 
ATOM     49  C   UNL A   1      41.200  30.876  30.244  1.00  0.00     0.049 A 
ATOM     50  C   UNL A   1      45.712  29.123  27.404  1.00  0.00     0.074 A 
ATOM     51  C   UNL A   1      41.297  32.114  30.855  1.00  0.00     0.029 A 
ATOM     52  N   UNL A   1      42.402  30.671  29.577  1.00  0.00    -0.354 N 
ATOM     53  N   UNL A   1      44.735  29.670  28.091  1.00  0.00    -0.248 NA
ATOM     54  C   UNL A   1      46.886  29.989  27.238  1.00  0.00     0.031 C 
ATOM     55  C   UNL A   1      42.524  32.687  30.497  1.00  0.00     0.029 A 
ATOM     56  C   UNL A   1      43.229  31.774  29.730  1.00  0.00     0.049 A 
ATOM     57  H   UNL A   1      42.633  29.859  29.069  1.00  0.00     0.167 HD
ATOM     58  C   UNL A   1      45.191  30.932  28.463  1.00  0.00     0.074 A 
ATOM     59  C   UNL A   1      46.533  31.059  27.934  1.00  0.00     0.031 C 
ATOM     60  C   UNL A   1      44.560  31.897  29.181  1.00  0.00     0.034 A 
BRANCH  47  61
ATOM     61  C   UNL A   1      38.810  30.359  30.944  1.00  0.00     0.023 A 
ATOM     62  C   UNL A   1      37.887  31.233  30.345  1.00  0.00     0.031 A 
ATOM     63  C   UNL A   1      38.524  29.887  32.238  1.00  0.00     0.131 A 
ATOM     64  C   UNL A   1      36.761  31.663  31.064  1.00  0.00     0.055 A 
ATOM     65  C   UNL A   1      37.362  30.256  32.917  1.00  0.00     0.041 A 
ATOM     66  F   UNL A   1      39.379  29.067  32.870  1.00  0.00    -0.206 F 
ATOM     67  C   UNL A   1      36.480  31.162  32.336  1.00  0.00     0.022 A 
BRANCH  64  68
ATOM     68  S   UNL A   1      35.744  32.995  30.370  1.00  0.00     0.124 S 
ATOM     69  O   UNL A   1      36.212  34.151  31.132  1.00  0.00    -0.237 OA
ATOM     70  O   UNL A   1      36.110  32.969  28.959  1.00  0.00    -0.237 OA
ATOM     71  O   UNL A   1      34.377  32.574  30.668  1.00  0.00    -0.744 OA
ENDBRANCH  64  68
ENDBRANCH  47  61
BRANCH  48  72
ATOM     72  C   UNL A   1      46.982  27.333  25.997  1.00  0.00     0.023 A 
ATOM     73  C   UNL A   1      47.153  27.724  24.661  1.00  0.00     0.031 A 
ATOM     74  C   UNL A   1      47.954  26.490  26.567  1.00  0.00     0.131 A 
ATOM     75  C   UNL A   1      48.247  27.242  23.925  1.00  0.00     0.055 A 
ATOM     76  C   UNL A   1      49.068  26.055  25.847  1.00  0.00     0.041 A 
ATOM     77  F   UNL A   1      47.839  26.084  27.841  1.00  0.00    -0.206 F 
ATOM     78  C   UNL A   1      49.212  26.421  24.514  1.00  0.00     0.022 A 
BRANCH  75  79
ATOM     79  S   UNL A   1      48.354  27.643  22.159  1.00  0.00     0.124 S 
ATOM     80  O   UNL A   1      48.530  26.323  21.566  1.00  0.00    -0.237 OA
ATOM     81  O   UNL A   1      47.068  28.289  21.919  1.00  0.00    -0.237 OA
ATOM     82  O   UNL A   1      49.515  28.525  22.080  1.00  0.00    -0.744 OA
ENDBRANCH  75  79
ENDBRANCH  48  72
BRANCH  60  83
ATOM     83  C   UNL A   1      45.338  33.159  29.469  1.00  0.00     0.023 A 
ATOM     84  C   UNL A   1      46.100  33.309  30.641  1.00  0.00     0.031 A 
ATOM     85  C   UNL A   1      45.306  34.232  28.560  1.00  0.00     0.131 A 
ATOM     86  C   UNL A   1      46.753  34.525  30.900  1.00  0.00     0.055 A 
ATOM     87  C   UNL A   1      46.006  35.417  28.795  1.00  0.00     0.041 A 
ATOM     88  F   UNL A   1      44.592  34.146  27.426  1.00  0.00    -0.206 F 
ATOM     89  C   UNL A   1      46.725  35.573  29.976  1.00  0.00     0.022 A 
BRANCH  86  90
ATOM     90  S   UNL A   1      47.566  34.753  32.505  1.00  0.00     0.124 S 
ATOM     91  O   UNL A   1      46.808  33.845  33.361  1.00  0.00    -0.237 OA
ATOM     92  O   UNL A   1      48.941  34.359  32.218  1.00  0.00    -0.237 OA
ATOM     93  O   UNL A   1      47.375  36.175  32.788  1.00  0.00    -0.744 OA
ENDBRANCH  86  90
ENDBRANCH  60  83
ENDBRANCH  34  35
ENDBRANCH  27  29
ENDBRANCH  26  27
ENDBRANCH  25  26
ENDBRANCH  24  25
ENDBRANCH  23  24
ENDBRANCH   1  23
TORSDOF 22
ENDMDL
MODEL 2
REMARK VINA RESULT:     -10.3      4.883     10.486
REMARK SMILES CCN(C[C@H](C)C(=O)OCCOCCOC(=O)c1ccc(-c2c3nc(c(-c4cc(S(=O)(=O)[O-])ccc4F)c4ccc([nH]4)c(-c4cc(S(=O)(=O)[O-])ccc4F)c4nc(c(-c5cc(S(=O)(=O)[O-])ccc5F)c5ccc2[nH]5)C=C4)C=C3)cc1)c1ccc(C(=O)NC)nn1
REMARK SMILES IDX 11 1 10 2 9 3 7 4 8 5 5 6 6 7 4 8 3 9 2 10 1 11 81 12 82 13
REMARK SMILES IDX 90 14 83 15 89 16 84 17 85 18 86 19 87 20 88 21 12 23 13 24
REMARK SMILES IDX 14 25 15 26 16 27 17 28 18 29 19 30 80 31 20 32 79 33 21 34
REMARK SMILES IDX 22 35 23 36 73 37 24 38 78 39 72 40 74 41 25 42 77 43 71 44
REMARK SMILES IDX 70 45 26 47 58 48 38 49 57 50 39 51 42 52 56 53 75 54 40 55
REMARK SMILES IDX 41 56 55 58 76 59 43 60 27 61 28 62 36 63 29 64 35 65 37 66
REMARK SMILES IDX 34 67 30 68 31 69 32 70 33 71 59 72 60 73 68 74 61 75 67 76
REMARK SMILES IDX 69 77 66 78 62 79 63 80 64 81 65 82 44 83 45 84 53 85 46 86
REMARK SMILES IDX 52 87 54 88 51 89 47 90 48 91 49 92 50 93
REMARK H PARENT 87 22 74 46 42 57
REMARK Flexibility Score: inf
ROOT
ATOM      1  C   UNL A   1      31.286  27.846  22.812  1.00  0.00     0.202 C 
ENDROOT
BRANCH   1   2
ATOM      2  C   UNL A   1      31.269  26.318  22.924  1.00  0.00     0.261 C 
BRANCH   2   3
ATOM      3  O   UNL A   1      32.393  25.814  23.662  1.00  0.00    -0.463 OA
BRANCH   3   4
ATOM      4  C   UNL A   1      33.033  24.757  23.098  1.00  0.00     0.310 C 
ATOM      5  O   UNL A   1      33.145  24.573  21.891  1.00  0.00    -0.252 OA
BRANCH   4   6
ATOM      6  C   UNL A   1      33.650  23.816  24.117  1.00  0.00     0.115 C 
ATOM      7  C   UNL A   1      34.788  24.403  24.955  1.00  0.00     0.022 C 
BRANCH   6   8
ATOM      8  C   UNL A   1      32.508  23.298  25.003  1.00  0.00     0.133 C 
BRANCH   8   9
ATOM      9  N   UNL A   1      32.929  22.166  25.829  1.00  0.00    -0.355 N 
BRANCH   9  10
ATOM     10  C   UNL A   1      32.921  22.248  27.278  1.00  0.00     0.115 C 
ATOM     11  C   UNL A   1      34.305  22.568  27.825  1.00  0.00     0.027 C 
ENDBRANCH   9  10
BRANCH   9  12
ATOM     12  C   UNL A   1      33.144  20.958  25.196  1.00  0.00     0.151 A 
ATOM     13  C   UNL A   1      34.412  20.392  25.147  1.00  0.00     0.051 A 
ATOM     14  N   UNL A   1      32.099  20.268  24.701  1.00  0.00    -0.132 NA
ATOM     15  C   UNL A   1      34.593  19.106  24.627  1.00  0.00     0.040 A 
ATOM     16  N   UNL A   1      32.264  18.993  24.179  1.00  0.00    -0.143 NA
ATOM     17  C   UNL A   1      33.490  18.426  24.145  1.00  0.00     0.150 A 
BRANCH  17  18
ATOM     18  C   UNL A   1      33.523  17.011  23.671  1.00  0.00     0.271 C 
ATOM     19  O   UNL A   1      34.027  16.737  22.581  1.00  0.00    -0.267 OA
ATOM     20  N   UNL A   1      33.004  15.961  24.395  1.00  0.00    -0.354 N 
ATOM     21  C   UNL A   1      32.520  15.869  25.751  1.00  0.00     0.143 C 
ATOM     22  H   UNL A   1      32.954  15.116  23.893  1.00  0.00     0.163 HD
ENDBRANCH  17  18
ENDBRANCH   9  12
ENDBRANCH   8   9
ENDBRANCH   6   8
ENDBRANCH   4   6
ENDBRANCH   3   4
ENDBRANCH   2   3
ENDBRANCH   1   2
BRANCH   1  23
ATOM     23  O   UNL A   1      30.957  28.587  23.984  1.00  0.00    -0.374 OA
BRANCH  23  24
ATOM     24  C   UNL A   1      32.009  29.279  24.659  1.00  0.00     0.202 C 
BRANCH  24  25
ATOM     25  C   UNL A   1      31.609  30.349  25.684  1.00  0.00     0.261 C 
BRANCH  25  26
ATOM     26  O   UNL A   1      32.384  30.279  26.898  1.00  0.00    -0.460 OA
BRANCH  26  27
ATOM     27  C   UNL A   1      33.049  31.417  27.214  1.00  0.00     0.338 C 
ATOM     28  O   UNL A   1      32.585  32.552  27.250  1.00  0.00    -0.246 OA
BRANCH  27  29
ATOM     29  C   UNL A   1      34.401  31.107  27.708  1.00  0.00     0.060 A 
ATOM     30  C   UNL A   1      34.703  29.766  27.976  1.00  0.00     0.016 A 
ATOM     31  C   UNL A   1      35.322  32.114  28.003  1.00  0.00     0.016 A 
ATOM     32  C   UNL A   1      35.913  29.428  28.580  1.00  0.00     0.010 A 
ATOM     33  C   UNL A   1      36.532  31.774  28.619  1.00  0.00     0.010 A 
ATOM     34  C   UNL A   1      36.820  30.433  28.940  1.00  0.00    -0.014 A 
BRANCH  34  35
ATOM     35  C   UNL A   1      37.996  30.088  29.779  1.00  0.00     0.031 A 
ATOM     36  C   UNL A   1      39.025  29.132  29.239  1.00  0.00     0.074 A 
ATOM     37  C   UNL A   1      38.166  30.651  30.989  1.00  0.00     0.049 A 
ATOM     38  N   UNL A   1      40.110  28.669  29.805  1.00  0.00    -0.248 NA
ATOM     39  C   UNL A   1      38.794  28.630  27.876  1.00  0.00     0.031 C 
ATOM     40  C   UNL A   1      37.265  31.630  31.595  1.00  0.00     0.029 A 
ATOM     41  N   UNL A   1      39.155  30.478  31.924  1.00  0.00    -0.354 N 
ATOM     42  C   UNL A   1      40.693  27.820  28.870  1.00  0.00     0.074 A 
ATOM     43  C   UNL A   1      39.819  27.805  27.716  1.00  0.00     0.031 C 
ATOM     44  C   UNL A   1      37.739  31.964  32.809  1.00  0.00     0.029 A 
ATOM     45  C   UNL A   1      38.952  31.195  33.081  1.00  0.00     0.049 A 
ATOM     46  H   UNL A   1      39.937  29.897  31.782  1.00  0.00     0.167 HD
ATOM     47  C   UNL A   1      41.854  27.124  28.964  1.00  0.00     0.034 A 
ATOM     48  C   UNL A   1      39.648  31.208  34.235  1.00  0.00     0.034 A 
ATOM     49  C   UNL A   1      42.707  27.140  30.127  1.00  0.00     0.049 A 
ATOM     50  C   UNL A   1      40.888  30.353  34.353  1.00  0.00     0.074 A 
ATOM     51  C   UNL A   1      43.912  26.486  30.322  1.00  0.00     0.029 A 
ATOM     52  N   UNL A   1      42.441  27.833  31.302  1.00  0.00    -0.354 N 
ATOM     53  N   UNL A   1      41.433  29.558  33.460  1.00  0.00    -0.248 NA
ATOM     54  C   UNL A   1      41.609  30.403  35.631  1.00  0.00     0.031 C 
ATOM     55  C   UNL A   1      44.334  26.723  31.636  1.00  0.00     0.029 A 
ATOM     56  C   UNL A   1      43.437  27.591  32.237  1.00  0.00     0.049 A 
ATOM     57  H   UNL A   1      41.658  28.412  31.449  1.00  0.00     0.167 HD
ATOM     58  C   UNL A   1      42.576  29.037  34.062  1.00  0.00     0.074 A 
ATOM     59  C   UNL A   1      42.647  29.618  35.387  1.00  0.00     0.031 C 
ATOM     60  C   UNL A   1      43.487  28.162  33.564  1.00  0.00     0.034 A 
BRANCH  47  61
ATOM     61  C   UNL A   1      42.230  26.244  27.795  1.00  0.00     0.023 A 
ATOM     62  C   UNL A   1      41.889  24.881  27.751  1.00  0.00     0.031 A 
ATOM     63  C   UNL A   1      42.969  26.772  26.721  1.00  0.00     0.131 A 
ATOM     64  C   UNL A   1      42.346  24.078  26.694  1.00  0.00     0.055 A 
ATOM     65  C   UNL A   1      43.354  25.985  25.634  1.00  0.00     0.041 A 
ATOM     66  F   UNL A   1      43.343  28.061  26.718  1.00  0.00    -0.206 F 
ATOM     67  C   UNL A   1      43.055  24.626  25.624  1.00  0.00     0.022 A 
BRANCH  64  68
ATOM     68  S   UNL A   1      42.124  22.282  26.810  1.00  0.00     0.124 S 
ATOM     69  O   UNL A   1      42.135  22.075  28.256  1.00  0.00    -0.237 OA
ATOM     70  O   UNL A   1      40.842  22.079  26.144  1.00  0.00    -0.237 OA
ATOM     71  O   UNL A   1      43.286  21.746  26.102  1.00  0.00    -0.744 OA
ENDBRANCH  64  68
ENDBRANCH  47  61
BRANCH  48  72
ATOM     72  C   UNL A   1      39.171  32.016  35.393  1.00  0.00     0.023 A 
ATOM     73  C   UNL A   1      38.517  31.418  36.482  1.00  0.00     0.031 A 
ATOM     74  C   UNL A   1      39.319  33.415  35.401  1.00  0.00     0.131 A 
ATOM     75  C   UNL A   1      38.002  32.218  37.514  1.00  0.00     0.055 A 
ATOM     76  C   UNL A   1      38.850  34.202  36.453  1.00  0.00     0.041 A 
ATOM     77  F   UNL A   1      39.934  34.038  34.383  1.00  0.00    -0.206 F 
ATOM     78  C   UNL A   1      38.176  33.605  37.513  1.00  0.00     0.022 A 
BRANCH  75  79
ATOM     79  S   UNL A   1      37.031  31.429  38.826  1.00  0.00     0.124 S 
ATOM     80  O   UNL A   1      36.870  30.077  38.305  1.00  0.00    -0.237 OA
ATOM     81  O   UNL A   1      37.911  31.572  39.981  1.00  0.00    -0.237 OA
ATOM     82  O   UNL A   1      35.810  32.230  38.874  1.00  0.00    -0.744 OA
ENDBRANCH  75  79
ENDBRANCH  48  72
BRANCH  60  83
ATOM     83  C   UNL A   1      44.662  27.816  34.447  1.00  0.00     0.023 A 
ATOM     84  C   UNL A   1      44.617  26.742  35.353  1.00  0.00     0.031 A 
ATOM     85  C   UNL A   1      45.840  28.581  34.387  1.00  0.00     0.131 A 
ATOM     86  C   UNL A   1      45.708  26.498  36.203  1.00  0.00     0.055 A 
ATOM     87  C   UNL A   1      46.945  28.296  35.193  1.00  0.00     0.041 A 
ATOM     88  F   UNL A   1      45.939  29.621  33.543  1.00  0.00    -0.206 F 
ATOM     89  C   UNL A   1      46.878  27.257  36.115  1.00  0.00     0.022 A 
BRANCH  86  90
ATOM     90  S   UNL A   1      45.544  25.230  37.489  1.00  0.00     0.124 S 
ATOM     91  O   UNL A   1      46.194  25.868  38.629  1.00  0.00    -0.237 OA
ATOM     92  O   UNL A   1      44.097  25.069  37.587  1.00  0.00    -0.237 OA
ATOM     93  O   UNL A   1      46.258  24.082  36.932  1.00  0.00    -0.744 OA
ENDBRANCH  86  90
ENDBRANCH  60  83
ENDBRANCH  34  35
ENDBRANCH  27  29
ENDBRANCH  26  27
ENDBRANCH  25  26
ENDBRANCH  24  25
ENDBRANCH  23  24
ENDBRANCH   1  23
TORSDOF 22
ENDMDL
MODEL 3
REMARK VINA RESULT:     -10.2      2.589      8.778
REMARK SMILES CCN(C[C@H](C)C(=O)OCCOCCOC(=O)c1ccc(-c2c3nc(c(-c4cc(S(=O)(=O)[O-])ccc4F)c4ccc([nH]4)c(-c4cc(S(=O)(=O)[O-])ccc4F)c4nc(c(-c5cc(S(=O)(=O)[O-])ccc5F)c5ccc2[nH]5)C=C4)C=C3)cc1)c1ccc(C(=O)NC)nn1
REMARK SMILES IDX 11 1 10 2 9 3 7 4 8 5 5 6 6 7 4 8 3 9 2 10 1 11 81 12 82 13
REMARK SMILES IDX 90 14 83 15 89 16 84 17 85 18 86 19 87 20 88 21 12 23 13 24
REMARK SMILES IDX 14 25 15 26 16 27 17 28 18 29 19 30 80 31 20 32 79 33 21 34
REMARK SMILES IDX 22 35 23 36 73 37 24 38 78 39 72 40 74 41 25 42 77 43 71 44
REMARK SMILES IDX 70 45 26 47 58 48 38 49 57 50 39 51 42 52 56 53 75 54 40 55
REMARK SMILES IDX 41 56 55 58 76 59 43 60 27 61 28 62 36 63 29 64 35 65 37 66
REMARK SMILES IDX 34 67 30 68 31 69 32 70 33 71 59 72 60 73 68 74 61 75 67 76
REMARK SMILES IDX 69 77 66 78 62 79 63 80 64 81 65 82 44 83 45 84 53 85 46 86
REMARK SMILES IDX 52 87 54 88 51 89 47 90 48 91 49 92 50 93
REMARK H PARENT 87 22 74 46 42 57
REMARK Flexibility Score: inf
ROOT
ATOM      1  C   UNL A   1      36.796  22.093  25.322  1.00  0.00     0.202 C 
ENDROOT
BRANCH   1   2
ATOM      2  C   UNL A   1      36.476  23.439  24.665  1.00  0.00     0.261 C 
BRANCH   2   3
ATOM      3  O   UNL A   1      35.064  23.699  24.617  1.00  0.00    -0.463 OA
BRANCH   3   4
ATOM      4  C   UNL A   1      34.471  23.470  23.416  1.00  0.00     0.310 C 
ATOM      5  O   UNL A   1      35.071  23.176  22.388  1.00  0.00    -0.252 OA
BRANCH   4   6
ATOM      6  C   UNL A   1      32.957  23.572  23.466  1.00  0.00     0.115 C 
ATOM      7  C   UNL A   1      32.319  24.466  22.400  1.00  0.00     0.022 C 
BRANCH   6   8
ATOM      8  C   UNL A   1      32.405  22.141  23.404  1.00  0.00     0.133 C 
BRANCH   8   9
ATOM      9  N   UNL A   1      32.389  21.504  24.721  1.00  0.00    -0.355 N 
BRANCH   9  10
ATOM     10  C   UNL A   1      32.124  22.273  25.924  1.00  0.00     0.115 C 
ATOM     11  C   UNL A   1      30.650  22.626  26.046  1.00  0.00     0.027 C 
ENDBRANCH   9  10
BRANCH   9  12
ATOM     12  C   UNL A   1      32.437  20.126  24.766  1.00  0.00     0.151 A 
ATOM     13  C   UNL A   1      32.584  19.377  23.605  1.00  0.00     0.051 A 
ATOM     14  N   UNL A   1      32.438  19.496  25.956  1.00  0.00    -0.132 NA
ATOM     15  C   UNL A   1      32.770  17.993  23.674  1.00  0.00     0.040 A 
ATOM     16  N   UNL A   1      32.620  18.123  26.041  1.00  0.00    -0.143 NA
ATOM     17  C   UNL A   1      32.783  17.389  24.918  1.00  0.00     0.150 A 
BRANCH  17  18
ATOM     18  C   UNL A   1      33.085  15.944  25.142  1.00  0.00     0.271 C 
ATOM     19  O   UNL A   1      32.183  15.108  25.080  1.00  0.00    -0.267 OA
ATOM     20  N   UNL A   1      34.347  15.474  25.428  1.00  0.00    -0.354 N 
ATOM     21  C   UNL A   1      35.644  16.106  25.397  1.00  0.00     0.143 C 
ATOM     22  H   UNL A   1      34.368  14.530  25.705  1.00  0.00     0.163 HD
ENDBRANCH  17  18
ENDBRANCH   9  12
ENDBRANCH   8   9
ENDBRANCH   6   8
ENDBRANCH   4   6
ENDBRANCH   3   4
ENDBRANCH   2   3
ENDBRANCH   1   2
BRANCH   1  23
ATOM     23  O   UNL A   1      37.893  21.355  24.790  1.00  0.00    -0.374 OA
BRANCH  23  24
ATOM     24  C   UNL A   1      37.902  19.939  24.972  1.00  0.00     0.202 C 
BRANCH  24  25
ATOM     25  C   UNL A   1      39.137  19.316  25.638  1.00  0.00     0.261 C 
BRANCH  25  26
ATOM     26  O   UNL A   1      40.262  20.216  25.684  1.00  0.00    -0.460 OA
BRANCH  26  27
ATOM     27  C   UNL A   1      40.889  20.280  26.884  1.00  0.00     0.338 C 
ATOM     28  O   UNL A   1      41.438  19.357  27.476  1.00  0.00    -0.246 OA
BRANCH  27  29
ATOM     29  C   UNL A   1      41.004  21.677  27.335  1.00  0.00     0.060 A 
ATOM     30  C   UNL A   1      40.437  22.670  26.527  1.00  0.00     0.016 A 
ATOM     31  C   UNL A   1      41.740  22.023  28.470  1.00  0.00     0.016 A 
ATOM     32  C   UNL A   1      40.638  24.016  26.826  1.00  0.00     0.010 A 
ATOM     33  C   UNL A   1      41.950  23.376  28.763  1.00  0.00     0.010 A 
ATOM     34  C   UNL A   1      41.427  24.379  27.924  1.00  0.00    -0.014 A 
BRANCH  34  35
ATOM     35  C   UNL A   1      41.819  25.800  28.104  1.00  0.00     0.031 A 
ATOM     36  C   UNL A   1      43.162  26.258  27.602  1.00  0.00     0.074 A 
ATOM     37  C   UNL A   1      40.973  26.680  28.670  1.00  0.00     0.049 A 
ATOM     38  N   UNL A   1      43.720  27.438  27.678  1.00  0.00    -0.248 NA
ATOM     39  C   UNL A   1      43.985  25.243  26.927  1.00  0.00     0.031 C 
ATOM     40  C   UNL A   1      39.627  26.365  29.146  1.00  0.00     0.029 A 
ATOM     41  N   UNL A   1      41.123  28.016  28.940  1.00  0.00    -0.354 N 
ATOM     42  C   UNL A   1      44.962  27.312  27.061  1.00  0.00     0.074 A 
ATOM     43  C   UNL A   1      45.085  25.928  26.652  1.00  0.00     0.031 C 
ATOM     44  C   UNL A   1      39.077  27.479  29.662  1.00  0.00     0.029 A 
ATOM     45  C   UNL A   1      40.045  28.573  29.588  1.00  0.00     0.049 A 
ATOM     46  H   UNL A   1      41.926  28.530  28.695  1.00  0.00     0.167 HD
ATOM     47  C   UNL A   1      45.905  28.263  26.849  1.00  0.00     0.034 A 
ATOM     48  C   UNL A   1      39.868  29.812  30.088  1.00  0.00     0.034 A 
ATOM     49  C   UNL A   1      45.771  29.635  27.275  1.00  0.00     0.049 A 
ATOM     50  C   UNL A   1      40.970  30.832  29.923  1.00  0.00     0.074 A 
ATOM     51  C   UNL A   1      46.657  30.684  27.098  1.00  0.00     0.029 A 
ATOM     52  N   UNL A   1      44.688  30.149  27.979  1.00  0.00    -0.354 N 
ATOM     53  N   UNL A   1      42.137  30.702  29.335  1.00  0.00    -0.248 NA
ATOM     54  C   UNL A   1      40.728  32.166  30.487  1.00  0.00     0.031 C 
ATOM     55  C   UNL A   1      46.146  31.809  27.757  1.00  0.00     0.029 A 
ATOM     56  C   UNL A   1      44.902  31.488  28.275  1.00  0.00     0.049 A 
ATOM     57  H   UNL A   1      43.885  29.637  28.229  1.00  0.00     0.167 HD
ATOM     58  C   UNL A   1      42.754  31.947  29.432  1.00  0.00     0.074 A 
ATOM     59  C   UNL A   1      41.824  32.815  30.125  1.00  0.00     0.031 C 
ATOM     60  C   UNL A   1      43.974  32.339  28.985  1.00  0.00     0.034 A 
BRANCH  47  61
ATOM     61  C   UNL A   1      47.186  27.830  26.177  1.00  0.00     0.023 A 
ATOM     62  C   UNL A   1      47.408  28.025  24.803  1.00  0.00     0.031 A 
ATOM     63  C   UNL A   1      48.190  27.181  26.920  1.00  0.00     0.131 A 
ATOM     64  C   UNL A   1      48.569  27.515  24.202  1.00  0.00     0.055 A 
ATOM     65  C   UNL A   1      49.379  26.747  26.330  1.00  0.00     0.041 A 
ATOM     66  F   UNL A   1      48.026  26.947  28.231  1.00  0.00    -0.206 F 
ATOM     67  C   UNL A   1      49.567  26.899  24.960  1.00  0.00     0.022 A 
BRANCH  64  68
ATOM     68  S   UNL A   1      48.693  27.542  22.392  1.00  0.00     0.124 S 
ATOM     69  O   UNL A   1      47.479  28.267  22.024  1.00  0.00    -0.237 OA
ATOM     70  O   UNL A   1      49.951  28.246  22.172  1.00  0.00    -0.237 OA
ATOM     71  O   UNL A   1      48.698  26.126  22.028  1.00  0.00    -0.744 OA
ENDBRANCH  64  68
ENDBRANCH  47  61
BRANCH  48  72
ATOM     72  C   UNL A   1      38.624  30.153  30.835  1.00  0.00     0.023 A 
ATOM     73  C   UNL A   1      37.607  30.922  30.249  1.00  0.00     0.031 A 
ATOM     74  C   UNL A   1      38.460  29.751  32.174  1.00  0.00     0.131 A 
ATOM     75  C   UNL A   1      36.489  31.299  31.010  1.00  0.00     0.055 A 
ATOM     76  C   UNL A   1      37.323  30.086  32.911  1.00  0.00     0.041 A 
ATOM     77  F   UNL A   1      39.403  29.017  32.784  1.00  0.00    -0.206 F 
ATOM     78  C   UNL A   1      36.334  30.875  32.333  1.00  0.00     0.022 A 
BRANCH  75  79
ATOM     79  S   UNL A   1      35.270  32.419  30.270  1.00  0.00     0.124 S 
ATOM     80  O   UNL A   1      36.108  33.536  29.852  1.00  0.00    -0.237 OA
ATOM     81  O   UNL A   1      34.714  31.596  29.200  1.00  0.00    -0.237 OA
ATOM     82  O   UNL A   1      34.355  32.702  31.373  1.00  0.00    -0.744 OA
ENDBRANCH  75  79
ENDBRANCH  48  72
BRANCH  60  83
ATOM     83  C   UNL A   1      44.353  33.786  29.199  1.00  0.00     0.023 A 
ATOM     84  C   UNL A   1      45.017  34.214  30.361  1.00  0.00     0.031 A 
ATOM     85  C   UNL A   1      44.032  34.751  28.228  1.00  0.00     0.131 A 
ATOM     86  C   UNL A   1      45.289  35.578  30.549  1.00  0.00     0.055 A 
ATOM     87  C   UNL A   1      44.359  36.098  28.393  1.00  0.00     0.041 A 
ATOM     88  F   UNL A   1      43.395  34.400  27.099  1.00  0.00    -0.206 F 
ATOM     89  C   UNL A   1      44.980  36.520  29.564  1.00  0.00     0.022 A 
BRANCH  86  90
ATOM     90  S   UNL A   1      45.972  36.121  32.140  1.00  0.00     0.124 S 
ATOM     91  O   UNL A   1      47.394  35.837  31.972  1.00  0.00    -0.237 OA
ATOM     92  O   UNL A   1      45.603  37.532  32.174  1.00  0.00    -0.237 OA
ATOM     93  O   UNL A   1      45.283  35.276  33.115  1.00  0.00    -0.744 OA
ENDBRANCH  86  90
ENDBRANCH  60  83
ENDBRANCH  34  35
ENDBRANCH  27  29
ENDBRANCH  26  27
ENDBRANCH  25  26
ENDBRANCH  24  25
ENDBRANCH  23  24
ENDBRANCH   1  23
TORSDOF 22
ENDMDL
