MODEL 1
REMARK VINA RESULT:     -10.5      0.000      0.000
REMARK SMILES [NH3+]C1CC[NH+](CC(=O)N2CCO[C@H](CC(=O)OCCOCCOC(=O)c3ccc(-c4c5nc(c(-c6cc(S(=O)(=O)[O-])ccc6F)c6ccc([nH]6)c(-c6cc(S(=O)(=O)[O-])ccc6F)c6nc(c(-c7cc(S(=O)(=O)[O-])ccc7F)c7ccc4[nH]7)C=C6)C=C5)cc3)C2)CC1
REMARK SMILES IDX 19 1 18 2 17 3 15 4 16 5 14 6 13 7 9 8 10 9 89 10 11 11
REMARK SMILES IDX 12 12 7 13 8 14 6 15 5 16 2 17 3 18 91 19 4 20 90 21 1 23
REMARK SMILES IDX 20 27 21 28 22 29 23 30 24 31 25 32 26 33 27 34 88 35 28 36
REMARK SMILES IDX 87 37 29 38 30 39 31 40 81 41 32 42 86 43 80 44 82 45 33 46
REMARK SMILES IDX 85 47 79 48 78 49 34 51 66 52 46 53 65 54 47 55 50 56 64 57
REMARK SMILES IDX 83 58 48 59 49 60 63 62 84 63 51 64 35 65 36 66 44 67 37 68
REMARK SMILES IDX 43 69 45 70 42 71 38 72 39 73 40 74 41 75 67 76 68 77 76 78
REMARK SMILES IDX 69 79 75 80 77 81 74 82 70 83 71 84 72 85 73 86 52 87 53 88
REMARK SMILES IDX 61 89 54 90 60 91 62 92 59 93 55 94 56 95 57 96 58 97
REMARK H PARENT 5 22 1 24 1 25 1 26 82 50 50 61
REMARK Flexibility Score: inf
ROOT
ATOM      1  C   UNL A   1      31.455  28.691  24.362  1.00  0.00     0.202 C 
ENDROOT
BRANCH   1   2
ATOM      2  C   UNL A   1      31.550  27.788  23.127  1.00  0.00     0.261 C 
BRANCH   2   3
ATOM      3  O   UNL A   1      32.621  26.841  23.284  1.00  0.00    -0.463 OA
BRANCH   3   4
ATOM      4  C   UNL A   1      32.880  26.048  22.217  1.00  0.00     0.308 C 
ATOM      5  O   UNL A   1      33.652  26.328  21.307  1.00  0.00    -0.252 OA
BRANCH   4   6
ATOM      6  C   UNL A   1      32.216  24.688  22.321  1.00  0.00     0.156 C 
BRANCH   6   7
ATOM      7  C   UNL A   1      32.214  23.994  23.686  1.00  0.00     0.148 C 
ATOM      8  N   UNL A   1      32.199  21.763  24.776  1.00  0.00    -0.333 N 
ATOM      9  C   UNL A   1      31.146  22.223  25.681  1.00  0.00     0.148 C 
ATOM     10  C   UNL A   1      32.232  22.481  23.518  1.00  0.00     0.152 C 
ATOM     11  C   UNL A   1      31.146  23.759  25.790  1.00  0.00     0.182 C 
ATOM     12  O   UNL A   1      31.108  24.406  24.501  1.00  0.00    -0.374 OA
BRANCH   8  13
ATOM     13  C   UNL A   1      32.771  20.502  24.943  1.00  0.00     0.277 C 
ATOM     14  O   UNL A   1      32.152  19.586  25.491  1.00  0.00    -0.268 OA
BRANCH  13  15
ATOM     15  C   UNL A   1      34.261  20.341  24.589  1.00  0.00     0.363 C 
BRANCH  15  16
ATOM     16  N   UNL A   1      35.271  20.770  25.565  1.00  0.00    -0.327 N 
ATOM     17  C   UNL A   1      37.342  22.876  25.247  1.00  0.00     0.192 C 
ATOM     18  C   UNL A   1      37.500  21.483  24.624  1.00  0.00     0.126 C 
ATOM     19  C   UNL A   1      35.861  23.185  25.451  1.00  0.00     0.126 C 
ATOM     20  C   UNL A   1      36.659  20.398  25.302  1.00  0.00     0.268 C 
ATOM     21  C   UNL A   1      35.134  22.069  26.198  1.00  0.00     0.268 C 
ATOM     22  H   UNL A   1      34.966  20.139  26.306  1.00  0.00     0.348 HD
BRANCH  17  23
ATOM     23  N   UNL A   1      38.085  23.023  26.502  1.00  0.00    -0.355 N 
ATOM     24  H   UNL A   1      37.459  22.853  27.289  1.00  0.00     0.344 HD
ATOM     25  H   UNL A   1      38.463  23.969  26.564  1.00  0.00     0.344 HD
ATOM     26  H   UNL A   1      38.850  22.350  26.524  1.00  0.00     0.344 HD
ENDBRANCH  17  23
ENDBRANCH  15  16
ENDBRANCH  13  15
ENDBRANCH   8  13
ENDBRANCH   6   7
ENDBRANCH   4   6
ENDBRANCH   3   4
ENDBRANCH   2   3
ENDBRANCH   1   2
BRANCH   1  27
ATOM     27  O   UNL A   1      32.105  28.203  25.539  1.00  0.00    -0.374 OA
BRANCH  27  28
ATOM     28  C   UNL A   1      31.772  28.828  26.781  1.00  0.00     0.202 C 
BRANCH  28  29
ATOM     29  C   UNL A   1      31.805  30.360  26.824  1.00  0.00     0.261 C 
BRANCH  29  30
ATOM     30  O   UNL A   1      33.093  30.896  26.467  1.00  0.00    -0.460 OA
BRANCH  30  31
ATOM     31  C   UNL A   1      33.591  31.794  27.346  1.00  0.00     0.338 C 
ATOM     32  O   UNL A   1      32.987  32.737  27.851  1.00  0.00    -0.246 OA
BRANCH  31  33
ATOM     33  C   UNL A   1      34.942  31.403  27.787  1.00  0.00     0.060 A 
ATOM     34  C   UNL A   1      35.143  30.054  28.111  1.00  0.00     0.016 A 
ATOM     35  C   UNL A   1      35.965  32.334  27.976  1.00  0.00     0.016 A 
ATOM     36  C   UNL A   1      36.337  29.644  28.700  1.00  0.00     0.010 A 
ATOM     37  C   UNL A   1      37.165  31.921  28.570  1.00  0.00     0.010 A 
ATOM     38  C   UNL A   1      37.336  30.585  28.981  1.00  0.00    -0.014 A 
BRANCH  38  39
ATOM     39  C   UNL A   1      38.440  30.214  29.904  1.00  0.00     0.031 A 
ATOM     40  C   UNL A   1      39.478  29.235  29.417  1.00  0.00     0.074 A 
ATOM     41  C   UNL A   1      38.560  30.770  31.123  1.00  0.00     0.049 A 
ATOM     42  N   UNL A   1      40.494  28.711  30.053  1.00  0.00    -0.248 NA
ATOM     43  C   UNL A   1      39.346  28.790  28.021  1.00  0.00     0.031 C 
ATOM     44  C   UNL A   1      37.668  31.783  31.681  1.00  0.00     0.029 A 
ATOM     45  N   UNL A   1      39.487  30.554  32.114  1.00  0.00    -0.354 N 
ATOM     46  C   UNL A   1      41.118  27.869  29.138  1.00  0.00     0.074 A 
ATOM     47  C   UNL A   1      40.344  27.927  27.916  1.00  0.00     0.031 C 
ATOM     48  C   UNL A   1      38.081  32.091  32.923  1.00  0.00     0.029 A 
ATOM     49  C   UNL A   1      39.241  31.268  33.264  1.00  0.00     0.049 A 
ATOM     50  H   UNL A   1      40.254  29.947  32.010  1.00  0.00     0.167 HD
ATOM     51  C   UNL A   1      42.238  27.122  29.297  1.00  0.00     0.034 A 
ATOM     52  C   UNL A   1      39.860  31.233  34.464  1.00  0.00     0.034 A 
ATOM     53  C   UNL A   1      42.998  27.066  30.520  1.00  0.00     0.049 A 
ATOM     54  C   UNL A   1      41.044  30.314  34.657  1.00  0.00     0.074 A 
ATOM     55  C   UNL A   1      44.141  26.334  30.794  1.00  0.00     0.029 A 
ATOM     56  N   UNL A   1      42.686  27.764  31.679  1.00  0.00    -0.354 N 
ATOM     57  N   UNL A   1      41.608  29.502  33.793  1.00  0.00    -0.248 NA
ATOM     58  C   UNL A   1      41.675  30.308  35.984  1.00  0.00     0.031 C 
ATOM     59  C   UNL A   1      44.483  26.542  32.134  1.00  0.00     0.029 A 
ATOM     60  C   UNL A   1      43.598  27.460  32.677  1.00  0.00     0.049 A 
ATOM     61  H   UNL A   1      41.927  28.384  31.778  1.00  0.00     0.167 HD
ATOM     62  C   UNL A   1      42.682  28.919  34.462  1.00  0.00     0.074 A 
ATOM     63  C   UNL A   1      42.684  29.467  35.802  1.00  0.00     0.031 C 
ATOM     64  C   UNL A   1      43.591  28.021  34.007  1.00  0.00     0.034 A 
BRANCH  51  65
ATOM     65  C   UNL A   1      42.664  26.263  28.132  1.00  0.00     0.023 A 
ATOM     66  C   UNL A   1      42.215  24.940  27.984  1.00  0.00     0.031 A 
ATOM     67  C   UNL A   1      43.569  26.763  27.180  1.00  0.00     0.131 A 
ATOM     68  C   UNL A   1      42.726  24.139  26.952  1.00  0.00     0.055 A 
ATOM     69  C   UNL A   1      44.014  25.985  26.109  1.00  0.00     0.041 A 
ATOM     70  F   UNL A   1      44.051  28.012  27.284  1.00  0.00    -0.206 F 
ATOM     71  C   UNL A   1      43.605  24.660  25.999  1.00  0.00     0.022 A 
BRANCH  68  72
ATOM     72  S   UNL A   1      42.342  22.366  26.957  1.00  0.00     0.124 S 
ATOM     73  O   UNL A   1      40.960  22.363  26.479  1.00  0.00    -0.237 OA
ATOM     74  O   UNL A   1      43.336  21.825  26.040  1.00  0.00    -0.237 OA
ATOM     75  O   UNL A   1      42.508  21.983  28.357  1.00  0.00    -0.744 OA
ENDBRANCH  68  72
ENDBRANCH  51  65
BRANCH  52  76
ATOM     76  C   UNL A   1      39.341  32.046  35.601  1.00  0.00     0.023 A 
ATOM     77  C   UNL A   1      39.752  33.373  35.800  1.00  0.00     0.031 A 
ATOM     78  C   UNL A   1      38.461  31.480  36.542  1.00  0.00     0.131 A 
ATOM     79  C   UNL A   1      39.317  34.078  36.934  1.00  0.00     0.055 A 
ATOM     80  C   UNL A   1      37.991  32.200  37.640  1.00  0.00     0.041 A 
ATOM     81  F   UNL A   1      38.040  30.213  36.400  1.00  0.00    -0.206 F 
ATOM     82  C   UNL A   1      38.429  33.504  37.849  1.00  0.00     0.022 A 
BRANCH  79  83
ATOM     83  S   UNL A   1      39.989  35.734  37.243  1.00  0.00     0.124 S 
ATOM     84  O   UNL A   1      39.253  36.136  38.435  1.00  0.00    -0.237 OA
ATOM     85  O   UNL A   1      41.410  35.454  37.428  1.00  0.00    -0.237 OA
ATOM     86  O   UNL A   1      39.655  36.470  36.025  1.00  0.00    -0.744 OA
ENDBRANCH  79  83
ENDBRANCH  52  76
BRANCH  64  87
ATOM     87  C   UNL A   1      44.710  27.627  34.937  1.00  0.00     0.023 A 
ATOM     88  C   UNL A   1      44.609  26.525  35.802  1.00  0.00     0.031 A 
ATOM     89  C   UNL A   1      45.915  28.352  34.922  1.00  0.00     0.131 A 
ATOM     90  C   UNL A   1      45.688  26.195  36.638  1.00  0.00     0.055 A 
ATOM     91  C   UNL A   1      46.998  27.994  35.723  1.00  0.00     0.041 A 
ATOM     92  F   UNL A   1      46.063  29.413  34.111  1.00  0.00    -0.206 F 
ATOM     93  C   UNL A   1      46.886  26.914  36.592  1.00  0.00     0.022 A 
BRANCH  90  94
ATOM     94  S   UNL A   1      45.498  24.831  37.820  1.00  0.00     0.124 S 
ATOM     95  O   UNL A   1      44.604  25.415  38.815  1.00  0.00    -0.237 OA
ATOM     96  O   UNL A   1      44.926  23.775  36.992  1.00  0.00    -0.237 OA
ATOM     97  O   UNL A   1      46.863  24.584  38.281  1.00  0.00    -0.744 OA
ENDBRANCH  90  94
ENDBRANCH  64  87
ENDBRANCH  38  39
ENDBRANCH  31  33
ENDBRANCH  30  31
ENDBRANCH  29  30
ENDBRANCH  28  29
ENDBRANCH  27  28
ENDBRANCH   1  27
TORSDOF 22
ENDMDL
MODEL 2
REMARK VINA RESULT:     -10.5      4.642      7.583
REMARK SMILES [NH3+]C1CC[NH+](CC(=O)N2CCO[C@H](CC(=O)OCCOCCOC(=O)c3ccc(-c4c5nc(c(-c6cc(S(=O)(=O)[O-])ccc6F)c6ccc([nH]6)c(-c6cc(S(=O)(=O)[O-])ccc6F)c6nc(c(-c7cc(S(=O)(=O)[O-])ccc7F)c7ccc4[nH]7)C=C6)C=C5)cc3)C2)CC1
REMARK SMILES IDX 19 1 18 2 17 3 15 4 16 5 14 6 13 7 9 8 10 9 89 10 11 11
REMARK SMILES IDX 12 12 7 13 8 14 6 15 5 16 2 17 3 18 91 19 4 20 90 21 1 23
REMARK SMILES IDX 20 27 21 28 22 29 23 30 24 31 25 32 26 33 27 34 88 35 28 36
REMARK SMILES IDX 87 37 29 38 30 39 31 40 81 41 32 42 86 43 80 44 82 45 33 46
REMARK SMILES IDX 85 47 79 48 78 49 34 51 66 52 46 53 65 54 47 55 50 56 64 57
REMARK SMILES IDX 83 58 48 59 49 60 63 62 84 63 51 64 35 65 36 66 44 67 37 68
REMARK SMILES IDX 43 69 45 70 42 71 38 72 39 73 40 74 41 75 67 76 68 77 76 78
REMARK SMILES IDX 69 79 75 80 77 81 74 82 70 83 71 84 72 85 73 86 52 87 53 88
REMARK SMILES IDX 61 89 54 90 60 91 62 92 59 93 55 94 56 95 57 96 58 97
REMARK H PARENT 5 22 1 24 1 25 1 26 82 50 50 61
REMARK Flexibility Score: inf
ROOT
ATOM      1  C   UNL A   1      35.490  23.176  25.160  1.00  0.00     0.202 C 
ENDROOT
BRANCH   1   2
ATOM      2  C   UNL A   1      34.379  23.649  26.104  1.00  0.00     0.261 C 
BRANCH   2   3
ATOM      3  O   UNL A   1      33.247  22.766  26.022  1.00  0.00    -0.463 OA
BRANCH   3   4
ATOM      4  C   UNL A   1      32.041  23.310  26.312  1.00  0.00     0.308 C 
ATOM      5  O   UNL A   1      31.662  23.616  27.437  1.00  0.00    -0.252 OA
BRANCH   4   6
ATOM      6  C   UNL A   1      31.232  23.640  25.071  1.00  0.00     0.156 C 
BRANCH   6   7
ATOM      7  C   UNL A   1      31.770  24.723  24.132  1.00  0.00     0.148 C 
ATOM      8  N   UNL A   1      31.119  26.771  22.888  1.00  0.00    -0.333 N 
ATOM      9  C   UNL A   1      31.796  26.252  21.699  1.00  0.00     0.148 C 
ATOM     10  C   UNL A   1      30.681  25.734  23.801  1.00  0.00     0.152 C 
ATOM     11  C   UNL A   1      32.862  25.209  22.084  1.00  0.00     0.182 C 
ATOM     12  O   UNL A   1      32.338  24.170  22.937  1.00  0.00    -0.374 OA
BRANCH   8  13
ATOM     13  C   UNL A   1      30.575  28.055  22.886  1.00  0.00     0.277 C 
ATOM     14  O   UNL A   1      30.246  28.609  21.834  1.00  0.00    -0.268 OA
BRANCH  13  15
ATOM     15  C   UNL A   1      30.571  28.831  24.216  1.00  0.00     0.363 C 
BRANCH  15  16
ATOM     16  N   UNL A   1      31.753  29.627  24.575  1.00  0.00    -0.327 N 
ATOM     17  C   UNL A   1      33.593  29.233  26.874  1.00  0.00     0.192 C 
ATOM     18  C   UNL A   1      32.215  29.886  27.041  1.00  0.00     0.126 C 
ATOM     19  C   UNL A   1      33.590  28.331  25.642  1.00  0.00     0.126 C 
ATOM     20  C   UNL A   1      31.650  30.487  25.752  1.00  0.00     0.268 C 
ATOM     21  C   UNL A   1      33.073  29.051  24.398  1.00  0.00     0.268 C 
ATOM     22  H   UNL A   1      31.689  30.262  23.779  1.00  0.00     0.348 HD
BRANCH  17  23
ATOM     23  N   UNL A   1      34.680  30.213  26.802  1.00  0.00    -0.355 N 
ATOM     24  H   UNL A   1      34.524  30.945  27.495  1.00  0.00     0.344 HD
ATOM     25  H   UNL A   1      34.704  30.627  25.869  1.00  0.00     0.344 HD
ATOM     26  H   UNL A   1      35.569  29.750  26.990  1.00  0.00     0.344 HD
ENDBRANCH  17  23
ENDBRANCH  15  16
ENDBRANCH  13  15
ENDBRANCH   8  13
ENDBRANCH   6   7
ENDBRANCH   4   6
ENDBRANCH   3   4
ENDBRANCH   2   3
ENDBRANCH   1   2
BRANCH   1  27
ATOM     27  O   UNL A   1      35.292  21.892  24.562  1.00  0.00    -0.374 OA
BRANCH  27  28
ATOM     28  C   UNL A   1      36.179  20.840  24.953  1.00  0.00     0.202 C 
BRANCH  28  29
ATOM     29  C   UNL A   1      37.682  21.126  24.871  1.00  0.00     0.261 C 
BRANCH  29  30
ATOM     30  O   UNL A   1      38.280  21.318  26.167  1.00  0.00    -0.460 OA
BRANCH  30  31
ATOM     31  C   UNL A   1      39.597  21.622  26.138  1.00  0.00     0.338 C 
ATOM     32  O   UNL A   1      40.461  21.069  25.464  1.00  0.00    -0.246 OA
BRANCH  31  33
ATOM     33  C   UNL A   1      39.868  22.852  26.904  1.00  0.00     0.060 A 
ATOM     34  C   UNL A   1      39.055  23.962  26.639  1.00  0.00     0.016 A 
ATOM     35  C   UNL A   1      40.945  22.962  27.787  1.00  0.00     0.016 A 
ATOM     36  C   UNL A   1      39.360  25.204  27.191  1.00  0.00     0.010 A 
ATOM     37  C   UNL A   1      41.252  24.212  28.340  1.00  0.00     0.010 A 
ATOM     38  C   UNL A   1      40.492  25.348  28.004  1.00  0.00    -0.014 A 
BRANCH  38  39
ATOM     39  C   UNL A   1      41.001  26.712  28.301  1.00  0.00     0.031 A 
ATOM     40  C   UNL A   1      42.433  27.030  27.951  1.00  0.00     0.074 A 
ATOM     41  C   UNL A   1      40.205  27.667  28.813  1.00  0.00     0.049 A 
ATOM     42  N   UNL A   1      43.122  28.121  28.169  1.00  0.00    -0.248 NA
ATOM     43  C   UNL A   1      43.185  25.969  27.263  1.00  0.00     0.031 C 
ATOM     44  C   UNL A   1      38.787  27.509  29.123  1.00  0.00     0.029 A 
ATOM     45  N   UNL A   1      40.485  28.966  29.165  1.00  0.00    -0.354 N 
ATOM     46  C   UNL A   1      44.390  27.875  27.652  1.00  0.00     0.074 A 
ATOM     47  C   UNL A   1      44.382  26.520  27.143  1.00  0.00     0.031 C 
ATOM     48  C   UNL A   1      38.322  28.663  29.635  1.00  0.00     0.029 A 
ATOM     49  C   UNL A   1      39.418  29.627  29.728  1.00  0.00     0.049 A 
ATOM     50  H   UNL A   1      41.365  29.383  29.028  1.00  0.00     0.167 HD
ATOM     51  C   UNL A   1      45.461  28.705  27.598  1.00  0.00     0.034 A 
ATOM     52  C   UNL A   1      39.345  30.854  30.285  1.00  0.00     0.034 A 
ATOM     53  C   UNL A   1      45.460  30.051  28.112  1.00  0.00     0.049 A 
ATOM     54  C   UNL A   1      40.578  31.727  30.311  1.00  0.00     0.074 A 
ATOM     55  C   UNL A   1      46.492  30.973  28.120  1.00  0.00     0.029 A 
ATOM     56  N   UNL A   1      44.374  30.665  28.722  1.00  0.00    -0.354 N 
ATOM     57  N   UNL A   1      41.779  31.474  29.844  1.00  0.00    -0.248 NA
ATOM     58  C   UNL A   1      40.447  33.050  30.938  1.00  0.00     0.031 C 
ATOM     59  C   UNL A   1      46.049  32.120  28.787  1.00  0.00     0.029 A 
ATOM     60  C   UNL A   1      44.719  31.943  29.132  1.00  0.00     0.049 A 
ATOM     61  H   UNL A   1      43.488  30.253  28.846  1.00  0.00     0.167 HD
ATOM     62  C   UNL A   1      42.532  32.621  30.087  1.00  0.00     0.074 A 
ATOM     63  C   UNL A   1      41.654  33.564  30.746  1.00  0.00     0.031 C 
ATOM     64  C   UNL A   1      43.830  32.875  29.782  1.00  0.00     0.034 A 
BRANCH  51  65
ATOM     65  C   UNL A   1      46.734  28.148  27.010  1.00  0.00     0.023 A 
ATOM     66  C   UNL A   1      46.992  28.188  25.630  1.00  0.00     0.031 A 
ATOM     67  C   UNL A   1      47.684  27.529  27.842  1.00  0.00     0.131 A 
ATOM     68  C   UNL A   1      48.133  27.556  25.112  1.00  0.00     0.055 A 
ATOM     69  C   UNL A   1      48.856  26.970  27.329  1.00  0.00     0.041 A 
ATOM     70  F   UNL A   1      47.479  27.439  29.165  1.00  0.00    -0.206 F 
ATOM     71  C   UNL A   1      49.079  26.968  25.955  1.00  0.00     0.022 A 
BRANCH  68  72
ATOM     72  S   UNL A   1      48.290  27.384  23.314  1.00  0.00     0.124 S 
ATOM     73  O   UNL A   1      49.596  27.994  23.072  1.00  0.00    -0.237 OA
ATOM     74  O   UNL A   1      48.213  25.941  23.126  1.00  0.00    -0.237 OA
ATOM     75  O   UNL A   1      47.153  28.143  22.796  1.00  0.00    -0.744 OA
ENDBRANCH  68  72
ENDBRANCH  51  65
BRANCH  52  76
ATOM     76  C   UNL A   1      38.078  31.317  30.921  1.00  0.00     0.023 A 
ATOM     77  C   UNL A   1      37.066  31.938  30.173  1.00  0.00     0.031 A 
ATOM     78  C   UNL A   1      37.888  31.190  32.310  1.00  0.00     0.131 A 
ATOM     79  C   UNL A   1      35.928  32.446  30.820  1.00  0.00     0.055 A 
ATOM     80  C   UNL A   1      36.733  31.651  32.943  1.00  0.00     0.041 A 
ATOM     81  F   UNL A   1      38.826  30.607  33.073  1.00  0.00    -0.206 F 
ATOM     82  C   UNL A   1      35.749  32.295  32.199  1.00  0.00     0.022 A 
BRANCH  79  83
ATOM     83  S   UNL A   1      34.715  33.380  29.847  1.00  0.00     0.124 S 
ATOM     84  O   UNL A   1      35.562  34.363  29.182  1.00  0.00    -0.237 OA
ATOM     85  O   UNL A   1      34.145  32.340  28.996  1.00  0.00    -0.237 OA
ATOM     86  O   UNL A   1      33.809  33.919  30.860  1.00  0.00    -0.744 OA
ENDBRANCH  79  83
ENDBRANCH  52  76
BRANCH  64  87
ATOM     87  C   UNL A   1      44.362  34.251  30.089  1.00  0.00     0.023 A 
ATOM     88  C   UNL A   1      45.008  34.549  31.300  1.00  0.00     0.031 A 
ATOM     89  C   UNL A   1      44.251  35.270  29.126  1.00  0.00     0.131 A 
ATOM     90  C   UNL A   1      45.497  35.846  31.528  1.00  0.00     0.055 A 
ATOM     91  C   UNL A   1      44.777  36.544  29.340  1.00  0.00     0.041 A 
ATOM     92  F   UNL A   1      43.645  35.036  27.950  1.00  0.00    -0.206 F 
ATOM     93  C   UNL A   1      45.398  36.840  30.549  1.00  0.00     0.022 A 
BRANCH  90  94
ATOM     94  S   UNL A   1      46.236  36.235  33.138  1.00  0.00     0.124 S 
ATOM     95  O   UNL A   1      45.076  36.678  33.905  1.00  0.00    -0.237 OA
ATOM     96  O   UNL A   1      46.812  34.956  33.537  1.00  0.00    -0.237 OA
ATOM     97  O   UNL A   1      47.209  37.281  32.826  1.00  0.00    -0.744 OA
ENDBRANCH  90  94
ENDBRANCH  64  87
ENDBRANCH  38  39
ENDBRANCH  31  33
ENDBRANCH  30  31
ENDBRANCH  29  30
ENDBRANCH  28  29
ENDBRANCH  27  28
ENDBRANCH   1  27
TORSDOF 22
ENDMDL
MODEL 3
REMARK VINA RESULT:     -10.1      2.230      2.910
REMARK SMILES [NH3+]C1CC[NH+](CC(=O)N2CCO[C@H](CC(=O)OCCOCCOC(=O)c3ccc(-c4c5nc(c(-c6cc(S(=O)(=O)[O-])ccc6F)c6ccc([nH]6)c(-c6cc(S(=O)(=O)[O-])ccc6F)c6nc(c(-c7cc(S(=O)(=O)[O-])ccc7F)c7ccc4[nH]7)C=C6)C=C5)cc3)C2)CC1
REMARK SMILES IDX 19 1 18 2 17 3 15 4 16 5 14 6 13 7 9 8 10 9 89 10 11 11
REMARK SMILES IDX 12 12 7 13 8 14 6 15 5 16 2 17 3 18 91 19 4 20 90 21 1 23
REMARK SMILES IDX 20 27 21 28 22 29 23 30 24 31 25 32 26 33 27 34 88 35 28 36
REMARK SMILES IDX 87 37 29 38 30 39 31 40 81 41 32 42 86 43 80 44 82 45 33 46
REMARK SMILES IDX 85 47 79 48 78 49 34 51 66 52 46 53 65 54 47 55 50 56 64 57
REMARK SMILES IDX 83 58 48 59 49 60 63 62 84 63 51 64 35 65 36 66 44 67 37 68
REMARK SMILES IDX 43 69 45 70 42 71 38 72 39 73 40 74 41 75 67 76 68 77 76 78
REMARK SMILES IDX 69 79 75 80 77 81 74 82 70 83 71 84 72 85 73 86 52 87 53 88
REMARK SMILES IDX 61 89 54 90 60 91 62 92 59 93 55 94 56 95 57 96 58 97
REMARK H PARENT 5 22 1 24 1 25 1 26 82 50 50 61
REMARK Flexibility Score: inf
ROOT
ATOM      1  C   UNL A   1      31.946  29.920  25.374  1.00  0.00     0.202 C 
ENDROOT
BRANCH   1   2
ATOM      2  C   UNL A   1      31.342  28.741  24.603  1.00  0.00     0.261 C 
BRANCH   2   3
ATOM      3  O   UNL A   1      32.290  27.663  24.518  1.00  0.00    -0.463 OA
BRANCH   3   4
ATOM      4  C   UNL A   1      32.374  27.032  23.323  1.00  0.00     0.308 C 
ATOM      5  O   UNL A   1      33.138  27.343  22.417  1.00  0.00    -0.252 OA
BRANCH   4   6
ATOM      6  C   UNL A   1      31.509  25.786  23.256  1.00  0.00     0.156 C 
BRANCH   6   7
ATOM      7  C   UNL A   1      31.586  24.796  24.421  1.00  0.00     0.148 C 
ATOM      8  N   UNL A   1      31.746  22.378  24.961  1.00  0.00    -0.333 N 
ATOM      9  C   UNL A   1      30.686  22.540  25.957  1.00  0.00     0.148 C 
ATOM     10  C   UNL A   1      31.701  23.369  23.905  1.00  0.00     0.152 C 
ATOM     11  C   UNL A   1      30.586  24.005  26.420  1.00  0.00     0.182 C 
ATOM     12  O   UNL A   1      30.474  24.929  25.318  1.00  0.00    -0.374 OA
BRANCH   8  13
ATOM     13  C   UNL A   1      32.405  21.156  24.825  1.00  0.00     0.277 C 
ATOM     14  O   UNL A   1      31.891  20.105  25.215  1.00  0.00    -0.268 OA
BRANCH  13  15
ATOM     15  C   UNL A   1      33.867  21.183  24.342  1.00  0.00     0.363 C 
BRANCH  15  16
ATOM     16  N   UNL A   1      34.933  21.416  25.326  1.00  0.00    -0.327 N 
ATOM     17  C   UNL A   1      36.959  23.588  25.347  1.00  0.00     0.192 C 
ATOM     18  C   UNL A   1      37.090  22.366  24.429  1.00  0.00     0.126 C 
ATOM     19  C   UNL A   1      35.491  23.812  25.702  1.00  0.00     0.126 C 
ATOM     20  C   UNL A   1      36.305  21.141  24.906  1.00  0.00     0.268 C 
ATOM     21  C   UNL A   1      34.824  22.544  26.232  1.00  0.00     0.268 C 
ATOM     22  H   UNL A   1      34.682  20.632  25.930  1.00  0.00     0.348 HD
BRANCH  17  23
ATOM     23  N   UNL A   1      37.779  23.478  26.557  1.00  0.00    -0.355 N 
ATOM     24  H   UNL A   1      38.709  23.141  26.308  1.00  0.00     0.344 HD
ATOM     25  H   UNL A   1      37.342  22.823  27.206  1.00  0.00     0.344 HD
ATOM     26  H   UNL A   1      37.856  24.394  27.000  1.00  0.00     0.344 HD
ENDBRANCH  17  23
ENDBRANCH  15  16
ENDBRANCH  13  15
ENDBRANCH   8  13
ENDBRANCH   6   7
ENDBRANCH   4   6
ENDBRANCH   3   4
ENDBRANCH   2   3
ENDBRANCH   1   2
BRANCH   1  27
ATOM     27  O   UNL A   1      33.137  29.635  26.111  1.00  0.00    -0.374 OA
BRANCH  27  28
ATOM     28  C   UNL A   1      33.442  30.481  27.222  1.00  0.00     0.202 C 
BRANCH  28  29
ATOM     29  C   UNL A   1      32.718  31.830  27.293  1.00  0.00     0.261 C 
BRANCH  29  30
ATOM     30  O   UNL A   1      33.624  32.948  27.220  1.00  0.00    -0.460 OA
BRANCH  30  31
ATOM     31  C   UNL A   1      33.471  33.860  28.206  1.00  0.00     0.338 C 
ATOM     32  O   UNL A   1      32.538  34.648  28.337  1.00  0.00    -0.246 OA
BRANCH  31  33
ATOM     33  C   UNL A   1      34.500  33.683  29.247  1.00  0.00     0.060 A 
ATOM     34  C   UNL A   1      35.795  34.126  28.947  1.00  0.00     0.016 A 
ATOM     35  C   UNL A   1      34.243  33.016  30.447  1.00  0.00     0.016 A 
ATOM     36  C   UNL A   1      36.853  33.836  29.806  1.00  0.00     0.010 A 
ATOM     37  C   UNL A   1      35.307  32.723  31.309  1.00  0.00     0.010 A 
ATOM     38  C   UNL A   1      36.624  33.086  30.967  1.00  0.00    -0.014 A 
BRANCH  38  39
ATOM     39  C   UNL A   1      37.782  32.493  31.686  1.00  0.00     0.031 A 
ATOM     40  C   UNL A   1      38.518  31.352  31.032  1.00  0.00     0.074 A 
ATOM     41  C   UNL A   1      38.212  32.986  32.861  1.00  0.00     0.049 A 
ATOM     42  N   UNL A   1      39.512  30.632  31.484  1.00  0.00    -0.248 NA
ATOM     43  C   UNL A   1      38.065  30.974  29.684  1.00  0.00     0.031 C 
ATOM     44  C   UNL A   1      37.636  34.133  33.558  1.00  0.00     0.029 A 
ATOM     45  N   UNL A   1      39.240  32.577  33.676  1.00  0.00    -0.354 N 
ATOM     46  C   UNL A   1      39.798  29.712  30.481  1.00  0.00     0.074 A 
ATOM     47  C   UNL A   1      38.850  29.944  29.413  1.00  0.00     0.031 C 
ATOM     48  C   UNL A   1      38.309  34.327  34.706  1.00  0.00     0.029 A 
ATOM     49  C   UNL A   1      39.335  33.294  34.846  1.00  0.00     0.049 A 
ATOM     50  H   UNL A   1      39.850  31.841  33.444  1.00  0.00     0.167 HD
ATOM     51  C   UNL A   1      40.769  28.766  30.447  1.00  0.00     0.034 A 
ATOM     52  C   UNL A   1      40.135  33.114  35.919  1.00  0.00     0.034 A 
ATOM     53  C   UNL A   1      41.706  28.539  31.519  1.00  0.00     0.049 A 
ATOM     54  C   UNL A   1      41.141  31.987  35.909  1.00  0.00     0.074 A 
ATOM     55  C   UNL A   1      42.721  27.601  31.594  1.00  0.00     0.029 A 
ATOM     56  N   UNL A   1      41.735  29.253  32.709  1.00  0.00    -0.354 N 
ATOM     57  N   UNL A   1      41.385  31.106  34.966  1.00  0.00    -0.248 NA
ATOM     58  C   UNL A   1      41.979  31.829  37.105  1.00  0.00     0.031 C 
ATOM     59  C   UNL A   1      43.322  27.707  32.853  1.00  0.00     0.029 A 
ATOM     60  C   UNL A   1      42.733  28.759  33.534  1.00  0.00     0.049 A 
ATOM     61  H   UNL A   1      41.135  30.000  32.935  1.00  0.00     0.167 HD
ATOM     62  C   UNL A   1      42.430  30.317  35.442  1.00  0.00     0.074 A 
ATOM     63  C   UNL A   1      42.766  30.821  36.756  1.00  0.00     0.031 C 
ATOM     64  C   UNL A   1      43.061  29.277  34.841  1.00  0.00     0.034 A 
BRANCH  51  65
ATOM     65  C   UNL A   1      40.819  27.873  29.232  1.00  0.00     0.023 A 
ATOM     66  C   UNL A   1      41.748  28.080  28.199  1.00  0.00     0.031 A 
ATOM     67  C   UNL A   1      39.893  26.825  29.087  1.00  0.00     0.131 A 
ATOM     68  C   UNL A   1      41.684  27.300  27.034  1.00  0.00     0.055 A 
ATOM     69  C   UNL A   1      39.885  26.002  27.959  1.00  0.00     0.041 A 
ATOM     70  F   UNL A   1      38.966  26.595  30.031  1.00  0.00    -0.206 F 
ATOM     71  C   UNL A   1      40.775  26.247  26.918  1.00  0.00     0.022 A 
BRANCH  68  72
ATOM     72  S   UNL A   1      42.708  27.775  25.614  1.00  0.00     0.124 S 
ATOM     73  O   UNL A   1      41.951  28.900  25.068  1.00  0.00    -0.237 OA
ATOM     74  O   UNL A   1      43.982  28.107  26.240  1.00  0.00    -0.237 OA
ATOM     75  O   UNL A   1      42.716  26.576  24.780  1.00  0.00    -0.744 OA
ENDBRANCH  68  72
ENDBRANCH  51  65
BRANCH  52  76
ATOM     76  C   UNL A   1      39.982  33.981  37.123  1.00  0.00     0.023 A 
ATOM     77  C   UNL A   1      39.323  33.524  38.275  1.00  0.00     0.031 A 
ATOM     78  C   UNL A   1      40.452  35.307  37.113  1.00  0.00     0.131 A 
ATOM     79  C   UNL A   1      39.115  34.399  39.354  1.00  0.00     0.055 A 
ATOM     80  C   UNL A   1      40.287  36.157  38.207  1.00  0.00     0.041 A 
ATOM     81  F   UNL A   1      41.086  35.794  36.035  1.00  0.00    -0.206 F 
ATOM     82  C   UNL A   1      39.604  35.708  39.332  1.00  0.00     0.022 A 
BRANCH  79  83
ATOM     83  S   UNL A   1      38.124  33.826  40.761  1.00  0.00     0.124 S 
ATOM     84  O   UNL A   1      36.915  33.351  40.100  1.00  0.00    -0.237 OA
ATOM     85  O   UNL A   1      38.985  32.800  41.340  1.00  0.00    -0.237 OA
ATOM     86  O   UNL A   1      37.960  35.030  41.575  1.00  0.00    -0.744 OA
ENDBRANCH  79  83
ENDBRANCH  52  76
BRANCH  64  87
ATOM     87  C   UNL A   1      44.231  28.659  35.564  1.00  0.00     0.023 A 
ATOM     88  C   UNL A   1      44.065  27.642  36.519  1.00  0.00     0.031 A 
ATOM     89  C   UNL A   1      45.538  29.075  35.255  1.00  0.00     0.131 A 
ATOM     90  C   UNL A   1      45.191  27.093  37.153  1.00  0.00     0.055 A 
ATOM     91  C   UNL A   1      46.655  28.495  35.856  1.00  0.00     0.041 A 
ATOM     92  F   UNL A   1      45.750  30.042  34.347  1.00  0.00    -0.206 F 
ATOM     93  C   UNL A   1      46.484  27.502  36.816  1.00  0.00     0.022 A 
BRANCH  90  94
ATOM     94  S   UNL A   1      44.947  25.854  38.456  1.00  0.00     0.124 S 
ATOM     95  O   UNL A   1      44.066  24.893  37.800  1.00  0.00    -0.237 OA
ATOM     96  O   UNL A   1      46.308  25.397  38.714  1.00  0.00    -0.237 OA
ATOM     97  O   UNL A   1      44.335  26.615  39.544  1.00  0.00    -0.744 OA
ENDBRANCH  90  94
ENDBRANCH  64  87
ENDBRANCH  38  39
ENDBRANCH  31  33
ENDBRANCH  30  31
ENDBRANCH  29  30
ENDBRANCH  28  29
ENDBRANCH  27  28
ENDBRANCH   1  27
TORSDOF 22
ENDMDL
