MODEL 1
REMARK VINA RESULT:      -9.3      0.000      0.000
REMARK SMILES C[C@H]1[C@H](C(=O)OCCOCCOC(=O)c2ccc(-c3c4nc(c(-c5cc(S(=O)(=O)[O-])ccc5F)c5ccc([nH]5)c(-c5cc(S(=O)(=O)[O-])ccc5F)c5nc(c(-c6cc(S(=O)(=O)[O-])ccc6F)c6ccc3[nH]6)C=C5)C=C4)cc2)CCN1C(=O)CC[NH2+]C1CC1
REMARK SMILES IDX 8 1 7 2 6 3 4 4 5 5 3 6 1 7 2 8 80 9 78 10 79 11 81 12 82 13
REMARK SMILES IDX 83 14 84 15 85 16 86 19 87 20 88 21 9 22 10 23 11 24 12 25
REMARK SMILES IDX 13 26 14 27 15 28 16 29 77 30 17 31 76 32 18 33 19 34 20 35
REMARK SMILES IDX 70 36 21 37 75 38 69 39 71 40 22 41 74 42 68 43 67 44 23 46
REMARK SMILES IDX 55 47 35 48 54 49 36 50 39 51 53 52 72 53 37 54 38 55 52 57
REMARK SMILES IDX 73 58 40 59 24 60 25 61 33 62 26 63 32 64 34 65 31 66 27 67
REMARK SMILES IDX 28 68 29 69 30 70 56 71 57 72 65 73 58 74 64 75 66 76 63 77
REMARK SMILES IDX 59 78 60 79 61 80 62 81 41 82 42 83 50 84 43 85 49 86 51 87
REMARK SMILES IDX 48 88 44 89 45 90 46 91 47 92
REMARK H PARENT 85 17 85 18 71 45 39 56
REMARK Flexibility Score: inf
ROOT
ATOM      1  C   UNL A   1      46.149  19.622  25.198  1.00  0.00     0.202 C 
ENDROOT
BRANCH   1   2
ATOM      2  C   UNL A   1      45.081  18.990  24.300  1.00  0.00     0.261 C 
BRANCH   2   3
ATOM      3  O   UNL A   1      43.782  19.590  24.474  1.00  0.00    -0.463 OA
BRANCH   3   4
ATOM      4  C   UNL A   1      43.060  19.133  25.528  1.00  0.00     0.311 C 
ATOM      5  O   UNL A   1      42.816  17.954  25.757  1.00  0.00    -0.252 OA
BRANCH   4   6
ATOM      6  C   UNL A   1      42.526  20.232  26.417  1.00  0.00     0.123 C 
ATOM      7  C   UNL A   1      42.523  22.587  25.574  1.00  0.00     0.032 C 
ATOM      8  C   UNL A   1      41.674  21.323  25.736  1.00  0.00     0.096 C 
ATOM      9  N   UNL A   1      40.562  21.567  26.662  1.00  0.00    -0.339 N 
ATOM     10  C   UNL A   1      41.650  19.698  27.544  1.00  0.00     0.039 C 
ATOM     11  C   UNL A   1      40.805  20.902  27.927  1.00  0.00     0.121 C 
BRANCH   9  12
ATOM     12  C   UNL A   1      39.398  22.285  26.460  1.00  0.00     0.228 C 
ATOM     13  O   UNL A   1      39.153  23.302  27.113  1.00  0.00    -0.275 OA
BRANCH  12  14
ATOM     14  C   UNL A   1      38.395  21.797  25.424  1.00  0.00     0.161 C 
BRANCH  14  15
ATOM     15  C   UNL A   1      37.081  22.579  25.479  1.00  0.00     0.270 C 
BRANCH  15  16
ATOM     16  N   UNL A   1      36.176  22.032  26.499  1.00  0.00    -0.343 N 
ATOM     17  H   UNL A   1      36.449  22.414  27.405  1.00  0.00     0.346 HD
ATOM     18  H   UNL A   1      36.265  21.017  26.450  1.00  0.00     0.346 HD
BRANCH  16  19
ATOM     19  C   UNL A   1      34.759  22.337  26.283  1.00  0.00     0.182 C 
ATOM     20  C   UNL A   1      33.660  21.372  26.638  1.00  0.00     0.071 C 
ATOM     21  C   UNL A   1      33.890  22.579  27.493  1.00  0.00     0.071 C 
ENDBRANCH  16  19
ENDBRANCH  15  16
ENDBRANCH  14  15
ENDBRANCH  12  14
ENDBRANCH   9  12
ENDBRANCH   4   6
ENDBRANCH   3   4
ENDBRANCH   2   3
ENDBRANCH   1   2
BRANCH   1  22
ATOM     22  O   UNL A   1      46.661  20.890  24.785  1.00  0.00    -0.374 OA
BRANCH  22  23
ATOM     23  C   UNL A   1      45.981  22.051  25.258  1.00  0.00     0.202 C 
BRANCH  23  24
ATOM     24  C   UNL A   1      46.392  23.401  24.656  1.00  0.00     0.261 C 
BRANCH  24  25
ATOM     25  O   UNL A   1      46.312  24.475  25.612  1.00  0.00    -0.460 OA
BRANCH  25  26
ATOM     26  C   UNL A   1      45.159  25.190  25.543  1.00  0.00     0.338 C 
ATOM     27  O   UNL A   1      44.355  25.185  24.627  1.00  0.00    -0.246 OA
BRANCH  26  28
ATOM     28  C   UNL A   1      44.873  25.852  26.832  1.00  0.00     0.060 A 
ATOM     29  C   UNL A   1      44.100  25.131  27.753  1.00  0.00     0.016 A 
ATOM     30  C   UNL A   1      45.249  27.169  27.101  1.00  0.00     0.016 A 
ATOM     31  C   UNL A   1      43.636  25.749  28.910  1.00  0.00     0.010 A 
ATOM     32  C   UNL A   1      44.776  27.792  28.266  1.00  0.00     0.010 A 
ATOM     33  C   UNL A   1      43.927  27.099  29.150  1.00  0.00    -0.014 A 
BRANCH  33  34
ATOM     34  C   UNL A   1      43.173  27.805  30.219  1.00  0.00     0.031 A 
ATOM     35  C   UNL A   1      43.811  27.959  31.576  1.00  0.00     0.074 A 
ATOM     36  C   UNL A   1      41.986  28.382  29.962  1.00  0.00     0.049 A 
ATOM     37  N   UNL A   1      43.373  28.591  32.636  1.00  0.00    -0.248 NA
ATOM     38  C   UNL A   1      45.120  27.315  31.758  1.00  0.00     0.031 C 
ATOM     39  C   UNL A   1      41.288  28.339  28.677  1.00  0.00     0.029 A 
ATOM     40  N   UNL A   1      41.161  29.130  30.765  1.00  0.00    -0.354 N 
ATOM     41  C   UNL A   1      44.353  28.423  33.609  1.00  0.00     0.074 A 
ATOM     42  C   UNL A   1      45.384  27.590  33.027  1.00  0.00     0.031 C 
ATOM     43  C   UNL A   1      40.143  29.036  28.779  1.00  0.00     0.029 A 
ATOM     44  C   UNL A   1      40.011  29.551  30.140  1.00  0.00     0.049 A 
ATOM     45  H   UNL A   1      41.374  29.345  31.702  1.00  0.00     0.167 HD
ATOM     46  C   UNL A   1      44.401  28.930  34.867  1.00  0.00     0.034 A 
ATOM     47  C   UNL A   1      38.970  30.264  30.615  1.00  0.00     0.034 A 
ATOM     48  C   UNL A   1      43.360  29.750  35.441  1.00  0.00     0.049 A 
ATOM     49  C   UNL A   1      39.010  30.759  32.041  1.00  0.00     0.074 A 
ATOM     50  C   UNL A   1      43.305  30.318  36.702  1.00  0.00     0.029 A 
ATOM     51  N   UNL A   1      42.186  30.114  34.793  1.00  0.00    -0.354 N 
ATOM     52  N   UNL A   1      39.949  30.604  32.946  1.00  0.00    -0.248 NA
ATOM     53  C   UNL A   1      37.855  31.543  32.501  1.00  0.00     0.031 C 
ATOM     54  C   UNL A   1      42.071  30.964  36.841  1.00  0.00     0.029 A 
ATOM     55  C   UNL A   1      41.387  30.871  35.639  1.00  0.00     0.049 A 
ATOM     56  H   UNL A   1      41.953  29.869  33.869  1.00  0.00     0.167 HD
ATOM     57  C   UNL A   1      39.510  31.297  34.072  1.00  0.00     0.074 A 
ATOM     58  C   UNL A   1      38.234  31.886  33.722  1.00  0.00     0.031 C 
ATOM     59  C   UNL A   1      40.109  31.440  35.283  1.00  0.00     0.034 A 
BRANCH  46  60
ATOM     60  C   UNL A   1      45.593  28.560  35.718  1.00  0.00     0.023 A 
ATOM     61  C   UNL A   1      45.577  27.441  36.570  1.00  0.00     0.031 A 
ATOM     62  C   UNL A   1      46.748  29.361  35.707  1.00  0.00     0.131 A 
ATOM     63  C   UNL A   1      46.662  27.198  37.427  1.00  0.00     0.055 A 
ATOM     64  C   UNL A   1      47.856  29.068  36.504  1.00  0.00     0.041 A 
ATOM     65  F   UNL A   1      46.813  30.456  34.933  1.00  0.00    -0.206 F 
ATOM     66  C   UNL A   1      47.811  27.990  37.383  1.00  0.00     0.022 A 
BRANCH  63  67
ATOM     67  S   UNL A   1      46.491  25.921  38.705  1.00  0.00     0.124 S 
ATOM     68  O   UNL A   1      47.110  24.768  38.054  1.00  0.00    -0.237 OA
ATOM     69  O   UNL A   1      47.229  26.494  39.825  1.00  0.00    -0.237 OA
ATOM     70  O   UNL A   1      45.046  25.817  38.897  1.00  0.00    -0.744 OA
ENDBRANCH  63  67
ENDBRANCH  46  60
BRANCH  47  71
ATOM     71  C   UNL A   1      37.783  30.535  29.751  1.00  0.00     0.023 A 
ATOM     72  C   UNL A   1      37.322  31.843  29.532  1.00  0.00     0.031 A 
ATOM     73  C   UNL A   1      37.055  29.475  29.182  1.00  0.00     0.131 A 
ATOM     74  C   UNL A   1      36.140  32.054  28.802  1.00  0.00     0.055 A 
ATOM     75  C   UNL A   1      35.910  29.693  28.415  1.00  0.00     0.041 A 
ATOM     76  F   UNL A   1      37.452  28.205  29.362  1.00  0.00    -0.206 F 
ATOM     77  C   UNL A   1      35.439  30.989  28.232  1.00  0.00     0.022 A 
BRANCH  74  78
ATOM     78  S   UNL A   1      35.483  33.741  28.679  1.00  0.00     0.124 S 
ATOM     79  O   UNL A   1      35.212  33.851  27.251  1.00  0.00    -0.237 OA
ATOM     80  O   UNL A   1      34.315  33.672  29.551  1.00  0.00    -0.237 OA
ATOM     81  O   UNL A   1      36.579  34.570  29.175  1.00  0.00    -0.744 OA
ENDBRANCH  74  78
ENDBRANCH  47  71
BRANCH  59  82
ATOM     82  C   UNL A   1      39.401  32.307  36.300  1.00  0.00     0.023 A 
ATOM     83  C   UNL A   1      39.815  33.624  36.567  1.00  0.00     0.031 A 
ATOM     84  C   UNL A   1      38.315  31.795  37.033  1.00  0.00     0.131 A 
ATOM     85  C   UNL A   1      39.194  34.359  37.590  1.00  0.00     0.055 A 
ATOM     86  C   UNL A   1      37.659  32.555  38.003  1.00  0.00     0.041 A 
ATOM     87  F   UNL A   1      37.877  30.544  36.821  1.00  0.00    -0.206 F 
ATOM     88  C   UNL A   1      38.109  33.838  38.298  1.00  0.00     0.022 A 
BRANCH  85  89
ATOM     89  S   UNL A   1      39.902  35.961  38.062  1.00  0.00     0.124 S 
ATOM     90  O   UNL A   1      39.970  36.654  36.781  1.00  0.00    -0.237 OA
ATOM     91  O   UNL A   1      38.916  36.469  39.012  1.00  0.00    -0.237 OA
ATOM     92  O   UNL A   1      41.195  35.606  38.644  1.00  0.00    -0.744 OA
ENDBRANCH  85  89
ENDBRANCH  59  82
ENDBRANCH  33  34
ENDBRANCH  26  28
ENDBRANCH  25  26
ENDBRANCH  24  25
ENDBRANCH  23  24
ENDBRANCH  22  23
ENDBRANCH   1  22
TORSDOF 22
ENDMDL
MODEL 2
REMARK VINA RESULT:      -8.9      4.419      6.493
REMARK SMILES C[C@H]1[C@H](C(=O)OCCOCCOC(=O)c2ccc(-c3c4nc(c(-c5cc(S(=O)(=O)[O-])ccc5F)c5ccc([nH]5)c(-c5cc(S(=O)(=O)[O-])ccc5F)c5nc(c(-c6cc(S(=O)(=O)[O-])ccc6F)c6ccc3[nH]6)C=C5)C=C4)cc2)CCN1C(=O)CC[NH2+]C1CC1
REMARK SMILES IDX 8 1 7 2 6 3 4 4 5 5 3 6 1 7 2 8 80 9 78 10 79 11 81 12 82 13
REMARK SMILES IDX 83 14 84 15 85 16 86 19 87 20 88 21 9 22 10 23 11 24 12 25
REMARK SMILES IDX 13 26 14 27 15 28 16 29 77 30 17 31 76 32 18 33 19 34 20 35
REMARK SMILES IDX 70 36 21 37 75 38 69 39 71 40 22 41 74 42 68 43 67 44 23 46
REMARK SMILES IDX 55 47 35 48 54 49 36 50 39 51 53 52 72 53 37 54 38 55 52 57
REMARK SMILES IDX 73 58 40 59 24 60 25 61 33 62 26 63 32 64 34 65 31 66 27 67
REMARK SMILES IDX 28 68 29 69 30 70 56 71 57 72 65 73 58 74 64 75 66 76 63 77
REMARK SMILES IDX 59 78 60 79 61 80 62 81 41 82 42 83 50 84 43 85 49 86 51 87
REMARK SMILES IDX 48 88 44 89 45 90 46 91 47 92
REMARK H PARENT 85 17 85 18 71 45 39 56
REMARK Flexibility Score: inf
ROOT
ATOM      1  C   UNL A   1      48.944  27.130  23.939  1.00  0.00     0.202 C 
ENDROOT
BRANCH   1   2
ATOM      2  C   UNL A   1      47.429  27.161  23.718  1.00  0.00     0.261 C 
BRANCH   2   3
ATOM      3  O   UNL A   1      46.710  26.370  24.685  1.00  0.00    -0.463 OA
BRANCH   3   4
ATOM      4  C   UNL A   1      45.693  27.003  25.325  1.00  0.00     0.311 C 
ATOM      5  O   UNL A   1      45.293  28.132  25.065  1.00  0.00    -0.252 OA
BRANCH   4   6
ATOM      6  C   UNL A   1      45.089  26.195  26.449  1.00  0.00     0.123 C 
ATOM      7  C   UNL A   1      43.315  27.228  27.877  1.00  0.00     0.032 C 
ATOM      8  C   UNL A   1      43.568  26.331  26.662  1.00  0.00     0.096 C 
ATOM      9  N   UNL A   1      43.099  24.966  26.926  1.00  0.00    -0.339 N 
ATOM     10  C   UNL A   1      45.329  24.698  26.286  1.00  0.00     0.039 C 
ATOM     11  C   UNL A   1      44.226  24.076  27.127  1.00  0.00     0.121 C 
BRANCH   9  12
ATOM     12  C   UNL A   1      41.805  24.481  26.976  1.00  0.00     0.228 C 
ATOM     13  O   UNL A   1      41.570  23.323  27.334  1.00  0.00    -0.275 OA
BRANCH  12  14
ATOM     14  C   UNL A   1      40.655  25.389  26.564  1.00  0.00     0.161 C 
BRANCH  14  15
ATOM     15  C   UNL A   1      39.799  25.816  27.760  1.00  0.00     0.270 C 
BRANCH  15  16
ATOM     16  N   UNL A   1      39.354  27.210  27.626  1.00  0.00    -0.343 N 
ATOM     17  H   UNL A   1      38.463  27.213  27.129  1.00  0.00     0.346 HD
ATOM     18  H   UNL A   1      40.093  27.704  27.127  1.00  0.00     0.346 HD
BRANCH  16  19
ATOM     19  C   UNL A   1      39.168  27.913  28.898  1.00  0.00     0.182 C 
ATOM     20  C   UNL A   1      40.239  27.973  29.955  1.00  0.00     0.071 C 
ATOM     21  C   UNL A   1      39.946  29.186  29.128  1.00  0.00     0.071 C 
ENDBRANCH  16  19
ENDBRANCH  15  16
ENDBRANCH  14  15
ENDBRANCH  12  14
ENDBRANCH   9  12
ENDBRANCH   4   6
ENDBRANCH   3   4
ENDBRANCH   2   3
ENDBRANCH   1   2
BRANCH   1  22
ATOM     22  O   UNL A   1      49.502  28.208  24.690  1.00  0.00    -0.374 OA
BRANCH  22  23
ATOM     23  C   UNL A   1      50.918  28.369  24.645  1.00  0.00     0.202 C 
BRANCH  23  24
ATOM     24  C   UNL A   1      51.763  27.108  24.426  1.00  0.00     0.261 C 
BRANCH  24  25
ATOM     25  O   UNL A   1      52.460  26.700  25.618  1.00  0.00    -0.460 OA
BRANCH  25  26
ATOM     26  C   UNL A   1      51.946  25.588  26.205  1.00  0.00     0.338 C 
ATOM     27  O   UNL A   1      52.383  24.453  26.121  1.00  0.00    -0.246 OA
BRANCH  26  28
ATOM     28  C   UNL A   1      50.869  25.944  27.153  1.00  0.00     0.060 A 
ATOM     29  C   UNL A   1      49.617  25.354  26.935  1.00  0.00     0.016 A 
ATOM     30  C   UNL A   1      51.036  26.899  28.157  1.00  0.00     0.016 A 
ATOM     31  C   UNL A   1      48.510  25.772  27.667  1.00  0.00     0.010 A 
ATOM     32  C   UNL A   1      49.919  27.323  28.891  1.00  0.00     0.010 A 
ATOM     33  C   UNL A   1      48.643  26.796  28.615  1.00  0.00    -0.014 A 
BRANCH  33  34
ATOM     34  C   UNL A   1      47.407  27.427  29.151  1.00  0.00     0.031 A 
ATOM     35  C   UNL A   1      46.711  26.777  30.320  1.00  0.00     0.074 A 
ATOM     36  C   UNL A   1      46.968  28.604  28.672  1.00  0.00     0.049 A 
ATOM     37  N   UNL A   1      45.663  27.179  30.993  1.00  0.00    -0.248 NA
ATOM     38  C   UNL A   1      47.276  25.504  30.790  1.00  0.00     0.031 C 
ATOM     39  C   UNL A   1      47.583  29.350  27.575  1.00  0.00     0.029 A 
ATOM     40  N   UNL A   1      45.909  29.387  29.058  1.00  0.00    -0.354 N 
ATOM     41  C   UNL A   1      45.445  26.211  31.969  1.00  0.00     0.074 A 
ATOM     42  C   UNL A   1      46.441  25.180  31.766  1.00  0.00     0.031 C 
ATOM     43  C   UNL A   1      46.891  30.486  27.379  1.00  0.00     0.029 A 
ATOM     44  C   UNL A   1      45.771  30.537  28.316  1.00  0.00     0.049 A 
ATOM     45  H   UNL A   1      45.303  29.147  29.797  1.00  0.00     0.167 HD
ATOM     46  C   UNL A   1      44.513  26.189  32.955  1.00  0.00     0.034 A 
ATOM     47  C   UNL A   1      44.844  31.513  28.383  1.00  0.00     0.034 A 
ATOM     48  C   UNL A   1      43.517  27.218  33.139  1.00  0.00     0.049 A 
ATOM     49  C   UNL A   1      43.771  31.434  29.443  1.00  0.00     0.074 A 
ATOM     50  C   UNL A   1      42.527  27.299  34.103  1.00  0.00     0.029 A 
ATOM     51  N   UNL A   1      43.378  28.344  32.336  1.00  0.00    -0.354 N 
ATOM     52  N   UNL A   1      43.585  30.520  30.367  1.00  0.00    -0.248 NA
ATOM     53  C   UNL A   1      42.795  32.532  29.478  1.00  0.00     0.031 C 
ATOM     54  C   UNL A   1      41.748  28.433  33.841  1.00  0.00     0.029 A 
ATOM     55  C   UNL A   1      42.300  29.106  32.763  1.00  0.00     0.049 A 
ATOM     56  H   UNL A   1      43.958  28.567  31.573  1.00  0.00     0.167 HD
ATOM     57  C   UNL A   1      42.488  30.950  31.113  1.00  0.00     0.074 A 
ATOM     58  C   UNL A   1      42.072  32.214  30.540  1.00  0.00     0.031 C 
ATOM     59  C   UNL A   1      41.884  30.358  32.175  1.00  0.00     0.034 A 
BRANCH  46  60
ATOM     60  C   UNL A   1      44.499  24.987  33.868  1.00  0.00     0.023 A 
ATOM     61  C   UNL A   1      44.927  25.067  35.206  1.00  0.00     0.031 A 
ATOM     62  C   UNL A   1      44.091  23.732  33.384  1.00  0.00     0.131 A 
ATOM     63  C   UNL A   1      45.006  23.904  35.988  1.00  0.00     0.055 A 
ATOM     64  C   UNL A   1      44.097  22.592  34.190  1.00  0.00     0.041 A 
ATOM     65  F   UNL A   1      43.696  23.587  32.109  1.00  0.00    -0.206 F 
ATOM     66  C   UNL A   1      44.571  22.671  35.496  1.00  0.00     0.022 A 
BRANCH  63  67
ATOM     67  S   UNL A   1      45.823  23.996  37.605  1.00  0.00     0.124 S 
ATOM     68  O   UNL A   1      44.909  24.862  38.348  1.00  0.00    -0.237 OA
ATOM     69  O   UNL A   1      45.859  22.600  38.022  1.00  0.00    -0.237 OA
ATOM     70  O   UNL A   1      47.123  24.591  37.300  1.00  0.00    -0.744 OA
ENDBRANCH  63  67
ENDBRANCH  46  60
BRANCH  47  71
ATOM     71  C   UNL A   1      44.861  32.640  27.405  1.00  0.00     0.023 A 
ATOM     72  C   UNL A   1      45.524  33.845  27.688  1.00  0.00     0.031 A 
ATOM     73  C   UNL A   1      44.156  32.546  26.191  1.00  0.00     0.131 A 
ATOM     74  C   UNL A   1      45.431  34.922  26.792  1.00  0.00     0.055 A 
ATOM     75  C   UNL A   1      44.109  33.602  25.280  1.00  0.00     0.041 A 
ATOM     76  F   UNL A   1      43.504  31.416  25.871  1.00  0.00    -0.206 F 
ATOM     77  C   UNL A   1      44.738  34.804  25.584  1.00  0.00     0.022 A 
BRANCH  74  78
ATOM     78  S   UNL A   1      46.159  36.515  27.267  1.00  0.00     0.124 S 
ATOM     79  O   UNL A   1      46.758  36.954  26.013  1.00  0.00    -0.237 OA
ATOM     80  O   UNL A   1      44.986  37.260  27.715  1.00  0.00    -0.237 OA
ATOM     81  O   UNL A   1      47.105  36.156  28.321  1.00  0.00    -0.744 OA
ENDBRANCH  74  78
ENDBRANCH  47  71
BRANCH  59  82
ATOM     82  C   UNL A   1      40.734  31.104  32.812  1.00  0.00     0.023 A 
ATOM     83  C   UNL A   1      39.397  30.845  32.460  1.00  0.00     0.031 A 
ATOM     84  C   UNL A   1      40.983  32.110  33.762  1.00  0.00     0.131 A 
ATOM     85  C   UNL A   1      38.366  31.630  33.001  1.00  0.00     0.055 A 
ATOM     86  C   UNL A   1      39.948  32.843  34.347  1.00  0.00     0.041 A 
ATOM     87  F   UNL A   1      42.239  32.402  34.136  1.00  0.00    -0.206 F 
ATOM     88  C   UNL A   1      38.632  32.616  33.954  1.00  0.00     0.022 A 
BRANCH  85  89
ATOM     89  S   UNL A   1      36.684  31.423  32.354  1.00  0.00     0.124 S 
ATOM     90  O   UNL A   1      36.486  29.983  32.474  1.00  0.00    -0.237 OA
ATOM     91  O   UNL A   1      35.898  32.253  33.261  1.00  0.00    -0.237 OA
ATOM     92  O   UNL A   1      36.781  31.924  30.984  1.00  0.00    -0.744 OA
ENDBRANCH  85  89
ENDBRANCH  59  82
ENDBRANCH  33  34
ENDBRANCH  26  28
ENDBRANCH  25  26
ENDBRANCH  24  25
ENDBRANCH  23  24
ENDBRANCH  22  23
ENDBRANCH   1  22
TORSDOF 22
ENDMDL
MODEL 3
REMARK VINA RESULT:      -8.9      3.945      4.886
REMARK SMILES C[C@H]1[C@H](C(=O)OCCOCCOC(=O)c2ccc(-c3c4nc(c(-c5cc(S(=O)(=O)[O-])ccc5F)c5ccc([nH]5)c(-c5cc(S(=O)(=O)[O-])ccc5F)c5nc(c(-c6cc(S(=O)(=O)[O-])ccc6F)c6ccc3[nH]6)C=C5)C=C4)cc2)CCN1C(=O)CC[NH2+]C1CC1
REMARK SMILES IDX 8 1 7 2 6 3 4 4 5 5 3 6 1 7 2 8 80 9 78 10 79 11 81 12 82 13
REMARK SMILES IDX 83 14 84 15 85 16 86 19 87 20 88 21 9 22 10 23 11 24 12 25
REMARK SMILES IDX 13 26 14 27 15 28 16 29 77 30 17 31 76 32 18 33 19 34 20 35
REMARK SMILES IDX 70 36 21 37 75 38 69 39 71 40 22 41 74 42 68 43 67 44 23 46
REMARK SMILES IDX 55 47 35 48 54 49 36 50 39 51 53 52 72 53 37 54 38 55 52 57
REMARK SMILES IDX 73 58 40 59 24 60 25 61 33 62 26 63 32 64 34 65 31 66 27 67
REMARK SMILES IDX 28 68 29 69 30 70 56 71 57 72 65 73 58 74 64 75 66 76 63 77
REMARK SMILES IDX 59 78 60 79 61 80 62 81 41 82 42 83 50 84 43 85 49 86 51 87
REMARK SMILES IDX 48 88 44 89 45 90 46 91 47 92
REMARK H PARENT 85 17 85 18 71 45 39 56
REMARK Flexibility Score: inf
ROOT
ATOM      1  C   UNL A   1      46.149  20.208  24.728  1.00  0.00     0.202 C 
ENDROOT
BRANCH   1   2
ATOM      2  C   UNL A   1      44.886  19.525  24.194  1.00  0.00     0.261 C 
BRANCH   2   3
ATOM      3  O   UNL A   1      43.676  20.104  24.723  1.00  0.00    -0.463 OA
BRANCH   3   4
ATOM      4  C   UNL A   1      42.995  19.334  25.610  1.00  0.00     0.311 C 
ATOM      5  O   UNL A   1      43.063  18.112  25.680  1.00  0.00    -0.252 OA
BRANCH   4   6
ATOM      6  C   UNL A   1      42.082  20.124  26.518  1.00  0.00     0.123 C 
ATOM      7  C   UNL A   1      43.050  21.939  27.941  1.00  0.00     0.032 C 
ATOM      8  C   UNL A   1      42.343  21.641  26.616  1.00  0.00     0.096 C 
ATOM      9  N   UNL A   1      41.010  22.256  26.596  1.00  0.00    -0.339 N 
ATOM     10  C   UNL A   1      40.615  20.004  26.120  1.00  0.00     0.039 C 
ATOM     11  C   UNL A   1      39.985  21.241  26.740  1.00  0.00     0.121 C 
BRANCH   9  12
ATOM     12  C   UNL A   1      40.664  23.586  26.447  1.00  0.00     0.228 C 
ATOM     13  O   UNL A   1      39.497  23.961  26.585  1.00  0.00    -0.275 OA
BRANCH  12  14
ATOM     14  C   UNL A   1      41.742  24.598  26.087  1.00  0.00     0.161 C 
BRANCH  14  15
ATOM     15  C   UNL A   1      41.158  25.978  25.772  1.00  0.00     0.270 C 
BRANCH  15  16
ATOM     16  N   UNL A   1      40.700  26.654  26.994  1.00  0.00    -0.343 N 
ATOM     17  H   UNL A   1      41.412  26.528  27.714  1.00  0.00     0.346 HD
ATOM     18  H   UNL A   1      39.804  26.233  27.240  1.00  0.00     0.346 HD
BRANCH  16  19
ATOM     19  C   UNL A   1      40.457  28.091  26.839  1.00  0.00     0.182 C 
ATOM     20  C   UNL A   1      39.435  28.832  27.659  1.00  0.00     0.071 C 
ATOM     21  C   UNL A   1      40.892  29.010  27.955  1.00  0.00     0.071 C 
ENDBRANCH  16  19
ENDBRANCH  15  16
ENDBRANCH  14  15
ENDBRANCH  12  14
ENDBRANCH   9  12
ENDBRANCH   4   6
ENDBRANCH   3   4
ENDBRANCH   2   3
ENDBRANCH   1   2
BRANCH   1  22
ATOM     22  O   UNL A   1      45.970  21.472  25.367  1.00  0.00    -0.374 OA
BRANCH  22  23
ATOM     23  C   UNL A   1      46.021  22.632  24.539  1.00  0.00     0.202 C 
BRANCH  23  24
ATOM     24  C   UNL A   1      46.520  23.933  25.182  1.00  0.00     0.261 C 
BRANCH  24  25
ATOM     25  O   UNL A   1      45.850  25.095  24.658  1.00  0.00    -0.460 OA
BRANCH  25  26
ATOM     26  C   UNL A   1      46.480  26.267  24.936  1.00  0.00     0.338 C 
ATOM     27  O   UNL A   1      47.202  26.900  24.185  1.00  0.00    -0.246 OA
BRANCH  26  28
ATOM     28  C   UNL A   1      46.022  26.815  26.230  1.00  0.00     0.060 A 
ATOM     29  C   UNL A   1      44.641  26.803  26.466  1.00  0.00     0.016 A 
ATOM     30  C   UNL A   1      46.891  27.418  27.141  1.00  0.00     0.016 A 
ATOM     31  C   UNL A   1      44.116  27.462  27.574  1.00  0.00     0.010 A 
ATOM     32  C   UNL A   1      46.360  28.085  28.255  1.00  0.00     0.010 A 
ATOM     33  C   UNL A   1      44.967  28.151  28.448  1.00  0.00    -0.014 A 
BRANCH  33  34
ATOM     34  C   UNL A   1      44.361  29.088  29.432  1.00  0.00     0.031 A 
ATOM     35  C   UNL A   1      44.031  28.578  30.811  1.00  0.00     0.074 A 
ATOM     36  C   UNL A   1      44.198  30.390  29.136  1.00  0.00     0.049 A 
ATOM     37  N   UNL A   1      43.561  29.224  31.848  1.00  0.00    -0.248 NA
ATOM     38  C   UNL A   1      44.264  27.146  31.050  1.00  0.00     0.031 C 
ATOM     39  C   UNL A   1      44.522  31.010  27.851  1.00  0.00     0.029 A 
ATOM     40  N   UNL A   1      43.731  31.430  29.901  1.00  0.00    -0.354 N 
ATOM     41  C   UNL A   1      43.446  28.280  32.863  1.00  0.00     0.074 A 
ATOM     42  C   UNL A   1      43.849  27.009  32.300  1.00  0.00     0.031 C 
ATOM     43  C   UNL A   1      44.248  32.324  27.919  1.00  0.00     0.029 A 
ATOM     44  C   UNL A   1      43.705  32.636  29.241  1.00  0.00     0.049 A 
ATOM     45  H   UNL A   1      43.442  31.322  30.836  1.00  0.00     0.167 HD
ATOM     46  C   UNL A   1      43.057  28.457  34.151  1.00  0.00     0.034 A 
ATOM     47  C   UNL A   1      43.285  33.848  29.653  1.00  0.00     0.034 A 
ATOM     48  C   UNL A   1      42.646  29.728  34.697  1.00  0.00     0.049 A 
ATOM     49  C   UNL A   1      42.788  34.009  31.070  1.00  0.00     0.074 A 
ATOM     50  C   UNL A   1      42.234  30.021  35.986  1.00  0.00     0.029 A 
ATOM     51  N   UNL A   1      42.585  30.919  33.983  1.00  0.00    -0.354 N 
ATOM     52  N   UNL A   1      42.697  33.110  32.023  1.00  0.00    -0.248 NA
ATOM     53  C   UNL A   1      42.356  35.355  31.470  1.00  0.00     0.031 C 
ATOM     54  C   UNL A   1      41.859  31.370  36.032  1.00  0.00     0.029 A 
ATOM     55  C   UNL A   1      42.113  31.940  34.795  1.00  0.00     0.049 A 
ATOM     56  H   UNL A   1      42.837  31.022  33.038  1.00  0.00     0.167 HD
ATOM     57  C   UNL A   1      42.226  33.790  33.145  1.00  0.00     0.074 A 
ATOM     58  C   UNL A   1      42.073  35.176  32.751  1.00  0.00     0.031 C 
ATOM     59  C   UNL A   1      41.950  33.316  34.387  1.00  0.00     0.034 A 
BRANCH  46  60
ATOM     60  C   UNL A   1      43.008  27.231  35.033  1.00  0.00     0.023 A 
ATOM     61  C   UNL A   1      44.106  26.842  35.822  1.00  0.00     0.031 A 
ATOM     62  C   UNL A   1      41.863  26.418  35.055  1.00  0.00     0.131 A 
ATOM     63  C   UNL A   1      44.061  25.636  36.540  1.00  0.00     0.055 A 
ATOM     64  C   UNL A   1      41.794  25.261  35.834  1.00  0.00     0.041 A 
ATOM     65  F   UNL A   1      40.792  26.724  34.305  1.00  0.00    -0.206 F 
ATOM     66  C   UNL A   1      42.903  24.855  36.570  1.00  0.00     0.022 A 
BRANCH  63  67
ATOM     67  S   UNL A   1      45.584  25.027  37.314  1.00  0.00     0.124 S 
ATOM     68  O   UNL A   1      45.074  24.455  38.559  1.00  0.00    -0.237 OA
ATOM     69  O   UNL A   1      46.080  24.073  36.329  1.00  0.00    -0.237 OA
ATOM     70  O   UNL A   1      46.393  26.233  37.477  1.00  0.00    -0.744 OA
ENDBRANCH  63  67
ENDBRANCH  46  60
BRANCH  47  71
ATOM     71  C   UNL A   1      43.285  35.008  28.714  1.00  0.00     0.023 A 
ATOM     72  C   UNL A   1      44.478  35.643  28.335  1.00  0.00     0.031 A 
ATOM     73  C   UNL A   1      42.074  35.537  28.230  1.00  0.00     0.131 A 
ATOM     74  C   UNL A   1      44.433  36.796  27.535  1.00  0.00     0.055 A 
ATOM     75  C   UNL A   1      42.038  36.654  27.394  1.00  0.00     0.041 A 
ATOM     76  F   UNL A   1      40.904  34.969  28.563  1.00  0.00    -0.206 F 
ATOM     77  C   UNL A   1      43.222  37.299  27.052  1.00  0.00     0.022 A 
BRANCH  74  78
ATOM     78  S   UNL A   1      45.979  37.686  27.202  1.00  0.00     0.124 S 
ATOM     79  O   UNL A   1      45.520  38.768  26.341  1.00  0.00    -0.237 OA
ATOM     80  O   UNL A   1      46.401  38.068  28.546  1.00  0.00    -0.237 OA
ATOM     81  O   UNL A   1      46.817  36.680  26.552  1.00  0.00    -0.744 OA
ENDBRANCH  74  78
ENDBRANCH  47  71
BRANCH  59  82
ATOM     82  C   UNL A   1      41.497  34.322  35.420  1.00  0.00     0.023 A 
ATOM     83  C   UNL A   1      42.415  35.032  36.216  1.00  0.00     0.031 A 
ATOM     84  C   UNL A   1      40.126  34.552  35.631  1.00  0.00     0.131 A 
ATOM     85  C   UNL A   1      41.950  35.881  37.232  1.00  0.00     0.055 A 
ATOM     86  C   UNL A   1      39.670  35.449  36.599  1.00  0.00     0.041 A 
ATOM     87  F   UNL A   1      39.204  33.903  34.902  1.00  0.00    -0.206 F 
ATOM     88  C   UNL A   1      40.584  36.106  37.418  1.00  0.00     0.022 A 
BRANCH  85  89
ATOM     89  S   UNL A   1      43.152  36.598  38.386  1.00  0.00     0.124 S 
ATOM     90  O   UNL A   1      42.301  37.008  39.497  1.00  0.00    -0.237 OA
ATOM     91  O   UNL A   1      44.043  35.471  38.645  1.00  0.00    -0.237 OA
ATOM     92  O   UNL A   1      43.747  37.695  37.623  1.00  0.00    -0.744 OA
ENDBRANCH  85  89
ENDBRANCH  59  82
ENDBRANCH  33  34
ENDBRANCH  26  28
ENDBRANCH  25  26
ENDBRANCH  24  25
ENDBRANCH  23  24
ENDBRANCH  22  23
ENDBRANCH   1  22
TORSDOF 22
ENDMDL
