MODEL 1
REMARK VINA RESULT:      -8.9      0.000      0.000
REMARK SMILES COC(=O)c1ccc([C@H]([NH3+])CC(=O)OCCOCCOC(=O)c2ccc(-c3c4nc(c(-c5cc(S(=O)(=O)[O-])ccc5F)c5ccc([nH]5)c(-c5cc(S(=O)(=O)[O-])ccc5F)c5nc(c(-c6cc(S(=O)(=O)[O-])ccc6F)c6ccc3[nH]6)C=C5)C=C4)cc2)cc1
REMARK SMILES IDX 16 1 15 2 14 3 12 4 13 5 11 6 9 7 8 8 5 9 6 10 87 11 7 12
REMARK SMILES IDX 86 13 3 14 4 15 2 16 1 17 10 18 17 22 18 23 19 24 20 25
REMARK SMILES IDX 21 26 22 27 23 28 24 29 85 30 25 31 84 32 26 33 27 34 28 35
REMARK SMILES IDX 78 36 29 37 83 38 77 39 79 40 30 41 82 42 76 43 75 44 31 46
REMARK SMILES IDX 63 47 43 48 62 49 44 50 47 51 61 52 80 53 45 54 46 55 60 57
REMARK SMILES IDX 81 58 48 59 32 60 33 61 41 62 34 63 40 64 42 65 39 66 35 67
REMARK SMILES IDX 36 68 37 69 38 70 64 71 65 72 73 73 66 74 72 75 74 76 71 77
REMARK SMILES IDX 67 78 68 79 69 80 70 81 49 82 50 83 58 84 51 85 57 86 59 87
REMARK SMILES IDX 56 88 52 89 53 90 54 91 55 92
REMARK H PARENT 10 19 10 20 10 21 79 45 47 56
REMARK Flexibility Score: inf
ROOT
ATOM      1  C   UNL A   1      44.190  18.883  24.944  1.00  0.00     0.202 C 
ENDROOT
BRANCH   1   2
ATOM      2  C   UNL A   1      45.013  20.173  25.003  1.00  0.00     0.261 C 
BRANCH   2   3
ATOM      3  O   UNL A   1      44.493  21.198  24.134  1.00  0.00    -0.463 OA
BRANCH   3   4
ATOM      4  C   UNL A   1      44.937  22.457  24.383  1.00  0.00     0.312 C 
ATOM      5  O   UNL A   1      45.498  23.179  23.566  1.00  0.00    -0.252 OA
BRANCH   4   6
ATOM      6  C   UNL A   1      44.746  22.890  25.817  1.00  0.00     0.192 C 
BRANCH   6   7
ATOM      7  C   UNL A   1      45.994  23.339  26.607  1.00  0.00     0.223 C 
BRANCH   7   8
ATOM      8  C   UNL A   1      45.651  23.943  27.980  1.00  0.00     0.010 A 
ATOM      9  C   UNL A   1      44.998  25.084  30.500  1.00  0.00     0.060 A 
ATOM     10  C   UNL A   1      46.170  25.457  29.838  1.00  0.00     0.016 A 
ATOM     11  C   UNL A   1      44.180  24.107  29.931  1.00  0.00     0.016 A 
ATOM     12  C   UNL A   1      46.497  24.883  28.602  1.00  0.00     0.011 A 
ATOM     13  C   UNL A   1      44.513  23.535  28.698  1.00  0.00     0.011 A 
BRANCH   9  14
ATOM     14  C   UNL A   1      44.645  25.752  31.778  1.00  0.00     0.337 C 
ATOM     15  O   UNL A   1      44.199  25.164  32.755  1.00  0.00    -0.246 OA
BRANCH  14  16
ATOM     16  O   UNL A   1      44.892  27.082  31.698  1.00  0.00    -0.465 OA
ATOM     17  C   UNL A   1      45.717  27.602  32.740  1.00  0.00     0.282 C 
ENDBRANCH  14  16
ENDBRANCH   9  14
ENDBRANCH   7   8
BRANCH   7  18
ATOM     18  N   UNL A   1      46.793  24.280  25.808  1.00  0.00    -0.351 N 
ATOM     19  H   UNL A   1      47.783  24.049  25.900  1.00  0.00     0.345 HD
ATOM     20  H   UNL A   1      46.633  25.230  26.143  1.00  0.00     0.345 HD
ATOM     21  H   UNL A   1      46.518  24.213  24.829  1.00  0.00     0.345 HD
ENDBRANCH   7  18
ENDBRANCH   6   7
ENDBRANCH   4   6
ENDBRANCH   3   4
ENDBRANCH   2   3
ENDBRANCH   1   2
BRANCH   1  22
ATOM     22  O   UNL A   1      42.771  19.029  24.940  1.00  0.00    -0.374 OA
BRANCH  22  23
ATOM     23  C   UNL A   1      42.150  19.442  26.156  1.00  0.00     0.202 C 
BRANCH  23  24
ATOM     24  C   UNL A   1      41.713  20.909  26.256  1.00  0.00     0.261 C 
BRANCH  24  25
ATOM     25  O   UNL A   1      40.457  21.064  26.940  1.00  0.00    -0.460 OA
BRANCH  25  26
ATOM     26  C   UNL A   1      39.584  21.910  26.340  1.00  0.00     0.338 C 
ATOM     27  O   UNL A   1      38.670  21.604  25.585  1.00  0.00    -0.246 OA
BRANCH  26  28
ATOM     28  C   UNL A   1      39.746  23.274  26.875  1.00  0.00     0.060 A 
ATOM     29  C   UNL A   1      39.531  24.344  25.997  1.00  0.00     0.016 A 
ATOM     30  C   UNL A   1      40.170  23.506  28.185  1.00  0.00     0.016 A 
ATOM     31  C   UNL A   1      39.780  25.651  26.412  1.00  0.00     0.010 A 
ATOM     32  C   UNL A   1      40.430  24.820  28.596  1.00  0.00     0.010 A 
ATOM     33  C   UNL A   1      40.264  25.895  27.704  1.00  0.00    -0.014 A 
BRANCH  33  34
ATOM     34  C   UNL A   1      40.730  27.257  28.067  1.00  0.00     0.031 A 
ATOM     35  C   UNL A   1      42.180  27.607  27.880  1.00  0.00     0.074 A 
ATOM     36  C   UNL A   1      39.866  28.180  28.530  1.00  0.00     0.049 A 
ATOM     37  N   UNL A   1      42.814  28.713  28.172  1.00  0.00    -0.248 NA
ATOM     38  C   UNL A   1      43.029  26.566  27.281  1.00  0.00     0.031 C 
ATOM     39  C   UNL A   1      38.428  27.975  28.702  1.00  0.00     0.029 A 
ATOM     40  N   UNL A   1      40.074  29.471  28.945  1.00  0.00    -0.354 N 
ATOM     41  C   UNL A   1      44.137  28.504  27.797  1.00  0.00     0.074 A 
ATOM     42  C   UNL A   1      44.218  27.150  27.289  1.00  0.00     0.031 C 
ATOM     43  C   UNL A   1      37.886  29.099  29.202  1.00  0.00     0.029 A 
ATOM     44  C   UNL A   1      38.941  30.086  29.423  1.00  0.00     0.049 A 
ATOM     45  H   UNL A   1      40.952  29.915  28.905  1.00  0.00     0.167 HD
ATOM     46  C   UNL A   1      45.184  29.363  27.865  1.00  0.00     0.034 A 
ATOM     47  C   UNL A   1      38.780  31.295  30.001  1.00  0.00     0.034 A 
ATOM     48  C   UNL A   1      45.090  30.704  28.387  1.00  0.00     0.049 A 
ATOM     49  C   UNL A   1      39.981  32.196  30.163  1.00  0.00     0.074 A 
ATOM     50  C   UNL A   1      46.083  31.663  28.485  1.00  0.00     0.029 A 
ATOM     51  N   UNL A   1      43.938  31.272  28.919  1.00  0.00    -0.354 N 
ATOM     52  N   UNL A   1      41.225  31.989  29.798  1.00  0.00    -0.248 NA
ATOM     53  C   UNL A   1      39.755  33.494  30.814  1.00  0.00     0.031 C 
ATOM     54  C   UNL A   1      45.552  32.780  29.140  1.00  0.00     0.029 A 
ATOM     55  C   UNL A   1      44.207  32.551  29.382  1.00  0.00     0.049 A 
ATOM     56  H   UNL A   1      43.061  30.830  28.960  1.00  0.00     0.167 HD
ATOM     57  C   UNL A   1      41.923  33.143  30.150  1.00  0.00     0.074 A 
ATOM     58  C   UNL A   1      40.958  34.044  30.746  1.00  0.00     0.031 C 
ATOM     59  C   UNL A   1      43.239  33.434  29.988  1.00  0.00     0.034 A 
BRANCH  46  60
ATOM     60  C   UNL A   1      46.530  28.852  27.411  1.00  0.00     0.023 A 
ATOM     61  C   UNL A   1      46.812  28.604  26.056  1.00  0.00     0.031 A 
ATOM     62  C   UNL A   1      47.539  28.581  28.353  1.00  0.00     0.131 A 
ATOM     63  C   UNL A   1      48.042  28.038  25.689  1.00  0.00     0.055 A 
ATOM     64  C   UNL A   1      48.789  28.090  27.974  1.00  0.00     0.041 A 
ATOM     65  F   UNL A   1      47.319  28.777  29.663  1.00  0.00    -0.206 F 
ATOM     66  C   UNL A   1      49.042  27.802  26.636  1.00  0.00     0.022 A 
BRANCH  63  67
ATOM     67  S   UNL A   1      48.268  27.487  23.976  1.00  0.00     0.124 S 
ATOM     68  O   UNL A   1      48.369  26.039  24.142  1.00  0.00    -0.237 OA
ATOM     69  O   UNL A   1      47.056  27.972  23.326  1.00  0.00    -0.237 OA
ATOM     70  O   UNL A   1      49.506  28.147  23.563  1.00  0.00    -0.744 OA
ENDBRANCH  63  67
ENDBRANCH  46  60
BRANCH  47  71
ATOM     71  C   UNL A   1      37.446  31.710  30.523  1.00  0.00     0.023 A 
ATOM     72  C   UNL A   1      36.534  32.409  29.718  1.00  0.00     0.031 A 
ATOM     73  C   UNL A   1      37.088  31.460  31.861  1.00  0.00     0.131 A 
ATOM     74  C   UNL A   1      35.327  32.870  30.267  1.00  0.00     0.055 A 
ATOM     75  C   UNL A   1      35.866  31.875  32.389  1.00  0.00     0.041 A 
ATOM     76  F   UNL A   1      37.925  30.796  32.674  1.00  0.00    -0.206 F 
ATOM     77  C   UNL A   1      34.981  32.596  31.593  1.00  0.00     0.022 A 
BRANCH  74  78
ATOM     78  S   UNL A   1      34.246  33.908  29.245  1.00  0.00     0.124 S 
ATOM     79  O   UNL A   1      33.631  32.921  28.366  1.00  0.00    -0.237 OA
ATOM     80  O   UNL A   1      33.372  34.511  30.246  1.00  0.00    -0.237 OA
ATOM     81  O   UNL A   1      35.176  34.831  28.597  1.00  0.00    -0.744 OA
ENDBRANCH  74  78
ENDBRANCH  47  71
BRANCH  59  82
ATOM     82  C   UNL A   1      43.701  34.803  30.428  1.00  0.00     0.023 A 
ATOM     83  C   UNL A   1      43.620  35.921  29.579  1.00  0.00     0.031 A 
ATOM     84  C   UNL A   1      44.229  34.989  31.718  1.00  0.00     0.131 A 
ATOM     85  C   UNL A   1      44.102  37.164  30.015  1.00  0.00     0.055 A 
ATOM     86  C   UNL A   1      44.655  36.240  32.165  1.00  0.00     0.041 A 
ATOM     87  F   UNL A   1      44.331  33.955  32.570  1.00  0.00    -0.206 F 
ATOM     88  C   UNL A   1      44.603  37.334  31.309  1.00  0.00     0.022 A 
BRANCH  85  89
ATOM     89  S   UNL A   1      44.135  38.547  28.841  1.00  0.00     0.124 S 
ATOM     90  O   UNL A   1      44.473  37.876  27.591  1.00  0.00    -0.237 OA
ATOM     91  O   UNL A   1      42.777  39.072  28.937  1.00  0.00    -0.237 OA
ATOM     92  O   UNL A   1      45.176  39.425  29.374  1.00  0.00    -0.744 OA
ENDBRANCH  85  89
ENDBRANCH  59  82
ENDBRANCH  33  34
ENDBRANCH  26  28
ENDBRANCH  25  26
ENDBRANCH  24  25
ENDBRANCH  23  24
ENDBRANCH  22  23
ENDBRANCH   1  22
TORSDOF 22
ENDMDL
MODEL 2
REMARK VINA RESULT:      -8.4      4.215     10.697
REMARK SMILES COC(=O)c1ccc([C@H]([NH3+])CC(=O)OCCOCCOC(=O)c2ccc(-c3c4nc(c(-c5cc(S(=O)(=O)[O-])ccc5F)c5ccc([nH]5)c(-c5cc(S(=O)(=O)[O-])ccc5F)c5nc(c(-c6cc(S(=O)(=O)[O-])ccc6F)c6ccc3[nH]6)C=C5)C=C4)cc2)cc1
REMARK SMILES IDX 16 1 15 2 14 3 12 4 13 5 11 6 9 7 8 8 5 9 6 10 87 11 7 12
REMARK SMILES IDX 86 13 3 14 4 15 2 16 1 17 10 18 17 22 18 23 19 24 20 25
REMARK SMILES IDX 21 26 22 27 23 28 24 29 85 30 25 31 84 32 26 33 27 34 28 35
REMARK SMILES IDX 78 36 29 37 83 38 77 39 79 40 30 41 82 42 76 43 75 44 31 46
REMARK SMILES IDX 63 47 43 48 62 49 44 50 47 51 61 52 80 53 45 54 46 55 60 57
REMARK SMILES IDX 81 58 48 59 32 60 33 61 41 62 34 63 40 64 42 65 39 66 35 67
REMARK SMILES IDX 36 68 37 69 38 70 64 71 65 72 73 73 66 74 72 75 74 76 71 77
REMARK SMILES IDX 67 78 68 79 69 80 70 81 49 82 50 83 58 84 51 85 57 86 59 87
REMARK SMILES IDX 56 88 52 89 53 90 54 91 55 92
REMARK H PARENT 10 19 10 20 10 21 79 45 47 56
REMARK Flexibility Score: inf
ROOT
ATOM      1  C   UNL A   1      34.577  22.559  24.986  1.00  0.00     0.202 C 
ENDROOT
BRANCH   1   2
ATOM      2  C   UNL A   1      34.655  24.088  24.980  1.00  0.00     0.261 C 
BRANCH   2   3
ATOM      3  O   UNL A   1      34.110  24.672  26.180  1.00  0.00    -0.463 OA
BRANCH   3   4
ATOM      4  C   UNL A   1      32.764  24.567  26.322  1.00  0.00     0.312 C 
ATOM      5  O   UNL A   1      32.194  23.746  27.033  1.00  0.00    -0.252 OA
BRANCH   4   6
ATOM      6  C   UNL A   1      31.989  25.527  25.450  1.00  0.00     0.192 C 
BRANCH   6   7
ATOM      7  C   UNL A   1      32.192  27.039  25.686  1.00  0.00     0.223 C 
BRANCH   7   8
ATOM      8  C   UNL A   1      31.236  27.911  24.851  1.00  0.00     0.010 A 
ATOM      9  C   UNL A   1      29.450  29.518  23.335  1.00  0.00     0.060 A 
ATOM     10  C   UNL A   1      29.496  28.136  23.138  1.00  0.00     0.016 A 
ATOM     11  C   UNL A   1      30.328  30.103  24.249  1.00  0.00     0.016 A 
ATOM     12  C   UNL A   1      30.389  27.347  23.878  1.00  0.00     0.011 A 
ATOM     13  C   UNL A   1      31.218  29.310  24.982  1.00  0.00     0.011 A 
BRANCH   9  14
ATOM     14  C   UNL A   1      28.453  30.323  22.583  1.00  0.00     0.337 C 
ATOM     15  O   UNL A   1      27.244  30.137  22.638  1.00  0.00    -0.246 OA
BRANCH  14  16
ATOM     16  O   UNL A   1      29.077  31.277  21.850  1.00  0.00    -0.465 OA
ATOM     17  C   UNL A   1      28.772  32.619  22.229  1.00  0.00     0.282 C 
ENDBRANCH  14  16
ENDBRANCH   9  14
ENDBRANCH   7   8
BRANCH   7  18
ATOM     18  N   UNL A   1      33.591  27.412  25.435  1.00  0.00    -0.351 N 
ATOM     19  H   UNL A   1      34.196  26.932  26.102  1.00  0.00     0.345 HD
ATOM     20  H   UNL A   1      33.699  28.420  25.543  1.00  0.00     0.345 HD
ATOM     21  H   UNL A   1      33.850  27.143  24.486  1.00  0.00     0.345 HD
ENDBRANCH   7  18
ENDBRANCH   6   7
ENDBRANCH   4   6
ENDBRANCH   3   4
ENDBRANCH   2   3
ENDBRANCH   1   2
BRANCH   1  22
ATOM     22  O   UNL A   1      35.714  21.863  25.495  1.00  0.00    -0.374 OA
BRANCH  22  23
ATOM     23  C   UNL A   1      35.913  20.520  25.056  1.00  0.00     0.202 C 
BRANCH  23  24
ATOM     24  C   UNL A   1      37.357  20.005  25.010  1.00  0.00     0.261 C 
BRANCH  24  25
ATOM     25  O   UNL A   1      38.323  21.064  25.126  1.00  0.00    -0.460 OA
BRANCH  25  26
ATOM     26  C   UNL A   1      39.343  20.811  25.983  1.00  0.00     0.338 C 
ATOM     27  O   UNL A   1      39.906  19.738  26.156  1.00  0.00    -0.246 OA
BRANCH  26  28
ATOM     28  C   UNL A   1      39.845  22.071  26.562  1.00  0.00     0.060 A 
ATOM     29  C   UNL A   1      39.312  23.269  26.069  1.00  0.00     0.016 A 
ATOM     30  C   UNL A   1      40.866  22.090  27.514  1.00  0.00     0.016 A 
ATOM     31  C   UNL A   1      39.826  24.492  26.494  1.00  0.00     0.010 A 
ATOM     32  C   UNL A   1      41.389  23.320  27.931  1.00  0.00     0.010 A 
ATOM     33  C   UNL A   1      40.892  24.526  27.402  1.00  0.00    -0.014 A 
BRANCH  33  34
ATOM     34  C   UNL A   1      41.574  25.813  27.685  1.00  0.00     0.031 A 
ATOM     35  C   UNL A   1      40.836  26.879  28.448  1.00  0.00     0.074 A 
ATOM     36  C   UNL A   1      42.846  26.020  27.294  1.00  0.00     0.049 A 
ATOM     37  N   UNL A   1      41.215  28.090  28.765  1.00  0.00    -0.248 NA
ATOM     38  C   UNL A   1      39.486  26.528  28.915  1.00  0.00     0.031 C 
ATOM     39  C   UNL A   1      43.681  25.043  26.596  1.00  0.00     0.029 A 
ATOM     40  N   UNL A   1      43.653  27.122  27.422  1.00  0.00    -0.354 N 
ATOM     41  C   UNL A   1      40.152  28.649  29.467  1.00  0.00     0.074 A 
ATOM     42  C   UNL A   1      39.101  27.654  29.496  1.00  0.00     0.031 C 
ATOM     43  C   UNL A   1      44.879  25.596  26.345  1.00  0.00     0.029 A 
ATOM     44  C   UNL A   1      44.883  26.977  26.826  1.00  0.00     0.049 A 
ATOM     45  H   UNL A   1      43.377  27.940  27.896  1.00  0.00     0.167 HD
ATOM     46  C   UNL A   1      40.066  29.876  30.039  1.00  0.00     0.034 A 
ATOM     47  C   UNL A   1      45.885  27.866  26.660  1.00  0.00     0.034 A 
ATOM     48  C   UNL A   1      41.118  30.861  29.988  1.00  0.00     0.049 A 
ATOM     49  C   UNL A   1      45.725  29.262  27.214  1.00  0.00     0.074 A 
ATOM     50  C   UNL A   1      41.142  32.127  30.548  1.00  0.00     0.029 A 
ATOM     51  N   UNL A   1      42.328  30.701  29.323  1.00  0.00    -0.354 N 
ATOM     52  N   UNL A   1      44.718  29.776  27.881  1.00  0.00    -0.248 NA
ATOM     53  C   UNL A   1      46.838  30.195  26.991  1.00  0.00     0.031 C 
ATOM     54  C   UNL A   1      42.331  32.756  30.161  1.00  0.00     0.029 A 
ATOM     55  C   UNL A   1      43.086  31.858  29.425  1.00  0.00     0.049 A 
ATOM     56  H   UNL A   1      42.605  29.885  28.849  1.00  0.00     0.167 HD
ATOM     57  C   UNL A   1      45.090  31.085  28.183  1.00  0.00     0.074 A 
ATOM     58  C   UNL A   1      46.417  31.275  27.633  1.00  0.00     0.031 C 
ATOM     59  C   UNL A   1      44.402  32.040  28.859  1.00  0.00     0.034 A 
BRANCH  46  60
ATOM     60  C   UNL A   1      38.767  30.233  30.717  1.00  0.00     0.023 A 
ATOM     61  C   UNL A   1      37.750  30.939  30.050  1.00  0.00     0.031 A 
ATOM     62  C   UNL A   1      38.552  29.885  32.063  1.00  0.00     0.131 A 
ATOM     63  C   UNL A   1      36.598  31.333  30.747  1.00  0.00     0.055 A 
ATOM     64  C   UNL A   1      37.370  30.214  32.730  1.00  0.00     0.041 A 
ATOM     65  F   UNL A   1      39.496  29.231  32.758  1.00  0.00    -0.206 F 
ATOM     66  C   UNL A   1      36.390  30.955  32.076  1.00  0.00     0.022 A 
BRANCH  63  67
ATOM     67  S   UNL A   1      35.436  32.464  29.935  1.00  0.00     0.124 S 
ATOM     68  O   UNL A   1      35.049  31.693  28.755  1.00  0.00    -0.237 OA
ATOM     69  O   UNL A   1      34.403  32.639  30.950  1.00  0.00    -0.237 OA
ATOM     70  O   UNL A   1      36.246  33.648  29.658  1.00  0.00    -0.744 OA
ENDBRANCH  63  67
ENDBRANCH  46  60
BRANCH  47  71
ATOM     71  C   UNL A   1      47.107  27.490  25.894  1.00  0.00     0.023 A 
ATOM     72  C   UNL A   1      47.253  27.832  24.540  1.00  0.00     0.031 A 
ATOM     73  C   UNL A   1      48.127  26.729  26.495  1.00  0.00     0.131 A 
ATOM     74  C   UNL A   1      48.370  27.380  23.821  1.00  0.00     0.055 A 
ATOM     75  C   UNL A   1      49.261  26.325  25.790  1.00  0.00     0.041 A 
ATOM     76  F   UNL A   1      48.037  26.373  27.786  1.00  0.00    -0.206 F 
ATOM     77  C   UNL A   1      49.381  26.640  24.440  1.00  0.00     0.022 A 
BRANCH  74  78
ATOM     78  S   UNL A   1      48.446  27.703  22.038  1.00  0.00     0.124 S 
ATOM     79  O   UNL A   1      47.153  28.330  21.794  1.00  0.00    -0.237 OA
ATOM     80  O   UNL A   1      49.612  28.575  21.939  1.00  0.00    -0.237 OA
ATOM     81  O   UNL A   1      48.617  26.372  21.458  1.00  0.00    -0.744 OA
ENDBRANCH  74  78
ENDBRANCH  47  71
BRANCH  59  82
ATOM     82  C   UNL A   1      45.092  33.365  29.076  1.00  0.00     0.023 A 
ATOM     83  C   UNL A   1      45.901  33.604  30.200  1.00  0.00     0.031 A 
ATOM     84  C   UNL A   1      44.938  34.403  28.139  1.00  0.00     0.131 A 
ATOM     85  C   UNL A   1      46.488  34.866  30.383  1.00  0.00     0.055 A 
ATOM     86  C   UNL A   1      45.569  35.637  28.298  1.00  0.00     0.041 A 
ATOM     87  F   UNL A   1      44.174  34.230  27.047  1.00  0.00    -0.206 F 
ATOM     88  C   UNL A   1      46.341  35.878  29.430  1.00  0.00     0.022 A 
BRANCH  85  89
ATOM     89  S   UNL A   1      47.390  35.195  31.922  1.00  0.00     0.124 S 
ATOM     90  O   UNL A   1      46.416  34.799  32.934  1.00  0.00    -0.237 OA
ATOM     91  O   UNL A   1      48.559  34.332  31.790  1.00  0.00    -0.237 OA
ATOM     92  O   UNL A   1      47.668  36.628  31.857  1.00  0.00    -0.744 OA
ENDBRANCH  85  89
ENDBRANCH  59  82
ENDBRANCH  33  34
ENDBRANCH  26  28
ENDBRANCH  25  26
ENDBRANCH  24  25
ENDBRANCH  23  24
ENDBRANCH  22  23
ENDBRANCH   1  22
TORSDOF 22
ENDMDL
MODEL 3
REMARK VINA RESULT:      -8.3      1.976      2.423
REMARK SMILES COC(=O)c1ccc([C@H]([NH3+])CC(=O)OCCOCCOC(=O)c2ccc(-c3c4nc(c(-c5cc(S(=O)(=O)[O-])ccc5F)c5ccc([nH]5)c(-c5cc(S(=O)(=O)[O-])ccc5F)c5nc(c(-c6cc(S(=O)(=O)[O-])ccc6F)c6ccc3[nH]6)C=C5)C=C4)cc2)cc1
REMARK SMILES IDX 16 1 15 2 14 3 12 4 13 5 11 6 9 7 8 8 5 9 6 10 87 11 7 12
REMARK SMILES IDX 86 13 3 14 4 15 2 16 1 17 10 18 17 22 18 23 19 24 20 25
REMARK SMILES IDX 21 26 22 27 23 28 24 29 85 30 25 31 84 32 26 33 27 34 28 35
REMARK SMILES IDX 78 36 29 37 83 38 77 39 79 40 30 41 82 42 76 43 75 44 31 46
REMARK SMILES IDX 63 47 43 48 62 49 44 50 47 51 61 52 80 53 45 54 46 55 60 57
REMARK SMILES IDX 81 58 48 59 32 60 33 61 41 62 34 63 40 64 42 65 39 66 35 67
REMARK SMILES IDX 36 68 37 69 38 70 64 71 65 72 73 73 66 74 72 75 74 76 71 77
REMARK SMILES IDX 67 78 68 79 69 80 70 81 49 82 50 83 58 84 51 85 57 86 59 87
REMARK SMILES IDX 56 88 52 89 53 90 54 91 55 92
REMARK H PARENT 10 19 10 20 10 21 79 45 47 56
REMARK Flexibility Score: inf
ROOT
ATOM      1  C   UNL A   1      44.838  19.434  24.846  1.00  0.00     0.202 C 
ENDROOT
BRANCH   1   2
ATOM      2  C   UNL A   1      45.612  20.714  25.172  1.00  0.00     0.261 C 
BRANCH   2   3
ATOM      3  O   UNL A   1      45.348  21.773  24.230  1.00  0.00    -0.463 OA
BRANCH   3   4
ATOM      4  C   UNL A   1      45.824  22.996  24.576  1.00  0.00     0.312 C 
ATOM      5  O   UNL A   1      46.573  23.680  23.886  1.00  0.00    -0.252 OA
BRANCH   4   6
ATOM      6  C   UNL A   1      45.405  23.437  25.959  1.00  0.00     0.192 C 
BRANCH   6   7
ATOM      7  C   UNL A   1      46.504  23.935  26.921  1.00  0.00     0.223 C 
BRANCH   7   8
ATOM      8  C   UNL A   1      45.964  24.294  28.317  1.00  0.00     0.010 A 
ATOM      9  C   UNL A   1      44.985  24.930  30.908  1.00  0.00     0.060 A 
ATOM     10  C   UNL A   1      44.281  24.050  30.083  1.00  0.00     0.016 A 
ATOM     11  C   UNL A   1      46.148  25.532  30.421  1.00  0.00     0.016 A 
ATOM     12  C   UNL A   1      44.758  23.749  28.800  1.00  0.00     0.011 A 
ATOM     13  C   UNL A   1      46.617  25.228  29.139  1.00  0.00     0.011 A 
BRANCH   9  14
ATOM     14  C   UNL A   1      44.491  25.186  32.285  1.00  0.00     0.337 C 
ATOM     15  O   UNL A   1      44.381  24.319  33.142  1.00  0.00    -0.246 OA
BRANCH  14  16
ATOM     16  O   UNL A   1      44.193  26.499  32.440  1.00  0.00    -0.465 OA
ATOM     17  C   UNL A   1      43.440  26.807  33.613  1.00  0.00     0.282 C 
ENDBRANCH  14  16
ENDBRANCH   9  14
ENDBRANCH   7   8
BRANCH   7  18
ATOM     18  N   UNL A   1      47.220  25.076  26.332  1.00  0.00    -0.351 N 
ATOM     19  H   UNL A   1      46.552  25.806  26.083  1.00  0.00     0.345 HD
ATOM     20  H   UNL A   1      47.716  24.770  25.494  1.00  0.00     0.345 HD
ATOM     21  H   UNL A   1      47.889  25.443  27.007  1.00  0.00     0.345 HD
ENDBRANCH   7  18
ENDBRANCH   6   7
ENDBRANCH   4   6
ENDBRANCH   3   4
ENDBRANCH   2   3
ENDBRANCH   1   2
BRANCH   1  22
ATOM     22  O   UNL A   1      43.424  19.561  24.704  1.00  0.00    -0.374 OA
BRANCH  22  23
ATOM     23  C   UNL A   1      42.668  19.838  25.882  1.00  0.00     0.202 C 
BRANCH  23  24
ATOM     24  C   UNL A   1      42.219  21.289  26.101  1.00  0.00     0.261 C 
BRANCH  24  25
ATOM     25  O   UNL A   1      41.048  21.384  26.930  1.00  0.00    -0.460 OA
BRANCH  25  26
ATOM     26  C   UNL A   1      40.055  22.156  26.424  1.00  0.00     0.338 C 
ATOM     27  O   UNL A   1      39.114  21.782  25.736  1.00  0.00    -0.246 OA
BRANCH  26  28
ATOM     28  C   UNL A   1      40.136  23.518  26.982  1.00  0.00     0.060 A 
ATOM     29  C   UNL A   1      39.859  24.589  26.121  1.00  0.00     0.016 A 
ATOM     30  C   UNL A   1      40.543  23.754  28.297  1.00  0.00     0.016 A 
ATOM     31  C   UNL A   1      40.029  25.901  26.558  1.00  0.00     0.010 A 
ATOM     32  C   UNL A   1      40.724  25.074  28.729  1.00  0.00     0.010 A 
ATOM     33  C   UNL A   1      40.496  26.152  27.854  1.00  0.00    -0.014 A 
BRANCH  33  34
ATOM     34  C   UNL A   1      40.879  27.533  28.241  1.00  0.00     0.031 A 
ATOM     35  C   UNL A   1      42.325  27.939  28.160  1.00  0.00     0.074 A 
ATOM     36  C   UNL A   1      39.948  28.423  28.631  1.00  0.00     0.049 A 
ATOM     37  N   UNL A   1      42.892  29.071  28.490  1.00  0.00    -0.248 NA
ATOM     38  C   UNL A   1      43.257  26.930  27.634  1.00  0.00     0.031 C 
ATOM     39  C   UNL A   1      38.510  28.163  28.697  1.00  0.00     0.029 A 
ATOM     40  N   UNL A   1      40.074  29.723  29.050  1.00  0.00    -0.354 N 
ATOM     41  C   UNL A   1      44.247  28.912  28.216  1.00  0.00     0.074 A 
ATOM     42  C   UNL A   1      44.418  27.560  27.726  1.00  0.00     0.031 C 
ATOM     43  C   UNL A   1      37.889  29.266  29.146  1.00  0.00     0.029 A 
ATOM     44  C   UNL A   1      38.885  30.295  29.438  1.00  0.00     0.049 A 
ATOM     45  H   UNL A   1      40.934  30.202  29.072  1.00  0.00     0.167 HD
ATOM     46  C   UNL A   1      45.251  29.813  28.356  1.00  0.00     0.034 A 
ATOM     47  C   UNL A   1      38.634  31.500  29.993  1.00  0.00     0.034 A 
ATOM     48  C   UNL A   1      45.065  31.151  28.860  1.00  0.00     0.049 A 
ATOM     49  C   UNL A   1      39.784  32.448  30.237  1.00  0.00     0.074 A 
ATOM     50  C   UNL A   1      46.010  32.149  29.024  1.00  0.00     0.029 A 
ATOM     51  N   UNL A   1      43.856  31.675  29.299  1.00  0.00    -0.354 N 
ATOM     52  N   UNL A   1      41.059  32.288  29.968  1.00  0.00    -0.248 NA
ATOM     53  C   UNL A   1      39.458  33.739  30.859  1.00  0.00     0.031 C 
ATOM     54  C   UNL A   1      45.388  33.247  29.629  1.00  0.00     0.029 A 
ATOM     55  C   UNL A   1      44.039  32.966  29.772  1.00  0.00     0.049 A 
ATOM     56  H   UNL A   1      42.995  31.199  29.278  1.00  0.00     0.167 HD
ATOM     57  C   UNL A   1      41.682  33.471  30.362  1.00  0.00     0.074 A 
ATOM     58  C   UNL A   1      40.641  34.336  30.877  1.00  0.00     0.031 C 
ATOM     59  C   UNL A   1      42.994  33.813  30.297  1.00  0.00     0.034 A 
BRANCH  46  60
ATOM     60  C   UNL A   1      46.646  29.352  28.008  1.00  0.00     0.023 A 
ATOM     61  C   UNL A   1      47.515  28.821  28.977  1.00  0.00     0.031 A 
ATOM     62  C   UNL A   1      47.123  29.472  26.691  1.00  0.00     0.131 A 
ATOM     63  C   UNL A   1      48.835  28.495  28.630  1.00  0.00     0.055 A 
ATOM     64  C   UNL A   1      48.413  29.075  26.335  1.00  0.00     0.041 A 
ATOM     65  F   UNL A   1      46.346  29.993  25.728  1.00  0.00    -0.206 F 
ATOM     66  C   UNL A   1      49.283  28.595  27.310  1.00  0.00     0.022 A 
BRANCH  63  67
ATOM     67  S   UNL A   1      50.001  28.067  29.952  1.00  0.00     0.124 S 
ATOM     68  O   UNL A   1      49.884  26.610  29.989  1.00  0.00    -0.237 OA
ATOM     69  O   UNL A   1      51.262  28.593  29.444  1.00  0.00    -0.237 OA
ATOM     70  O   UNL A   1      49.461  28.757  31.122  1.00  0.00    -0.744 OA
ENDBRANCH  63  67
ENDBRANCH  46  60
BRANCH  47  71
ATOM     71  C   UNL A   1      37.250  31.864  30.410  1.00  0.00     0.023 A 
ATOM     72  C   UNL A   1      36.384  32.549  29.544  1.00  0.00     0.031 A 
ATOM     73  C   UNL A   1      36.792  31.579  31.710  1.00  0.00     0.131 A 
ATOM     74  C   UNL A   1      35.122  32.964  30.000  1.00  0.00     0.055 A 
ATOM     75  C   UNL A   1      35.518  31.947  32.143  1.00  0.00     0.041 A 
ATOM     76  F   UNL A   1      37.581  30.926  32.579  1.00  0.00    -0.206 F 
ATOM     77  C   UNL A   1      34.679  32.655  31.289  1.00  0.00     0.022 A 
BRANCH  74  78
ATOM     78  S   UNL A   1      34.095  33.986  28.909  1.00  0.00     0.124 S 
ATOM     79  O   UNL A   1      33.147  34.566  29.851  1.00  0.00    -0.237 OA
ATOM     80  O   UNL A   1      35.079  34.902  28.341  1.00  0.00    -0.237 OA
ATOM     81  O   UNL A   1      33.533  33.019  27.968  1.00  0.00    -0.744 OA
ENDBRANCH  74  78
ENDBRANCH  47  71
BRANCH  59  82
ATOM     82  C   UNL A   1      43.368  35.201  30.759  1.00  0.00     0.023 A 
ATOM     83  C   UNL A   1      43.596  35.495  32.115  1.00  0.00     0.031 A 
ATOM     84  C   UNL A   1      43.499  36.245  29.825  1.00  0.00     0.131 A 
ATOM     85  C   UNL A   1      43.899  36.809  32.503  1.00  0.00     0.055 A 
ATOM     86  C   UNL A   1      43.855  37.537  30.211  1.00  0.00     0.041 A 
ATOM     87  F   UNL A   1      43.291  36.021  28.517  1.00  0.00    -0.206 F 
ATOM     88  C   UNL A   1      44.047  37.828  31.558  1.00  0.00     0.022 A 
BRANCH  85  89
ATOM     89  S   UNL A   1      44.025  37.189  34.273  1.00  0.00     0.124 S 
ATOM     90  O   UNL A   1      42.661  36.954  34.732  1.00  0.00    -0.237 OA
ATOM     91  O   UNL A   1      45.026  36.230  34.728  1.00  0.00    -0.237 OA
ATOM     92  O   UNL A   1      44.454  38.587  34.293  1.00  0.00    -0.744 OA
ENDBRANCH  85  89
ENDBRANCH  59  82
ENDBRANCH  33  34
ENDBRANCH  26  28
ENDBRANCH  25  26
ENDBRANCH  24  25
ENDBRANCH  23  24
ENDBRANCH  22  23
ENDBRANCH   1  22
TORSDOF 22
ENDMDL
