MODEL 1
REMARK VINA RESULT:     -10.6      0.000      0.000
REMARK SMILES O=C(OCCOCCOC(=O)c1oc2cccc3c2c1CCC3)c1ccc(-c2c3nc(c(-c4cc(S(=O)(=O)[O-])ccc4F)c4ccc([nH]4)c(-c4cc(S(=O)(=O)[O-])ccc4F)c4nc(c(-c5cc(S(=O)(=O)[O-])ccc5F)c5ccc2[nH]5)C=C4)C=C3)cc1
REMARK SMILES IDX 4 1 3 2 2 3 1 4 24 5 25 6 86 7 26 8 85 9 27 10 28 11 29 12
REMARK SMILES IDX 79 13 30 14 84 15 78 16 80 17 31 18 83 19 77 20 76 21 32 23
REMARK SMILES IDX 64 24 44 25 63 26 45 27 48 28 62 29 81 30 46 31 47 32 61 34
REMARK SMILES IDX 82 35 49 36 33 37 34 38 42 39 35 40 41 41 43 42 40 43 36 44
REMARK SMILES IDX 37 45 38 46 39 47 65 48 66 49 74 50 67 51 73 52 75 53 72 54
REMARK SMILES IDX 68 55 69 56 70 57 71 58 50 59 51 60 59 61 52 62 58 63 60 64
REMARK SMILES IDX 57 65 53 66 54 67 55 68 56 69 5 70 6 71 7 72 8 73 9 74 10 75
REMARK SMILES IDX 11 76 12 77 13 78 20 79 14 80 19 81 21 82 15 83 18 84 22 85
REMARK SMILES IDX 16 86 17 87 23 88
REMARK H PARENT 80 22 48 33
REMARK Flexibility Score: inf
ROOT
ATOM      1  C   UNL A   1      33.891  33.684  28.419  1.00  0.00     0.261 C 
ENDROOT
BRANCH   1   2
ATOM      2  O   UNL A   1      34.834  32.761  29.000  1.00  0.00    -0.460 OA
BRANCH   2   3
ATOM      3  C   UNL A   1      34.982  31.502  28.518  1.00  0.00     0.338 C 
ATOM      4  O   UNL A   1      34.063  30.913  27.959  1.00  0.00    -0.246 OA
BRANCH   3   5
ATOM      5  C   UNL A   1      36.386  31.041  28.387  1.00  0.00     0.060 A 
ATOM      6  C   UNL A   1      36.752  29.869  27.726  1.00  0.00     0.016 A 
ATOM      7  C   UNL A   1      37.361  31.796  29.055  1.00  0.00     0.016 A 
ATOM      8  C   UNL A   1      38.001  29.328  27.928  1.00  0.00     0.010 A 
ATOM      9  C   UNL A   1      38.641  31.285  29.213  1.00  0.00     0.010 A 
ATOM     10  C   UNL A   1      38.917  30.010  28.727  1.00  0.00    -0.014 A 
BRANCH  10  11
ATOM     11  C   UNL A   1      40.131  29.283  29.045  1.00  0.00     0.031 A 
ATOM     12  C   UNL A   1      40.368  28.999  30.480  1.00  0.00     0.074 A 
ATOM     13  C   UNL A   1      40.999  28.912  28.089  1.00  0.00     0.049 A 
ATOM     14  N   UNL A   1      41.301  29.454  31.254  1.00  0.00    -0.248 NA
ATOM     15  C   UNL A   1      39.359  28.178  31.160  1.00  0.00     0.031 C 
ATOM     16  C   UNL A   1      40.775  28.858  26.643  1.00  0.00     0.029 A 
ATOM     17  N   UNL A   1      42.245  28.394  28.239  1.00  0.00    -0.354 N 
ATOM     18  C   UNL A   1      41.104  28.834  32.486  1.00  0.00     0.074 A 
ATOM     19  C   UNL A   1      39.821  28.179  32.409  1.00  0.00     0.031 C 
ATOM     20  C   UNL A   1      41.751  28.113  26.080  1.00  0.00     0.029 A 
ATOM     21  C   UNL A   1      42.727  27.773  27.103  1.00  0.00     0.049 A 
ATOM     22  H   UNL A   1      42.757  28.453  29.078  1.00  0.00     0.167 HD
ATOM     23  C   UNL A   1      42.087  28.734  33.426  1.00  0.00     0.034 A 
ATOM     24  C   UNL A   1      43.787  26.935  27.043  1.00  0.00     0.034 A 
ATOM     25  C   UNL A   1      43.175  29.634  33.175  1.00  0.00     0.049 A 
ATOM     26  C   UNL A   1      44.630  27.161  28.243  1.00  0.00     0.074 A 
ATOM     27  C   UNL A   1      43.333  31.004  33.157  1.00  0.00     0.029 A 
ATOM     28  N   UNL A   1      44.304  29.113  32.596  1.00  0.00    -0.354 N 
ATOM     29  N   UNL A   1      45.331  28.240  28.466  1.00  0.00    -0.248 NA
ATOM     30  C   UNL A   1      44.403  26.318  29.408  1.00  0.00     0.031 C 
ATOM     31  C   UNL A   1      44.350  31.254  32.193  1.00  0.00     0.029 A 
ATOM     32  C   UNL A   1      44.756  30.021  31.675  1.00  0.00     0.049 A 
ATOM     33  H   UNL A   1      44.715  28.243  32.805  1.00  0.00     0.167 HD
ATOM     34  C   UNL A   1      45.278  28.422  29.842  1.00  0.00     0.074 A 
ATOM     35  C   UNL A   1      44.812  27.145  30.373  1.00  0.00     0.031 C 
ATOM     36  C   UNL A   1      45.350  29.666  30.402  1.00  0.00     0.034 A 
BRANCH  23  37
ATOM     37  C   UNL A   1      42.203  27.580  34.393  1.00  0.00     0.023 A 
ATOM     38  C   UNL A   1      42.972  26.437  34.109  1.00  0.00     0.031 A 
ATOM     39  C   UNL A   1      41.744  27.697  35.721  1.00  0.00     0.131 A 
ATOM     40  C   UNL A   1      43.237  25.465  35.079  1.00  0.00     0.055 A 
ATOM     41  C   UNL A   1      42.066  26.760  36.712  1.00  0.00     0.041 A 
ATOM     42  F   UNL A   1      41.019  28.757  36.111  1.00  0.00    -0.206 F 
ATOM     43  C   UNL A   1      42.814  25.633  36.393  1.00  0.00     0.022 A 
BRANCH  40  44
ATOM     44  S   UNL A   1      44.148  23.963  34.633  1.00  0.00     0.124 S 
ATOM     45  O   UNL A   1      44.285  24.116  33.189  1.00  0.00    -0.237 OA
ATOM     46  O   UNL A   1      45.377  24.117  35.409  1.00  0.00    -0.237 OA
ATOM     47  O   UNL A   1      43.269  22.887  35.082  1.00  0.00    -0.744 OA
ENDBRANCH  40  44
ENDBRANCH  23  37
BRANCH  24  48
ATOM     48  C   UNL A   1      43.826  25.684  26.256  1.00  0.00     0.023 A 
ATOM     49  C   UNL A   1      42.986  24.604  26.595  1.00  0.00     0.031 A 
ATOM     50  C   UNL A   1      44.854  25.435  25.334  1.00  0.00     0.131 A 
ATOM     51  C   UNL A   1      43.194  23.332  26.048  1.00  0.00     0.055 A 
ATOM     52  C   UNL A   1      45.060  24.165  24.785  1.00  0.00     0.041 A 
ATOM     53  F   UNL A   1      45.710  26.410  24.992  1.00  0.00    -0.206 F 
ATOM     54  C   UNL A   1      44.232  23.103  25.146  1.00  0.00     0.022 A 
BRANCH  51  55
ATOM     55  S   UNL A   1      42.117  21.954  26.528  1.00  0.00     0.124 S 
ATOM     56  O   UNL A   1      42.507  21.715  27.916  1.00  0.00    -0.237 OA
ATOM     57  O   UNL A   1      40.791  22.530  26.337  1.00  0.00    -0.237 OA
ATOM     58  O   UNL A   1      42.492  20.893  25.596  1.00  0.00    -0.744 OA
ENDBRANCH  51  55
ENDBRANCH  24  48
BRANCH  36  59
ATOM     59  C   UNL A   1      45.801  30.824  29.545  1.00  0.00     0.023 A 
ATOM     60  C   UNL A   1      44.916  31.292  28.557  1.00  0.00     0.031 A 
ATOM     61  C   UNL A   1      47.123  31.302  29.522  1.00  0.00     0.131 A 
ATOM     62  C   UNL A   1      45.364  32.185  27.576  1.00  0.00     0.055 A 
ATOM     63  C   UNL A   1      47.550  32.241  28.579  1.00  0.00     0.041 A 
ATOM     64  F   UNL A   1      48.057  30.811  30.347  1.00  0.00    -0.206 F 
ATOM     65  C   UNL A   1      46.672  32.679  27.591  1.00  0.00     0.022 A 
BRANCH  62  66
ATOM     66  S   UNL A   1      44.303  32.626  26.176  1.00  0.00     0.124 S 
ATOM     67  O   UNL A   1      45.273  32.837  25.104  1.00  0.00    -0.237 OA
ATOM     68  O   UNL A   1      43.467  31.435  26.036  1.00  0.00    -0.237 OA
ATOM     69  O   UNL A   1      43.600  33.824  26.625  1.00  0.00    -0.744 OA
ENDBRANCH  62  66
ENDBRANCH  36  59
ENDBRANCH  10  11
ENDBRANCH   3   5
ENDBRANCH   2   3
ENDBRANCH   1   2
BRANCH   1  70
ATOM     70  C   UNL A   1      33.712  34.968  29.225  1.00  0.00     0.202 C 
BRANCH  70  71
ATOM     71  O   UNL A   1      32.512  35.061  29.992  1.00  0.00    -0.374 OA
BRANCH  71  72
ATOM     72  C   UNL A   1      32.533  36.043  31.039  1.00  0.00     0.202 C 
BRANCH  72  73
ATOM     73  C   UNL A   1      33.031  35.559  32.410  1.00  0.00     0.261 C 
BRANCH  73  74
ATOM     74  O   UNL A   1      34.439  35.245  32.373  1.00  0.00    -0.457 OA
BRANCH  74  75
ATOM     75  C   UNL A   1      34.753  33.931  32.585  1.00  0.00     0.374 C 
ATOM     76  O   UNL A   1      33.942  33.037  32.751  1.00  0.00    -0.242 OA
BRANCH  75  77
ATOM     77  C   UNL A   1      36.174  33.752  32.393  1.00  0.00     0.216 A 
ATOM     78  O   UNL A   1      36.772  34.481  31.374  1.00  0.00    -0.449 OA
ATOM     79  C   UNL A   1      37.145  33.033  33.062  1.00  0.00     0.014 A 
ATOM     80  C   UNL A   1      38.109  34.208  31.397  1.00  0.00     0.135 A 
ATOM     81  C   UNL A   1      38.349  33.285  32.381  1.00  0.00     0.028 A 
ATOM     82  C   UNL A   1      37.165  32.102  34.219  1.00  0.00     0.041 C 
ATOM     83  C   UNL A   1      39.116  34.720  30.590  1.00  0.00     0.048 A 
ATOM     84  C   UNL A   1      39.607  32.725  32.599  1.00  0.00    -0.037 A 
ATOM     85  C   UNL A   1      38.318  31.069  34.030  1.00  0.00     0.010 C 
ATOM     86  C   UNL A   1      40.403  34.195  30.823  1.00  0.00     0.004 A 
ATOM     87  C   UNL A   1      40.648  33.210  31.800  1.00  0.00     0.004 A 
ATOM     88  C   UNL A   1      39.714  31.690  33.687  1.00  0.00     0.036 C 
ENDBRANCH  75  77
ENDBRANCH  74  75
ENDBRANCH  73  74
ENDBRANCH  72  73
ENDBRANCH  71  72
ENDBRANCH  70  71
ENDBRANCH   1  70
TORSDOF 17
ENDMDL
MODEL 2
REMARK VINA RESULT:     -10.5      3.013     11.037
REMARK SMILES O=C(OCCOCCOC(=O)c1oc2cccc3c2c1CCC3)c1ccc(-c2c3nc(c(-c4cc(S(=O)(=O)[O-])ccc4F)c4ccc([nH]4)c(-c4cc(S(=O)(=O)[O-])ccc4F)c4nc(c(-c5cc(S(=O)(=O)[O-])ccc5F)c5ccc2[nH]5)C=C4)C=C3)cc1
REMARK SMILES IDX 4 1 3 2 2 3 1 4 24 5 25 6 86 7 26 8 85 9 27 10 28 11 29 12
REMARK SMILES IDX 79 13 30 14 84 15 78 16 80 17 31 18 83 19 77 20 76 21 32 23
REMARK SMILES IDX 64 24 44 25 63 26 45 27 48 28 62 29 81 30 46 31 47 32 61 34
REMARK SMILES IDX 82 35 49 36 33 37 34 38 42 39 35 40 41 41 43 42 40 43 36 44
REMARK SMILES IDX 37 45 38 46 39 47 65 48 66 49 74 50 67 51 73 52 75 53 72 54
REMARK SMILES IDX 68 55 69 56 70 57 71 58 50 59 51 60 59 61 52 62 58 63 60 64
REMARK SMILES IDX 57 65 53 66 54 67 55 68 56 69 5 70 6 71 7 72 8 73 9 74 10 75
REMARK SMILES IDX 11 76 12 77 13 78 20 79 14 80 19 81 21 82 15 83 18 84 22 85
REMARK SMILES IDX 16 86 17 87 23 88
REMARK H PARENT 80 22 48 33
REMARK Flexibility Score: inf
ROOT
ATOM      1  C   UNL A   1      40.611  20.315  26.583  1.00  0.00     0.261 C 
ENDROOT
BRANCH   1   2
ATOM      2  O   UNL A   1      40.782  21.646  27.113  1.00  0.00    -0.460 OA
BRANCH   2   3
ATOM      3  C   UNL A   1      40.054  22.692  26.648  1.00  0.00     0.338 C 
ATOM      4  O   UNL A   1      38.928  22.540  26.189  1.00  0.00    -0.246 OA
BRANCH   3   5
ATOM      5  C   UNL A   1      40.547  24.030  27.058  1.00  0.00     0.060 A 
ATOM      6  C   UNL A   1      41.155  24.281  28.288  1.00  0.00     0.016 A 
ATOM      7  C   UNL A   1      40.288  25.092  26.180  1.00  0.00     0.016 A 
ATOM      8  C   UNL A   1      41.277  25.575  28.742  1.00  0.00     0.010 A 
ATOM      9  C   UNL A   1      40.464  26.400  26.609  1.00  0.00     0.010 A 
ATOM     10  C   UNL A   1      40.868  26.625  27.922  1.00  0.00    -0.014 A 
BRANCH  10  11
ATOM     11  C   UNL A   1      40.848  27.934  28.547  1.00  0.00     0.031 A 
ATOM     12  C   UNL A   1      41.878  28.895  28.087  1.00  0.00     0.074 A 
ATOM     13  C   UNL A   1      39.958  28.241  29.505  1.00  0.00     0.049 A 
ATOM     14  N   UNL A   1      42.873  29.397  28.747  1.00  0.00    -0.248 NA
ATOM     15  C   UNL A   1      41.845  29.259  26.665  1.00  0.00     0.031 C 
ATOM     16  C   UNL A   1      38.727  27.528  29.852  1.00  0.00     0.029 A 
ATOM     17  N   UNL A   1      39.925  29.342  30.300  1.00  0.00    -0.354 N 
ATOM     18  C   UNL A   1      43.496  30.284  27.872  1.00  0.00     0.074 A 
ATOM     19  C   UNL A   1      42.912  30.050  26.574  1.00  0.00     0.031 C 
ATOM     20  C   UNL A   1      37.955  28.338  30.609  1.00  0.00     0.029 A 
ATOM     21  C   UNL A   1      38.702  29.549  30.908  1.00  0.00     0.049 A 
ATOM     22  H   UNL A   1      40.698  29.937  30.430  1.00  0.00     0.167 HD
ATOM     23  C   UNL A   1      44.313  31.288  28.300  1.00  0.00     0.034 A 
ATOM     24  C   UNL A   1      38.294  30.691  31.506  1.00  0.00     0.034 A 
ATOM     25  C   UNL A   1      44.748  31.097  29.654  1.00  0.00     0.049 A 
ATOM     26  C   UNL A   1      39.494  31.498  31.840  1.00  0.00     0.074 A 
ATOM     27  C   UNL A   1      45.536  30.177  30.312  1.00  0.00     0.029 A 
ATOM     28  N   UNL A   1      44.108  31.818  30.629  1.00  0.00    -0.354 N 
ATOM     29  N   UNL A   1      40.372  31.182  32.752  1.00  0.00    -0.248 NA
ATOM     30  C   UNL A   1      39.930  32.503  30.882  1.00  0.00     0.031 C 
ATOM     31  C   UNL A   1      45.012  30.109  31.634  1.00  0.00     0.029 A 
ATOM     32  C   UNL A   1      43.932  30.992  31.708  1.00  0.00     0.049 A 
ATOM     33  H   UNL A   1      43.826  32.759  30.566  1.00  0.00     0.167 HD
ATOM     34  C   UNL A   1      41.587  31.625  32.247  1.00  0.00     0.074 A 
ATOM     35  C   UNL A   1      41.234  32.541  31.168  1.00  0.00     0.031 C 
ATOM     36  C   UNL A   1      42.762  31.005  32.564  1.00  0.00     0.034 A 
BRANCH  23  37
ATOM     37  C   UNL A   1      44.450  32.613  27.589  1.00  0.00     0.023 A 
ATOM     38  C   UNL A   1      43.682  33.738  27.942  1.00  0.00     0.031 A 
ATOM     39  C   UNL A   1      45.521  32.853  26.703  1.00  0.00     0.131 A 
ATOM     40  C   UNL A   1      43.949  35.007  27.419  1.00  0.00     0.055 A 
ATOM     41  C   UNL A   1      45.833  34.136  26.233  1.00  0.00     0.041 A 
ATOM     42  F   UNL A   1      46.334  31.859  26.315  1.00  0.00    -0.206 F 
ATOM     43  C   UNL A   1      45.042  35.223  26.588  1.00  0.00     0.022 A 
BRANCH  40  44
ATOM     44  S   UNL A   1      42.865  36.402  27.829  1.00  0.00     0.124 S 
ATOM     45  O   UNL A   1      41.772  35.734  28.526  1.00  0.00    -0.237 OA
ATOM     46  O   UNL A   1      43.740  37.227  28.659  1.00  0.00    -0.237 OA
ATOM     47  O   UNL A   1      42.539  36.972  26.524  1.00  0.00    -0.744 OA
ENDBRANCH  40  44
ENDBRANCH  23  37
BRANCH  24  48
ATOM     48  C   UNL A   1      36.942  31.276  31.368  1.00  0.00     0.023 A 
ATOM     49  C   UNL A   1      36.416  31.557  30.091  1.00  0.00     0.031 A 
ATOM     50  C   UNL A   1      36.260  31.801  32.475  1.00  0.00     0.131 A 
ATOM     51  C   UNL A   1      35.272  32.350  29.944  1.00  0.00     0.055 A 
ATOM     52  C   UNL A   1      35.115  32.592  32.328  1.00  0.00     0.041 A 
ATOM     53  F   UNL A   1      36.725  31.600  33.719  1.00  0.00    -0.206 F 
ATOM     54  C   UNL A   1      34.619  32.876  31.057  1.00  0.00     0.022 A 
BRANCH  51  55
ATOM     55  S   UNL A   1      34.637  32.722  28.286  1.00  0.00     0.124 S 
ATOM     56  O   UNL A   1      33.658  33.775  28.549  1.00  0.00    -0.237 OA
ATOM     57  O   UNL A   1      35.846  33.145  27.590  1.00  0.00    -0.237 OA
ATOM     58  O   UNL A   1      34.063  31.450  27.853  1.00  0.00    -0.744 OA
ENDBRANCH  51  55
ENDBRANCH  24  48
BRANCH  36  59
ATOM     59  C   UNL A   1      42.781  30.024  33.711  1.00  0.00     0.023 A 
ATOM     60  C   UNL A   1      43.273  30.473  34.950  1.00  0.00     0.031 A 
ATOM     61  C   UNL A   1      42.555  28.645  33.555  1.00  0.00     0.131 A 
ATOM     62  C   UNL A   1      43.548  29.557  35.972  1.00  0.00     0.055 A 
ATOM     63  C   UNL A   1      42.772  27.741  34.599  1.00  0.00     0.041 A 
ATOM     64  F   UNL A   1      42.209  28.124  32.370  1.00  0.00    -0.206 F 
ATOM     65  C   UNL A   1      43.282  28.194  35.812  1.00  0.00     0.022 A 
BRANCH  62  66
ATOM     66  S   UNL A   1      44.383  30.090  37.489  1.00  0.00     0.124 S 
ATOM     67  O   UNL A   1      45.538  30.818  36.969  1.00  0.00    -0.237 OA
ATOM     68  O   UNL A   1      43.362  30.916  38.129  1.00  0.00    -0.237 OA
ATOM     69  O   UNL A   1      44.694  28.843  38.182  1.00  0.00    -0.744 OA
ENDBRANCH  62  66
ENDBRANCH  36  59
ENDBRANCH  10  11
ENDBRANCH   3   5
ENDBRANCH   2   3
ENDBRANCH   1   2
BRANCH   1  70
ATOM     70  C   UNL A   1      41.844  19.428  26.740  1.00  0.00     0.202 C 
BRANCH  70  71
ATOM     71  O   UNL A   1      42.282  18.755  25.561  1.00  0.00    -0.374 OA
BRANCH  71  72
ATOM     72  C   UNL A   1      43.707  18.647  25.415  1.00  0.00     0.202 C 
BRANCH  72  73
ATOM     73  C   UNL A   1      44.434  19.911  24.932  1.00  0.00     0.261 C 
BRANCH  73  74
ATOM     74  O   UNL A   1      43.570  21.065  24.987  1.00  0.00    -0.457 OA
BRANCH  74  75
ATOM     75  C   UNL A   1      44.148  22.250  24.626  1.00  0.00     0.374 C 
ATOM     76  O   UNL A   1      44.342  22.612  23.479  1.00  0.00    -0.242 OA
BRANCH  75  77
ATOM     77  C   UNL A   1      44.313  23.069  25.805  1.00  0.00     0.216 A 
ATOM     78  O   UNL A   1      44.197  22.436  27.036  1.00  0.00    -0.449 OA
ATOM     79  C   UNL A   1      44.640  24.395  26.009  1.00  0.00     0.014 A 
ATOM     80  C   UNL A   1      44.436  23.367  28.006  1.00  0.00     0.135 A 
ATOM     81  C   UNL A   1      44.652  24.579  27.403  1.00  0.00     0.028 A 
ATOM     82  C   UNL A   1      44.911  25.566  25.136  1.00  0.00     0.041 C 
ATOM     83  C   UNL A   1      44.461  23.202  29.384  1.00  0.00     0.048 A 
ATOM     84  C   UNL A   1      44.832  25.758  28.124  1.00  0.00    -0.037 A 
ATOM     85  C   UNL A   1      44.471  26.870  25.869  1.00  0.00     0.010 C 
ATOM     86  C   UNL A   1      44.682  24.377  30.129  1.00  0.00     0.004 A 
ATOM     87  C   UNL A   1      44.855  25.634  29.518  1.00  0.00     0.004 A 
ATOM     88  C   UNL A   1      45.015  27.023  27.330  1.00  0.00     0.036 C 
ENDBRANCH  75  77
ENDBRANCH  74  75
ENDBRANCH  73  74
ENDBRANCH  72  73
ENDBRANCH  71  72
ENDBRANCH  70  71
ENDBRANCH   1  70
TORSDOF 17
ENDMDL
MODEL 3
REMARK VINA RESULT:     -10.2      3.867     10.866
REMARK SMILES O=C(OCCOCCOC(=O)c1oc2cccc3c2c1CCC3)c1ccc(-c2c3nc(c(-c4cc(S(=O)(=O)[O-])ccc4F)c4ccc([nH]4)c(-c4cc(S(=O)(=O)[O-])ccc4F)c4nc(c(-c5cc(S(=O)(=O)[O-])ccc5F)c5ccc2[nH]5)C=C4)C=C3)cc1
REMARK SMILES IDX 4 1 3 2 2 3 1 4 24 5 25 6 86 7 26 8 85 9 27 10 28 11 29 12
REMARK SMILES IDX 79 13 30 14 84 15 78 16 80 17 31 18 83 19 77 20 76 21 32 23
REMARK SMILES IDX 64 24 44 25 63 26 45 27 48 28 62 29 81 30 46 31 47 32 61 34
REMARK SMILES IDX 82 35 49 36 33 37 34 38 42 39 35 40 41 41 43 42 40 43 36 44
REMARK SMILES IDX 37 45 38 46 39 47 65 48 66 49 74 50 67 51 73 52 75 53 72 54
REMARK SMILES IDX 68 55 69 56 70 57 71 58 50 59 51 60 59 61 52 62 58 63 60 64
REMARK SMILES IDX 57 65 53 66 54 67 55 68 56 69 5 70 6 71 7 72 8 73 9 74 10 75
REMARK SMILES IDX 11 76 12 77 13 78 20 79 14 80 19 81 21 82 15 83 18 84 22 85
REMARK SMILES IDX 16 86 17 87 23 88
REMARK H PARENT 80 22 48 33
REMARK Flexibility Score: inf
ROOT
ATOM      1  C   UNL A   1      44.711  18.895  24.842  1.00  0.00     0.261 C 
ENDROOT
BRANCH   1   2
ATOM      2  O   UNL A   1      43.842  18.934  25.992  1.00  0.00    -0.460 OA
BRANCH   2   3
ATOM      3  C   UNL A   1      42.542  19.306  25.884  1.00  0.00     0.338 C 
ATOM      4  O   UNL A   1      41.649  18.486  25.706  1.00  0.00    -0.246 OA
BRANCH   3   5
ATOM      5  C   UNL A   1      42.243  20.683  26.347  1.00  0.00     0.060 A 
ATOM      6  C   UNL A   1      42.987  21.800  25.967  1.00  0.00     0.016 A 
ATOM      7  C   UNL A   1      41.212  20.821  27.288  1.00  0.00     0.016 A 
ATOM      8  C   UNL A   1      42.879  22.972  26.681  1.00  0.00     0.010 A 
ATOM      9  C   UNL A   1      41.058  22.019  27.971  1.00  0.00     0.010 A 
ATOM     10  C   UNL A   1      41.958  23.051  27.724  1.00  0.00    -0.014 A 
BRANCH  10  11
ATOM     11  C   UNL A   1      42.044  24.245  28.544  1.00  0.00     0.031 A 
ATOM     12  C   UNL A   1      41.001  25.273  28.318  1.00  0.00     0.074 A 
ATOM     13  C   UNL A   1      43.032  24.411  29.440  1.00  0.00     0.049 A 
ATOM     14  N   UNL A   1      41.130  26.470  27.841  1.00  0.00    -0.248 NA
ATOM     15  C   UNL A   1      39.613  24.861  28.562  1.00  0.00     0.031 C 
ATOM     16  C   UNL A   1      43.941  23.396  29.976  1.00  0.00     0.029 A 
ATOM     17  N   UNL A   1      43.349  25.529  30.143  1.00  0.00    -0.354 N 
ATOM     18  C   UNL A   1      39.857  27.034  27.890  1.00  0.00     0.074 A 
ATOM     19  C   UNL A   1      38.949  25.958  28.203  1.00  0.00     0.031 C 
ATOM     20  C   UNL A   1      44.535  23.888  31.086  1.00  0.00     0.029 A 
ATOM     21  C   UNL A   1      44.155  25.283  31.239  1.00  0.00     0.049 A 
ATOM     22  H   UNL A   1      43.035  26.429  29.898  1.00  0.00     0.167 HD
ATOM     23  C   UNL A   1      39.648  28.381  27.861  1.00  0.00     0.034 A 
ATOM     24  C   UNL A   1      44.384  26.135  32.264  1.00  0.00     0.034 A 
ATOM     25  C   UNL A   1      40.800  29.103  27.405  1.00  0.00     0.049 A 
ATOM     26  C   UNL A   1      44.056  27.510  31.811  1.00  0.00     0.074 A 
ATOM     27  C   UNL A   1      41.501  29.188  26.221  1.00  0.00     0.029 A 
ATOM     28  N   UNL A   1      41.584  29.704  28.356  1.00  0.00    -0.354 N 
ATOM     29  N   UNL A   1      44.739  28.185  30.927  1.00  0.00    -0.248 NA
ATOM     30  C   UNL A   1      42.718  28.017  32.078  1.00  0.00     0.031 C 
ATOM     31  C   UNL A   1      42.847  29.457  26.598  1.00  0.00     0.029 A 
ATOM     32  C   UNL A   1      42.893  29.520  27.994  1.00  0.00     0.049 A 
ATOM     33  H   UNL A   1      41.264  30.182  29.156  1.00  0.00     0.167 HD
ATOM     34  C   UNL A   1      43.792  28.929  30.237  1.00  0.00     0.074 A 
ATOM     35  C   UNL A   1      42.597  28.887  31.073  1.00  0.00     0.031 C 
ATOM     36  C   UNL A   1      43.973  29.281  28.929  1.00  0.00     0.034 A 
BRANCH  23  37
ATOM     37  C   UNL A   1      38.496  29.061  28.562  1.00  0.00     0.023 A 
ATOM     38  C   UNL A   1      38.428  29.169  29.963  1.00  0.00     0.031 A 
ATOM     39  C   UNL A   1      37.560  29.830  27.840  1.00  0.00     0.131 A 
ATOM     40  C   UNL A   1      37.469  29.966  30.596  1.00  0.00     0.055 A 
ATOM     41  C   UNL A   1      36.644  30.683  28.470  1.00  0.00     0.041 A 
ATOM     42  F   UNL A   1      37.547  29.822  26.498  1.00  0.00    -0.206 F 
ATOM     43  C   UNL A   1      36.592  30.753  29.857  1.00  0.00     0.022 A 
BRANCH  40  44
ATOM     44  S   UNL A   1      37.361  29.990  32.406  1.00  0.00     0.124 S 
ATOM     45  O   UNL A   1      38.669  30.522  32.774  1.00  0.00    -0.237 OA
ATOM     46  O   UNL A   1      36.226  30.882  32.626  1.00  0.00    -0.237 OA
ATOM     47  O   UNL A   1      37.120  28.591  32.749  1.00  0.00    -0.744 OA
ENDBRANCH  40  44
ENDBRANCH  23  37
BRANCH  24  48
ATOM     48  C   UNL A   1      44.425  25.744  33.690  1.00  0.00     0.023 A 
ATOM     49  C   UNL A   1      43.289  25.918  34.506  1.00  0.00     0.031 A 
ATOM     50  C   UNL A   1      45.636  25.441  34.328  1.00  0.00     0.131 A 
ATOM     51  C   UNL A   1      43.382  25.814  35.899  1.00  0.00     0.055 A 
ATOM     52  C   UNL A   1      45.729  25.335  35.720  1.00  0.00     0.041 A 
ATOM     53  F   UNL A   1      46.763  25.296  33.613  1.00  0.00    -0.206 F 
ATOM     54  C   UNL A   1      44.600  25.529  36.514  1.00  0.00     0.022 A 
BRANCH  51  55
ATOM     55  S   UNL A   1      41.910  26.075  36.926  1.00  0.00     0.124 S 
ATOM     56  O   UNL A   1      41.394  27.347  36.425  1.00  0.00    -0.237 OA
ATOM     57  O   UNL A   1      41.109  24.900  36.603  1.00  0.00    -0.237 OA
ATOM     58  O   UNL A   1      42.450  26.126  38.282  1.00  0.00    -0.744 OA
ENDBRANCH  51  55
ENDBRANCH  24  48
BRANCH  36  59
ATOM     59  C   UNL A   1      45.345  29.126  28.318  1.00  0.00     0.023 A 
ATOM     60  C   UNL A   1      46.147  30.277  28.205  1.00  0.00     0.031 A 
ATOM     61  C   UNL A   1      45.770  27.963  27.652  1.00  0.00     0.131 A 
ATOM     62  C   UNL A   1      47.312  30.250  27.430  1.00  0.00     0.055 A 
ATOM     63  C   UNL A   1      46.967  27.923  26.931  1.00  0.00     0.041 A 
ATOM     64  F   UNL A   1      45.002  26.866  27.604  1.00  0.00    -0.206 F 
ATOM     65  C   UNL A   1      47.739  29.074  26.807  1.00  0.00     0.022 A 
BRANCH  62  66
ATOM     66  S   UNL A   1      48.235  31.774  27.099  1.00  0.00     0.124 S 
ATOM     67  O   UNL A   1      48.272  32.408  28.415  1.00  0.00    -0.237 OA
ATOM     68  O   UNL A   1      49.516  31.260  26.619  1.00  0.00    -0.237 OA
ATOM     69  O   UNL A   1      47.432  32.466  26.096  1.00  0.00    -0.744 OA
ENDBRANCH  62  66
ENDBRANCH  36  59
ENDBRANCH  10  11
ENDBRANCH   3   5
ENDBRANCH   2   3
ENDBRANCH   1   2
BRANCH   1  70
ATOM     70  C   UNL A   1      46.173  19.192  25.168  1.00  0.00     0.202 C 
BRANCH  70  71
ATOM     71  O   UNL A   1      46.501  20.566  25.366  1.00  0.00    -0.374 OA
BRANCH  71  72
ATOM     72  C   UNL A   1      46.339  21.404  24.211  1.00  0.00     0.202 C 
BRANCH  72  73
ATOM     73  C   UNL A   1      45.991  22.875  24.487  1.00  0.00     0.261 C 
BRANCH  73  74
ATOM     74  O   UNL A   1      47.051  23.752  24.052  1.00  0.00    -0.457 OA
BRANCH  74  75
ATOM     75  C   UNL A   1      46.882  25.074  24.357  1.00  0.00     0.374 C 
ATOM     76  O   UNL A   1      45.870  25.557  24.833  1.00  0.00    -0.242 OA
BRANCH  75  77
ATOM     77  C   UNL A   1      48.145  25.758  24.199  1.00  0.00     0.216 A 
ATOM     78  O   UNL A   1      48.352  26.437  23.005  1.00  0.00    -0.449 OA
ATOM     79  C   UNL A   1      49.232  25.959  25.026  1.00  0.00     0.014 A 
ATOM     80  C   UNL A   1      49.570  27.049  23.081  1.00  0.00     0.135 A 
ATOM     81  C   UNL A   1      50.147  26.724  24.281  1.00  0.00     0.028 A 
ATOM     82  C   UNL A   1      49.613  25.534  26.398  1.00  0.00     0.041 C 
ATOM     83  C   UNL A   1      50.195  27.862  22.146  1.00  0.00     0.048 A 
ATOM     84  C   UNL A   1      51.440  27.114  24.626  1.00  0.00    -0.037 A 
ATOM     85  C   UNL A   1      51.165  25.407  26.487  1.00  0.00     0.010 C 
ATOM     86  C   UNL A   1      51.489  28.301  22.496  1.00  0.00     0.004 A 
ATOM     87  C   UNL A   1      52.108  27.929  23.705  1.00  0.00     0.004 A 
ATOM     88  C   UNL A   1      51.961  26.648  25.959  1.00  0.00     0.036 C 
ENDBRANCH  75  77
ENDBRANCH  74  75
ENDBRANCH  73  74
ENDBRANCH  72  73
ENDBRANCH  71  72
ENDBRANCH  70  71
ENDBRANCH   1  70
TORSDOF 17
ENDMDL
