MODEL 1
REMARK VINA RESULT:     -10.7      0.000      0.000
REMARK SMILES [NH3+][C@@H](Cc1ccc(F)cc1C(F)(F)F)C(=O)OCCOCCOC(=O)c1ccc(-c2c3nc(c(-c4cc(S(=O)(=O)[O-])ccc4F)c4ccc([nH]4)c(-c4cc(S(=O)(=O)[O-])ccc4F)c4nc(c(-c5cc(S(=O)(=O)[O-])ccc5F)c5ccc2[nH]5)C=C4)C=C3)cc1
REMARK SMILES IDX 20 1 19 2 18 3 17 4 15 5 16 6 2 7 1 8 3 12 4 13 5 14 10 15
REMARK SMILES IDX 6 16 9 17 7 18 8 19 11 20 12 21 13 22 14 23 21 24 22 25
REMARK SMILES IDX 23 26 24 27 25 28 26 29 27 30 88 31 28 32 87 33 29 34 30 35
REMARK SMILES IDX 31 36 81 37 32 38 86 39 80 40 82 41 33 42 85 43 79 44 78 45
REMARK SMILES IDX 34 47 66 48 46 49 65 50 47 51 50 52 64 53 83 54 48 55 49 56
REMARK SMILES IDX 63 58 84 59 51 60 35 61 36 62 44 63 37 64 43 65 45 66 42 67
REMARK SMILES IDX 38 68 39 69 40 70 41 71 67 72 68 73 76 74 69 75 75 76 77 77
REMARK SMILES IDX 74 78 70 79 71 80 72 81 73 82 52 83 53 84 61 85 54 86 60 87
REMARK SMILES IDX 62 88 59 89 55 90 56 91 57 92 58 93
REMARK H PARENT 1 9 1 10 1 11 82 46 50 57
REMARK Flexibility Score: inf
ROOT
ATOM      1  O   UNL A   1      31.616  29.232  23.845  1.00  0.00    -0.374 OA
ENDROOT
BRANCH   1   2
ATOM      2  C   UNL A   1      30.309  28.655  23.791  1.00  0.00     0.202 C 
BRANCH   2   3
ATOM      3  C   UNL A   1      30.261  27.218  23.269  1.00  0.00     0.261 C 
BRANCH   3   4
ATOM      4  O   UNL A   1      30.229  26.277  24.360  1.00  0.00    -0.459 OA
BRANCH   4   5
ATOM      5  C   UNL A   1      31.393  25.637  24.647  1.00  0.00     0.365 C 
ATOM      6  O   UNL A   1      32.470  25.869  24.110  1.00  0.00    -0.245 OA
BRANCH   5   7
ATOM      7  C   UNL A   1      31.227  24.620  25.782  1.00  0.00     0.296 C 
BRANCH   7   8
ATOM      8  N   UNL A   1      29.907  24.686  26.445  1.00  0.00    -0.346 N 
ATOM      9  H   UNL A   1      29.359  25.446  26.041  1.00  0.00     0.345 HD
ATOM     10  H   UNL A   1      30.035  24.853  27.444  1.00  0.00     0.345 HD
ATOM     11  H   UNL A   1      29.414  23.802  26.310  1.00  0.00     0.345 HD
ENDBRANCH   7   8
BRANCH   7  12
ATOM     12  C   UNL A   1      31.756  23.201  25.500  1.00  0.00     0.113 C 
BRANCH  12  13
ATOM     13  C   UNL A   1      33.180  22.648  25.450  1.00  0.00    -0.029 A 
ATOM     14  C   UNL A   1      34.111  23.510  26.106  1.00  0.00     0.007 A 
ATOM     15  C   UNL A   1      33.679  21.409  24.984  1.00  0.00     0.062 A 
ATOM     16  C   UNL A   1      35.457  23.190  26.281  1.00  0.00     0.039 A 
ATOM     17  C   UNL A   1      35.059  21.109  25.174  1.00  0.00     0.052 A 
ATOM     18  C   UNL A   1      35.921  21.983  25.811  1.00  0.00     0.123 A 
ATOM     19  F   UNL A   1      37.204  21.647  25.985  1.00  0.00    -0.207 F 
BRANCH  15  20
ATOM     20  C   UNL A   1      32.955  20.291  24.275  1.00  0.00     0.416 C 
ATOM     21  F   UNL A   1      33.765  19.215  24.089  1.00  0.00    -0.166 F 
ATOM     22  F   UNL A   1      31.890  19.833  24.993  1.00  0.00    -0.166 F 
ATOM     23  F   UNL A   1      32.450  20.586  23.059  1.00  0.00    -0.166 F 
ENDBRANCH  15  20
ENDBRANCH  12  13
ENDBRANCH   7  12
ENDBRANCH   5   7
ENDBRANCH   4   5
ENDBRANCH   3   4
ENDBRANCH   2   3
ENDBRANCH   1   2
BRANCH   1  24
ATOM     24  C   UNL A   1      32.165  29.413  25.149  1.00  0.00     0.202 C 
BRANCH  24  25
ATOM     25  C   UNL A   1      31.690  30.654  25.917  1.00  0.00     0.261 C 
BRANCH  25  26
ATOM     26  O   UNL A   1      32.298  30.763  27.216  1.00  0.00    -0.460 OA
BRANCH  26  27
ATOM     27  C   UNL A   1      33.100  31.847  27.359  1.00  0.00     0.338 C 
ATOM     28  O   UNL A   1      32.756  33.019  27.290  1.00  0.00    -0.246 OA
BRANCH  27  29
ATOM     29  C   UNL A   1      34.458  31.447  27.779  1.00  0.00     0.060 A 
ATOM     30  C   UNL A   1      34.688  30.078  27.966  1.00  0.00     0.016 A 
ATOM     31  C   UNL A   1      35.468  32.374  28.057  1.00  0.00     0.016 A 
ATOM     32  C   UNL A   1      35.886  29.640  28.520  1.00  0.00     0.010 A 
ATOM     33  C   UNL A   1      36.680  31.930  28.600  1.00  0.00     0.010 A 
ATOM     34  C   UNL A   1      36.869  30.566  28.896  1.00  0.00    -0.014 A 
BRANCH  34  35
ATOM     35  C   UNL A   1      37.969  30.114  29.790  1.00  0.00     0.031 A 
ATOM     36  C   UNL A   1      39.020  29.188  29.227  1.00  0.00     0.074 A 
ATOM     37  C   UNL A   1      38.102  30.602  31.039  1.00  0.00     0.049 A 
ATOM     38  N   UNL A   1      40.092  28.707  29.800  1.00  0.00    -0.248 NA
ATOM     39  C   UNL A   1      38.840  28.746  27.832  1.00  0.00     0.031 C 
ATOM     40  C   UNL A   1      37.184  31.545  31.677  1.00  0.00     0.029 A 
ATOM     41  N   UNL A   1      39.075  30.390  31.985  1.00  0.00    -0.354 N 
ATOM     42  C   UNL A   1      40.712  27.914  28.840  1.00  0.00     0.074 A 
ATOM     43  C   UNL A   1      39.872  27.935  27.665  1.00  0.00     0.031 C 
ATOM     44  C   UNL A   1      37.651  31.846  32.902  1.00  0.00     0.029 A 
ATOM     45  C   UNL A   1      38.880  31.094  33.151  1.00  0.00     0.049 A 
ATOM     46  H   UNL A   1      39.841  29.789  31.842  1.00  0.00     0.167 HD
ATOM     47  C   UNL A   1      41.888  27.249  28.919  1.00  0.00     0.034 A 
ATOM     48  C   UNL A   1      39.602  31.123  34.291  1.00  0.00     0.034 A 
ATOM     49  C   UNL A   1      42.736  27.251  30.080  1.00  0.00     0.049 A 
ATOM     50  C   UNL A   1      40.863  30.299  34.388  1.00  0.00     0.074 A 
ATOM     51  C   UNL A   1      43.961  26.627  30.246  1.00  0.00     0.029 A 
ATOM     52  N   UNL A   1      42.455  27.906  31.269  1.00  0.00    -0.354 N 
ATOM     53  N   UNL A   1      41.427  29.546  33.471  1.00  0.00    -0.248 NA
ATOM     54  C   UNL A   1      41.584  30.322  35.670  1.00  0.00     0.031 C 
ATOM     55  C   UNL A   1      44.384  26.843  31.558  1.00  0.00     0.029 A 
ATOM     56  C   UNL A   1      43.463  27.664  32.188  1.00  0.00     0.049 A 
ATOM     57  H   UNL A   1      41.658  28.459  31.436  1.00  0.00     0.167 HD
ATOM     58  C   UNL A   1      42.575  29.022  34.062  1.00  0.00     0.074 A 
ATOM     59  C   UNL A   1      42.631  29.548  35.409  1.00  0.00     0.031 C 
ATOM     60  C   UNL A   1      43.501  28.186  33.531  1.00  0.00     0.034 A 
BRANCH  47  61
ATOM     61  C   UNL A   1      42.326  26.441  27.727  1.00  0.00     0.023 A 
ATOM     62  C   UNL A   1      41.962  25.093  27.577  1.00  0.00     0.031 A 
ATOM     63  C   UNL A   1      43.072  27.048  26.701  1.00  0.00     0.131 A 
ATOM     64  C   UNL A   1      42.367  24.387  26.435  1.00  0.00     0.055 A 
ATOM     65  C   UNL A   1      43.420  26.357  25.541  1.00  0.00     0.041 A 
ATOM     66  F   UNL A   1      43.459  28.329  26.807  1.00  0.00    -0.206 F 
ATOM     67  C   UNL A   1      43.070  25.017  25.405  1.00  0.00     0.022 A 
BRANCH  64  68
ATOM     68  S   UNL A   1      42.007  22.613  26.334  1.00  0.00     0.124 S 
ATOM     69  O   UNL A   1      42.687  22.107  27.523  1.00  0.00    -0.237 OA
ATOM     70  O   UNL A   1      40.549  22.581  26.371  1.00  0.00    -0.237 OA
ATOM     71  O   UNL A   1      42.605  22.214  25.062  1.00  0.00    -0.744 OA
ENDBRANCH  64  68
ENDBRANCH  47  61
BRANCH  48  72
ATOM     72  C   UNL A   1      39.134  31.933  35.451  1.00  0.00     0.023 A 
ATOM     73  C   UNL A   1      38.439  31.346  36.521  1.00  0.00     0.031 A 
ATOM     74  C   UNL A   1      39.362  33.321  35.494  1.00  0.00     0.131 A 
ATOM     75  C   UNL A   1      37.978  32.148  37.578  1.00  0.00     0.055 A 
ATOM     76  C   UNL A   1      38.939  34.106  36.567  1.00  0.00     0.041 A 
ATOM     77  F   UNL A   1      40.019  33.931  34.494  1.00  0.00    -0.206 F 
ATOM     78  C   UNL A   1      38.236  33.521  37.615  1.00  0.00     0.022 A 
BRANCH  75  79
ATOM     79  S   UNL A   1      36.994  31.380  38.895  1.00  0.00     0.124 S 
ATOM     80  O   UNL A   1      37.870  31.538  40.049  1.00  0.00    -0.237 OA
ATOM     81  O   UNL A   1      35.783  32.194  38.887  1.00  0.00    -0.237 OA
ATOM     82  O   UNL A   1      36.818  30.005  38.429  1.00  0.00    -0.744 OA
ENDBRANCH  75  79
ENDBRANCH  48  72
BRANCH  60  83
ATOM     83  C   UNL A   1      44.670  27.785  34.389  1.00  0.00     0.023 A 
ATOM     84  C   UNL A   1      44.658  26.592  35.129  1.00  0.00     0.031 A 
ATOM     85  C   UNL A   1      45.850  28.552  34.380  1.00  0.00     0.131 A 
ATOM     86  C   UNL A   1      45.803  26.202  35.838  1.00  0.00     0.055 A 
ATOM     87  C   UNL A   1      47.000  28.138  35.051  1.00  0.00     0.041 A 
ATOM     88  F   UNL A   1      45.914  29.695  33.678  1.00  0.00    -0.206 F 
ATOM     89  C   UNL A   1      46.979  26.955  35.787  1.00  0.00     0.022 A 
BRANCH  86  90
ATOM     90  S   UNL A   1      45.739  24.688  36.835  1.00  0.00     0.124 S 
ATOM     91  O   UNL A   1      44.538  24.038  36.321  1.00  0.00    -0.237 OA
ATOM     92  O   UNL A   1      47.004  24.038  36.509  1.00  0.00    -0.237 OA
ATOM     93  O   UNL A   1      45.636  25.184  38.207  1.00  0.00    -0.744 OA
ENDBRANCH  86  90
ENDBRANCH  60  83
ENDBRANCH  34  35
ENDBRANCH  27  29
ENDBRANCH  26  27
ENDBRANCH  25  26
ENDBRANCH  24  25
ENDBRANCH   1  24
TORSDOF 21
ENDMDL
MODEL 2
REMARK VINA RESULT:     -10.7      1.744      7.715
REMARK SMILES [NH3+][C@@H](Cc1ccc(F)cc1C(F)(F)F)C(=O)OCCOCCOC(=O)c1ccc(-c2c3nc(c(-c4cc(S(=O)(=O)[O-])ccc4F)c4ccc([nH]4)c(-c4cc(S(=O)(=O)[O-])ccc4F)c4nc(c(-c5cc(S(=O)(=O)[O-])ccc5F)c5ccc2[nH]5)C=C4)C=C3)cc1
REMARK SMILES IDX 20 1 19 2 18 3 17 4 15 5 16 6 2 7 1 8 3 12 4 13 5 14 10 15
REMARK SMILES IDX 6 16 9 17 7 18 8 19 11 20 12 21 13 22 14 23 21 24 22 25
REMARK SMILES IDX 23 26 24 27 25 28 26 29 27 30 88 31 28 32 87 33 29 34 30 35
REMARK SMILES IDX 31 36 81 37 32 38 86 39 80 40 82 41 33 42 85 43 79 44 78 45
REMARK SMILES IDX 34 47 66 48 46 49 65 50 47 51 50 52 64 53 83 54 48 55 49 56
REMARK SMILES IDX 63 58 84 59 51 60 35 61 36 62 44 63 37 64 43 65 45 66 42 67
REMARK SMILES IDX 38 68 39 69 40 70 41 71 67 72 68 73 76 74 69 75 75 76 77 77
REMARK SMILES IDX 74 78 70 79 71 80 72 81 73 82 52 83 53 84 61 85 54 86 60 87
REMARK SMILES IDX 62 88 59 89 55 90 56 91 57 92 58 93
REMARK H PARENT 1 9 1 10 1 11 82 46 50 57
REMARK Flexibility Score: inf
ROOT
ATOM      1  O   UNL A   1      31.830  28.452  25.026  1.00  0.00    -0.374 OA
ENDROOT
BRANCH   1   2
ATOM      2  C   UNL A   1      32.505  27.308  25.556  1.00  0.00     0.202 C 
BRANCH   2   3
ATOM      3  C   UNL A   1      31.603  26.301  26.271  1.00  0.00     0.261 C 
BRANCH   3   4
ATOM      4  O   UNL A   1      32.270  25.032  26.422  1.00  0.00    -0.459 OA
BRANCH   4   5
ATOM      5  C   UNL A   1      31.495  23.920  26.316  1.00  0.00     0.365 C 
ATOM      6  O   UNL A   1      30.892  23.396  27.245  1.00  0.00    -0.245 OA
BRANCH   5   7
ATOM      7  C   UNL A   1      31.400  23.421  24.870  1.00  0.00     0.296 C 
BRANCH   7   8
ATOM      8  N   UNL A   1      30.280  24.019  24.111  1.00  0.00    -0.346 N 
ATOM      9  H   UNL A   1      30.522  24.058  23.121  1.00  0.00     0.345 HD
ATOM     10  H   UNL A   1      30.101  24.964  24.454  1.00  0.00     0.345 HD
ATOM     11  H   UNL A   1      29.442  23.450  24.234  1.00  0.00     0.345 HD
ENDBRANCH   7   8
BRANCH   7  12
ATOM     12  C   UNL A   1      32.733  23.310  24.105  1.00  0.00     0.113 C 
BRANCH  12  13
ATOM     13  C   UNL A   1      33.993  22.495  24.392  1.00  0.00    -0.029 A 
ATOM     14  C   UNL A   1      35.142  23.326  24.556  1.00  0.00     0.007 A 
ATOM     15  C   UNL A   1      34.169  21.111  24.633  1.00  0.00     0.062 A 
ATOM     16  C   UNL A   1      36.396  22.835  24.916  1.00  0.00     0.039 A 
ATOM     17  C   UNL A   1      35.462  20.636  24.997  1.00  0.00     0.052 A 
ATOM     18  C   UNL A   1      36.545  21.485  25.137  1.00  0.00     0.123 A 
ATOM     19  F   UNL A   1      37.735  20.995  25.502  1.00  0.00    -0.207 F 
BRANCH  15  20
ATOM     20  C   UNL A   1      33.161  19.991  24.560  1.00  0.00     0.416 C 
ATOM     21  F   UNL A   1      33.709  18.805  24.935  1.00  0.00    -0.166 F 
ATOM     22  F   UNL A   1      32.106  20.194  25.401  1.00  0.00    -0.166 F 
ATOM     23  F   UNL A   1      32.600  19.772  23.352  1.00  0.00    -0.166 F 
ENDBRANCH  15  20
ENDBRANCH  12  13
ENDBRANCH   7  12
ENDBRANCH   5   7
ENDBRANCH   4   5
ENDBRANCH   3   4
ENDBRANCH   2   3
ENDBRANCH   1   2
BRANCH   1  24
ATOM     24  C   UNL A   1      32.484  29.705  25.212  1.00  0.00     0.202 C 
BRANCH  24  25
ATOM     25  C   UNL A   1      31.924  30.603  26.323  1.00  0.00     0.261 C 
BRANCH  25  26
ATOM     26  O   UNL A   1      32.754  30.608  27.498  1.00  0.00    -0.460 OA
BRANCH  26  27
ATOM     27  C   UNL A   1      33.555  31.696  27.602  1.00  0.00     0.338 C 
ATOM     28  O   UNL A   1      33.193  32.865  27.621  1.00  0.00    -0.246 OA
BRANCH  27  29
ATOM     29  C   UNL A   1      34.955  31.299  27.858  1.00  0.00     0.060 A 
ATOM     30  C   UNL A   1      35.216  29.928  27.967  1.00  0.00     0.016 A 
ATOM     31  C   UNL A   1      35.979  32.230  28.060  1.00  0.00     0.016 A 
ATOM     32  C   UNL A   1      36.472  29.486  28.372  1.00  0.00     0.010 A 
ATOM     33  C   UNL A   1      37.247  31.782  28.453  1.00  0.00     0.010 A 
ATOM     34  C   UNL A   1      37.480  30.411  28.674  1.00  0.00    -0.014 A 
BRANCH  34  35
ATOM     35  C   UNL A   1      38.675  29.941  29.427  1.00  0.00     0.031 A 
ATOM     36  C   UNL A   1      38.891  30.458  30.829  1.00  0.00     0.074 A 
ATOM     37  C   UNL A   1      39.488  28.990  28.928  1.00  0.00     0.049 A 
ATOM     38  N   UNL A   1      39.827  30.151  31.689  1.00  0.00    -0.248 NA
ATOM     39  C   UNL A   1      37.923  31.450  31.329  1.00  0.00     0.031 C 
ATOM     40  C   UNL A   1      39.352  28.372  27.609  1.00  0.00     0.029 A 
ATOM     41  N   UNL A   1      40.576  28.361  29.482  1.00  0.00    -0.354 N 
ATOM     42  C   UNL A   1      39.560  30.906  32.826  1.00  0.00     0.074 A 
ATOM     43  C   UNL A   1      38.406  31.724  32.531  1.00  0.00     0.031 C 
ATOM     44  C   UNL A   1      40.307  27.436  27.466  1.00  0.00     0.029 A 
ATOM     45  C   UNL A   1      41.145  27.410  28.664  1.00  0.00     0.049 A 
ATOM     46  H   UNL A   1      40.918  28.570  30.380  1.00  0.00     0.167 HD
ATOM     47  C   UNL A   1      40.201  30.901  34.018  1.00  0.00     0.034 A 
ATOM     48  C   UNL A   1      42.220  26.617  28.854  1.00  0.00     0.034 A 
ATOM     49  C   UNL A   1      41.332  30.067  34.319  1.00  0.00     0.049 A 
ATOM     50  C   UNL A   1      42.974  26.697  30.160  1.00  0.00     0.074 A 
ATOM     51  C   UNL A   1      42.033  29.973  35.509  1.00  0.00     0.029 A 
ATOM     52  N   UNL A   1      41.928  29.185  33.431  1.00  0.00    -0.354 N 
ATOM     53  N   UNL A   1      42.711  27.426  31.219  1.00  0.00    -0.248 NA
ATOM     54  C   UNL A   1      44.171  25.853  30.297  1.00  0.00     0.031 C 
ATOM     55  C   UNL A   1      43.097  29.090  35.318  1.00  0.00     0.029 A 
ATOM     56  C   UNL A   1      43.016  28.575  34.034  1.00  0.00     0.049 A 
ATOM     57  H   UNL A   1      41.625  29.018  32.509  1.00  0.00     0.167 HD
ATOM     58  C   UNL A   1      43.699  27.115  32.151  1.00  0.00     0.074 A 
ATOM     59  C   UNL A   1      44.559  26.127  31.536  1.00  0.00     0.031 C 
ATOM     60  C   UNL A   1      43.871  27.600  33.405  1.00  0.00     0.034 A 
BRANCH  47  61
ATOM     61  C   UNL A   1      39.712  31.840  35.088  1.00  0.00     0.023 A 
ATOM     62  C   UNL A   1      40.261  33.123  35.249  1.00  0.00     0.031 A 
ATOM     63  C   UNL A   1      38.644  31.463  35.921  1.00  0.00     0.131 A 
ATOM     64  C   UNL A   1      39.754  33.976  36.240  1.00  0.00     0.055 A 
ATOM     65  C   UNL A   1      38.106  32.338  36.864  1.00  0.00     0.041 A 
ATOM     66  F   UNL A   1      38.097  30.241  35.817  1.00  0.00    -0.206 F 
ATOM     67  C   UNL A   1      38.664  33.602  37.030  1.00  0.00     0.022 A 
BRANCH  64  68
ATOM     68  S   UNL A   1      40.574  35.568  36.522  1.00  0.00     0.124 S 
ATOM     69  O   UNL A   1      39.652  36.493  35.868  1.00  0.00    -0.237 OA
ATOM     70  O   UNL A   1      40.628  35.645  37.978  1.00  0.00    -0.237 OA
ATOM     71  O   UNL A   1      41.866  35.411  35.859  1.00  0.00    -0.744 OA
ENDBRANCH  64  68
ENDBRANCH  47  61
BRANCH  48  72
ATOM     72  C   UNL A   1      42.675  25.703  27.769  1.00  0.00     0.023 A 
ATOM     73  C   UNL A   1      42.136  24.415  27.622  1.00  0.00     0.031 A 
ATOM     74  C   UNL A   1      43.680  26.105  26.870  1.00  0.00     0.131 A 
ATOM     75  C   UNL A   1      42.620  23.567  26.612  1.00  0.00     0.055 A 
ATOM     76  C   UNL A   1      44.127  25.274  25.842  1.00  0.00     0.041 A 
ATOM     77  F   UNL A   1      44.231  27.326  26.969  1.00  0.00    -0.206 F 
ATOM     78  C   UNL A   1      43.600  23.993  25.713  1.00  0.00     0.022 A 
BRANCH  75  79
ATOM     79  S   UNL A   1      41.978  21.873  26.511  1.00  0.00     0.124 S 
ATOM     80  O   UNL A   1      42.724  21.340  25.377  1.00  0.00    -0.237 OA
ATOM     81  O   UNL A   1      42.326  21.335  27.822  1.00  0.00    -0.237 OA
ATOM     82  O   UNL A   1      40.547  22.065  26.281  1.00  0.00    -0.744 OA
ENDBRANCH  75  79
ENDBRANCH  48  72
BRANCH  60  83
ATOM     83  C   UNL A   1      45.022  27.073  34.219  1.00  0.00     0.023 A 
ATOM     84  C   UNL A   1      44.910  25.885  34.960  1.00  0.00     0.031 A 
ATOM     85  C   UNL A   1      46.276  27.710  34.167  1.00  0.00     0.131 A 
ATOM     86  C   UNL A   1      46.032  25.372  35.626  1.00  0.00     0.055 A 
ATOM     87  C   UNL A   1      47.399  27.173  34.795  1.00  0.00     0.041 A 
ATOM     88  F   UNL A   1      46.436  28.843  33.464  1.00  0.00    -0.206 F 
ATOM     89  C   UNL A   1      47.280  25.996  35.531  1.00  0.00     0.022 A 
BRANCH  86  90
ATOM     90  S   UNL A   1      45.844  23.870  36.624  1.00  0.00     0.124 S 
ATOM     91  O   UNL A   1      44.703  23.223  35.983  1.00  0.00    -0.237 OA
ATOM     92  O   UNL A   1      47.132  23.208  36.450  1.00  0.00    -0.237 OA
ATOM     93  O   UNL A   1      45.589  24.382  37.970  1.00  0.00    -0.744 OA
ENDBRANCH  86  90
ENDBRANCH  60  83
ENDBRANCH  34  35
ENDBRANCH  27  29
ENDBRANCH  26  27
ENDBRANCH  25  26
ENDBRANCH  24  25
ENDBRANCH   1  24
TORSDOF 21
ENDMDL
MODEL 3
REMARK VINA RESULT:     -10.7      1.192      7.678
REMARK SMILES [NH3+][C@@H](Cc1ccc(F)cc1C(F)(F)F)C(=O)OCCOCCOC(=O)c1ccc(-c2c3nc(c(-c4cc(S(=O)(=O)[O-])ccc4F)c4ccc([nH]4)c(-c4cc(S(=O)(=O)[O-])ccc4F)c4nc(c(-c5cc(S(=O)(=O)[O-])ccc5F)c5ccc2[nH]5)C=C4)C=C3)cc1
REMARK SMILES IDX 20 1 19 2 18 3 17 4 15 5 16 6 2 7 1 8 3 12 4 13 5 14 10 15
REMARK SMILES IDX 6 16 9 17 7 18 8 19 11 20 12 21 13 22 14 23 21 24 22 25
REMARK SMILES IDX 23 26 24 27 25 28 26 29 27 30 88 31 28 32 87 33 29 34 30 35
REMARK SMILES IDX 31 36 81 37 32 38 86 39 80 40 82 41 33 42 85 43 79 44 78 45
REMARK SMILES IDX 34 47 66 48 46 49 65 50 47 51 50 52 64 53 83 54 48 55 49 56
REMARK SMILES IDX 63 58 84 59 51 60 35 61 36 62 44 63 37 64 43 65 45 66 42 67
REMARK SMILES IDX 38 68 39 69 40 70 41 71 67 72 68 73 76 74 69 75 75 76 77 77
REMARK SMILES IDX 74 78 70 79 71 80 72 81 73 82 52 83 53 84 61 85 54 86 60 87
REMARK SMILES IDX 62 88 59 89 55 90 56 91 57 92 58 93
REMARK H PARENT 1 9 1 10 1 11 82 46 50 57
REMARK Flexibility Score: inf
ROOT
ATOM      1  O   UNL A   1      31.892  28.615  24.765  1.00  0.00    -0.374 OA
ENDROOT
BRANCH   1   2
ATOM      2  C   UNL A   1      31.405  27.733  25.780  1.00  0.00     0.202 C 
BRANCH   2   3
ATOM      3  C   UNL A   1      30.583  26.550  25.267  1.00  0.00     0.261 C 
BRANCH   3   4
ATOM      4  O   UNL A   1      31.211  25.300  25.614  1.00  0.00    -0.459 OA
BRANCH   4   5
ATOM      5  C   UNL A   1      30.868  24.218  24.867  1.00  0.00     0.365 C 
ATOM      6  O   UNL A   1      30.380  24.269  23.743  1.00  0.00    -0.245 OA
BRANCH   5   7
ATOM      7  C   UNL A   1      31.225  22.900  25.564  1.00  0.00     0.296 C 
BRANCH   7   8
ATOM      8  N   UNL A   1      30.105  22.316  26.333  1.00  0.00    -0.346 N 
ATOM      9  H   UNL A   1      30.458  21.580  26.944  1.00  0.00     0.345 HD
ATOM     10  H   UNL A   1      29.417  21.923  25.689  1.00  0.00     0.345 HD
ATOM     11  H   UNL A   1      29.664  23.043  26.898  1.00  0.00     0.345 HD
ENDBRANCH   7   8
BRANCH   7  12
ATOM     12  C   UNL A   1      32.050  21.898  24.733  1.00  0.00     0.113 C 
BRANCH  12  13
ATOM     13  C   UNL A   1      33.487  21.404  24.888  1.00  0.00    -0.029 A 
ATOM     14  C   UNL A   1      33.578  19.982  24.786  1.00  0.00     0.007 A 
ATOM     15  C   UNL A   1      34.707  22.113  24.990  1.00  0.00     0.062 A 
ATOM     16  C   UNL A   1      34.788  19.290  24.800  1.00  0.00     0.039 A 
ATOM     17  C   UNL A   1      35.929  21.380  25.005  1.00  0.00     0.052 A 
ATOM     18  C   UNL A   1      35.961  20.001  24.909  1.00  0.00     0.123 A 
ATOM     19  F   UNL A   1      37.135  19.359  24.906  1.00  0.00    -0.207 F 
BRANCH  15  20
ATOM     20  C   UNL A   1      34.944  23.600  25.096  1.00  0.00     0.416 C 
ATOM     21  F   UNL A   1      34.502  24.252  23.988  1.00  0.00    -0.166 F 
ATOM     22  F   UNL A   1      34.270  24.154  26.145  1.00  0.00    -0.166 F 
ATOM     23  F   UNL A   1      36.225  23.988  25.266  1.00  0.00    -0.166 F 
ENDBRANCH  15  20
ENDBRANCH  12  13
ENDBRANCH   7  12
ENDBRANCH   5   7
ENDBRANCH   4   5
ENDBRANCH   3   4
ENDBRANCH   2   3
ENDBRANCH   1   2
BRANCH   1  24
ATOM     24  C   UNL A   1      32.687  29.709  25.217  1.00  0.00     0.202 C 
BRANCH  24  25
ATOM     25  C   UNL A   1      32.024  30.657  26.225  1.00  0.00     0.261 C 
BRANCH  25  26
ATOM     26  O   UNL A   1      32.720  30.700  27.482  1.00  0.00    -0.460 OA
BRANCH  26  27
ATOM     27  C   UNL A   1      33.509  31.791  27.637  1.00  0.00     0.338 C 
ATOM     28  O   UNL A   1      33.140  32.957  27.665  1.00  0.00    -0.246 OA
BRANCH  27  29
ATOM     29  C   UNL A   1      34.901  31.398  27.938  1.00  0.00     0.060 A 
ATOM     30  C   UNL A   1      35.152  30.031  28.111  1.00  0.00     0.016 A 
ATOM     31  C   UNL A   1      35.928  32.330  28.121  1.00  0.00     0.016 A 
ATOM     32  C   UNL A   1      36.396  29.600  28.560  1.00  0.00     0.010 A 
ATOM     33  C   UNL A   1      37.185  31.893  28.558  1.00  0.00     0.010 A 
ATOM     34  C   UNL A   1      37.404  30.532  28.842  1.00  0.00    -0.014 A 
BRANCH  34  35
ATOM     35  C   UNL A   1      38.581  30.089  29.639  1.00  0.00     0.031 A 
ATOM     36  C   UNL A   1      38.700  30.559  31.068  1.00  0.00     0.074 A 
ATOM     37  C   UNL A   1      39.463  29.197  29.147  1.00  0.00     0.049 A 
ATOM     38  N   UNL A   1      39.606  30.262  31.964  1.00  0.00    -0.248 NA
ATOM     39  C   UNL A   1      37.662  31.484  31.554  1.00  0.00     0.031 C 
ATOM     40  C   UNL A   1      39.424  28.626  27.801  1.00  0.00     0.029 A 
ATOM     41  N   UNL A   1      40.551  28.597  29.734  1.00  0.00    -0.354 N 
ATOM     42  C   UNL A   1      39.245  30.958  33.113  1.00  0.00     0.074 A 
ATOM     43  C   UNL A   1      38.069  31.732  32.789  1.00  0.00     0.031 C 
ATOM     44  C   UNL A   1      40.430  27.742  27.673  1.00  0.00     0.029 A 
ATOM     45  C   UNL A   1      41.206  27.708  28.913  1.00  0.00     0.049 A 
ATOM     46  H   UNL A   1      40.837  28.787  30.656  1.00  0.00     0.167 HD
ATOM     47  C   UNL A   1      39.824  30.935  34.336  1.00  0.00     0.034 A 
ATOM     48  C   UNL A   1      42.307  26.958  29.129  1.00  0.00     0.034 A 
ATOM     49  C   UNL A   1      40.978  30.143  34.664  1.00  0.00     0.049 A 
ATOM     50  C   UNL A   1      42.990  27.021  30.474  1.00  0.00     0.074 A 
ATOM     51  C   UNL A   1      41.622  30.034  35.885  1.00  0.00     0.029 A 
ATOM     52  N   UNL A   1      41.660  29.326  33.777  1.00  0.00    -0.354 N 
ATOM     53  N   UNL A   1      42.639  27.694  31.545  1.00  0.00    -0.248 NA
ATOM     54  C   UNL A   1      44.218  26.228  30.642  1.00  0.00     0.031 C 
ATOM     55  C   UNL A   1      42.736  29.210  35.717  1.00  0.00     0.029 A 
ATOM     56  C   UNL A   1      42.744  28.744  34.412  1.00  0.00     0.049 A 
ATOM     57  H   UNL A   1      41.412  29.181  32.835  1.00  0.00     0.167 HD
ATOM     58  C   UNL A   1      43.592  27.392  32.515  1.00  0.00     0.074 A 
ATOM     59  C   UNL A   1      44.529  26.471  31.909  1.00  0.00     0.031 C 
ATOM     60  C   UNL A   1      43.677  27.835  33.794  1.00  0.00     0.034 A 
BRANCH  47  61
ATOM     61  C   UNL A   1      39.237  31.807  35.413  1.00  0.00     0.023 A 
ATOM     62  C   UNL A   1      38.540  31.261  36.503  1.00  0.00     0.031 A 
ATOM     63  C   UNL A   1      39.428  33.199  35.374  1.00  0.00     0.131 A 
ATOM     64  C   UNL A   1      38.035  32.109  37.500  1.00  0.00     0.055 A 
ATOM     65  C   UNL A   1      38.976  34.030  36.399  1.00  0.00     0.041 A 
ATOM     66  F   UNL A   1      40.073  33.770  34.344  1.00  0.00    -0.206 F 
ATOM     67  C   UNL A   1      38.271  33.486  37.469  1.00  0.00     0.022 A 
BRANCH  64  68
ATOM     68  S   UNL A   1      37.017  31.394  38.819  1.00  0.00     0.124 S 
ATOM     69  O   UNL A   1      36.814  30.034  38.328  1.00  0.00    -0.237 OA
ATOM     70  O   UNL A   1      37.874  31.528  39.991  1.00  0.00    -0.237 OA
ATOM     71  O   UNL A   1      35.822  32.235  38.823  1.00  0.00    -0.744 OA
ENDBRANCH  64  68
ENDBRANCH  47  61
BRANCH  48  72
ATOM     72  C   UNL A   1      42.861  26.110  28.036  1.00  0.00     0.023 A 
ATOM     73  C   UNL A   1      42.465  24.772  27.875  1.00  0.00     0.031 A 
ATOM     74  C   UNL A   1      43.817  26.628  27.143  1.00  0.00     0.131 A 
ATOM     75  C   UNL A   1      43.040  23.992  26.857  1.00  0.00     0.055 A 
ATOM     76  C   UNL A   1      44.353  25.861  26.108  1.00  0.00     0.041 A 
ATOM     77  F   UNL A   1      44.231  27.900  27.256  1.00  0.00    -0.206 F 
ATOM     78  C   UNL A   1      43.969  24.532  25.965  1.00  0.00     0.022 A 
BRANCH  75  79
ATOM     79  S   UNL A   1      42.585  22.240  26.737  1.00  0.00     0.124 S 
ATOM     80  O   UNL A   1      43.662  21.710  25.910  1.00  0.00    -0.237 OA
ATOM     81  O   UNL A   1      42.585  21.827  28.137  1.00  0.00    -0.237 OA
ATOM     82  O   UNL A   1      41.268  22.273  26.103  1.00  0.00    -0.744 OA
ENDBRANCH  75  79
ENDBRANCH  48  72
BRANCH  60  83
ATOM     83  C   UNL A   1      44.809  27.330  34.646  1.00  0.00     0.023 A 
ATOM     84  C   UNL A   1      44.681  26.160  35.413  1.00  0.00     0.031 A 
ATOM     85  C   UNL A   1      46.063  27.968  34.608  1.00  0.00     0.131 A 
ATOM     86  C   UNL A   1      45.789  25.665  36.117  1.00  0.00     0.055 A 
ATOM     87  C   UNL A   1      47.171  27.448  35.275  1.00  0.00     0.041 A 
ATOM     88  F   UNL A   1      46.238  29.084  33.882  1.00  0.00    -0.206 F 
ATOM     89  C   UNL A   1      47.037  26.290  36.036  1.00  0.00     0.022 A 
BRANCH  86  90
ATOM     90  S   UNL A   1      45.579  24.187  37.146  1.00  0.00     0.124 S 
ATOM     91  O   UNL A   1      44.695  24.675  38.199  1.00  0.00    -0.237 OA
ATOM     92  O   UNL A   1      44.992  23.231  36.213  1.00  0.00    -0.237 OA
ATOM     93  O   UNL A   1      46.941  23.873  37.577  1.00  0.00    -0.744 OA
ENDBRANCH  86  90
ENDBRANCH  60  83
ENDBRANCH  34  35
ENDBRANCH  27  29
ENDBRANCH  26  27
ENDBRANCH  25  26
ENDBRANCH  24  25
ENDBRANCH   1  24
TORSDOF 21
ENDMDL
