MODEL 1
REMARK VINA RESULT:     -10.3      0.000      0.000
REMARK SMILES COc1ccc(-n2c(=O)[nH]c3cc(C(=O)OCCOCCOC(=O)c4ccc(-c5c6nc(c(-c7cc(S(=O)(=O)[O-])ccc7F)c7ccc([nH]7)c(-c7cc(S(=O)(=O)[O-])ccc7F)c7nc(c(-c8cc(S(=O)(=O)[O-])ccc8F)c8ccc5[nH]8)C=C7)C=C6)cc4)ccc3c2=O)cc1
REMARK SMILES IDX 20 1 19 2 18 3 17 4 16 5 14 6 15 7 13 8 7 9 8 10 91 11 9 12
REMARK SMILES IDX 10 13 90 14 92 15 11 16 89 18 12 19 88 20 6 21 3 22 4 23
REMARK SMILES IDX 94 24 5 25 93 26 2 27 1 28 21 29 22 30 23 31 24 32 25 33
REMARK SMILES IDX 26 34 87 35 27 36 86 37 28 38 29 39 30 40 80 41 31 42 85 43
REMARK SMILES IDX 79 44 81 45 32 46 84 47 78 48 77 49 33 51 65 52 45 53 64 54
REMARK SMILES IDX 46 55 49 56 63 57 82 58 47 59 48 60 62 62 83 63 50 64 34 65
REMARK SMILES IDX 35 66 43 67 36 68 42 69 44 70 41 71 37 72 38 73 39 74 40 75
REMARK SMILES IDX 66 76 67 77 75 78 68 79 74 80 76 81 73 82 69 83 70 84 71 85
REMARK SMILES IDX 72 86 51 87 52 88 60 89 53 90 59 91 61 92 58 93 54 94 55 95
REMARK SMILES IDX 56 96 57 97
REMARK H PARENT 10 17 81 50 49 61
REMARK Flexibility Score: inf
ROOT
ATOM      1  C   UNL A   1      42.235  19.753  26.170  1.00  0.00     0.202 C 
ENDROOT
BRANCH   1   2
ATOM      2  O   UNL A   1      43.046  20.165  25.070  1.00  0.00    -0.374 OA
BRANCH   2   3
ATOM      3  C   UNL A   1      44.437  19.844  25.133  1.00  0.00     0.202 C 
BRANCH   3   4
ATOM      4  C   UNL A   1      45.346  20.576  24.140  1.00  0.00     0.261 C 
BRANCH   4   5
ATOM      5  O   UNL A   1      46.261  21.457  24.816  1.00  0.00    -0.460 OA
BRANCH   5   6
ATOM      6  C   UNL A   1      45.870  22.747  24.843  1.00  0.00     0.338 C 
ATOM      7  O   UNL A   1      45.281  23.366  23.966  1.00  0.00    -0.246 OA
BRANCH   6   8
ATOM      8  C   UNL A   1      46.071  23.329  26.183  1.00  0.00     0.062 A 
ATOM      9  N   UNL A   1      44.759  24.935  30.739  1.00  0.00    -0.228 N 
ATOM     10  C   UNL A   1      44.162  23.677  30.604  1.00  0.00     0.333 A 
ATOM     11  C   UNL A   1      45.890  25.270  29.966  1.00  0.00     0.268 A 
ATOM     12  O   UNL A   1      43.426  23.097  31.402  1.00  0.00    -0.247 OA
ATOM     13  N   UNL A   1      44.387  23.018  29.428  1.00  0.00    -0.306 N 
ATOM     14  C   UNL A   1      46.066  24.548  28.687  1.00  0.00     0.064 A 
ATOM     15  O   UNL A   1      46.752  26.096  30.264  1.00  0.00    -0.268 OA
ATOM     16  C   UNL A   1      45.226  23.478  28.431  1.00  0.00     0.056 A 
ATOM     17  H   UNL A   1      43.923  22.162  29.282  1.00  0.00     0.171 HD
ATOM     18  C   UNL A   1      46.998  24.949  27.717  1.00  0.00     0.017 A 
ATOM     19  C   UNL A   1      45.215  22.864  27.188  1.00  0.00     0.042 A 
ATOM     20  C   UNL A   1      47.008  24.331  26.458  1.00  0.00     0.016 A 
BRANCH   9  21
ATOM     21  C   UNL A   1      44.245  25.895  31.704  1.00  0.00     0.054 A 
ATOM     22  C   UNL A   1      43.435  27.825  33.647  1.00  0.00     0.119 A 
ATOM     23  C   UNL A   1      43.947  26.595  34.041  1.00  0.00     0.048 A 
ATOM     24  C   UNL A   1      43.347  28.109  32.291  1.00  0.00     0.048 A 
ATOM     25  C   UNL A   1      44.338  25.644  33.086  1.00  0.00     0.031 A 
ATOM     26  C   UNL A   1      43.743  27.155  31.340  1.00  0.00     0.031 A 
BRANCH  22  27
ATOM     27  O   UNL A   1      43.091  28.681  34.655  1.00  0.00    -0.497 OA
ATOM     28  C   UNL A   1      42.013  29.563  34.363  1.00  0.00     0.278 C 
ENDBRANCH  22  27
ENDBRANCH   9  21
ENDBRANCH   6   8
ENDBRANCH   5   6
ENDBRANCH   4   5
ENDBRANCH   3   4
ENDBRANCH   2   3
ENDBRANCH   1   2
BRANCH   1  29
ATOM     29  C   UNL A   1      41.838  20.828  27.190  1.00  0.00     0.261 C 
BRANCH  29  30
ATOM     30  O   UNL A   1      40.413  20.927  27.340  1.00  0.00    -0.460 OA
BRANCH  30  31
ATOM     31  C   UNL A   1      39.832  21.882  26.575  1.00  0.00     0.338 C 
ATOM     32  O   UNL A   1      39.089  21.700  25.618  1.00  0.00    -0.246 OA
BRANCH  31  33
ATOM     33  C   UNL A   1      40.050  23.213  27.173  1.00  0.00     0.060 A 
ATOM     34  C   UNL A   1      39.461  24.307  26.528  1.00  0.00     0.016 A 
ATOM     35  C   UNL A   1      40.846  23.401  28.306  1.00  0.00     0.016 A 
ATOM     36  C   UNL A   1      39.712  25.600  26.979  1.00  0.00     0.010 A 
ATOM     37  C   UNL A   1      41.101  24.702  28.754  1.00  0.00     0.010 A 
ATOM     38  C   UNL A   1      40.566  25.808  28.070  1.00  0.00    -0.014 A 
BRANCH  38  39
ATOM     39  C   UNL A   1      41.009  27.189  28.385  1.00  0.00     0.031 A 
ATOM     40  C   UNL A   1      42.418  27.597  28.053  1.00  0.00     0.074 A 
ATOM     41  C   UNL A   1      40.149  28.083  28.903  1.00  0.00     0.049 A 
ATOM     42  N   UNL A   1      43.008  28.754  28.205  1.00  0.00    -0.248 NA
ATOM     43  C   UNL A   1      43.274  26.553  27.474  1.00  0.00     0.031 C 
ATOM     44  C   UNL A   1      38.748  27.815  29.224  1.00  0.00     0.029 A 
ATOM     45  N   UNL A   1      40.328  29.400  29.238  1.00  0.00    -0.354 N 
ATOM     46  C   UNL A   1      44.306  28.581  27.735  1.00  0.00     0.074 A 
ATOM     47  C   UNL A   1      44.427  27.190  27.350  1.00  0.00     0.031 C 
ATOM     48  C   UNL A   1      38.189  28.942  29.700  1.00  0.00     0.029 A 
ATOM     49  C   UNL A   1      39.199  29.997  29.747  1.00  0.00     0.049 A 
ATOM     50  H   UNL A   1      41.182  29.874  29.125  1.00  0.00     0.167 HD
ATOM     51  C   UNL A   1      45.298  29.500  27.618  1.00  0.00     0.034 A 
ATOM     52  C   UNL A   1      39.008  31.249  30.206  1.00  0.00     0.034 A 
ATOM     53  C   UNL A   1      45.168  30.877  28.034  1.00  0.00     0.049 A 
ATOM     54  C   UNL A   1      40.155  32.227  30.169  1.00  0.00     0.074 A 
ATOM     55  C   UNL A   1      46.101  31.897  27.956  1.00  0.00     0.029 A 
ATOM     56  N   UNL A   1      44.035  31.426  28.625  1.00  0.00    -0.354 N 
ATOM     57  N   UNL A   1      41.374  32.058  29.712  1.00  0.00    -0.248 NA
ATOM     58  C   UNL A   1      39.892  33.568  30.706  1.00  0.00     0.031 C 
ATOM     59  C   UNL A   1      45.563  33.034  28.572  1.00  0.00     0.029 A 
ATOM     60  C   UNL A   1      44.261  32.755  28.957  1.00  0.00     0.049 A 
ATOM     61  H   UNL A   1      43.194  30.942  28.786  1.00  0.00     0.167 HD
ATOM     62  C   UNL A   1      42.016  33.283  29.881  1.00  0.00     0.074 A 
ATOM     63  C   UNL A   1      41.042  34.182  30.467  1.00  0.00     0.031 C 
ATOM     64  C   UNL A   1      43.292  33.636  29.572  1.00  0.00     0.034 A 
BRANCH  51  65
ATOM     65  C   UNL A   1      46.621  29.011  27.072  1.00  0.00     0.023 A 
ATOM     66  C   UNL A   1      46.802  28.746  25.701  1.00  0.00     0.031 A 
ATOM     67  C   UNL A   1      47.692  28.729  27.938  1.00  0.00     0.131 A 
ATOM     68  C   UNL A   1      47.977  28.121  25.256  1.00  0.00     0.055 A 
ATOM     69  C   UNL A   1      48.896  28.196  27.474  1.00  0.00     0.041 A 
ATOM     70  F   UNL A   1      47.576  28.938  29.259  1.00  0.00    -0.206 F 
ATOM     71  C   UNL A   1      49.036  27.866  26.129  1.00  0.00     0.022 A 
BRANCH  68  72
ATOM     72  S   UNL A   1      48.019  27.465  23.564  1.00  0.00     0.124 S 
ATOM     73  O   UNL A   1      46.952  28.232  22.923  1.00  0.00    -0.237 OA
ATOM     74  O   UNL A   1      49.378  27.780  23.138  1.00  0.00    -0.237 OA
ATOM     75  O   UNL A   1      47.732  26.043  23.740  1.00  0.00    -0.744 OA
ENDBRANCH  68  72
ENDBRANCH  51  65
BRANCH  52  76
ATOM     76  C   UNL A   1      37.682  31.651  30.753  1.00  0.00     0.023 A 
ATOM     77  C   UNL A   1      36.736  32.306  29.948  1.00  0.00     0.031 A 
ATOM     78  C   UNL A   1      37.352  31.406  32.098  1.00  0.00     0.131 A 
ATOM     79  C   UNL A   1      35.516  32.721  30.504  1.00  0.00     0.055 A 
ATOM     80  C   UNL A   1      36.119  31.782  32.634  1.00  0.00     0.041 A 
ATOM     81  F   UNL A   1      38.221  30.781  32.907  1.00  0.00    -0.206 F 
ATOM     82  C   UNL A   1      35.196  32.452  31.837  1.00  0.00     0.022 A 
BRANCH  79  83
ATOM     83  S   UNL A   1      34.366  33.666  29.467  1.00  0.00     0.124 S 
ATOM     84  O   UNL A   1      33.489  34.266  30.466  1.00  0.00    -0.237 OA
ATOM     85  O   UNL A   1      35.267  34.579  28.771  1.00  0.00    -0.237 OA
ATOM     86  O   UNL A   1      33.749  32.644  28.626  1.00  0.00    -0.744 OA
ENDBRANCH  79  83
ENDBRANCH  52  76
BRANCH  64  87
ATOM     87  C   UNL A   1      43.688  35.070  29.840  1.00  0.00     0.023 A 
ATOM     88  C   UNL A   1      43.535  36.075  28.869  1.00  0.00     0.031 A 
ATOM     89  C   UNL A   1      44.260  35.429  31.074  1.00  0.00     0.131 A 
ATOM     90  C   UNL A   1      44.013  37.370  29.119  1.00  0.00     0.055 A 
ATOM     91  C   UNL A   1      44.671  36.736  31.343  1.00  0.00     0.041 A 
ATOM     92  F   UNL A   1      44.436  34.513  32.039  1.00  0.00    -0.206 F 
ATOM     93  C   UNL A   1      44.564  37.712  30.357  1.00  0.00     0.022 A 
BRANCH  90  94
ATOM     94  S   UNL A   1      44.014  38.576  27.762  1.00  0.00     0.124 S 
ATOM     95  O   UNL A   1      42.807  38.207  27.029  1.00  0.00    -0.237 OA
ATOM     96  O   UNL A   1      43.965  39.848  28.475  1.00  0.00    -0.237 OA
ATOM     97  O   UNL A   1      45.269  38.305  27.063  1.00  0.00    -0.744 OA
ENDBRANCH  90  94
ENDBRANCH  64  87
ENDBRANCH  38  39
ENDBRANCH  31  33
ENDBRANCH  30  31
ENDBRANCH  29  30
ENDBRANCH   1  29
TORSDOF 19
ENDMDL
MODEL 2
REMARK VINA RESULT:     -10.2      3.818     12.096
REMARK SMILES COc1ccc(-n2c(=O)[nH]c3cc(C(=O)OCCOCCOC(=O)c4ccc(-c5c6nc(c(-c7cc(S(=O)(=O)[O-])ccc7F)c7ccc([nH]7)c(-c7cc(S(=O)(=O)[O-])ccc7F)c7nc(c(-c8cc(S(=O)(=O)[O-])ccc8F)c8ccc5[nH]8)C=C7)C=C6)cc4)ccc3c2=O)cc1
REMARK SMILES IDX 20 1 19 2 18 3 17 4 16 5 14 6 15 7 13 8 7 9 8 10 91 11 9 12
REMARK SMILES IDX 10 13 90 14 92 15 11 16 89 18 12 19 88 20 6 21 3 22 4 23
REMARK SMILES IDX 94 24 5 25 93 26 2 27 1 28 21 29 22 30 23 31 24 32 25 33
REMARK SMILES IDX 26 34 87 35 27 36 86 37 28 38 29 39 30 40 80 41 31 42 85 43
REMARK SMILES IDX 79 44 81 45 32 46 84 47 78 48 77 49 33 51 65 52 45 53 64 54
REMARK SMILES IDX 46 55 49 56 63 57 82 58 47 59 48 60 62 62 83 63 50 64 34 65
REMARK SMILES IDX 35 66 43 67 36 68 42 69 44 70 41 71 37 72 38 73 39 74 40 75
REMARK SMILES IDX 66 76 67 77 75 78 68 79 74 80 76 81 73 82 69 83 70 84 71 85
REMARK SMILES IDX 72 86 51 87 52 88 60 89 53 90 59 91 61 92 58 93 54 94 55 95
REMARK SMILES IDX 56 96 57 97
REMARK H PARENT 10 17 81 50 49 61
REMARK Flexibility Score: inf
ROOT
ATOM      1  C   UNL A   1      33.674  35.359  29.328  1.00  0.00     0.202 C 
ENDROOT
BRANCH   1   2
ATOM      2  O   UNL A   1      32.541  36.034  29.876  1.00  0.00    -0.374 OA
BRANCH   2   3
ATOM      3  C   UNL A   1      32.360  35.954  31.292  1.00  0.00     0.202 C 
BRANCH   3   4
ATOM      4  C   UNL A   1      33.638  35.918  32.136  1.00  0.00     0.261 C 
BRANCH   4   5
ATOM      5  O   UNL A   1      33.643  34.795  33.035  1.00  0.00    -0.460 OA
BRANCH   5   6
ATOM      6  C   UNL A   1      34.428  33.773  32.639  1.00  0.00     0.338 C 
ATOM      7  O   UNL A   1      34.074  32.702  32.162  1.00  0.00    -0.246 OA
BRANCH   6   8
ATOM      8  C   UNL A   1      35.851  34.161  32.670  1.00  0.00     0.062 A 
ATOM      9  N   UNL A   1      40.581  34.411  31.051  1.00  0.00    -0.228 N 
ATOM     10  C   UNL A   1      39.792  34.730  29.940  1.00  0.00     0.333 A 
ATOM     11  C   UNL A   1      40.074  34.588  32.355  1.00  0.00     0.268 A 
ATOM     12  O   UNL A   1      40.162  34.971  28.791  1.00  0.00    -0.247 OA
ATOM     13  N   UNL A   1      38.439  34.740  30.135  1.00  0.00    -0.306 N 
ATOM     14  C   UNL A   1      38.603  34.558  32.513  1.00  0.00     0.064 A 
ATOM     15  O   UNL A   1      40.739  34.780  33.372  1.00  0.00    -0.268 OA
ATOM     16  C   UNL A   1      37.833  34.549  31.362  1.00  0.00     0.056 A 
ATOM     17  H   UNL A   1      37.861  34.895  29.353  1.00  0.00     0.171 HD
ATOM     18  C   UNL A   1      37.980  34.475  33.768  1.00  0.00     0.017 A 
ATOM     19  C   UNL A   1      36.462  34.348  31.426  1.00  0.00     0.042 A 
ATOM     20  C   UNL A   1      36.593  34.283  33.849  1.00  0.00     0.016 A 
BRANCH   9  21
ATOM     21  C   UNL A   1      41.944  33.935  30.875  1.00  0.00     0.054 A 
ATOM     22  C   UNL A   1      44.568  32.947  30.331  1.00  0.00     0.119 A 
ATOM     23  C   UNL A   1      43.507  32.072  30.522  1.00  0.00     0.048 A 
ATOM     24  C   UNL A   1      44.326  34.313  30.385  1.00  0.00     0.048 A 
ATOM     25  C   UNL A   1      42.219  32.557  30.796  1.00  0.00     0.031 A 
ATOM     26  C   UNL A   1      43.034  34.793  30.656  1.00  0.00     0.031 A 
BRANCH  22  27
ATOM     27  O   UNL A   1      45.778  32.372  30.063  1.00  0.00    -0.497 OA
ATOM     28  C   UNL A   1      46.896  33.252  30.120  1.00  0.00     0.278 C 
ENDBRANCH  22  27
ENDBRANCH   9  21
ENDBRANCH   6   8
ENDBRANCH   5   6
ENDBRANCH   4   5
ENDBRANCH   3   4
ENDBRANCH   2   3
ENDBRANCH   1   2
BRANCH   1  29
ATOM     29  C   UNL A   1      33.400  34.142  28.437  1.00  0.00     0.261 C 
BRANCH  29  30
ATOM     30  O   UNL A   1      33.947  32.934  28.991  1.00  0.00    -0.460 OA
BRANCH  30  31
ATOM     31  C   UNL A   1      34.206  31.965  28.080  1.00  0.00     0.338 C 
ATOM     32  O   UNL A   1      33.548  31.711  27.078  1.00  0.00    -0.246 OA
BRANCH  31  33
ATOM     33  C   UNL A   1      35.526  31.363  28.342  1.00  0.00     0.060 A 
ATOM     34  C   UNL A   1      35.558  29.992  28.627  1.00  0.00     0.016 A 
ATOM     35  C   UNL A   1      36.702  32.118  28.358  1.00  0.00     0.016 A 
ATOM     36  C   UNL A   1      36.757  29.382  28.985  1.00  0.00     0.010 A 
ATOM     37  C   UNL A   1      37.905  31.504  28.723  1.00  0.00     0.010 A 
ATOM     38  C   UNL A   1      37.930  30.142  29.074  1.00  0.00    -0.014 A 
BRANCH  38  39
ATOM     39  C   UNL A   1      39.138  29.533  29.683  1.00  0.00     0.031 A 
ATOM     40  C   UNL A   1      39.561  29.968  31.059  1.00  0.00     0.074 A 
ATOM     41  C   UNL A   1      39.812  28.561  29.045  1.00  0.00     0.049 A 
ATOM     42  N   UNL A   1      40.556  29.549  31.797  1.00  0.00    -0.248 NA
ATOM     43  C   UNL A   1      38.750  31.024  31.681  1.00  0.00     0.031 C 
ATOM     44  C   UNL A   1      39.470  28.025  27.727  1.00  0.00     0.029 A 
ATOM     45  N   UNL A   1      40.918  27.845  29.424  1.00  0.00    -0.354 N 
ATOM     46  C   UNL A   1      40.489  30.285  32.976  1.00  0.00     0.074 A 
ATOM     47  C   UNL A   1      39.390  31.215  32.823  1.00  0.00     0.031 C 
ATOM     48  C   UNL A   1      40.344  27.054  27.414  1.00  0.00     0.029 A 
ATOM     49  C   UNL A   1      41.324  26.922  28.490  1.00  0.00     0.049 A 
ATOM     50  H   UNL A   1      41.378  27.979  30.283  1.00  0.00     0.167 HD
ATOM     51  C   UNL A   1      41.259  30.181  34.089  1.00  0.00     0.034 A 
ATOM     52  C   UNL A   1      42.371  26.075  28.501  1.00  0.00     0.034 A 
ATOM     53  C   UNL A   1      42.370  29.267  34.213  1.00  0.00     0.049 A 
ATOM     54  C   UNL A   1      43.283  26.051  29.703  1.00  0.00     0.074 A 
ATOM     55  C   UNL A   1      43.214  29.070  35.292  1.00  0.00     0.029 A 
ATOM     56  N   UNL A   1      42.806  28.405  33.212  1.00  0.00    -0.354 N 
ATOM     57  N   UNL A   1      43.204  26.741  30.817  1.00  0.00    -0.248 NA
ATOM     58  C   UNL A   1      44.420  25.125  29.646  1.00  0.00     0.031 C 
ATOM     59  C   UNL A   1      44.203  28.152  34.917  1.00  0.00     0.029 A 
ATOM     60  C   UNL A   1      43.930  27.708  33.633  1.00  0.00     0.049 A 
ATOM     61  H   UNL A   1      42.378  28.303  32.331  1.00  0.00     0.167 HD
ATOM     62  C   UNL A   1      44.268  26.311  31.606  1.00  0.00     0.074 A 
ATOM     63  C   UNL A   1      44.961  25.291  30.844  1.00  0.00     0.031 C 
ATOM     64  C   UNL A   1      44.635  26.715  32.852  1.00  0.00     0.034 A 
BRANCH  51  65
ATOM     65  C   UNL A   1      40.950  31.131  35.225  1.00  0.00     0.023 A 
ATOM     66  C   UNL A   1      39.833  30.944  36.061  1.00  0.00     0.031 A 
ATOM     67  C   UNL A   1      41.731  32.282  35.428  1.00  0.00     0.131 A 
ATOM     68  C   UNL A   1      39.471  31.939  36.982  1.00  0.00     0.055 A 
ATOM     69  C   UNL A   1      41.420  33.222  36.412  1.00  0.00     0.041 A 
ATOM     70  F   UNL A   1      42.797  32.531  34.650  1.00  0.00    -0.206 F 
ATOM     71  C   UNL A   1      40.271  33.066  37.181  1.00  0.00     0.022 A 
BRANCH  68  72
ATOM     72  S   UNL A   1      37.839  31.835  37.769  1.00  0.00     0.124 S 
ATOM     73  O   UNL A   1      38.150  32.208  39.148  1.00  0.00    -0.237 OA
ATOM     74  O   UNL A   1      37.059  32.803  37.005  1.00  0.00    -0.237 OA
ATOM     75  O   UNL A   1      37.456  30.437  37.583  1.00  0.00    -0.744 OA
ENDBRANCH  68  72
ENDBRANCH  51  65
BRANCH  52  76
ATOM     76  C   UNL A   1      42.627  25.186  27.334  1.00  0.00     0.023 A 
ATOM     77  C   UNL A   1      42.170  23.859  27.322  1.00  0.00     0.031 A 
ATOM     78  C   UNL A   1      43.355  25.646  26.222  1.00  0.00     0.131 A 
ATOM     79  C   UNL A   1      42.472  23.027  26.233  1.00  0.00     0.055 A 
ATOM     80  C   UNL A   1      43.614  24.828  25.121  1.00  0.00     0.041 A 
ATOM     81  F   UNL A   1      43.811  26.908  26.184  1.00  0.00    -0.206 F 
ATOM     82  C   UNL A   1      43.179  23.507  25.127  1.00  0.00     0.022 A 
BRANCH  79  83
ATOM     83  S   UNL A   1      41.966  21.286  26.302  1.00  0.00     0.124 S 
ATOM     84  O   UNL A   1      42.808  20.691  25.271  1.00  0.00    -0.237 OA
ATOM     85  O   UNL A   1      42.291  20.932  27.680  1.00  0.00    -0.237 OA
ATOM     86  O   UNL A   1      40.539  21.334  25.994  1.00  0.00    -0.744 OA
ENDBRANCH  79  83
ENDBRANCH  52  76
BRANCH  64  87
ATOM     87  C   UNL A   1      45.827  26.022  33.470  1.00  0.00     0.023 A 
ATOM     88  C   UNL A   1      45.691  24.842  34.222  1.00  0.00     0.031 A 
ATOM     89  C   UNL A   1      47.116  26.571  33.336  1.00  0.00     0.131 A 
ATOM     90  C   UNL A   1      46.807  24.289  34.869  1.00  0.00     0.055 A 
ATOM     91  C   UNL A   1      48.234  25.978  33.925  1.00  0.00     0.041 A 
ATOM     92  F   UNL A   1      47.308  27.699  32.634  1.00  0.00    -0.206 F 
ATOM     93  C   UNL A   1      48.081  24.840  34.710  1.00  0.00     0.022 A 
BRANCH  90  94
ATOM     94  S   UNL A   1      46.553  22.908  36.018  1.00  0.00     0.124 S 
ATOM     95  O   UNL A   1      47.610  21.985  35.620  1.00  0.00    -0.237 OA
ATOM     96  O   UNL A   1      46.719  23.548  37.318  1.00  0.00    -0.237 OA
ATOM     97  O   UNL A   1      45.194  22.458  35.718  1.00  0.00    -0.744 OA
ENDBRANCH  90  94
ENDBRANCH  64  87
ENDBRANCH  38  39
ENDBRANCH  31  33
ENDBRANCH  30  31
ENDBRANCH  29  30
ENDBRANCH   1  29
TORSDOF 19
ENDMDL
MODEL 3
REMARK VINA RESULT:     -10.0      5.630     10.832
REMARK SMILES COc1ccc(-n2c(=O)[nH]c3cc(C(=O)OCCOCCOC(=O)c4ccc(-c5c6nc(c(-c7cc(S(=O)(=O)[O-])ccc7F)c7ccc([nH]7)c(-c7cc(S(=O)(=O)[O-])ccc7F)c7nc(c(-c8cc(S(=O)(=O)[O-])ccc8F)c8ccc5[nH]8)C=C7)C=C6)cc4)ccc3c2=O)cc1
REMARK SMILES IDX 20 1 19 2 18 3 17 4 16 5 14 6 15 7 13 8 7 9 8 10 91 11 9 12
REMARK SMILES IDX 10 13 90 14 92 15 11 16 89 18 12 19 88 20 6 21 3 22 4 23
REMARK SMILES IDX 94 24 5 25 93 26 2 27 1 28 21 29 22 30 23 31 24 32 25 33
REMARK SMILES IDX 26 34 87 35 27 36 86 37 28 38 29 39 30 40 80 41 31 42 85 43
REMARK SMILES IDX 79 44 81 45 32 46 84 47 78 48 77 49 33 51 65 52 45 53 64 54
REMARK SMILES IDX 46 55 49 56 63 57 82 58 47 59 48 60 62 62 83 63 50 64 34 65
REMARK SMILES IDX 35 66 43 67 36 68 42 69 44 70 41 71 37 72 38 73 39 74 40 75
REMARK SMILES IDX 66 76 67 77 75 78 68 79 74 80 76 81 73 82 69 83 70 84 71 85
REMARK SMILES IDX 72 86 51 87 52 88 60 89 53 90 59 91 61 92 58 93 54 94 55 95
REMARK SMILES IDX 56 96 57 97
REMARK H PARENT 10 17 81 50 49 61
REMARK Flexibility Score: inf
ROOT
ATOM      1  C   UNL A   1      31.822  29.000  25.528  1.00  0.00     0.202 C 
ENDROOT
BRANCH   1   2
ATOM      2  O   UNL A   1      30.664  28.469  24.885  1.00  0.00    -0.374 OA
BRANCH   2   3
ATOM      3  C   UNL A   1      30.624  28.539  23.457  1.00  0.00     0.202 C 
BRANCH   3   4
ATOM      4  C   UNL A   1      31.940  28.247  22.729  1.00  0.00     0.261 C 
BRANCH   4   5
ATOM      5  O   UNL A   1      31.833  27.077  21.898  1.00  0.00    -0.460 OA
BRANCH   5   6
ATOM      6  C   UNL A   1      32.924  26.285  21.916  1.00  0.00     0.338 C 
ATOM      7  O   UNL A   1      34.023  26.517  21.427  1.00  0.00    -0.246 OA
BRANCH   6   8
ATOM      8  C   UNL A   1      32.710  25.115  22.789  1.00  0.00     0.062 A 
ATOM      9  N   UNL A   1      33.583  20.554  24.656  1.00  0.00    -0.228 N 
ATOM     10  C   UNL A   1      34.831  21.187  24.628  1.00  0.00     0.333 A 
ATOM     11  C   UNL A   1      32.399  21.319  24.688  1.00  0.00     0.268 A 
ATOM     12  O   UNL A   1      35.926  20.720  24.941  1.00  0.00    -0.247 OA
ATOM     13  N   UNL A   1      34.852  22.472  24.160  1.00  0.00    -0.306 N 
ATOM     14  C   UNL A   1      32.472  22.691  24.139  1.00  0.00     0.064 A 
ATOM     15  O   UNL A   1      31.315  20.959  25.144  1.00  0.00    -0.268 OA
ATOM     16  C   UNL A   1      33.723  23.187  23.811  1.00  0.00     0.056 A 
ATOM     17  H   UNL A   1      35.727  22.914  24.067  1.00  0.00     0.171 HD
ATOM     18  C   UNL A   1      31.329  23.464  23.887  1.00  0.00     0.017 A 
ATOM     19  C   UNL A   1      33.855  24.390  23.135  1.00  0.00     0.042 A 
ATOM     20  C   UNL A   1      31.447  24.689  23.213  1.00  0.00     0.016 A 
BRANCH   9  21
ATOM     21  C   UNL A   1      33.495  19.102  24.692  1.00  0.00     0.054 A 
ATOM     22  C   UNL A   1      33.118  16.271  24.719  1.00  0.00     0.119 A 
ATOM     23  C   UNL A   1      32.650  17.058  25.763  1.00  0.00     0.048 A 
ATOM     24  C   UNL A   1      33.751  16.888  23.649  1.00  0.00     0.048 A 
ATOM     25  C   UNL A   1      32.842  18.448  25.754  1.00  0.00     0.031 A 
ATOM     26  C   UNL A   1      33.937  18.280  23.642  1.00  0.00     0.031 A 
BRANCH  22  27
ATOM     27  O   UNL A   1      32.873  14.931  24.823  1.00  0.00    -0.497 OA
ATOM     28  C   UNL A   1      32.534  14.474  26.128  1.00  0.00     0.278 C 
ENDBRANCH  22  27
ENDBRANCH   9  21
ENDBRANCH   6   8
ENDBRANCH   5   6
ENDBRANCH   4   5
ENDBRANCH   3   4
ENDBRANCH   2   3
ENDBRANCH   1   2
BRANCH   1  29
ATOM     29  C   UNL A   1      31.830  30.504  25.827  1.00  0.00     0.261 C 
BRANCH  29  30
ATOM     30  O   UNL A   1      32.272  30.785  27.165  1.00  0.00    -0.460 OA
BRANCH  30  31
ATOM     31  C   UNL A   1      33.079  31.869  27.274  1.00  0.00     0.338 C 
ATOM     32  O   UNL A   1      32.752  33.040  27.121  1.00  0.00    -0.246 OA
BRANCH  31  33
ATOM     33  C   UNL A   1      34.393  31.471  27.811  1.00  0.00     0.060 A 
ATOM     34  C   UNL A   1      34.593  30.108  28.066  1.00  0.00     0.016 A 
ATOM     35  C   UNL A   1      35.393  32.402  28.104  1.00  0.00     0.016 A 
ATOM     36  C   UNL A   1      35.772  29.678  28.670  1.00  0.00     0.010 A 
ATOM     37  C   UNL A   1      36.575  31.968  28.715  1.00  0.00     0.010 A 
ATOM     38  C   UNL A   1      36.752  30.609  29.034  1.00  0.00    -0.014 A 
BRANCH  38  39
ATOM     39  C   UNL A   1      37.886  30.167  29.884  1.00  0.00     0.031 A 
ATOM     40  C   UNL A   1      38.899  29.214  29.312  1.00  0.00     0.074 A 
ATOM     41  C   UNL A   1      38.043  30.657  31.126  1.00  0.00     0.049 A 
ATOM     42  N   UNL A   1      39.983  28.724  29.856  1.00  0.00    -0.248 NA
ATOM     43  C   UNL A   1      38.648  28.750  27.940  1.00  0.00     0.031 C 
ATOM     44  C   UNL A   1      37.151  31.620  31.770  1.00  0.00     0.029 A 
ATOM     45  N   UNL A   1      39.016  30.417  32.061  1.00  0.00    -0.354 N 
ATOM     46  C   UNL A   1      40.549  27.897  28.891  1.00  0.00     0.074 A 
ATOM     47  C   UNL A   1      39.653  27.910  27.753  1.00  0.00     0.031 C 
ATOM     48  C   UNL A   1      37.628  31.900  32.995  1.00  0.00     0.029 A 
ATOM     49  C   UNL A   1      38.837  31.113  33.233  1.00  0.00     0.049 A 
ATOM     50  H   UNL A   1      39.772  29.806  31.909  1.00  0.00     0.167 HD
ATOM     51  C   UNL A   1      41.717  27.207  28.941  1.00  0.00     0.034 A 
ATOM     52  C   UNL A   1      39.561  31.107  34.369  1.00  0.00     0.034 A 
ATOM     53  C   UNL A   1      42.585  27.183  30.096  1.00  0.00     0.049 A 
ATOM     54  C   UNL A   1      40.797  30.248  34.446  1.00  0.00     0.074 A 
ATOM     55  C   UNL A   1      43.793  26.526  30.257  1.00  0.00     0.029 A 
ATOM     56  N   UNL A   1      42.327  27.833  31.298  1.00  0.00    -0.354 N 
ATOM     57  N   UNL A   1      41.332  29.479  33.525  1.00  0.00    -0.248 NA
ATOM     58  C   UNL A   1      41.532  30.265  35.718  1.00  0.00     0.031 C 
ATOM     59  C   UNL A   1      44.222  26.713  31.577  1.00  0.00     0.029 A 
ATOM     60  C   UNL A   1      43.329  27.558  32.218  1.00  0.00     0.049 A 
ATOM     61  H   UNL A   1      41.546  28.406  31.472  1.00  0.00     0.167 HD
ATOM     62  C   UNL A   1      42.482  28.942  34.099  1.00  0.00     0.074 A 
ATOM     63  C   UNL A   1      42.569  29.489  35.438  1.00  0.00     0.031 C 
ATOM     64  C   UNL A   1      43.390  28.082  33.565  1.00  0.00     0.034 A 
BRANCH  51  65
ATOM     65  C   UNL A   1      42.074  26.379  27.726  1.00  0.00     0.023 A 
ATOM     66  C   UNL A   1      41.592  25.066  27.559  1.00  0.00     0.031 A 
ATOM     67  C   UNL A   1      42.969  26.873  26.761  1.00  0.00     0.131 A 
ATOM     68  C   UNL A   1      42.087  24.264  26.520  1.00  0.00     0.055 A 
ATOM     69  C   UNL A   1      43.383  26.101  25.674  1.00  0.00     0.041 A 
ATOM     70  F   UNL A   1      43.482  28.108  26.875  1.00  0.00    -0.206 F 
ATOM     71  C   UNL A   1      42.961  24.780  25.562  1.00  0.00     0.022 A 
BRANCH  68  72
ATOM     72  S   UNL A   1      41.729  22.485  26.558  1.00  0.00     0.124 S 
ATOM     73  O   UNL A   1      42.317  22.091  27.837  1.00  0.00    -0.237 OA
ATOM     74  O   UNL A   1      40.272  22.455  26.488  1.00  0.00    -0.237 OA
ATOM     75  O   UNL A   1      42.423  21.970  25.378  1.00  0.00    -0.744 OA
ENDBRANCH  68  72
ENDBRANCH  51  65
BRANCH  52  76
ATOM     76  C   UNL A   1      39.133  31.931  35.533  1.00  0.00     0.023 A 
ATOM     77  C   UNL A   1      38.408  31.364  36.593  1.00  0.00     0.031 A 
ATOM     78  C   UNL A   1      39.424  33.306  35.590  1.00  0.00     0.131 A 
ATOM     79  C   UNL A   1      37.971  32.175  37.652  1.00  0.00     0.055 A 
ATOM     80  C   UNL A   1      39.024  34.099  36.667  1.00  0.00     0.041 A 
ATOM     81  F   UNL A   1      40.116  33.895  34.603  1.00  0.00    -0.206 F 
ATOM     82  C   UNL A   1      38.286  33.535  37.702  1.00  0.00     0.022 A 
BRANCH  79  83
ATOM     83  S   UNL A   1      36.939  31.433  38.947  1.00  0.00     0.124 S 
ATOM     84  O   UNL A   1      37.793  31.568  40.121  1.00  0.00    -0.237 OA
ATOM     85  O   UNL A   1      35.754  32.284  38.913  1.00  0.00    -0.237 OA
ATOM     86  O   UNL A   1      36.734  30.066  38.476  1.00  0.00    -0.744 OA
ENDBRANCH  79  83
ENDBRANCH  52  76
BRANCH  64  87
ATOM     87  C   UNL A   1      44.569  27.710  34.433  1.00  0.00     0.023 A 
ATOM     88  C   UNL A   1      44.565  26.554  35.233  1.00  0.00     0.031 A 
ATOM     89  C   UNL A   1      45.701  28.543  34.489  1.00  0.00     0.131 A 
ATOM     90  C   UNL A   1      45.634  26.300  36.106  1.00  0.00     0.055 A 
ATOM     91  C   UNL A   1      46.794  28.249  35.308  1.00  0.00     0.041 A 
ATOM     92  F   UNL A   1      45.763  29.663  33.751  1.00  0.00    -0.206 F 
ATOM     93  C   UNL A   1      46.756  27.131  36.135  1.00  0.00     0.022 A 
BRANCH  90  94
ATOM     94  S   UNL A   1      45.487  24.932  37.290  1.00  0.00     0.124 S 
ATOM     95  O   UNL A   1      46.839  24.384  37.288  1.00  0.00    -0.237 OA
ATOM     96  O   UNL A   1      45.077  25.618  38.510  1.00  0.00    -0.237 OA
ATOM     97  O   UNL A   1      44.469  24.069  36.693  1.00  0.00    -0.744 OA
ENDBRANCH  90  94
ENDBRANCH  64  87
ENDBRANCH  38  39
ENDBRANCH  31  33
ENDBRANCH  30  31
ENDBRANCH  29  30
ENDBRANCH   1  29
TORSDOF 19
ENDMDL
