MODEL 1
REMARK VINA RESULT:     -12.5      0.000      0.000
REMARK SMILES CN1C(=O)C[C@@H](C(=O)OCCOCCOC(=O)c2ccc(-c3c4nc(c(-c5cc(S(=O)(=O)[O-])ccc5F)c5ccc([nH]5)c(-c5cc(S(=O)(=O)[O-])ccc5F)c5nc(c(-c6cc(S(=O)(=O)[O-])ccc6F)c6ccc3[nH]6)C=C5)C=C4)cc2)C12CCN(C(=O)c1ccccc1-n1cccn1)CC2
REMARK SMILES IDX 13 1 12 2 11 3 10 4 9 5 7 6 8 7 6 8 1 9 2 10 3 11 81 12 4 13
REMARK SMILES IDX 5 14 82 15 99 16 83 17 98 18 84 19 85 20 86 21 87 22 88 23
REMARK SMILES IDX 92 24 89 25 91 26 90 27 93 28 94 29 97 30 95 31 96 32 14 33
REMARK SMILES IDX 15 34 16 35 17 36 18 37 19 38 80 39 20 40 79 41 21 42 22 43
REMARK SMILES IDX 23 44 73 45 24 46 78 47 72 48 74 49 25 50 77 51 71 52 70 53
REMARK SMILES IDX 26 55 58 56 38 57 57 58 39 59 42 60 56 61 75 62 40 63 41 64
REMARK SMILES IDX 55 66 76 67 43 68 27 69 28 70 36 71 29 72 35 73 37 74 34 75
REMARK SMILES IDX 30 76 31 77 32 78 33 79 59 80 60 81 68 82 61 83 67 84 69 85
REMARK SMILES IDX 66 86 62 87 63 88 64 89 65 90 44 91 45 92 53 93 46 94 52 95
REMARK SMILES IDX 54 96 51 97 47 98 48 99 49 100 50 101
REMARK H PARENT 74 54 42 65
REMARK Flexibility Score: inf
ROOT
ATOM      1  C   UNL A   1      38.633  19.591  25.128  1.00  0.00     0.202 C 
ENDROOT
BRANCH   1   2
ATOM      2  O   UNL A   1      37.947  20.837  25.030  1.00  0.00    -0.374 OA
BRANCH   2   3
ATOM      3  C   UNL A   1      38.454  21.928  25.798  1.00  0.00     0.202 C 
BRANCH   3   4
ATOM      4  C   UNL A   1      37.830  23.306  25.536  1.00  0.00     0.261 C 
BRANCH   4   5
ATOM      5  O   UNL A   1      36.445  23.440  25.926  1.00  0.00    -0.463 OA
BRANCH   5   6
ATOM      6  C   UNL A   1      35.532  23.047  25.009  1.00  0.00     0.311 C 
ATOM      7  O   UNL A   1      35.672  23.175  23.795  1.00  0.00    -0.252 OA
BRANCH   6   8
ATOM      8  C   UNL A   1      34.234  22.494  25.575  1.00  0.00     0.134 C 
ATOM      9  C   UNL A   1      32.153  20.817  22.966  1.00  0.00     0.147 C 
ATOM     10  N   UNL A   1      32.980  21.190  24.099  1.00  0.00    -0.339 N 
ATOM     11  C   UNL A   1      33.845  20.302  24.719  1.00  0.00     0.223 C 
ATOM     12  C   UNL A   1      32.903  22.485  24.784  1.00  0.00     0.060 C 
ATOM     13  O   UNL A   1      34.027  19.130  24.432  1.00  0.00    -0.275 OA
ATOM     14  C   UNL A   1      34.497  21.011  25.875  1.00  0.00     0.118 C 
ATOM     15  C   UNL A   1      32.658  23.663  23.828  1.00  0.00     0.051 C 
ATOM     16  C   UNL A   1      31.697  22.450  25.781  1.00  0.00     0.051 C 
ATOM     17  C   UNL A   1      32.468  24.975  24.575  1.00  0.00     0.122 C 
ATOM     18  C   UNL A   1      31.420  23.791  26.468  1.00  0.00     0.122 C 
ATOM     19  N   UNL A   1      31.350  24.889  25.513  1.00  0.00    -0.338 N 
ATOM     20  C   UNL A   1      30.368  25.869  25.681  1.00  0.00     0.256 C 
ATOM     21  O   UNL A   1      29.570  25.881  26.615  1.00  0.00    -0.269 OA
BRANCH  20  22
ATOM     22  C   UNL A   1      30.279  26.976  24.699  1.00  0.00     0.065 A 
ATOM     23  C   UNL A   1      29.261  26.858  23.737  1.00  0.00     0.016 A 
ATOM     24  C   UNL A   1      31.052  28.146  24.766  1.00  0.00     0.077 A 
ATOM     25  C   UNL A   1      28.975  27.924  22.885  1.00  0.00     0.001 A 
ATOM     26  C   UNL A   1      30.717  29.231  23.937  1.00  0.00     0.029 A 
ATOM     27  C   UNL A   1      29.687  29.115  22.999  1.00  0.00     0.002 A 
BRANCH  24  28
ATOM     28  N   UNL A   1      32.150  28.289  25.653  1.00  0.00    -0.240 N 
ATOM     29  C   UNL A   1      33.497  28.324  25.361  1.00  0.00     0.115 A 
ATOM     30  N   UNL A   1      31.939  28.412  26.990  1.00  0.00    -0.177 NA
ATOM     31  C   UNL A   1      34.170  28.408  26.557  1.00  0.00     0.042 A 
ATOM     32  C   UNL A   1      33.158  28.456  27.525  1.00  0.00     0.135 A 
ENDBRANCH  24  28
ENDBRANCH  20  22
ENDBRANCH   6   8
ENDBRANCH   5   6
ENDBRANCH   4   5
ENDBRANCH   3   4
ENDBRANCH   2   3
ENDBRANCH   1   2
BRANCH   1  33
ATOM     33  C   UNL A   1      39.779  19.543  26.142  1.00  0.00     0.261 C 
BRANCH  33  34
ATOM     34  O   UNL A   1      41.021  19.235  25.487  1.00  0.00    -0.460 OA
BRANCH  34  35
ATOM     35  C   UNL A   1      42.108  19.595  26.207  1.00  0.00     0.338 C 
ATOM     36  O   UNL A   1      43.123  18.930  26.371  1.00  0.00    -0.246 OA
BRANCH  35  37
ATOM     37  C   UNL A   1      41.990  21.007  26.602  1.00  0.00     0.060 A 
ATOM     38  C   UNL A   1      42.002  21.976  25.590  1.00  0.00     0.016 A 
ATOM     39  C   UNL A   1      42.000  21.385  27.946  1.00  0.00     0.016 A 
ATOM     40  C   UNL A   1      42.087  23.329  25.923  1.00  0.00     0.010 A 
ATOM     41  C   UNL A   1      42.078  22.745  28.275  1.00  0.00     0.010 A 
ATOM     42  C   UNL A   1      42.169  23.724  27.266  1.00  0.00    -0.014 A 
BRANCH  42  43
ATOM     43  C   UNL A   1      42.524  25.134  27.590  1.00  0.00     0.031 A 
ATOM     44  C   UNL A   1      43.872  25.664  27.169  1.00  0.00     0.074 A 
ATOM     45  C   UNL A   1      41.641  25.953  28.192  1.00  0.00     0.049 A 
ATOM     46  N   UNL A   1      44.378  26.863  27.312  1.00  0.00    -0.248 NA
ATOM     47  C   UNL A   1      44.767  24.712  26.496  1.00  0.00     0.031 C 
ATOM     48  C   UNL A   1      40.294  25.574  28.617  1.00  0.00     0.029 A 
ATOM     49  N   UNL A   1      41.743  27.277  28.545  1.00  0.00    -0.354 N 
ATOM     50  C   UNL A   1      45.647  26.811  26.743  1.00  0.00     0.074 A 
ATOM     51  C   UNL A   1      45.849  25.449  26.295  1.00  0.00     0.031 C 
ATOM     52  C   UNL A   1      39.694  26.643  29.171  1.00  0.00     0.029 A 
ATOM     53  C   UNL A   1      40.620  27.774  29.168  1.00  0.00     0.049 A 
ATOM     54  H   UNL A   1      42.544  27.821  28.370  1.00  0.00     0.167 HD
ATOM     55  C   UNL A   1      46.555  27.808  26.592  1.00  0.00     0.034 A 
ATOM     56  C   UNL A   1      40.372  28.995  29.686  1.00  0.00     0.034 A 
ATOM     57  C   UNL A   1      46.353  29.160  27.053  1.00  0.00     0.049 A 
ATOM     58  C   UNL A   1      41.429  30.069  29.577  1.00  0.00     0.074 A 
ATOM     59  C   UNL A   1      47.205  30.246  26.945  1.00  0.00     0.029 A 
ATOM     60  N   UNL A   1      45.223  29.610  27.723  1.00  0.00    -0.354 N 
ATOM     61  N   UNL A   1      42.617  30.008  29.019  1.00  0.00    -0.248 NA
ATOM     62  C   UNL A   1      41.108  31.380  30.158  1.00  0.00     0.031 C 
ATOM     63  C   UNL A   1      46.619  31.333  27.605  1.00  0.00     0.029 A 
ATOM     64  C   UNL A   1      45.370  30.947  28.063  1.00  0.00     0.049 A 
ATOM     65  H   UNL A   1      44.432  29.060  27.928  1.00  0.00     0.167 HD
ATOM     66  C   UNL A   1      43.168  31.281  29.157  1.00  0.00     0.074 A 
ATOM     67  C   UNL A   1      42.179  32.090  29.837  1.00  0.00     0.031 C 
ATOM     68  C   UNL A   1      44.379  31.741  28.751  1.00  0.00     0.034 A 
BRANCH  55  69
ATOM     69  C   UNL A   1      47.871  27.452  25.940  1.00  0.00     0.023 A 
ATOM     70  C   UNL A   1      48.083  27.623  24.560  1.00  0.00     0.031 A 
ATOM     71  C   UNL A   1      48.917  26.907  26.705  1.00  0.00     0.131 A 
ATOM     72  C   UNL A   1      49.283  27.188  23.978  1.00  0.00     0.055 A 
ATOM     73  C   UNL A   1      50.138  26.546  26.131  1.00  0.00     0.041 A 
ATOM     74  F   UNL A   1      48.766  26.701  28.023  1.00  0.00    -0.206 F 
ATOM     75  C   UNL A   1      50.321  26.672  24.757  1.00  0.00     0.022 A 
BRANCH  72  76
ATOM     76  S   UNL A   1      49.419  27.182  22.169  1.00  0.00     0.124 S 
ATOM     77  O   UNL A   1      48.826  28.471  21.823  1.00  0.00    -0.237 OA
ATOM     78  O   UNL A   1      50.858  27.064  21.961  1.00  0.00    -0.237 OA
ATOM     79  O   UNL A   1      48.634  26.016  21.769  1.00  0.00    -0.744 OA
ENDBRANCH  72  76
ENDBRANCH  55  69
BRANCH  56  80
ATOM     80  C   UNL A   1      39.085  29.274  30.388  1.00  0.00     0.023 A 
ATOM     81  C   UNL A   1      38.127  30.145  29.844  1.00  0.00     0.031 A 
ATOM     82  C   UNL A   1      38.823  28.715  31.653  1.00  0.00     0.131 A 
ATOM     83  C   UNL A   1      36.975  30.467  30.580  1.00  0.00     0.055 A 
ATOM     84  C   UNL A   1      37.652  28.998  32.357  1.00  0.00     0.041 A 
ATOM     85  F   UNL A   1      39.706  27.879  32.221  1.00  0.00    -0.206 F 
ATOM     86  C   UNL A   1      36.725  29.890  31.826  1.00  0.00     0.022 A 
BRANCH  83  87
ATOM     87  S   UNL A   1      35.843  31.723  29.920  1.00  0.00     0.124 S 
ATOM     88  O   UNL A   1      36.767  32.783  29.533  1.00  0.00    -0.237 OA
ATOM     89  O   UNL A   1      35.197  31.003  28.827  1.00  0.00    -0.237 OA
ATOM     90  O   UNL A   1      34.979  32.033  31.057  1.00  0.00    -0.744 OA
ENDBRANCH  83  87
ENDBRANCH  56  80
BRANCH  68  91
ATOM     91  C   UNL A   1      44.679  33.199  28.998  1.00  0.00     0.023 A 
ATOM     92  C   UNL A   1      44.058  34.220  28.256  1.00  0.00     0.031 A 
ATOM     93  C   UNL A   1      45.607  33.573  29.986  1.00  0.00     0.131 A 
ATOM     94  C   UNL A   1      44.411  35.560  28.477  1.00  0.00     0.055 A 
ATOM     95  C   UNL A   1      45.913  34.910  30.240  1.00  0.00     0.041 A 
ATOM     96  F   UNL A   1      46.230  32.640  30.725  1.00  0.00    -0.206 F 
ATOM     97  C   UNL A   1      45.324  35.913  29.475  1.00  0.00     0.022 A 
BRANCH  94  98
ATOM     98  S   UNL A   1      43.724  36.836  27.385  1.00  0.00     0.124 S 
ATOM     99  O   UNL A   1      42.653  37.392  28.205  1.00  0.00    -0.237 OA
ATOM    100  O   UNL A   1      44.873  37.705  27.160  1.00  0.00    -0.237 OA
ATOM    101  O   UNL A   1      43.280  36.083  26.213  1.00  0.00    -0.744 OA
ENDBRANCH  94  98
ENDBRANCH  68  91
ENDBRANCH  42  43
ENDBRANCH  35  37
ENDBRANCH  34  35
ENDBRANCH  33  34
ENDBRANCH   1  33
TORSDOF 19
ENDMDL
MODEL 2
REMARK VINA RESULT:     -12.5      5.380     10.936
REMARK SMILES CN1C(=O)C[C@@H](C(=O)OCCOCCOC(=O)c2ccc(-c3c4nc(c(-c5cc(S(=O)(=O)[O-])ccc5F)c5ccc([nH]5)c(-c5cc(S(=O)(=O)[O-])ccc5F)c5nc(c(-c6cc(S(=O)(=O)[O-])ccc6F)c6ccc3[nH]6)C=C5)C=C4)cc2)C12CCN(C(=O)c1ccccc1-n1cccn1)CC2
REMARK SMILES IDX 13 1 12 2 11 3 10 4 9 5 7 6 8 7 6 8 1 9 2 10 3 11 81 12 4 13
REMARK SMILES IDX 5 14 82 15 99 16 83 17 98 18 84 19 85 20 86 21 87 22 88 23
REMARK SMILES IDX 92 24 89 25 91 26 90 27 93 28 94 29 97 30 95 31 96 32 14 33
REMARK SMILES IDX 15 34 16 35 17 36 18 37 19 38 80 39 20 40 79 41 21 42 22 43
REMARK SMILES IDX 23 44 73 45 24 46 78 47 72 48 74 49 25 50 77 51 71 52 70 53
REMARK SMILES IDX 26 55 58 56 38 57 57 58 39 59 42 60 56 61 75 62 40 63 41 64
REMARK SMILES IDX 55 66 76 67 43 68 27 69 28 70 36 71 29 72 35 73 37 74 34 75
REMARK SMILES IDX 30 76 31 77 32 78 33 79 59 80 60 81 68 82 61 83 67 84 69 85
REMARK SMILES IDX 66 86 62 87 63 88 64 89 65 90 44 91 45 92 53 93 46 94 52 95
REMARK SMILES IDX 54 96 51 97 47 98 48 99 49 100 50 101
REMARK H PARENT 74 54 42 65
REMARK Flexibility Score: inf
ROOT
ATOM      1  C   UNL A   1      34.060  31.391  27.172  1.00  0.00     0.202 C 
ENDROOT
BRANCH   1   2
ATOM      2  O   UNL A   1      35.098  30.785  27.939  1.00  0.00    -0.374 OA
BRANCH   2   3
ATOM      3  C   UNL A   1      35.492  29.460  27.582  1.00  0.00     0.202 C 
BRANCH   3   4
ATOM      4  C   UNL A   1      34.526  28.671  26.688  1.00  0.00     0.261 C 
BRANCH   4   5
ATOM      5  O   UNL A   1      33.428  28.032  27.377  1.00  0.00    -0.463 OA
BRANCH   5   6
ATOM      6  C   UNL A   1      32.268  27.945  26.688  1.00  0.00     0.311 C 
ATOM      7  O   UNL A   1      31.162  27.820  27.209  1.00  0.00    -0.252 OA
BRANCH   6   8
ATOM      8  C   UNL A   1      32.407  27.923  25.174  1.00  0.00     0.134 C 
ATOM      9  C   UNL A   1      29.206  27.026  23.472  1.00  0.00     0.147 C 
ATOM     10  N   UNL A   1      30.411  27.642  23.996  1.00  0.00    -0.339 N 
ATOM     11  C   UNL A   1      30.536  29.011  24.173  1.00  0.00     0.223 C 
ATOM     12  C   UNL A   1      31.655  26.915  24.271  1.00  0.00     0.060 C 
ATOM     13  O   UNL A   1      29.702  29.865  23.919  1.00  0.00    -0.275 OA
ATOM     14  C   UNL A   1      31.923  29.295  24.681  1.00  0.00     0.118 C 
ATOM     15  C   UNL A   1      31.421  25.510  24.848  1.00  0.00     0.051 C 
ATOM     16  C   UNL A   1      32.433  26.731  22.925  1.00  0.00     0.051 C 
ATOM     17  C   UNL A   1      32.721  24.737  25.015  1.00  0.00     0.122 C 
ATOM     18  C   UNL A   1      33.691  25.866  23.049  1.00  0.00     0.122 C 
ATOM     19  N   UNL A   1      33.426  24.611  23.742  1.00  0.00    -0.338 N 
ATOM     20  C   UNL A   1      34.020  23.439  23.266  1.00  0.00     0.256 C 
ATOM     21  O   UNL A   1      34.787  23.404  22.308  1.00  0.00    -0.269 OA
BRANCH  20  22
ATOM     22  C   UNL A   1      33.734  22.157  23.954  1.00  0.00     0.065 A 
ATOM     23  C   UNL A   1      32.538  21.520  23.585  1.00  0.00     0.016 A 
ATOM     24  C   UNL A   1      34.632  21.519  24.825  1.00  0.00     0.077 A 
ATOM     25  C   UNL A   1      32.264  20.228  24.034  1.00  0.00     0.001 A 
ATOM     26  C   UNL A   1      34.368  20.197  25.225  1.00  0.00     0.029 A 
ATOM     27  C   UNL A   1      33.187  19.561  24.835  1.00  0.00     0.002 A 
BRANCH  24  28
ATOM     28  N   UNL A   1      35.811  22.146  25.304  1.00  0.00    -0.240 N 
ATOM     29  C   UNL A   1      35.933  23.297  26.054  1.00  0.00     0.115 A 
ATOM     30  N   UNL A   1      37.030  21.611  25.033  1.00  0.00    -0.177 NA
ATOM     31  C   UNL A   1      37.277  23.538  26.211  1.00  0.00     0.042 A 
ATOM     32  C   UNL A   1      37.904  22.469  25.559  1.00  0.00     0.135 A 
ENDBRANCH  24  28
ENDBRANCH  20  22
ENDBRANCH   6   8
ENDBRANCH   5   6
ENDBRANCH   4   5
ENDBRANCH   3   4
ENDBRANCH   2   3
ENDBRANCH   1   2
BRANCH   1  33
ATOM     33  C   UNL A   1      33.137  32.340  27.940  1.00  0.00     0.261 C 
BRANCH  33  34
ATOM     34  O   UNL A   1      33.677  33.673  27.949  1.00  0.00    -0.460 OA
BRANCH  34  35
ATOM     35  C   UNL A   1      33.619  34.264  29.164  1.00  0.00     0.338 C 
ATOM     36  O   UNL A   1      32.679  34.908  29.615  1.00  0.00    -0.246 OA
BRANCH  35  37
ATOM     37  C   UNL A   1      34.776  33.846  29.971  1.00  0.00     0.060 A 
ATOM     38  C   UNL A   1      36.054  34.190  29.512  1.00  0.00     0.016 A 
ATOM     39  C   UNL A   1      34.620  33.020  31.085  1.00  0.00     0.016 A 
ATOM     40  C   UNL A   1      37.184  33.655  30.134  1.00  0.00     0.010 A 
ATOM     41  C   UNL A   1      35.758  32.491  31.710  1.00  0.00     0.010 A 
ATOM     42  C   UNL A   1      37.046  32.767  31.211  1.00  0.00    -0.014 A 
BRANCH  42  43
ATOM     43  C   UNL A   1      38.236  32.006  31.685  1.00  0.00     0.031 A 
ATOM     44  C   UNL A   1      38.844  32.358  33.020  1.00  0.00     0.074 A 
ATOM     45  C   UNL A   1      38.732  30.977  30.974  1.00  0.00     0.049 A 
ATOM     46  N   UNL A   1      39.854  31.809  33.646  1.00  0.00    -0.248 NA
ATOM     47  C   UNL A   1      38.227  33.479  33.744  1.00  0.00     0.031 C 
ATOM     48  C   UNL A   1      38.214  30.514  29.688  1.00  0.00     0.029 A 
ATOM     49  N   UNL A   1      39.781  30.128  31.237  1.00  0.00    -0.354 N 
ATOM     50  C   UNL A   1      39.991  32.513  34.839  1.00  0.00     0.074 A 
ATOM     51  C   UNL A   1      38.989  33.558  34.824  1.00  0.00     0.031 C 
ATOM     52  C   UNL A   1      38.945  29.463  29.275  1.00  0.00     0.029 A 
ATOM     53  C   UNL A   1      40.000  29.194  30.249  1.00  0.00     0.049 A 
ATOM     54  H   UNL A   1      40.325  30.183  32.055  1.00  0.00     0.167 HD
ATOM     55  C   UNL A   1      40.859  32.301  35.860  1.00  0.00     0.034 A 
ATOM     56  C   UNL A   1      40.950  28.241  30.139  1.00  0.00     0.034 A 
ATOM     57  C   UNL A   1      41.864  31.266  35.862  1.00  0.00     0.049 A 
ATOM     58  C   UNL A   1      41.957  28.074  31.253  1.00  0.00     0.074 A 
ATOM     59  C   UNL A   1      42.789  30.961  36.846  1.00  0.00     0.029 A 
ATOM     60  N   UNL A   1      42.087  30.373  34.821  1.00  0.00    -0.354 N 
ATOM     61  N   UNL A   1      42.060  28.737  32.382  1.00  0.00    -0.248 NA
ATOM     62  C   UNL A   1      42.969  27.022  31.081  1.00  0.00     0.031 C 
ATOM     63  C   UNL A   1      43.610  29.930  36.375  1.00  0.00     0.029 A 
ATOM     64  C   UNL A   1      43.154  29.541  35.127  1.00  0.00     0.049 A 
ATOM     65  H   UNL A   1      41.564  30.336  33.988  1.00  0.00     0.167 HD
ATOM     66  C   UNL A   1      43.129  28.160  33.065  1.00  0.00     0.074 A 
ATOM     67  C   UNL A   1      43.626  27.088  32.229  1.00  0.00     0.031 C 
ATOM     68  C   UNL A   1      43.648  28.481  34.278  1.00  0.00     0.034 A 
BRANCH  55  69
ATOM     69  C   UNL A   1      40.785  33.244  37.038  1.00  0.00     0.023 A 
ATOM     70  C   UNL A   1      39.965  32.976  38.149  1.00  0.00     0.031 A 
ATOM     71  C   UNL A   1      41.523  34.441  37.037  1.00  0.00     0.131 A 
ATOM     72  C   UNL A   1      39.849  33.924  39.178  1.00  0.00     0.055 A 
ATOM     73  C   UNL A   1      41.461  35.345  38.100  1.00  0.00     0.041 A 
ATOM     74  F   UNL A   1      42.306  34.760  35.995  1.00  0.00    -0.206 F 
ATOM     75  C   UNL A   1      40.609  35.096  39.172  1.00  0.00     0.022 A 
BRANCH  72  76
ATOM     76  S   UNL A   1      38.591  33.666  40.459  1.00  0.00     0.124 S 
ATOM     77  O   UNL A   1      39.324  32.866  41.436  1.00  0.00    -0.237 OA
ATOM     78  O   UNL A   1      38.268  35.030  40.863  1.00  0.00    -0.237 OA
ATOM     79  O   UNL A   1      37.526  32.955  39.756  1.00  0.00    -0.744 OA
ENDBRANCH  72  76
ENDBRANCH  55  69
BRANCH  56  80
ATOM     80  C   UNL A   1      41.027  27.386  28.919  1.00  0.00     0.023 A 
ATOM     81  C   UNL A   1      42.014  27.592  27.941  1.00  0.00     0.031 A 
ATOM     82  C   UNL A   1      40.068  26.383  28.684  1.00  0.00     0.131 A 
ATOM     83  C   UNL A   1      41.994  26.838  26.756  1.00  0.00     0.055 A 
ATOM     84  C   UNL A   1      40.083  25.602  27.528  1.00  0.00     0.041 A 
ATOM     85  F   UNL A   1      39.099  26.147  29.583  1.00  0.00    -0.206 F 
ATOM     86  C   UNL A   1      41.043  25.837  26.549  1.00  0.00     0.022 A 
BRANCH  83  87
ATOM     87  S   UNL A   1      43.182  27.246  25.445  1.00  0.00     0.124 S 
ATOM     88  O   UNL A   1      44.262  27.865  26.203  1.00  0.00    -0.237 OA
ATOM     89  O   UNL A   1      43.466  25.932  24.878  1.00  0.00    -0.237 OA
ATOM     90  O   UNL A   1      42.431  28.148  24.576  1.00  0.00    -0.744 OA
ENDBRANCH  83  87
ENDBRANCH  56  80
BRANCH  68  91
ATOM     91  C   UNL A   1      44.787  27.632  34.787  1.00  0.00     0.023 A 
ATOM     92  C   UNL A   1      44.564  26.420  35.463  1.00  0.00     0.031 A 
ATOM     93  C   UNL A   1      46.117  28.048  34.597  1.00  0.00     0.131 A 
ATOM     94  C   UNL A   1      45.651  25.692  35.972  1.00  0.00     0.055 A 
ATOM     95  C   UNL A   1      47.196  27.293  35.057  1.00  0.00     0.041 A 
ATOM     96  F   UNL A   1      46.389  29.198  33.958  1.00  0.00    -0.206 F 
ATOM     97  C   UNL A   1      46.967  26.113  35.759  1.00  0.00     0.022 A 
BRANCH  94  98
ATOM     98  S   UNL A   1      45.321  24.227  36.989  1.00  0.00     0.124 S 
ATOM     99  O   UNL A   1      46.665  23.708  37.219  1.00  0.00    -0.237 OA
ATOM    100  O   UNL A   1      44.651  24.799  38.152  1.00  0.00    -0.237 OA
ATOM    101  O   UNL A   1      44.474  23.397  36.134  1.00  0.00    -0.744 OA
ENDBRANCH  94  98
ENDBRANCH  68  91
ENDBRANCH  42  43
ENDBRANCH  35  37
ENDBRANCH  34  35
ENDBRANCH  33  34
ENDBRANCH   1  33
TORSDOF 19
ENDMDL
MODEL 3
REMARK VINA RESULT:     -12.2      2.307      2.705
REMARK SMILES CN1C(=O)C[C@@H](C(=O)OCCOCCOC(=O)c2ccc(-c3c4nc(c(-c5cc(S(=O)(=O)[O-])ccc5F)c5ccc([nH]5)c(-c5cc(S(=O)(=O)[O-])ccc5F)c5nc(c(-c6cc(S(=O)(=O)[O-])ccc6F)c6ccc3[nH]6)C=C5)C=C4)cc2)C12CCN(C(=O)c1ccccc1-n1cccn1)CC2
REMARK SMILES IDX 13 1 12 2 11 3 10 4 9 5 7 6 8 7 6 8 1 9 2 10 3 11 81 12 4 13
REMARK SMILES IDX 5 14 82 15 99 16 83 17 98 18 84 19 85 20 86 21 87 22 88 23
REMARK SMILES IDX 92 24 89 25 91 26 90 27 93 28 94 29 97 30 95 31 96 32 14 33
REMARK SMILES IDX 15 34 16 35 17 36 18 37 19 38 80 39 20 40 79 41 21 42 22 43
REMARK SMILES IDX 23 44 73 45 24 46 78 47 72 48 74 49 25 50 77 51 71 52 70 53
REMARK SMILES IDX 26 55 58 56 38 57 57 58 39 59 42 60 56 61 75 62 40 63 41 64
REMARK SMILES IDX 55 66 76 67 43 68 27 69 28 70 36 71 29 72 35 73 37 74 34 75
REMARK SMILES IDX 30 76 31 77 32 78 33 79 59 80 60 81 68 82 61 83 67 84 69 85
REMARK SMILES IDX 66 86 62 87 63 88 64 89 65 90 44 91 45 92 53 93 46 94 52 95
REMARK SMILES IDX 54 96 51 97 47 98 48 99 49 100 50 101
REMARK H PARENT 74 54 42 65
REMARK Flexibility Score: inf
ROOT
ATOM      1  C   UNL A   1      38.938  21.468  25.900  1.00  0.00     0.202 C 
ENDROOT
BRANCH   1   2
ATOM      2  O   UNL A   1      39.541  22.659  26.399  1.00  0.00    -0.374 OA
BRANCH   2   3
ATOM      3  C   UNL A   1      38.776  23.862  26.331  1.00  0.00     0.202 C 
BRANCH   3   4
ATOM      4  C   UNL A   1      37.249  23.707  26.299  1.00  0.00     0.261 C 
BRANCH   4   5
ATOM      5  O   UNL A   1      36.621  24.039  25.040  1.00  0.00    -0.463 OA
BRANCH   5   6
ATOM      6  C   UNL A   1      35.884  23.060  24.471  1.00  0.00     0.311 C 
ATOM      7  O   UNL A   1      36.089  22.603  23.349  1.00  0.00    -0.252 OA
BRANCH   6   8
ATOM      8  C   UNL A   1      34.687  22.587  25.282  1.00  0.00     0.134 C 
ATOM      9  C   UNL A   1      32.162  20.816  23.175  1.00  0.00     0.147 C 
ATOM     10  N   UNL A   1      33.175  21.233  24.127  1.00  0.00    -0.339 N 
ATOM     11  C   UNL A   1      34.113  20.359  24.654  1.00  0.00     0.223 C 
ATOM     12  C   UNL A   1      33.242  22.571  24.725  1.00  0.00     0.060 C 
ATOM     13  O   UNL A   1      34.218  19.166  24.422  1.00  0.00    -0.275 OA
ATOM     14  C   UNL A   1      34.964  21.118  25.635  1.00  0.00     0.118 C 
ATOM     15  C   UNL A   1      32.866  23.692  23.744  1.00  0.00     0.051 C 
ATOM     16  C   UNL A   1      32.220  22.639  25.909  1.00  0.00     0.051 C 
ATOM     17  C   UNL A   1      32.833  25.055  24.421  1.00  0.00     0.122 C 
ATOM     18  C   UNL A   1      32.092  24.030  26.538  1.00  0.00     0.122 C 
ATOM     19  N   UNL A   1      31.886  25.067  25.534  1.00  0.00    -0.338 N 
ATOM     20  C   UNL A   1      30.968  26.087  25.796  1.00  0.00     0.256 C 
ATOM     21  O   UNL A   1      30.339  26.185  26.846  1.00  0.00    -0.269 OA
BRANCH  20  22
ATOM     22  C   UNL A   1      30.739  27.131  24.768  1.00  0.00     0.065 A 
ATOM     23  C   UNL A   1      29.773  26.827  23.793  1.00  0.00     0.016 A 
ATOM     24  C   UNL A   1      31.328  28.405  24.801  1.00  0.00     0.077 A 
ATOM     25  C   UNL A   1      29.353  27.806  22.893  1.00  0.00     0.001 A 
ATOM     26  C   UNL A   1      30.855  29.396  23.923  1.00  0.00     0.029 A 
ATOM     27  C   UNL A   1      29.878  29.093  22.972  1.00  0.00     0.002 A 
BRANCH  24  28
ATOM     28  N   UNL A   1      32.370  28.744  25.702  1.00  0.00    -0.240 N 
ATOM     29  C   UNL A   1      32.291  29.428  26.897  1.00  0.00     0.115 A 
ATOM     30  N   UNL A   1      33.654  28.389  25.430  1.00  0.00    -0.177 NA
ATOM     31  C   UNL A   1      33.574  29.569  27.370  1.00  0.00     0.042 A 
ATOM     32  C   UNL A   1      34.371  28.912  26.424  1.00  0.00     0.135 A 
ENDBRANCH  24  28
ENDBRANCH  20  22
ENDBRANCH   6   8
ENDBRANCH   5   6
ENDBRANCH   4   5
ENDBRANCH   3   4
ENDBRANCH   2   3
ENDBRANCH   1   2
BRANCH   1  33
ATOM     33  C   UNL A   1      39.660  20.163  26.248  1.00  0.00     0.261 C 
BRANCH  33  34
ATOM     34  O   UNL A   1      40.753  19.934  25.343  1.00  0.00    -0.460 OA
BRANCH  34  35
ATOM     35  C   UNL A   1      41.900  19.583  25.968  1.00  0.00     0.338 C 
ATOM     36  O   UNL A   1      42.355  18.450  26.069  1.00  0.00    -0.246 OA
BRANCH  35  37
ATOM     37  C   UNL A   1      42.649  20.795  26.336  1.00  0.00     0.060 A 
ATOM     38  C   UNL A   1      42.667  21.170  27.685  1.00  0.00     0.016 A 
ATOM     39  C   UNL A   1      43.214  21.619  25.361  1.00  0.00     0.016 A 
ATOM     40  C   UNL A   1      43.197  22.408  28.056  1.00  0.00     0.010 A 
ATOM     41  C   UNL A   1      43.752  22.857  25.740  1.00  0.00     0.010 A 
ATOM     42  C   UNL A   1      43.706  23.281  27.083  1.00  0.00    -0.014 A 
BRANCH  42  43
ATOM     43  C   UNL A   1      44.019  24.688  27.458  1.00  0.00     0.031 A 
ATOM     44  C   UNL A   1      45.449  25.162  27.389  1.00  0.00     0.074 A 
ATOM     45  C   UNL A   1      43.042  25.552  27.794  1.00  0.00     0.049 A 
ATOM     46  N   UNL A   1      45.946  26.348  27.633  1.00  0.00    -0.248 NA
ATOM     47  C   UNL A   1      46.450  24.162  26.990  1.00  0.00     0.031 C 
ATOM     48  C   UNL A   1      41.618  25.228  27.863  1.00  0.00     0.029 A 
ATOM     49  N   UNL A   1      43.100  26.882  28.134  1.00  0.00    -0.354 N 
ATOM     50  C   UNL A   1      47.316  26.240  27.413  1.00  0.00     0.074 A 
ATOM     51  C   UNL A   1      47.574  24.859  27.061  1.00  0.00     0.031 C 
ATOM     52  C   UNL A   1      40.937  26.331  28.221  1.00  0.00     0.029 A 
ATOM     53  C   UNL A   1      41.874  27.432  28.434  1.00  0.00     0.049 A 
ATOM     54  H   UNL A   1      43.940  27.395  28.160  1.00  0.00     0.167 HD
ATOM     55  C   UNL A   1      48.270  27.202  27.481  1.00  0.00     0.034 A 
ATOM     56  C   UNL A   1      41.548  28.676  28.844  1.00  0.00     0.034 A 
ATOM     57  C   UNL A   1      48.007  28.573  27.845  1.00  0.00     0.049 A 
ATOM     58  C   UNL A   1      42.638  29.713  28.990  1.00  0.00     0.074 A 
ATOM     59  C   UNL A   1      48.899  29.628  27.939  1.00  0.00     0.029 A 
ATOM     60  N   UNL A   1      46.760  29.078  28.191  1.00  0.00    -0.354 N 
ATOM     61  N   UNL A   1      43.926  29.597  28.759  1.00  0.00    -0.248 NA
ATOM     62  C   UNL A   1      42.228  31.050  29.441  1.00  0.00     0.031 C 
ATOM     63  C   UNL A   1      48.205  30.752  28.402  1.00  0.00     0.029 A 
ATOM     64  C   UNL A   1      46.866  30.420  28.529  1.00  0.00     0.049 A 
ATOM     65  H   UNL A   1      45.924  28.561  28.196  1.00  0.00     0.167 HD
ATOM     66  C   UNL A   1      44.471  30.855  29.009  1.00  0.00     0.074 A 
ATOM     67  C   UNL A   1      43.371  31.715  29.393  1.00  0.00     0.031 C 
ATOM     68  C   UNL A   1      45.763  31.265  28.921  1.00  0.00     0.034 A 
BRANCH  55  69
ATOM     69  C   UNL A   1      49.695  26.785  27.199  1.00  0.00     0.023 A 
ATOM     70  C   UNL A   1      50.659  26.713  28.220  1.00  0.00     0.031 A 
ATOM     71  C   UNL A   1      50.100  26.484  25.888  1.00  0.00     0.131 A 
ATOM     72  C   UNL A   1      51.994  26.417  27.902  1.00  0.00     0.055 A 
ATOM     73  C   UNL A   1      51.414  26.117  25.589  1.00  0.00     0.041 A 
ATOM     74  F   UNL A   1      49.228  26.556  24.869  1.00  0.00    -0.206 F 
ATOM     75  C   UNL A   1      52.373  26.096  26.597  1.00  0.00     0.022 A 
BRANCH  72  76
ATOM     76  S   UNL A   1      53.254  26.589  29.195  1.00  0.00     0.124 S 
ATOM     77  O   UNL A   1      52.570  26.021  30.353  1.00  0.00    -0.237 OA
ATOM     78  O   UNL A   1      54.363  25.808  28.661  1.00  0.00    -0.237 OA
ATOM     79  O   UNL A   1      53.483  28.031  29.263  1.00  0.00    -0.744 OA
ENDBRANCH  72  76
ENDBRANCH  55  69
BRANCH  56  80
ATOM     80  C   UNL A   1      40.135  29.016  29.184  1.00  0.00     0.023 A 
ATOM     81  C   UNL A   1      39.696  29.076  30.517  1.00  0.00     0.031 A 
ATOM     82  C   UNL A   1      39.184  29.226  28.168  1.00  0.00     0.131 A 
ATOM     83  C   UNL A   1      38.338  29.295  30.797  1.00  0.00     0.055 A 
ATOM     84  C   UNL A   1      37.845  29.495  28.454  1.00  0.00     0.041 A 
ATOM     85  F   UNL A   1      39.549  29.177  26.877  1.00  0.00    -0.206 F 
ATOM     86  C   UNL A   1      37.412  29.517  29.776  1.00  0.00     0.022 A 
BRANCH  83  87
ATOM     87  S   UNL A   1      37.778  29.198  32.522  1.00  0.00     0.124 S 
ATOM     88  O   UNL A   1      36.470  29.839  32.447  1.00  0.00    -0.237 OA
ATOM     89  O   UNL A   1      37.775  27.758  32.757  1.00  0.00    -0.237 OA
ATOM     90  O   UNL A   1      38.799  29.945  33.253  1.00  0.00    -0.744 OA
ENDBRANCH  83  87
ENDBRANCH  56  80
BRANCH  68  91
ATOM     91  C   UNL A   1      46.044  32.720  29.206  1.00  0.00     0.023 A 
ATOM     92  C   UNL A   1      45.972  33.700  28.200  1.00  0.00     0.031 A 
ATOM     93  C   UNL A   1      46.397  33.130  30.504  1.00  0.00     0.131 A 
ATOM     94  C   UNL A   1      46.300  35.032  28.496  1.00  0.00     0.055 A 
ATOM     95  C   UNL A   1      46.669  34.465  30.805  1.00  0.00     0.041 A 
ATOM     96  F   UNL A   1      46.481  32.237  31.503  1.00  0.00    -0.206 F 
ATOM     97  C   UNL A   1      46.634  35.423  29.796  1.00  0.00     0.022 A 
BRANCH  94  98
ATOM     98  S   UNL A   1      46.369  36.236  27.141  1.00  0.00     0.124 S 
ATOM     99  O   UNL A   1      46.019  37.479  27.822  1.00  0.00    -0.237 OA
ATOM    100  O   UNL A   1      47.752  36.122  26.692  1.00  0.00    -0.237 OA
ATOM    101  O   UNL A   1      45.369  35.746  26.194  1.00  0.00    -0.744 OA
ENDBRANCH  94  98
ENDBRANCH  68  91
ENDBRANCH  42  43
ENDBRANCH  35  37
ENDBRANCH  34  35
ENDBRANCH  33  34
ENDBRANCH   1  33
TORSDOF 19
ENDMDL
