MODEL 1
REMARK VINA RESULT:     -12.4      0.000      0.000
REMARK SMILES O=C(CC1(NC(=O)c2cc(Cl)ccc2Cl)CCC1)OCCOCCOC(=O)c1ccc(-c2c3nc(c(-c4cc(S(=O)(=O)[O-])ccc4F)c4ccc([nH]4)c(-c4cc(S(=O)(=O)[O-])ccc4F)c4nc(c(-c5cc(S(=O)(=O)[O-])ccc5F)c5ccc2[nH]5)C=C4)C=C3)cc1
REMARK SMILES IDX 22 1 21 2 20 3 19 4 2 5 1 6 3 7 4 8 16 9 18 10 17 11 5 12
REMARK SMILES IDX 6 13 7 15 8 16 9 17 14 18 10 19 13 20 15 21 11 22 12 23
REMARK SMILES IDX 23 24 24 25 25 26 26 27 27 28 28 29 29 30 90 31 30 32 89 33
REMARK SMILES IDX 31 34 32 35 33 36 83 37 34 38 88 39 82 40 84 41 35 42 87 43
REMARK SMILES IDX 81 44 80 45 36 47 68 48 48 49 67 50 49 51 52 52 66 53 85 54
REMARK SMILES IDX 50 55 51 56 65 58 86 59 53 60 37 61 38 62 46 63 39 64 45 65
REMARK SMILES IDX 47 66 44 67 40 68 41 69 42 70 43 71 69 72 70 73 78 74 71 75
REMARK SMILES IDX 77 76 79 77 76 78 72 79 73 80 74 81 75 82 54 83 55 84 63 85
REMARK SMILES IDX 56 86 62 87 64 88 61 89 57 90 58 91 59 92 60 93
REMARK H PARENT 5 14 84 46 52 57
REMARK Flexibility Score: inf
ROOT
ATOM      1  O   UNL A   1      37.074  22.085  25.780  1.00  0.00    -0.374 OA
ENDROOT
BRANCH   1   2
ATOM      2  C   UNL A   1      35.986  21.980  24.820  1.00  0.00     0.202 C 
BRANCH   2   3
ATOM      3  C   UNL A   1      35.162  20.745  25.056  1.00  0.00     0.261 C 
BRANCH   3   4
ATOM      4  O   UNL A   1      33.889  21.117  25.619  1.00  0.00    -0.463 OA
BRANCH   4   5
ATOM      5  C   UNL A   1      32.817  20.969  24.801  1.00  0.00     0.308 C 
ATOM      6  O   UNL A   1      31.953  20.127  25.039  1.00  0.00    -0.252 OA
BRANCH   5   7
ATOM      7  C   UNL A   1      32.621  22.024  23.704  1.00  0.00     0.151 C 
BRANCH   7   8
ATOM      8  C   UNL A   1      32.115  23.483  23.918  1.00  0.00     0.051 C 
ATOM      9  C   UNL A   1      33.315  24.285  24.548  1.00  0.00     0.029 C 
ATOM     10  C   UNL A   1      32.265  24.386  22.652  1.00  0.00     0.029 C 
ATOM     11  C   UNL A   1      33.427  25.139  23.287  1.00  0.00     0.005 C 
BRANCH   8  12
ATOM     12  N   UNL A   1      30.819  23.890  24.769  1.00  0.00    -0.346 N 
ATOM     13  C   UNL A   1      30.431  24.884  25.710  1.00  0.00     0.253 C 
ATOM     14  H   UNL A   1      30.074  23.273  24.588  1.00  0.00     0.164 HD
ATOM     15  O   UNL A   1      29.761  24.558  26.684  1.00  0.00    -0.269 OA
BRANCH  13  16
ATOM     16  C   UNL A   1      30.565  26.328  25.403  1.00  0.00     0.059 A 
ATOM     17  C   UNL A   1      29.185  26.738  24.314  1.00  0.00     0.036 A 
ATOM     18  C   UNL A   1      31.891  27.595  25.704  1.00  0.00     0.053 A 
ATOM     19  C   UNL A   1      29.126  28.312  23.511  1.00  0.00     0.041 A 
ATOM     20  C   UNL A   1      31.763  29.203  24.850  1.00  0.00     0.023 A 
ATOM     21  Cl  UNL A   1      33.446  27.498  26.503  1.00  0.00    -0.083 Cl
ATOM     22  Cl  UNL A   1      27.833  28.632  22.423  1.00  0.00    -0.084 Cl
ATOM     23  C   UNL A   1      30.386  29.534  23.752  1.00  0.00     0.022 A 
ENDBRANCH  13  16
ENDBRANCH   8  12
ENDBRANCH   7   8
ENDBRANCH   5   7
ENDBRANCH   4   5
ENDBRANCH   3   4
ENDBRANCH   2   3
ENDBRANCH   1   2
BRANCH   1  24
ATOM     24  C   UNL A   1      38.634  21.547  25.746  1.00  0.00     0.202 C 
BRANCH  24  25
ATOM     25  C   UNL A   1      39.436  19.504  25.736  1.00  0.00     0.261 C 
BRANCH  25  26
ATOM     26  O   UNL A   1      41.001  19.073  25.490  1.00  0.00    -0.460 OA
BRANCH  26  27
ATOM     27  C   UNL A   1      41.939  19.272  26.475  1.00  0.00     0.338 C 
ATOM     28  O   UNL A   1      42.730  18.424  26.850  1.00  0.00    -0.246 OA
BRANCH  27  29
ATOM     29  C   UNL A   1      42.085  20.745  26.770  1.00  0.00     0.060 A 
ATOM     30  C   UNL A   1      42.221  21.636  25.686  1.00  0.00     0.016 A 
ATOM     31  C   UNL A   1      41.876  21.284  28.047  1.00  0.00     0.016 A 
ATOM     32  C   UNL A   1      42.166  23.036  25.871  1.00  0.00     0.010 A 
ATOM     33  C   UNL A   1      41.784  22.686  28.221  1.00  0.00     0.010 A 
ATOM     34  C   UNL A   1      41.966  23.587  27.146  1.00  0.00    -0.014 A 
BRANCH  34  35
ATOM     35  C   UNL A   1      42.214  25.050  27.423  1.00  0.00     0.031 A 
ATOM     36  C   UNL A   1      43.536  25.616  26.946  1.00  0.00     0.074 A 
ATOM     37  C   UNL A   1      41.353  25.891  28.041  1.00  0.00     0.049 A 
ATOM     38  N   UNL A   1      44.066  26.800  27.131  1.00  0.00    -0.248 NA
ATOM     39  C   UNL A   1      44.383  24.700  26.166  1.00  0.00     0.031 C 
ATOM     40  C   UNL A   1      40.017  25.550  28.528  1.00  0.00     0.029 A 
ATOM     41  N   UNL A   1      41.486  27.229  28.374  1.00  0.00    -0.354 N 
ATOM     42  C   UNL A   1      45.314  26.755  26.515  1.00  0.00     0.074 A 
ATOM     43  C   UNL A   1      45.484  25.411  26.008  1.00  0.00     0.031 C 
ATOM     44  C   UNL A   1      39.460  26.641  29.091  1.00  0.00     0.029 A 
ATOM     45  C   UNL A   1      40.406  27.760  29.053  1.00  0.00     0.049 A 
ATOM     46  H   UNL A   1      42.284  27.758  28.146  1.00  0.00     0.167 HD
ATOM     47  C   UNL A   1      46.235  27.737  26.357  1.00  0.00     0.034 A 
ATOM     48  C   UNL A   1      40.207  28.985  29.601  1.00  0.00     0.034 A 
ATOM     49  C   UNL A   1      46.075  29.086  26.833  1.00  0.00     0.049 A 
ATOM     50  C   UNL A   1      41.293  30.046  29.503  1.00  0.00     0.074 A 
ATOM     51  C   UNL A   1      46.943  30.154  26.684  1.00  0.00     0.029 A 
ATOM     52  N   UNL A   1      44.990  29.554  27.559  1.00  0.00    -0.354 N 
ATOM     53  N   UNL A   1      42.460  29.986  28.905  1.00  0.00    -0.248 NA
ATOM     54  C   UNL A   1      41.032  31.341  30.157  1.00  0.00     0.031 C 
ATOM     55  C   UNL A   1      46.429  31.241  27.396  1.00  0.00     0.029 A 
ATOM     56  C   UNL A   1      45.192  30.882  27.905  1.00  0.00     0.049 A 
ATOM     57  H   UNL A   1      44.196  29.023  27.794  1.00  0.00     0.167 HD
ATOM     58  C   UNL A   1      43.048  31.241  29.080  1.00  0.00     0.074 A 
ATOM     59  C   UNL A   1      42.107  32.043  29.828  1.00  0.00     0.031 C 
ATOM     60  C   UNL A   1      44.256  31.689  28.652  1.00  0.00     0.034 A 
BRANCH  47  61
ATOM     61  C   UNL A   1      47.529  27.365  25.675  1.00  0.00     0.023 A 
ATOM     62  C   UNL A   1      48.636  26.875  26.392  1.00  0.00     0.031 A 
ATOM     63  C   UNL A   1      47.667  27.535  24.286  1.00  0.00     0.131 A 
ATOM     64  C   UNL A   1      49.850  26.650  25.731  1.00  0.00     0.055 A 
ATOM     65  C   UNL A   1      48.851  27.217  23.620  1.00  0.00     0.041 A 
ATOM     66  F   UNL A   1      46.653  28.023  23.554  1.00  0.00    -0.206 F 
ATOM     67  C   UNL A   1      49.957  26.788  24.345  1.00  0.00     0.022 A 
BRANCH  64  68
ATOM     68  S   UNL A   1      51.331  26.328  26.728  1.00  0.00     0.124 S 
ATOM     69  O   UNL A   1      51.286  24.874  26.861  1.00  0.00    -0.237 OA
ATOM     70  O   UNL A   1      52.398  26.859  25.888  1.00  0.00    -0.237 OA
ATOM     71  O   UNL A   1      51.080  27.067  27.963  1.00  0.00    -0.744 OA
ENDBRANCH  64  68
ENDBRANCH  47  61
BRANCH  48  72
ATOM     72  C   UNL A   1      38.952  29.302  30.364  1.00  0.00     0.023 A 
ATOM     73  C   UNL A   1      37.972  30.171  29.849  1.00  0.00     0.031 A 
ATOM     74  C   UNL A   1      38.771  28.827  31.676  1.00  0.00     0.131 A 
ATOM     75  C   UNL A   1      36.890  30.575  30.655  1.00  0.00     0.055 A 
ATOM     76  C   UNL A   1      37.663  29.181  32.451  1.00  0.00     0.041 A 
ATOM     77  F   UNL A   1      39.683  28.016  32.237  1.00  0.00    -0.206 F 
ATOM     78  C   UNL A   1      36.721  30.071  31.945  1.00  0.00     0.022 A 
BRANCH  75  79
ATOM     79  S   UNL A   1      35.763  31.860  30.038  1.00  0.00     0.124 S 
ATOM     80  O   UNL A   1      35.167  31.201  28.881  1.00  0.00    -0.237 OA
ATOM     81  O   UNL A   1      34.882  32.067  31.183  1.00  0.00    -0.237 OA
ATOM     82  O   UNL A   1      36.654  32.977  29.730  1.00  0.00    -0.744 OA
ENDBRANCH  75  79
ENDBRANCH  48  72
BRANCH  60  83
ATOM     83  C   UNL A   1      44.621  33.133  28.923  1.00  0.00     0.023 A 
ATOM     84  C   UNL A   1      44.094  34.195  28.168  1.00  0.00     0.031 A 
ATOM     85  C   UNL A   1      45.491  33.451  29.984  1.00  0.00     0.131 A 
ATOM     86  C   UNL A   1      44.473  35.518  28.457  1.00  0.00     0.055 A 
ATOM     87  C   UNL A   1      45.814  34.771  30.307  1.00  0.00     0.041 A 
ATOM     88  F   UNL A   1      46.029  32.481  30.741  1.00  0.00    -0.206 F 
ATOM     89  C   UNL A   1      45.312  35.813  29.534  1.00  0.00     0.022 A 
BRANCH  86  90
ATOM     90  S   UNL A   1      43.917  36.850  27.357  1.00  0.00     0.124 S 
ATOM     91  O   UNL A   1      45.182  37.423  26.910  1.00  0.00    -0.237 OA
ATOM     92  O   UNL A   1      43.153  36.125  26.347  1.00  0.00    -0.237 OA
ATOM     93  O   UNL A   1      43.122  37.711  28.233  1.00  0.00    -0.744 OA
ENDBRANCH  86  90
ENDBRANCH  60  83
ENDBRANCH  34  35
ENDBRANCH  27  29
ENDBRANCH  26  27
ENDBRANCH  25  26
ENDBRANCH  24  25
ENDBRANCH   1  24
TORSDOF 20
ENDMDL
MODEL 2
REMARK VINA RESULT:     -12.4      5.550     11.126
REMARK SMILES O=C(CC1(NC(=O)c2cc(Cl)ccc2Cl)CCC1)OCCOCCOC(=O)c1ccc(-c2c3nc(c(-c4cc(S(=O)(=O)[O-])ccc4F)c4ccc([nH]4)c(-c4cc(S(=O)(=O)[O-])ccc4F)c4nc(c(-c5cc(S(=O)(=O)[O-])ccc5F)c5ccc2[nH]5)C=C4)C=C3)cc1
REMARK SMILES IDX 22 1 21 2 20 3 19 4 2 5 1 6 3 7 4 8 16 9 18 10 17 11 5 12
REMARK SMILES IDX 6 13 7 15 8 16 9 17 14 18 10 19 13 20 15 21 11 22 12 23
REMARK SMILES IDX 23 24 24 25 25 26 26 27 27 28 28 29 29 30 90 31 30 32 89 33
REMARK SMILES IDX 31 34 32 35 33 36 83 37 34 38 88 39 82 40 84 41 35 42 87 43
REMARK SMILES IDX 81 44 80 45 36 47 68 48 48 49 67 50 49 51 52 52 66 53 85 54
REMARK SMILES IDX 50 55 51 56 65 58 86 59 53 60 37 61 38 62 46 63 39 64 45 65
REMARK SMILES IDX 47 66 44 67 40 68 41 69 42 70 43 71 69 72 70 73 78 74 71 75
REMARK SMILES IDX 77 76 79 77 76 78 72 79 73 80 74 81 75 82 54 83 55 84 63 85
REMARK SMILES IDX 56 86 62 87 64 88 61 89 57 90 58 91 59 92 60 93
REMARK H PARENT 5 14 84 46 52 57
REMARK Flexibility Score: inf
ROOT
ATOM      1  O   UNL A   1      33.005  29.974  27.516  1.00  0.00    -0.374 OA
ENDROOT
BRANCH   1   2
ATOM      2  C   UNL A   1      31.821  29.427  26.871  1.00  0.00     0.202 C 
BRANCH   2   3
ATOM      3  C   UNL A   1      31.970  29.409  25.375  1.00  0.00     0.261 C 
BRANCH   3   4
ATOM      4  O   UNL A   1      33.331  29.085  25.032  1.00  0.00    -0.463 OA
BRANCH   4   5
ATOM      5  C   UNL A   1      33.498  28.393  23.877  1.00  0.00     0.308 C 
ATOM      6  O   UNL A   1      34.032  28.914  22.900  1.00  0.00    -0.252 OA
BRANCH   5   7
ATOM      7  C   UNL A   1      33.195  26.888  23.912  1.00  0.00     0.151 C 
BRANCH   7   8
ATOM      8  C   UNL A   1      32.056  26.165  23.132  1.00  0.00     0.051 C 
ATOM      9  C   UNL A   1      30.934  25.831  24.186  1.00  0.00     0.029 C 
ATOM     10  C   UNL A   1      31.042  27.145  22.461  1.00  0.00     0.029 C 
ATOM     11  C   UNL A   1      29.978  26.805  23.499  1.00  0.00     0.005 C 
BRANCH   8  12
ATOM     12  N   UNL A   1      32.244  24.836  22.254  1.00  0.00    -0.346 N 
ATOM     13  C   UNL A   1      33.205  23.802  22.080  1.00  0.00     0.253 C 
ATOM     14  H   UNL A   1      31.470  24.695  21.664  1.00  0.00     0.164 HD
ATOM     15  O   UNL A   1      33.463  23.408  20.948  1.00  0.00    -0.269 OA
BRANCH  13  16
ATOM     16  C   UNL A   1      33.685  22.996  23.229  1.00  0.00     0.059 A 
ATOM     17  C   UNL A   1      35.108  23.882  23.900  1.00  0.00     0.036 A 
ATOM     18  C   UNL A   1      33.283  21.301  23.875  1.00  0.00     0.053 A 
ATOM     19  C   UNL A   1      36.129  23.120  25.126  1.00  0.00     0.041 A 
ATOM     20  C   UNL A   1      34.374  20.578  25.147  1.00  0.00     0.023 A 
ATOM     21  Cl  UNL A   1      32.148  20.081  23.340  1.00  0.00    -0.083 Cl
ATOM     22  Cl  UNL A   1      37.517  23.969  25.683  1.00  0.00    -0.084 Cl
ATOM     23  C   UNL A   1      35.793  21.495  25.746  1.00  0.00     0.022 A 
ENDBRANCH  13  16
ENDBRANCH   8  12
ENDBRANCH   7   8
ENDBRANCH   5   7
ENDBRANCH   4   5
ENDBRANCH   3   4
ENDBRANCH   2   3
ENDBRANCH   1   2
BRANCH   1  24
ATOM     24  C   UNL A   1      33.626  31.502  27.572  1.00  0.00     0.202 C 
BRANCH  24  25
ATOM     25  C   UNL A   1      32.630  33.452  27.408  1.00  0.00     0.261 C 
BRANCH  25  26
ATOM     26  O   UNL A   1      32.406  34.535  28.621  1.00  0.00    -0.460 OA
BRANCH  26  27
ATOM     27  C   UNL A   1      33.450  35.316  29.056  1.00  0.00     0.338 C 
ATOM     28  O   UNL A   1      33.369  36.515  29.265  1.00  0.00    -0.246 OA
BRANCH  27  29
ATOM     29  C   UNL A   1      34.577  34.450  29.563  1.00  0.00     0.060 A 
ATOM     30  C   UNL A   1      34.303  33.527  30.592  1.00  0.00     0.016 A 
ATOM     31  C   UNL A   1      35.818  34.369  28.915  1.00  0.00     0.016 A 
ATOM     32  C   UNL A   1      35.251  32.553  30.981  1.00  0.00     0.010 A 
ATOM     33  C   UNL A   1      36.748  33.368  29.282  1.00  0.00     0.010 A 
ATOM     34  C   UNL A   1      36.498  32.469  30.346  1.00  0.00    -0.014 A 
BRANCH  34  35
ATOM     35  C   UNL A   1      37.633  31.665  30.934  1.00  0.00     0.031 A 
ATOM     36  C   UNL A   1      38.056  32.021  32.345  1.00  0.00     0.074 A 
ATOM     37  C   UNL A   1      38.283  30.652  30.317  1.00  0.00     0.049 A 
ATOM     38  N   UNL A   1      39.056  31.580  33.067  1.00  0.00    -0.248 NA
ATOM     39  C   UNL A   1      37.236  33.038  33.024  1.00  0.00     0.031 C 
ATOM     40  C   UNL A   1      37.994  30.130  28.983  1.00  0.00     0.029 A 
ATOM     41  N   UNL A   1      39.348  29.875  30.743  1.00  0.00    -0.354 N 
ATOM     42  C   UNL A   1      38.998  32.286  34.265  1.00  0.00     0.074 A 
ATOM     43  C   UNL A   1      37.904  33.224  34.147  1.00  0.00     0.031 C 
ATOM     44  C   UNL A   1      38.852  29.128  28.705  1.00  0.00     0.029 A 
ATOM     45  C   UNL A   1      39.791  28.952  29.816  1.00  0.00     0.049 A 
ATOM     46  H   UNL A   1      39.757  29.972  31.634  1.00  0.00     0.167 HD
ATOM     47  C   UNL A   1      39.761  32.161  35.379  1.00  0.00     0.034 A 
ATOM     48  C   UNL A   1      40.837  28.088  29.841  1.00  0.00     0.034 A 
ATOM     49  C   UNL A   1      40.838  31.217  35.524  1.00  0.00     0.049 A 
ATOM     50  C   UNL A   1      41.746  28.032  31.059  1.00  0.00     0.074 A 
ATOM     51  C   UNL A   1      41.639  30.999  36.633  1.00  0.00     0.029 A 
ATOM     52  N   UNL A   1      41.278  30.347  34.539  1.00  0.00    -0.354 N 
ATOM     53  N   UNL A   1      41.665  28.699  32.187  1.00  0.00    -0.248 NA
ATOM     54  C   UNL A   1      42.890  27.104  31.005  1.00  0.00     0.031 C 
ATOM     55  C   UNL A   1      42.620  30.065  36.288  1.00  0.00     0.029 A 
ATOM     56  C   UNL A   1      42.370  29.625  34.999  1.00  0.00     0.049 A 
ATOM     57  H   UNL A   1      40.875  30.255  33.646  1.00  0.00     0.167 HD
ATOM     58  C   UNL A   1      42.719  28.242  32.982  1.00  0.00     0.074 A 
ATOM     59  C   UNL A   1      43.417  27.237  32.214  1.00  0.00     0.031 C 
ATOM     60  C   UNL A   1      43.071  28.619  34.238  1.00  0.00     0.034 A 
BRANCH  47  61
ATOM     61  C   UNL A   1      39.481  33.112  36.517  1.00  0.00     0.023 A 
ATOM     62  C   UNL A   1      40.193  34.315  36.675  1.00  0.00     0.031 A 
ATOM     63  C   UNL A   1      38.505  32.793  37.477  1.00  0.00     0.131 A 
ATOM     64  C   UNL A   1      39.974  35.110  37.808  1.00  0.00     0.055 A 
ATOM     65  C   UNL A   1      38.226  33.638  38.552  1.00  0.00     0.041 A 
ATOM     66  F   UNL A   1      37.812  31.647  37.392  1.00  0.00    -0.206 F 
ATOM     67  C   UNL A   1      38.974  34.796  38.731  1.00  0.00     0.022 A 
BRANCH  64  68
ATOM     68  S   UNL A   1      41.122  36.475  38.142  1.00  0.00     0.124 S 
ATOM     69  O   UNL A   1      40.220  37.495  38.671  1.00  0.00    -0.237 OA
ATOM     70  O   UNL A   1      42.047  35.882  39.100  1.00  0.00    -0.237 OA
ATOM     71  O   UNL A   1      41.688  36.776  36.828  1.00  0.00    -0.744 OA
ENDBRANCH  64  68
ENDBRANCH  47  61
BRANCH  48  72
ATOM     72  C   UNL A   1      41.159  27.222  28.656  1.00  0.00     0.023 A 
ATOM     73  C   UNL A   1      42.193  27.549  27.759  1.00  0.00     0.031 A 
ATOM     74  C   UNL A   1      40.356  26.110  28.340  1.00  0.00     0.131 A 
ATOM     75  C   UNL A   1      42.362  26.809  26.573  1.00  0.00     0.055 A 
ATOM     76  C   UNL A   1      40.568  25.340  27.193  1.00  0.00     0.041 A 
ATOM     77  F   UNL A   1      39.336  25.760  29.140  1.00  0.00    -0.206 F 
ATOM     78  C   UNL A   1      41.568  25.697  26.294  1.00  0.00     0.022 A 
BRANCH  75  79
ATOM     79  S   UNL A   1      43.563  27.388  25.337  1.00  0.00     0.124 S 
ATOM     80  O   UNL A   1      44.323  26.172  25.071  1.00  0.00    -0.237 OA
ATOM     81  O   UNL A   1      42.693  27.849  24.261  1.00  0.00    -0.237 OA
ATOM     82  O   UNL A   1      44.295  28.441  26.038  1.00  0.00    -0.744 OA
ENDBRANCH  75  79
ENDBRANCH  48  72
BRANCH  60  83
ATOM     83  C   UNL A   1      44.230  27.906  34.901  1.00  0.00     0.023 A 
ATOM     84  C   UNL A   1      44.091  26.639  35.494  1.00  0.00     0.031 A 
ATOM     85  C   UNL A   1      45.509  28.496  34.907  1.00  0.00     0.131 A 
ATOM     86  C   UNL A   1      45.198  26.024  36.104  1.00  0.00     0.055 A 
ATOM     87  C   UNL A   1      46.618  27.852  35.458  1.00  0.00     0.041 A 
ATOM     88  F   UNL A   1      45.705  29.706  34.359  1.00  0.00    -0.206 F 
ATOM     89  C   UNL A   1      46.464  26.613  36.070  1.00  0.00     0.022 A 
BRANCH  86  90
ATOM     90  S   UNL A   1      44.950  24.473  37.014  1.00  0.00     0.124 S 
ATOM     91  O   UNL A   1      44.392  24.948  38.276  1.00  0.00    -0.237 OA
ATOM     92  O   UNL A   1      44.032  23.744  36.146  1.00  0.00    -0.237 OA
ATOM     93  O   UNL A   1      46.296  23.908  37.105  1.00  0.00    -0.744 OA
ENDBRANCH  86  90
ENDBRANCH  60  83
ENDBRANCH  34  35
ENDBRANCH  27  29
ENDBRANCH  26  27
ENDBRANCH  25  26
ENDBRANCH  24  25
ENDBRANCH   1  24
TORSDOF 20
ENDMDL
MODEL 3
REMARK VINA RESULT:     -12.3      5.273     10.970
REMARK SMILES O=C(CC1(NC(=O)c2cc(Cl)ccc2Cl)CCC1)OCCOCCOC(=O)c1ccc(-c2c3nc(c(-c4cc(S(=O)(=O)[O-])ccc4F)c4ccc([nH]4)c(-c4cc(S(=O)(=O)[O-])ccc4F)c4nc(c(-c5cc(S(=O)(=O)[O-])ccc5F)c5ccc2[nH]5)C=C4)C=C3)cc1
REMARK SMILES IDX 22 1 21 2 20 3 19 4 2 5 1 6 3 7 4 8 16 9 18 10 17 11 5 12
REMARK SMILES IDX 6 13 7 15 8 16 9 17 14 18 10 19 13 20 15 21 11 22 12 23
REMARK SMILES IDX 23 24 24 25 25 26 26 27 27 28 28 29 29 30 90 31 30 32 89 33
REMARK SMILES IDX 31 34 32 35 33 36 83 37 34 38 88 39 82 40 84 41 35 42 87 43
REMARK SMILES IDX 81 44 80 45 36 47 68 48 48 49 67 50 49 51 52 52 66 53 85 54
REMARK SMILES IDX 50 55 51 56 65 58 86 59 53 60 37 61 38 62 46 63 39 64 45 65
REMARK SMILES IDX 47 66 44 67 40 68 41 69 42 70 43 71 69 72 70 73 78 74 71 75
REMARK SMILES IDX 77 76 79 77 76 78 72 79 73 80 74 81 75 82 54 83 55 84 63 85
REMARK SMILES IDX 56 86 62 87 64 88 61 89 57 90 58 91 59 92 60 93
REMARK H PARENT 5 14 84 46 52 57
REMARK Flexibility Score: inf
ROOT
ATOM      1  O   UNL A   1      32.174  30.297  26.464  1.00  0.00    -0.374 OA
ENDROOT
BRANCH   1   2
ATOM      2  C   UNL A   1      33.565  29.899  26.615  1.00  0.00     0.202 C 
BRANCH   2   3
ATOM      3  C   UNL A   1      33.683  28.561  27.290  1.00  0.00     0.261 C 
BRANCH   3   4
ATOM      4  O   UNL A   1      32.398  27.910  27.295  1.00  0.00    -0.463 OA
BRANCH   4   5
ATOM      5  C   UNL A   1      32.282  26.828  26.486  1.00  0.00     0.308 C 
ATOM      6  O   UNL A   1      31.443  25.958  26.711  1.00  0.00    -0.252 OA
BRANCH   5   7
ATOM      7  C   UNL A   1      33.081  26.844  25.175  1.00  0.00     0.151 C 
BRANCH   7   8
ATOM      8  C   UNL A   1      32.500  27.097  23.751  1.00  0.00     0.051 C 
ATOM      9  C   UNL A   1      31.050  27.676  23.955  1.00  0.00     0.029 C 
ATOM     10  C   UNL A   1      32.898  28.484  23.153  1.00  0.00     0.029 C 
ATOM     11  C   UNL A   1      31.486  29.017  23.369  1.00  0.00     0.005 C 
BRANCH   8  12
ATOM     12  N   UNL A   1      32.373  25.986  22.601  1.00  0.00    -0.346 N 
ATOM     13  C   UNL A   1      33.045  24.805  22.182  1.00  0.00     0.253 C 
ATOM     14  H   UNL A   1      31.606  26.177  22.014  1.00  0.00     0.164 HD
ATOM     15  O   UNL A   1      33.230  24.613  20.986  1.00  0.00    -0.269 OA
BRANCH  13  16
ATOM     16  C   UNL A   1      33.270  23.675  23.116  1.00  0.00     0.059 A 
ATOM     17  C   UNL A   1      31.736  23.486  24.049  1.00  0.00     0.036 A 
ATOM     18  C   UNL A   1      34.764  22.689  23.615  1.00  0.00     0.053 A 
ATOM     19  C   UNL A   1      31.677  22.408  25.450  1.00  0.00     0.041 A 
ATOM     20  C   UNL A   1      34.630  21.588  25.065  1.00  0.00     0.023 A 
ATOM     21  Cl  UNL A   1      36.436  22.755  23.104  1.00  0.00    -0.083 Cl
ATOM     22  Cl  UNL A   1      30.217  22.315  26.355  1.00  0.00    -0.084 Cl
ATOM     23  C   UNL A   1      33.089  21.473  25.972  1.00  0.00     0.022 A 
ENDBRANCH  13  16
ENDBRANCH   8  12
ENDBRANCH   7   8
ENDBRANCH   5   7
ENDBRANCH   4   5
ENDBRANCH   3   4
ENDBRANCH   2   3
ENDBRANCH   1   2
BRANCH   1  24
ATOM     24  C   UNL A   1      31.407  31.741  26.690  1.00  0.00     0.202 C 
BRANCH  24  25
ATOM     25  C   UNL A   1      32.221  33.736  27.105  1.00  0.00     0.261 C 
BRANCH  25  26
ATOM     26  O   UNL A   1      32.400  34.427  28.584  1.00  0.00    -0.460 OA
BRANCH  26  27
ATOM     27  C   UNL A   1      33.515  35.177  28.870  1.00  0.00     0.338 C 
ATOM     28  O   UNL A   1      33.507  36.387  29.026  1.00  0.00    -0.246 OA
BRANCH  27  29
ATOM     29  C   UNL A   1      34.653  34.284  29.300  1.00  0.00     0.060 A 
ATOM     30  C   UNL A   1      34.361  33.172  30.115  1.00  0.00     0.016 A 
ATOM     31  C   UNL A   1      35.940  34.383  28.754  1.00  0.00     0.016 A 
ATOM     32  C   UNL A   1      35.335  32.186  30.395  1.00  0.00     0.010 A 
ATOM     33  C   UNL A   1      36.901  33.374  29.006  1.00  0.00     0.010 A 
ATOM     34  C   UNL A   1      36.629  32.281  29.861  1.00  0.00    -0.014 A 
BRANCH  34  35
ATOM     35  C   UNL A   1      37.764  31.434  30.383  1.00  0.00     0.031 A 
ATOM     36  C   UNL A   1      38.209  31.699  31.807  1.00  0.00     0.074 A 
ATOM     37  C   UNL A   1      38.397  30.455  29.697  1.00  0.00     0.049 A 
ATOM     38  N   UNL A   1      39.215  31.206  32.487  1.00  0.00    -0.248 NA
ATOM     39  C   UNL A   1      37.407  32.679  32.558  1.00  0.00     0.031 C 
ATOM     40  C   UNL A   1      38.085  30.018  28.337  1.00  0.00     0.029 A 
ATOM     41  N   UNL A   1      39.460  29.645  30.060  1.00  0.00    -0.354 N 
ATOM     42  C   UNL A   1      39.179  31.838  33.727  1.00  0.00     0.074 A 
ATOM     43  C   UNL A   1      38.092  32.791  33.681  1.00  0.00     0.031 C 
ATOM     44  C   UNL A   1      38.930  29.027  27.986  1.00  0.00     0.029 A 
ATOM     45  C   UNL A   1      39.883  28.777  29.071  1.00  0.00     0.049 A 
ATOM     46  H   UNL A   1      39.881  29.684  30.949  1.00  0.00     0.167 HD
ATOM     47  C   UNL A   1      39.956  31.639  34.820  1.00  0.00     0.034 A 
ATOM     48  C   UNL A   1      40.921  27.904  29.029  1.00  0.00     0.034 A 
ATOM     49  C   UNL A   1      41.027  30.680  34.892  1.00  0.00     0.049 A 
ATOM     50  C   UNL A   1      41.846  27.766  30.229  1.00  0.00     0.074 A 
ATOM     51  C   UNL A   1      41.840  30.388  35.974  1.00  0.00     0.029 A 
ATOM     52  N   UNL A   1      41.445  29.868  33.849  1.00  0.00    -0.354 N 
ATOM     53  N   UNL A   1      41.786  28.364  31.396  1.00  0.00    -0.248 NA
ATOM     54  C   UNL A   1      42.981  26.834  30.102  1.00  0.00     0.031 C 
ATOM     55  C   UNL A   1      42.808  29.469  35.560  1.00  0.00     0.029 A 
ATOM     56  C   UNL A   1      42.536  29.111  34.250  1.00  0.00     0.049 A 
ATOM     57  H   UNL A   1      41.030  29.834  32.958  1.00  0.00     0.167 HD
ATOM     58  C   UNL A   1      42.846  27.851  32.147  1.00  0.00     0.074 A 
ATOM     59  C   UNL A   1      43.525  26.889  31.309  1.00  0.00     0.031 C 
ATOM     60  C   UNL A   1      43.218  28.147  33.419  1.00  0.00     0.034 A 
BRANCH  47  61
ATOM     61  C   UNL A   1      39.699  32.522  36.018  1.00  0.00     0.023 A 
ATOM     62  C   UNL A   1      38.855  32.123  37.069  1.00  0.00     0.031 A 
ATOM     63  C   UNL A   1      40.287  33.797  36.092  1.00  0.00     0.131 A 
ATOM     64  C   UNL A   1      38.560  33.020  38.105  1.00  0.00     0.055 A 
ATOM     65  C   UNL A   1      40.064  34.648  37.174  1.00  0.00     0.041 A 
ATOM     66  F   UNL A   1      41.082  34.241  35.105  1.00  0.00    -0.206 F 
ATOM     67  C   UNL A   1      39.182  34.268  38.181  1.00  0.00     0.022 A 
BRANCH  64  68
ATOM     68  S   UNL A   1      37.230  32.596  39.264  1.00  0.00     0.124 S 
ATOM     69  O   UNL A   1      36.042  32.832  38.447  1.00  0.00    -0.237 OA
ATOM     70  O   UNL A   1      37.520  31.203  39.582  1.00  0.00    -0.237 OA
ATOM     71  O   UNL A   1      37.419  33.542  40.362  1.00  0.00    -0.744 OA
ENDBRANCH  64  68
ENDBRANCH  47  61
BRANCH  48  72
ATOM     72  C   UNL A   1      41.219  27.109  27.789  1.00  0.00     0.023 A 
ATOM     73  C   UNL A   1      40.987  25.722  27.725  1.00  0.00     0.031 A 
ATOM     74  C   UNL A   1      41.853  27.711  26.686  1.00  0.00     0.131 A 
ATOM     75  C   UNL A   1      41.428  24.981  26.612  1.00  0.00     0.055 A 
ATOM     76  C   UNL A   1      42.233  26.981  25.556  1.00  0.00     0.041 A 
ATOM     77  F   UNL A   1      42.128  29.025  26.695  1.00  0.00    -0.206 F 
ATOM     78  C   UNL A   1      42.033  25.605  25.521  1.00  0.00     0.022 A 
BRANCH  75  79
ATOM     79  S   UNL A   1      41.305  23.168  26.656  1.00  0.00     0.124 S 
ATOM     80  O   UNL A   1      42.257  22.782  25.621  1.00  0.00    -0.237 OA
ATOM     81  O   UNL A   1      41.694  22.870  28.030  1.00  0.00    -0.237 OA
ATOM     82  O   UNL A   1      39.901  22.913  26.339  1.00  0.00    -0.744 OA
ENDBRANCH  75  79
ENDBRANCH  48  72
BRANCH  60  83
ATOM     83  C   UNL A   1      44.380  27.385  34.021  1.00  0.00     0.023 A 
ATOM     84  C   UNL A   1      44.214  26.141  34.653  1.00  0.00     0.031 A 
ATOM     85  C   UNL A   1      45.686  27.904  33.928  1.00  0.00     0.131 A 
ATOM     86  C   UNL A   1      45.325  25.478  35.203  1.00  0.00     0.055 A 
ATOM     87  C   UNL A   1      46.794  27.213  34.420  1.00  0.00     0.041 A 
ATOM     88  F   UNL A   1      45.909  29.090  33.338  1.00  0.00    -0.206 F 
ATOM     89  C   UNL A   1      46.616  25.997  35.071  1.00  0.00     0.022 A 
BRANCH  86  90
ATOM     90  S   UNL A   1      45.057  23.963  36.165  1.00  0.00     0.124 S 
ATOM     91  O   UNL A   1      46.294  23.228  35.925  1.00  0.00    -0.237 OA
ATOM     92  O   UNL A   1      44.873  24.479  37.517  1.00  0.00    -0.237 OA
ATOM     93  O   UNL A   1      43.861  23.378  35.558  1.00  0.00    -0.744 OA
ENDBRANCH  86  90
ENDBRANCH  60  83
ENDBRANCH  34  35
ENDBRANCH  27  29
ENDBRANCH  26  27
ENDBRANCH  25  26
ENDBRANCH  24  25
ENDBRANCH   1  24
TORSDOF 20
ENDMDL
