MODEL 1
REMARK VINA RESULT:     -11.8      0.000      0.000
REMARK SMILES O=C(OCCOCCOC(=O)[C@@H]1CN(c2nc(-c3ccccc3)no2)CC[NH2+]1)c1ccc(-c2c3nc(c(-c4cc(S(=O)(=O)[O-])ccc4F)c4ccc([nH]4)c(-c4cc(S(=O)(=O)[O-])ccc4F)c4nc(c(-c5cc(S(=O)(=O)[O-])ccc5F)c5ccc2[nH]5)C=C4)C=C3)cc1
REMARK SMILES IDX 5 1 4 2 3 3 2 4 1 5 29 6 30 7 91 8 31 9 90 10 32 11 33 12
REMARK SMILES IDX 34 13 84 14 35 15 89 16 83 17 85 18 36 19 88 20 82 21 81 22
REMARK SMILES IDX 37 24 69 25 49 26 68 27 50 28 53 29 67 30 86 31 51 32 52 33
REMARK SMILES IDX 66 35 87 36 54 37 38 38 39 39 47 40 40 41 46 42 48 43 45 44
REMARK SMILES IDX 41 45 42 46 43 47 44 48 70 49 71 50 79 51 72 52 78 53 80 54
REMARK SMILES IDX 77 55 73 56 74 57 75 58 76 59 55 60 56 61 64 62 57 63 63 64
REMARK SMILES IDX 65 65 62 66 58 67 59 68 60 69 61 70 6 71 7 72 8 73 9 74
REMARK SMILES IDX 10 75 11 76 12 77 13 78 28 79 14 80 27 81 26 84 15 85 16 86
REMARK SMILES IDX 25 87 17 88 24 89 18 90 19 91 23 92 20 93 22 94 21 95
REMARK H PARENT 85 23 53 34 28 82 28 83
REMARK Flexibility Score: inf
ROOT
ATOM      1  C   UNL A   1      31.809  31.432  26.739  1.00  0.00     0.202 C 
ENDROOT
BRANCH   1   2
ATOM      2  C   UNL A   1      31.959  32.959  26.612  1.00  0.00     0.261 C 
BRANCH   2   3
ATOM      3  O   UNL A   1      32.078  33.609  27.890  1.00  0.00    -0.460 OA
BRANCH   3   4
ATOM      4  C   UNL A   1      33.176  34.231  28.390  1.00  0.00     0.338 C 
ATOM      5  O   UNL A   1      33.171  35.457  28.485  1.00  0.00    -0.246 OA
BRANCH   4   6
ATOM      6  C   UNL A   1      34.406  33.491  28.800  1.00  0.00     0.060 A 
ATOM      7  C   UNL A   1      34.394  32.316  29.546  1.00  0.00     0.016 A 
ATOM      8  C   UNL A   1      35.648  33.966  28.355  1.00  0.00     0.016 A 
ATOM      9  C   UNL A   1      35.538  31.658  29.912  1.00  0.00     0.010 A 
ATOM     10  C   UNL A   1      36.828  33.295  28.698  1.00  0.00     0.010 A 
ATOM     11  C   UNL A   1      36.761  32.149  29.498  1.00  0.00    -0.014 A 
BRANCH  11  12
ATOM     12  C   UNL A   1      37.913  31.518  30.147  1.00  0.00     0.031 A 
ATOM     13  C   UNL A   1      38.103  31.794  31.604  1.00  0.00     0.074 A 
ATOM     14  C   UNL A   1      38.550  30.522  29.506  1.00  0.00     0.049 A 
ATOM     15  N   UNL A   1      39.010  31.342  32.421  1.00  0.00    -0.248 NA
ATOM     16  C   UNL A   1      37.111  32.686  32.233  1.00  0.00     0.031 C 
ATOM     17  C   UNL A   1      38.227  30.049  28.153  1.00  0.00     0.029 A 
ATOM     18  N   UNL A   1      39.540  29.682  29.923  1.00  0.00    -0.354 N 
ATOM     19  C   UNL A   1      38.731  31.934  33.647  1.00  0.00     0.074 A 
ATOM     20  C   UNL A   1      37.568  32.772  33.469  1.00  0.00     0.031 C 
ATOM     21  C   UNL A   1      38.990  28.983  27.869  1.00  0.00     0.029 A 
ATOM     22  C   UNL A   1      39.913  28.761  28.974  1.00  0.00     0.049 A 
ATOM     23  H   UNL A   1      39.950  29.733  30.818  1.00  0.00     0.167 HD
ATOM     24  C   UNL A   1      39.417  31.793  34.805  1.00  0.00     0.034 A 
ATOM     25  C   UNL A   1      40.923  27.874  28.998  1.00  0.00     0.034 A 
ATOM     26  C   UNL A   1      40.574  30.941  34.906  1.00  0.00     0.049 A 
ATOM     27  C   UNL A   1      41.766  27.843  30.248  1.00  0.00     0.074 A 
ATOM     28  C   UNL A   1      41.437  30.767  35.968  1.00  0.00     0.029 A 
ATOM     29  N   UNL A   1      41.032  30.117  33.878  1.00  0.00    -0.354 N 
ATOM     30  N   UNL A   1      41.600  28.510  31.370  1.00  0.00    -0.248 NA
ATOM     31  C   UNL A   1      42.932  26.959  30.234  1.00  0.00     0.031 C 
ATOM     32  C   UNL A   1      42.459  29.903  35.556  1.00  0.00     0.029 A 
ATOM     33  C   UNL A   1      42.182  29.456  34.271  1.00  0.00     0.049 A 
ATOM     34  H   UNL A   1      40.599  30.019  33.000  1.00  0.00     0.167 HD
ATOM     35  C   UNL A   1      42.626  28.098  32.212  1.00  0.00     0.074 A 
ATOM     36  C   UNL A   1      43.392  27.117  31.466  1.00  0.00     0.031 C 
ATOM     37  C   UNL A   1      42.912  28.486  33.484  1.00  0.00     0.034 A 
BRANCH  24  38
ATOM     38  C   UNL A   1      39.006  32.688  35.949  1.00  0.00     0.023 A 
ATOM     39  C   UNL A   1      39.469  34.010  36.079  1.00  0.00     0.031 A 
ATOM     40  C   UNL A   1      38.249  32.152  37.006  1.00  0.00     0.131 A 
ATOM     41  C   UNL A   1      39.263  34.708  37.280  1.00  0.00     0.055 A 
ATOM     42  C   UNL A   1      37.964  32.887  38.159  1.00  0.00     0.041 A 
ATOM     43  F   UNL A   1      37.814  30.883  36.961  1.00  0.00    -0.206 F 
ATOM     44  C   UNL A   1      38.491  34.165  38.311  1.00  0.00     0.022 A 
BRANCH  41  45
ATOM     45  S   UNL A   1      40.188  36.246  37.563  1.00  0.00     0.124 S 
ATOM     46  O   UNL A   1      41.406  35.744  38.196  1.00  0.00    -0.237 OA
ATOM     47  O   UNL A   1      40.342  36.776  36.214  1.00  0.00    -0.237 OA
ATOM     48  O   UNL A   1      39.312  37.018  38.442  1.00  0.00    -0.744 OA
ENDBRANCH  41  45
ENDBRANCH  24  38
BRANCH  25  49
ATOM     49  C   UNL A   1      41.236  27.030  27.808  1.00  0.00     0.023 A 
ATOM     50  C   UNL A   1      40.920  25.664  27.774  1.00  0.00     0.031 A 
ATOM     51  C   UNL A   1      41.910  27.572  26.695  1.00  0.00     0.131 A 
ATOM     52  C   UNL A   1      41.312  24.880  26.676  1.00  0.00     0.055 A 
ATOM     53  C   UNL A   1      42.244  26.803  25.580  1.00  0.00     0.041 A 
ATOM     54  F   UNL A   1      42.250  28.871  26.670  1.00  0.00    -0.206 F 
ATOM     55  C   UNL A   1      41.958  25.442  25.573  1.00  0.00     0.022 A 
BRANCH  52  56
ATOM     56  S   UNL A   1      41.052  23.086  26.751  1.00  0.00     0.124 S 
ATOM     57  O   UNL A   1      39.608  22.989  26.569  1.00  0.00    -0.237 OA
ATOM     58  O   UNL A   1      41.873  22.614  25.642  1.00  0.00    -0.237 OA
ATOM     59  O   UNL A   1      41.538  22.726  28.082  1.00  0.00    -0.744 OA
ENDBRANCH  52  56
ENDBRANCH  25  49
BRANCH  37  60
ATOM     60  C   UNL A   1      44.064  27.783  34.152  1.00  0.00     0.023 A 
ATOM     61  C   UNL A   1      43.898  26.570  34.838  1.00  0.00     0.031 A 
ATOM     62  C   UNL A   1      45.349  28.353  34.103  1.00  0.00     0.131 A 
ATOM     63  C   UNL A   1      44.986  26.001  35.512  1.00  0.00     0.055 A 
ATOM     64  C   UNL A   1      46.444  27.740  34.709  1.00  0.00     0.041 A 
ATOM     65  F   UNL A   1      45.559  29.514  33.462  1.00  0.00    -0.206 F 
ATOM     66  C   UNL A   1      46.262  26.565  35.432  1.00  0.00     0.022 A 
BRANCH  63  67
ATOM     67  S   UNL A   1      44.684  24.580  36.596  1.00  0.00     0.124 S 
ATOM     68  O   UNL A   1      43.829  25.161  37.624  1.00  0.00    -0.237 OA
ATOM     69  O   UNL A   1      44.041  23.631  35.692  1.00  0.00    -0.237 OA
ATOM     70  O   UNL A   1      46.023  24.201  37.042  1.00  0.00    -0.744 OA
ENDBRANCH  63  67
ENDBRANCH  37  60
ENDBRANCH  11  12
ENDBRANCH   4   6
ENDBRANCH   3   4
ENDBRANCH   2   3
ENDBRANCH   1   2
BRANCH   1  71
ATOM     71  O   UNL A   1      32.853  30.680  27.369  1.00  0.00    -0.374 OA
BRANCH  71  72
ATOM     72  C   UNL A   1      33.547  29.718  26.573  1.00  0.00     0.202 C 
BRANCH  72  73
ATOM     73  C   UNL A   1      33.033  28.314  26.861  1.00  0.00     0.261 C 
BRANCH  73  74
ATOM     74  O   UNL A   1      33.992  27.401  26.313  1.00  0.00    -0.459 OA
BRANCH  74  75
ATOM     75  C   UNL A   1      33.448  26.279  25.758  1.00  0.00     0.366 C 
ATOM     76  O   UNL A   1      33.403  25.174  26.288  1.00  0.00    -0.245 OA
BRANCH  75  77
ATOM     77  C   UNL A   1      32.928  26.583  24.366  1.00  0.00     0.313 C 
ATOM     78  C   UNL A   1      31.618  25.815  24.206  1.00  0.00     0.199 C 
ATOM     79  N   UNL A   1      33.895  26.171  23.298  1.00  0.00    -0.332 N 
ATOM     80  N   UNL A   1      31.051  26.044  22.877  1.00  0.00    -0.312 N 
ATOM     81  C   UNL A   1      33.332  26.501  21.982  1.00  0.00     0.283 C 
ATOM     82  H   UNL A   1      34.059  25.166  23.356  1.00  0.00     0.347 HD
ATOM     83  H   UNL A   1      34.778  26.666  23.425  1.00  0.00     0.347 HD
ATOM     84  C   UNL A   1      31.950  25.849  21.735  1.00  0.00     0.183 C 
BRANCH  80  85
ATOM     85  C   UNL A   1      30.094  26.985  22.813  1.00  0.00     0.324 A 
ATOM     86  N   UNL A   1      30.167  28.185  22.297  1.00  0.00    -0.171 NA
ATOM     87  O   UNL A   1      28.972  26.782  23.561  1.00  0.00    -0.315 OA
ATOM     88  C   UNL A   1      29.037  28.781  22.786  1.00  0.00     0.204 A 
ATOM     89  N   UNL A   1      28.280  27.994  23.566  1.00  0.00    -0.055 NA
BRANCH  88  90
ATOM     90  C   UNL A   1      28.686  30.147  22.470  1.00  0.00     0.023 A 
ATOM     91  C   UNL A   1      28.327  30.499  21.163  1.00  0.00     0.012 A 
ATOM     92  C   UNL A   1      28.750  31.128  23.464  1.00  0.00     0.012 A 
ATOM     93  C   UNL A   1      28.080  31.835  20.845  1.00  0.00     0.001 A 
ATOM     94  C   UNL A   1      28.517  32.464  23.139  1.00  0.00     0.001 A 
ATOM     95  C   UNL A   1      28.192  32.817  21.829  1.00  0.00     0.000 A 
ENDBRANCH  88  90
ENDBRANCH  80  85
ENDBRANCH  75  77
ENDBRANCH  74  75
ENDBRANCH  73  74
ENDBRANCH  72  73
ENDBRANCH  71  72
ENDBRANCH   1  71
TORSDOF 19
ENDMDL
MODEL 2
REMARK VINA RESULT:     -11.5      3.015      4.879
REMARK SMILES O=C(OCCOCCOC(=O)[C@@H]1CN(c2nc(-c3ccccc3)no2)CC[NH2+]1)c1ccc(-c2c3nc(c(-c4cc(S(=O)(=O)[O-])ccc4F)c4ccc([nH]4)c(-c4cc(S(=O)(=O)[O-])ccc4F)c4nc(c(-c5cc(S(=O)(=O)[O-])ccc5F)c5ccc2[nH]5)C=C4)C=C3)cc1
REMARK SMILES IDX 5 1 4 2 3 3 2 4 1 5 29 6 30 7 91 8 31 9 90 10 32 11 33 12
REMARK SMILES IDX 34 13 84 14 35 15 89 16 83 17 85 18 36 19 88 20 82 21 81 22
REMARK SMILES IDX 37 24 69 25 49 26 68 27 50 28 53 29 67 30 86 31 51 32 52 33
REMARK SMILES IDX 66 35 87 36 54 37 38 38 39 39 47 40 40 41 46 42 48 43 45 44
REMARK SMILES IDX 41 45 42 46 43 47 44 48 70 49 71 50 79 51 72 52 78 53 80 54
REMARK SMILES IDX 77 55 73 56 74 57 75 58 76 59 55 60 56 61 64 62 57 63 63 64
REMARK SMILES IDX 65 65 62 66 58 67 59 68 60 69 61 70 6 71 7 72 8 73 9 74
REMARK SMILES IDX 10 75 11 76 12 77 13 78 28 79 14 80 27 81 26 84 15 85 16 86
REMARK SMILES IDX 25 87 17 88 24 89 18 90 19 91 23 92 20 93 22 94 21 95
REMARK H PARENT 85 23 53 34 28 82 28 83
REMARK Flexibility Score: inf
ROOT
ATOM      1  C   UNL A   1      31.378  29.532  25.126  1.00  0.00     0.202 C 
ENDROOT
BRANCH   1   2
ATOM      2  C   UNL A   1      32.670  30.120  25.724  1.00  0.00     0.261 C 
BRANCH   2   3
ATOM      3  O   UNL A   1      32.423  30.901  26.905  1.00  0.00    -0.460 OA
BRANCH   3   4
ATOM      4  C   UNL A   1      33.276  31.776  27.499  1.00  0.00     0.338 C 
ATOM      5  O   UNL A   1      32.944  32.955  27.595  1.00  0.00    -0.246 OA
BRANCH   4   6
ATOM      6  C   UNL A   1      34.620  31.371  28.011  1.00  0.00     0.060 A 
ATOM      7  C   UNL A   1      34.972  30.059  28.315  1.00  0.00     0.016 A 
ATOM      8  C   UNL A   1      35.609  32.355  28.133  1.00  0.00     0.016 A 
ATOM      9  C   UNL A   1      36.210  29.715  28.787  1.00  0.00     0.010 A 
ATOM     10  C   UNL A   1      36.890  32.021  28.591  1.00  0.00     0.010 A 
ATOM     11  C   UNL A   1      37.172  30.695  28.937  1.00  0.00    -0.014 A 
BRANCH  11  12
ATOM     12  C   UNL A   1      38.362  30.262  29.675  1.00  0.00     0.031 A 
ATOM     13  C   UNL A   1      38.456  30.676  31.108  1.00  0.00     0.074 A 
ATOM     14  C   UNL A   1      39.138  29.301  29.143  1.00  0.00     0.049 A 
ATOM     15  N   UNL A   1      39.374  30.406  31.990  1.00  0.00    -0.248 NA
ATOM     16  C   UNL A   1      37.341  31.491  31.625  1.00  0.00     0.031 C 
ATOM     17  C   UNL A   1      38.930  28.683  27.826  1.00  0.00     0.029 A 
ATOM     18  N   UNL A   1      40.201  28.624  29.663  1.00  0.00    -0.354 N 
ATOM     19  C   UNL A   1      38.976  31.058  33.151  1.00  0.00     0.074 A 
ATOM     20  C   UNL A   1      37.732  31.732  32.863  1.00  0.00     0.031 C 
ATOM     21  C   UNL A   1      39.824  27.697  27.659  1.00  0.00     0.029 A 
ATOM     22  C   UNL A   1      40.719  27.680  28.809  1.00  0.00     0.049 A 
ATOM     23  H   UNL A   1      40.564  28.795  30.562  1.00  0.00     0.167 HD
ATOM     24  C   UNL A   1      39.624  31.095  34.338  1.00  0.00     0.034 A 
ATOM     25  C   UNL A   1      41.824  26.925  28.941  1.00  0.00     0.034 A 
ATOM     26  C   UNL A   1      40.868  30.400  34.549  1.00  0.00     0.049 A 
ATOM     27  C   UNL A   1      42.611  27.099  30.216  1.00  0.00     0.074 A 
ATOM     28  C   UNL A   1      41.700  30.418  35.650  1.00  0.00     0.029 A 
ATOM     29  N   UNL A   1      41.462  29.556  33.611  1.00  0.00    -0.354 N 
ATOM     30  N   UNL A   1      42.321  27.830  31.271  1.00  0.00    -0.248 NA
ATOM     31  C   UNL A   1      43.873  26.363  30.316  1.00  0.00     0.031 C 
ATOM     32  C   UNL A   1      42.832  29.652  35.347  1.00  0.00     0.029 A 
ATOM     33  C   UNL A   1      42.664  29.072  34.097  1.00  0.00     0.049 A 
ATOM     34  H   UNL A   1      41.082  29.335  32.731  1.00  0.00     0.167 HD
ATOM     35  C   UNL A   1      43.351  27.614  32.178  1.00  0.00     0.074 A 
ATOM     36  C   UNL A   1      44.259  26.675  31.544  1.00  0.00     0.031 C 
ATOM     37  C   UNL A   1      43.535  28.136  33.421  1.00  0.00     0.034 A 
BRANCH  24  38
ATOM     38  C   UNL A   1      39.063  32.024  35.387  1.00  0.00     0.023 A 
ATOM     39  C   UNL A   1      39.467  33.367  35.502  1.00  0.00     0.031 A 
ATOM     40  C   UNL A   1      38.212  31.508  36.381  1.00  0.00     0.131 A 
ATOM     41  C   UNL A   1      39.109  34.109  36.640  1.00  0.00     0.055 A 
ATOM     42  C   UNL A   1      37.780  32.283  37.460  1.00  0.00     0.041 A 
ATOM     43  F   UNL A   1      37.825  30.223  36.350  1.00  0.00    -0.206 F 
ATOM     44  C   UNL A   1      38.247  33.585  37.606  1.00  0.00     0.022 A 
BRANCH  41  45
ATOM     45  S   UNL A   1      39.950  35.690  36.946  1.00  0.00     0.124 S 
ATOM     46  O   UNL A   1      41.337  35.260  37.109  1.00  0.00    -0.237 OA
ATOM     47  O   UNL A   1      39.654  36.446  35.736  1.00  0.00    -0.237 OA
ATOM     48  O   UNL A   1      39.314  36.187  38.165  1.00  0.00    -0.744 OA
ENDBRANCH  41  45
ENDBRANCH  24  38
BRANCH  25  49
ATOM     49  C   UNL A   1      42.285  26.031  27.839  1.00  0.00     0.023 A 
ATOM     50  C   UNL A   1      41.746  24.747  27.663  1.00  0.00     0.031 A 
ATOM     51  C   UNL A   1      43.317  26.432  26.967  1.00  0.00     0.131 A 
ATOM     52  C   UNL A   1      42.268  23.899  26.673  1.00  0.00     0.055 A 
ATOM     53  C   UNL A   1      43.790  25.608  25.946  1.00  0.00     0.041 A 
ATOM     54  F   UNL A   1      43.881  27.645  27.090  1.00  0.00    -0.206 F 
ATOM     55  C   UNL A   1      43.275  24.324  25.803  1.00  0.00     0.022 A 
BRANCH  52  56
ATOM     56  S   UNL A   1      41.676  22.185  26.597  1.00  0.00     0.124 S 
ATOM     57  O   UNL A   1      40.231  22.373  26.545  1.00  0.00    -0.237 OA
ATOM     58  O   UNL A   1      42.306  21.701  25.374  1.00  0.00    -0.237 OA
ATOM     59  O   UNL A   1      42.185  21.594  27.834  1.00  0.00    -0.744 OA
ENDBRANCH  52  56
ENDBRANCH  25  49
BRANCH  37  60
ATOM     60  C   UNL A   1      44.733  27.634  34.184  1.00  0.00     0.023 A 
ATOM     61  C   UNL A   1      44.675  26.482  34.983  1.00  0.00     0.031 A 
ATOM     62  C   UNL A   1      45.949  28.336  34.110  1.00  0.00     0.131 A 
ATOM     63  C   UNL A   1      45.794  26.105  35.737  1.00  0.00     0.055 A 
ATOM     64  C   UNL A   1      47.083  27.911  34.800  1.00  0.00     0.041 A 
ATOM     65  F   UNL A   1      46.055  29.446  33.361  1.00  0.00    -0.206 F 
ATOM     66  C   UNL A   1      47.003  26.798  35.633  1.00  0.00     0.022 A 
BRANCH  63  67
ATOM     67  S   UNL A   1      45.610  24.770  36.949  1.00  0.00     0.124 S 
ATOM     68  O   UNL A   1      46.999  24.414  37.219  1.00  0.00    -0.237 OA
ATOM     69  O   UNL A   1      44.899  25.434  38.037  1.00  0.00    -0.237 OA
ATOM     70  O   UNL A   1      44.838  23.760  36.229  1.00  0.00    -0.744 OA
ENDBRANCH  63  67
ENDBRANCH  37  60
ENDBRANCH  11  12
ENDBRANCH   4   6
ENDBRANCH   3   4
ENDBRANCH   2   3
ENDBRANCH   1   2
BRANCH   1  71
ATOM     71  O   UNL A   1      31.400  28.203  24.591  1.00  0.00    -0.374 OA
BRANCH  71  72
ATOM     72  C   UNL A   1      30.551  27.925  23.476  1.00  0.00     0.202 C 
BRANCH  72  73
ATOM     73  C   UNL A   1      31.323  27.196  22.384  1.00  0.00     0.261 C 
BRANCH  73  74
ATOM     74  O   UNL A   1      31.768  25.957  22.949  1.00  0.00    -0.459 OA
BRANCH  74  75
ATOM     75  C   UNL A   1      33.040  25.606  22.604  1.00  0.00     0.366 C 
ATOM     76  O   UNL A   1      33.656  26.027  21.629  1.00  0.00    -0.245 OA
BRANCH  75  77
ATOM     77  C   UNL A   1      33.587  24.588  23.587  1.00  0.00     0.313 C 
ATOM     78  C   UNL A   1      32.402  24.092  24.413  1.00  0.00     0.199 C 
ATOM     79  N   UNL A   1      34.628  25.175  24.490  1.00  0.00    -0.332 N 
ATOM     80  N   UNL A   1      32.847  23.108  25.401  1.00  0.00    -0.312 N 
ATOM     81  C   UNL A   1      35.117  24.135  25.406  1.00  0.00     0.283 C 
ATOM     82  H   UNL A   1      34.221  25.939  25.028  1.00  0.00     0.347 HD
ATOM     83  H   UNL A   1      35.405  25.531  23.932  1.00  0.00     0.347 HD
ATOM     84  C   UNL A   1      33.987  23.487  26.241  1.00  0.00     0.183 C 
BRANCH  80  85
ATOM     85  C   UNL A   1      32.683  21.822  25.048  1.00  0.00     0.324 A 
ATOM     86  N   UNL A   1      33.179  20.753  25.616  1.00  0.00    -0.171 NA
ATOM     87  O   UNL A   1      32.122  21.579  23.828  1.00  0.00    -0.315 OA
ATOM     88  C   UNL A   1      32.947  19.789  24.673  1.00  0.00     0.204 A 
ATOM     89  N   UNL A   1      32.325  20.223  23.566  1.00  0.00    -0.055 NA
BRANCH  88  90
ATOM     90  C   UNL A   1      33.331  18.409  24.870  1.00  0.00     0.023 A 
ATOM     91  C   UNL A   1      34.475  17.899  24.246  1.00  0.00     0.012 A 
ATOM     92  C   UNL A   1      32.529  17.570  25.650  1.00  0.00     0.012 A 
ATOM     93  C   UNL A   1      34.788  16.544  24.365  1.00  0.00     0.001 A 
ATOM     94  C   UNL A   1      32.836  16.214  25.755  1.00  0.00     0.001 A 
ATOM     95  C   UNL A   1      33.959  15.701  25.105  1.00  0.00     0.000 A 
ENDBRANCH  88  90
ENDBRANCH  80  85
ENDBRANCH  75  77
ENDBRANCH  74  75
ENDBRANCH  73  74
ENDBRANCH  72  73
ENDBRANCH  71  72
ENDBRANCH   1  71
TORSDOF 19
ENDMDL
MODEL 3
REMARK VINA RESULT:     -11.4      1.984      8.739
REMARK SMILES O=C(OCCOCCOC(=O)[C@@H]1CN(c2nc(-c3ccccc3)no2)CC[NH2+]1)c1ccc(-c2c3nc(c(-c4cc(S(=O)(=O)[O-])ccc4F)c4ccc([nH]4)c(-c4cc(S(=O)(=O)[O-])ccc4F)c4nc(c(-c5cc(S(=O)(=O)[O-])ccc5F)c5ccc2[nH]5)C=C4)C=C3)cc1
REMARK SMILES IDX 5 1 4 2 3 3 2 4 1 5 29 6 30 7 91 8 31 9 90 10 32 11 33 12
REMARK SMILES IDX 34 13 84 14 35 15 89 16 83 17 85 18 36 19 88 20 82 21 81 22
REMARK SMILES IDX 37 24 69 25 49 26 68 27 50 28 53 29 67 30 86 31 51 32 52 33
REMARK SMILES IDX 66 35 87 36 54 37 38 38 39 39 47 40 40 41 46 42 48 43 45 44
REMARK SMILES IDX 41 45 42 46 43 47 44 48 70 49 71 50 79 51 72 52 78 53 80 54
REMARK SMILES IDX 77 55 73 56 74 57 75 58 76 59 55 60 56 61 64 62 57 63 63 64
REMARK SMILES IDX 65 65 62 66 58 67 59 68 60 69 61 70 6 71 7 72 8 73 9 74
REMARK SMILES IDX 10 75 11 76 12 77 13 78 28 79 14 80 27 81 26 84 15 85 16 86
REMARK SMILES IDX 25 87 17 88 24 89 18 90 19 91 23 92 20 93 22 94 21 95
REMARK H PARENT 85 23 53 34 28 82 28 83
REMARK Flexibility Score: inf
ROOT
ATOM      1  C   UNL A   1      30.625  31.204  25.164  1.00  0.00     0.202 C 
ENDROOT
BRANCH   1   2
ATOM      2  C   UNL A   1      31.526  30.459  26.166  1.00  0.00     0.261 C 
BRANCH   2   3
ATOM      3  O   UNL A   1      32.875  30.957  26.169  1.00  0.00    -0.460 OA
BRANCH   3   4
ATOM      4  C   UNL A   1      33.478  31.676  27.150  1.00  0.00     0.338 C 
ATOM      5  O   UNL A   1      32.975  32.742  27.499  1.00  0.00    -0.246 OA
BRANCH   4   6
ATOM      6  C   UNL A   1      34.750  31.243  27.802  1.00  0.00     0.060 A 
ATOM      7  C   UNL A   1      35.000  29.942  28.230  1.00  0.00     0.016 A 
ATOM      8  C   UNL A   1      35.783  32.181  27.935  1.00  0.00     0.016 A 
ATOM      9  C   UNL A   1      36.174  29.572  28.829  1.00  0.00     0.010 A 
ATOM     10  C   UNL A   1      37.000  31.817  28.523  1.00  0.00     0.010 A 
ATOM     11  C   UNL A   1      37.176  30.509  28.987  1.00  0.00    -0.014 A 
BRANCH  11  12
ATOM     12  C   UNL A   1      38.275  30.073  29.853  1.00  0.00     0.031 A 
ATOM     13  C   UNL A   1      39.373  29.289  29.209  1.00  0.00     0.074 A 
ATOM     14  C   UNL A   1      38.397  30.629  31.072  1.00  0.00     0.049 A 
ATOM     15  N   UNL A   1      40.467  28.814  29.730  1.00  0.00    -0.248 NA
ATOM     16  C   UNL A   1      39.225  29.026  27.766  1.00  0.00     0.031 C 
ATOM     17  C   UNL A   1      37.463  31.605  31.649  1.00  0.00     0.029 A 
ATOM     18  N   UNL A   1      39.382  30.518  32.009  1.00  0.00    -0.354 N 
ATOM     19  C   UNL A   1      41.113  28.152  28.693  1.00  0.00     0.074 A 
ATOM     20  C   UNL A   1      40.293  28.291  27.513  1.00  0.00     0.031 C 
ATOM     21  C   UNL A   1      37.941  32.022  32.831  1.00  0.00     0.029 A 
ATOM     22  C   UNL A   1      39.156  31.277  33.132  1.00  0.00     0.049 A 
ATOM     23  H   UNL A   1      40.176  29.948  31.892  1.00  0.00     0.167 HD
ATOM     24  C   UNL A   1      42.282  27.473  28.751  1.00  0.00     0.034 A 
ATOM     25  C   UNL A   1      39.844  31.316  34.287  1.00  0.00     0.034 A 
ATOM     26  C   UNL A   1      43.045  27.372  29.969  1.00  0.00     0.049 A 
ATOM     27  C   UNL A   1      41.062  30.431  34.377  1.00  0.00     0.074 A 
ATOM     28  C   UNL A   1      44.187  26.641  30.223  1.00  0.00     0.029 A 
ATOM     29  N   UNL A   1      42.720  28.034  31.153  1.00  0.00    -0.354 N 
ATOM     30  N   UNL A   1      41.607  29.680  33.443  1.00  0.00    -0.248 NA
ATOM     31  C   UNL A   1      41.749  30.386  35.668  1.00  0.00     0.031 C 
ATOM     32  C   UNL A   1      44.506  26.797  31.577  1.00  0.00     0.029 A 
ATOM     33  C   UNL A   1      43.623  27.704  32.148  1.00  0.00     0.049 A 
ATOM     34  H   UNL A   1      41.959  28.647  31.265  1.00  0.00     0.167 HD
ATOM     35  C   UNL A   1      42.724  29.097  34.027  1.00  0.00     0.074 A 
ATOM     36  C   UNL A   1      42.777  29.598  35.389  1.00  0.00     0.031 C 
ATOM     37  C   UNL A   1      43.629  28.232  33.495  1.00  0.00     0.034 A 
BRANCH  24  38
ATOM     38  C   UNL A   1      42.675  26.694  27.519  1.00  0.00     0.023 A 
ATOM     39  C   UNL A   1      42.200  25.395  27.263  1.00  0.00     0.031 A 
ATOM     40  C   UNL A   1      43.659  27.213  26.660  1.00  0.00     0.131 A 
ATOM     41  C   UNL A   1      42.788  24.625  26.246  1.00  0.00     0.055 A 
ATOM     42  C   UNL A   1      44.170  26.476  25.589  1.00  0.00     0.041 A 
ATOM     43  F   UNL A   1      44.183  28.430  26.876  1.00  0.00    -0.206 F 
ATOM     44  C   UNL A   1      43.750  25.166  25.390  1.00  0.00     0.022 A 
BRANCH  41  45
ATOM     45  S   UNL A   1      42.429  22.844  26.186  1.00  0.00     0.124 S 
ATOM     46  O   UNL A   1      42.866  22.501  24.834  1.00  0.00    -0.237 OA
ATOM     47  O   UNL A   1      43.247  22.320  27.272  1.00  0.00    -0.237 OA
ATOM     48  O   UNL A   1      40.986  22.776  26.401  1.00  0.00    -0.744 OA
ENDBRANCH  41  45
ENDBRANCH  24  38
BRANCH  25  49
ATOM     49  C   UNL A   1      39.367  32.130  35.442  1.00  0.00     0.023 A 
ATOM     50  C   UNL A   1      39.763  33.465  35.611  1.00  0.00     0.031 A 
ATOM     51  C   UNL A   1      38.540  31.563  36.433  1.00  0.00     0.131 A 
ATOM     52  C   UNL A   1      39.369  34.173  36.759  1.00  0.00     0.055 A 
ATOM     53  C   UNL A   1      38.102  32.289  37.541  1.00  0.00     0.041 A 
ATOM     54  F   UNL A   1      38.135  30.287  36.334  1.00  0.00    -0.206 F 
ATOM     55  C   UNL A   1      38.529  33.600  37.717  1.00  0.00     0.022 A 
BRANCH  52  56
ATOM     56  S   UNL A   1      40.051  35.832  37.034  1.00  0.00     0.124 S 
ATOM     57  O   UNL A   1      39.341  36.247  38.238  1.00  0.00    -0.237 OA
ATOM     58  O   UNL A   1      41.474  35.552  37.191  1.00  0.00    -0.237 OA
ATOM     59  O   UNL A   1      39.690  36.555  35.816  1.00  0.00    -0.744 OA
ENDBRANCH  52  56
ENDBRANCH  25  49
BRANCH  37  60
ATOM     60  C   UNL A   1      44.781  27.843  34.383  1.00  0.00     0.023 A 
ATOM     61  C   UNL A   1      44.715  26.735  35.243  1.00  0.00     0.031 A 
ATOM     62  C   UNL A   1      45.962  28.607  34.367  1.00  0.00     0.131 A 
ATOM     63  C   UNL A   1      45.784  26.465  36.108  1.00  0.00     0.055 A 
ATOM     64  C   UNL A   1      47.052  28.286  35.173  1.00  0.00     0.041 A 
ATOM     65  F   UNL A   1      46.073  29.678  33.564  1.00  0.00    -0.206 F 
ATOM     66  C   UNL A   1      46.960  27.219  36.062  1.00  0.00     0.022 A 
BRANCH  63  67
ATOM     67  S   UNL A   1      45.566  25.192  37.379  1.00  0.00     0.124 S 
ATOM     68  O   UNL A   1      44.148  24.877  37.251  1.00  0.00    -0.237 OA
ATOM     69  O   UNL A   1      46.492  24.153  36.940  1.00  0.00    -0.237 OA
ATOM     70  O   UNL A   1      45.942  25.876  38.615  1.00  0.00    -0.744 OA
ENDBRANCH  63  67
ENDBRANCH  37  60
ENDBRANCH  11  12
ENDBRANCH   4   6
ENDBRANCH   3   4
ENDBRANCH   2   3
ENDBRANCH   1   2
BRANCH   1  71
ATOM     71  O   UNL A   1      30.075  30.485  24.053  1.00  0.00    -0.374 OA
BRANCH  71  72
ATOM     72  C   UNL A   1      28.846  30.960  23.501  1.00  0.00     0.202 C 
BRANCH  72  73
ATOM     73  C   UNL A   1      28.329  29.998  22.439  1.00  0.00     0.261 C 
BRANCH  73  74
ATOM     74  O   UNL A   1      29.465  29.284  21.940  1.00  0.00    -0.459 OA
BRANCH  74  75
ATOM     75  C   UNL A   1      29.762  28.144  22.629  1.00  0.00     0.366 C 
ATOM     76  O   UNL A   1      28.946  27.422  23.194  1.00  0.00    -0.245 OA
BRANCH  75  77
ATOM     77  C   UNL A   1      31.259  27.905  22.626  1.00  0.00     0.313 C 
ATOM     78  C   UNL A   1      31.610  27.281  23.976  1.00  0.00     0.199 C 
ATOM     79  N   UNL A   1      32.034  29.173  22.435  1.00  0.00    -0.332 N 
ATOM     80  N   UNL A   1      33.049  27.028  24.061  1.00  0.00    -0.312 N 
ATOM     81  C   UNL A   1      33.472  28.867  22.434  1.00  0.00     0.283 C 
ATOM     82  H   UNL A   1      31.824  29.820  23.194  1.00  0.00     0.347 HD
ATOM     83  H   UNL A   1      31.776  29.601  21.545  1.00  0.00     0.347 HD
ATOM     84  C   UNL A   1      33.936  28.144  23.721  1.00  0.00     0.183 C 
BRANCH  80  85
ATOM     85  C   UNL A   1      33.430  25.770  23.781  1.00  0.00     0.324 A 
ATOM     86  N   UNL A   1      34.091  24.933  24.539  1.00  0.00    -0.171 NA
ATOM     87  O   UNL A   1      33.328  25.364  22.483  1.00  0.00    -0.315 OA
ATOM     88  C   UNL A   1      34.457  23.961  23.647  1.00  0.00     0.204 A 
ATOM     89  N   UNL A   1      34.041  24.168  22.388  1.00  0.00    -0.055 NA
BRANCH  88  90
ATOM     90  C   UNL A   1      35.220  22.799  24.043  1.00  0.00     0.023 A 
ATOM     91  C   UNL A   1      34.571  21.670  24.555  1.00  0.00     0.012 A 
ATOM     92  C   UNL A   1      36.615  22.823  23.957  1.00  0.00     0.012 A 
ATOM     93  C   UNL A   1      35.319  20.588  25.021  1.00  0.00     0.001 A 
ATOM     94  C   UNL A   1      37.361  21.747  24.437  1.00  0.00     0.001 A 
ATOM     95  C   UNL A   1      36.713  20.635  24.977  1.00  0.00     0.000 A 
ENDBRANCH  88  90
ENDBRANCH  80  85
ENDBRANCH  75  77
ENDBRANCH  74  75
ENDBRANCH  73  74
ENDBRANCH  72  73
ENDBRANCH  71  72
ENDBRANCH   1  71
TORSDOF 19
ENDMDL
