MODEL 1
REMARK VINA RESULT:     -13.3      0.000      0.000
REMARK SMILES O=C(OCCOCCOC(=O)c1ccc2c(c1)NC1=[NH+]S(=O)(=O)[NH+]=C1N2)c1ccc(-c2c3nc(c(-c4cc(S(=O)(=O)[O-])ccc4F)c4ccc([nH]4)c(-c4cc(S(=O)(=O)[O-])ccc4F)c4nc(c(-c5cc(S(=O)(=O)[O-])ccc5F)c5ccc2[nH]5)C=C4)C=C3)cc1
REMARK SMILES IDX 4 1 3 2 2 3 1 4 27 5 28 6 89 7 29 8 88 9 30 10 31 11 32 12
REMARK SMILES IDX 82 13 33 14 87 15 81 16 83 17 34 18 86 19 80 20 79 21 35 23
REMARK SMILES IDX 67 24 47 25 66 26 48 27 51 28 65 29 84 30 49 31 50 32 64 34
REMARK SMILES IDX 85 35 52 36 36 37 37 38 45 39 38 40 44 41 46 42 43 43 39 44
REMARK SMILES IDX 40 45 41 46 42 47 68 48 69 49 77 50 70 51 76 52 78 53 75 54
REMARK SMILES IDX 71 55 72 56 73 57 74 58 53 59 54 60 62 61 55 62 61 63 63 64
REMARK SMILES IDX 60 65 56 66 57 67 58 68 59 69 5 70 6 71 7 72 8 73 9 74 10 75
REMARK SMILES IDX 11 76 12 77 13 78 17 79 14 80 16 81 15 82 18 83 26 84 19 85
REMARK SMILES IDX 25 87 20 89 24 90 21 91 22 94 23 95
REMARK H PARENT 83 22 51 33 18 86 26 88 20 92 24 93
REMARK Flexibility Score: inf
ROOT
ATOM      1  C   UNL A   1      35.313  20.600  25.247  1.00  0.00     0.261 C 
ENDROOT
BRANCH   1   2
ATOM      2  O   UNL A   1      36.635  20.853  24.701  1.00  0.00    -0.460 OA
BRANCH   2   3
ATOM      3  C   UNL A   1      37.850  20.481  25.202  1.00  0.00     0.338 C 
ATOM      4  O   UNL A   1      38.151  19.294  25.276  1.00  0.00    -0.246 OA
BRANCH   3   5
ATOM      5  C   UNL A   1      38.781  21.508  25.734  1.00  0.00     0.060 A 
ATOM      6  C   UNL A   1      39.985  21.088  26.328  1.00  0.00     0.016 A 
ATOM      7  C   UNL A   1      38.423  22.851  25.772  1.00  0.00     0.016 A 
ATOM      8  C   UNL A   1      40.750  21.986  27.083  1.00  0.00     0.010 A 
ATOM      9  C   UNL A   1      39.132  23.713  26.598  1.00  0.00     0.010 A 
ATOM     10  C   UNL A   1      40.288  23.290  27.278  1.00  0.00    -0.014 A 
BRANCH  10  11
ATOM     11  C   UNL A   1      41.139  24.330  27.882  1.00  0.00     0.031 A 
ATOM     12  C   UNL A   1      40.383  25.582  28.093  1.00  0.00     0.074 A 
ATOM     13  C   UNL A   1      42.401  24.275  28.357  1.00  0.00     0.049 A 
ATOM     14  N   UNL A   1      40.559  26.671  27.419  1.00  0.00    -0.248 NA
ATOM     15  C   UNL A   1      39.214  25.591  28.978  1.00  0.00     0.031 C 
ATOM     16  C   UNL A   1      43.361  23.186  28.320  1.00  0.00     0.029 A 
ATOM     17  N   UNL A   1      43.079  25.207  29.097  1.00  0.00    -0.354 N 
ATOM     18  C   UNL A   1      39.627  27.562  27.918  1.00  0.00     0.074 A 
ATOM     19  C   UNL A   1      38.692  26.779  28.685  1.00  0.00     0.031 C 
ATOM     20  C   UNL A   1      44.327  23.355  29.249  1.00  0.00     0.029 A 
ATOM     21  C   UNL A   1      44.184  24.700  29.769  1.00  0.00     0.049 A 
ATOM     22  H   UNL A   1      42.807  26.152  29.148  1.00  0.00     0.167 HD
ATOM     23  C   UNL A   1      39.828  28.904  27.870  1.00  0.00     0.034 A 
ATOM     24  C   UNL A   1      45.068  25.346  30.563  1.00  0.00     0.034 A 
ATOM     25  C   UNL A   1      40.916  29.246  26.990  1.00  0.00     0.049 A 
ATOM     26  C   UNL A   1      45.058  26.763  30.156  1.00  0.00     0.074 A 
ATOM     27  C   UNL A   1      41.147  29.108  25.638  1.00  0.00     0.029 A 
ATOM     28  N   UNL A   1      42.142  29.465  27.572  1.00  0.00    -0.354 N 
ATOM     29  N   UNL A   1      45.543  27.189  29.024  1.00  0.00    -0.248 NA
ATOM     30  C   UNL A   1      44.148  27.673  30.829  1.00  0.00     0.031 C 
ATOM     31  C   UNL A   1      42.545  28.869  25.511  1.00  0.00     0.029 A 
ATOM     32  C   UNL A   1      43.118  28.906  26.785  1.00  0.00     0.049 A 
ATOM     33  H   UNL A   1      42.294  29.946  28.418  1.00  0.00     0.167 HD
ATOM     34  C   UNL A   1      44.638  28.152  28.614  1.00  0.00     0.074 A 
ATOM     35  C   UNL A   1      43.913  28.522  29.827  1.00  0.00     0.031 C 
ATOM     36  C   UNL A   1      44.367  28.353  27.290  1.00  0.00     0.034 A 
BRANCH  23  37
ATOM     37  C   UNL A   1      39.235  29.851  28.876  1.00  0.00     0.023 A 
ATOM     38  C   UNL A   1      38.066  30.594  28.621  1.00  0.00     0.031 A 
ATOM     39  C   UNL A   1      39.728  29.914  30.189  1.00  0.00     0.131 A 
ATOM     40  C   UNL A   1      37.487  31.420  29.585  1.00  0.00     0.055 A 
ATOM     41  C   UNL A   1      39.098  30.672  31.184  1.00  0.00     0.041 A 
ATOM     42  F   UNL A   1      40.807  29.207  30.555  1.00  0.00    -0.206 F 
ATOM     43  C   UNL A   1      37.981  31.446  30.882  1.00  0.00     0.022 A 
BRANCH  40  44
ATOM     44  S   UNL A   1      36.096  32.495  29.136  1.00  0.00     0.124 S 
ATOM     45  O   UNL A   1      35.830  32.081  27.763  1.00  0.00    -0.237 OA
ATOM     46  O   UNL A   1      35.091  32.108  30.123  1.00  0.00    -0.237 OA
ATOM     47  O   UNL A   1      36.635  33.842  29.303  1.00  0.00    -0.744 OA
ENDBRANCH  40  44
ENDBRANCH  23  37
BRANCH  24  48
ATOM     48  C   UNL A   1      45.560  24.891  31.882  1.00  0.00     0.023 A 
ATOM     49  C   UNL A   1      44.701  24.191  32.753  1.00  0.00     0.031 A 
ATOM     50  C   UNL A   1      46.762  25.386  32.414  1.00  0.00     0.131 A 
ATOM     51  C   UNL A   1      45.020  24.069  34.114  1.00  0.00     0.055 A 
ATOM     52  C   UNL A   1      47.085  25.248  33.769  1.00  0.00     0.041 A 
ATOM     53  F   UNL A   1      47.617  26.070  31.640  1.00  0.00    -0.206 F 
ATOM     54  C   UNL A   1      46.204  24.601  34.630  1.00  0.00     0.022 A 
BRANCH  51  55
ATOM     55  S   UNL A   1      43.866  23.261  35.260  1.00  0.00     0.124 S 
ATOM     56  O   UNL A   1      42.566  23.637  34.708  1.00  0.00    -0.237 OA
ATOM     57  O   UNL A   1      44.233  21.859  35.111  1.00  0.00    -0.237 OA
ATOM     58  O   UNL A   1      44.181  23.871  36.551  1.00  0.00    -0.744 OA
ENDBRANCH  51  55
ENDBRANCH  24  48
BRANCH  36  59
ATOM     59  C   UNL A   1      45.303  27.756  26.252  1.00  0.00     0.023 A 
ATOM     60  C   UNL A   1      45.150  26.388  25.957  1.00  0.00     0.031 A 
ATOM     61  C   UNL A   1      46.431  28.405  25.711  1.00  0.00     0.131 A 
ATOM     62  C   UNL A   1      46.116  25.707  25.205  1.00  0.00     0.055 A 
ATOM     63  C   UNL A   1      47.358  27.737  24.901  1.00  0.00     0.041 A 
ATOM     64  F   UNL A   1      46.718  29.677  26.007  1.00  0.00    -0.206 F 
ATOM     65  C   UNL A   1      47.213  26.377  24.659  1.00  0.00     0.022 A 
BRANCH  62  66
ATOM     66  S   UNL A   1      46.054  23.903  25.045  1.00  0.00     0.124 S 
ATOM     67  O   UNL A   1      46.659  23.461  26.298  1.00  0.00    -0.237 OA
ATOM     68  O   UNL A   1      44.619  23.653  24.921  1.00  0.00    -0.237 OA
ATOM     69  O   UNL A   1      46.835  23.627  23.843  1.00  0.00    -0.744 OA
ENDBRANCH  62  66
ENDBRANCH  36  59
ENDBRANCH  10  11
ENDBRANCH   3   5
ENDBRANCH   2   3
ENDBRANCH   1   2
BRANCH   1  70
ATOM     70  C   UNL A   1      34.143  21.404  24.663  1.00  0.00     0.202 C 
BRANCH  70  71
ATOM     71  O   UNL A   1      32.923  20.715  24.842  1.00  0.00    -0.374 OA
BRANCH  71  72
ATOM     72  C   UNL A   1      31.794  21.432  25.305  1.00  0.00     0.202 C 
BRANCH  72  73
ATOM     73  C   UNL A   1      32.088  22.874  25.713  1.00  0.00     0.261 C 
BRANCH  73  74
ATOM     74  O   UNL A   1      31.028  23.758  25.307  1.00  0.00    -0.460 OA
BRANCH  74  75
ATOM     75  C   UNL A   1      31.147  25.028  25.744  1.00  0.00     0.338 C 
ATOM     76  O   UNL A   1      31.308  25.389  26.901  1.00  0.00    -0.246 OA
BRANCH  75  77
ATOM     77  C   UNL A   1      31.215  25.990  24.648  1.00  0.00     0.064 A 
ATOM     78  C   UNL A   1      32.412  26.576  24.235  1.00  0.00     0.020 A 
ATOM     79  C   UNL A   1      29.986  26.391  24.117  1.00  0.00     0.072 A 
ATOM     80  C   UNL A   1      32.366  27.659  23.361  1.00  0.00     0.057 A 
ATOM     81  C   UNL A   1      29.929  27.489  23.278  1.00  0.00     0.173 A 
ATOM     82  C   UNL A   1      31.131  28.156  22.924  1.00  0.00     0.172 A 
ATOM     83  N   UNL A   1      28.677  28.038  22.949  1.00  0.00    -0.229 N 
ATOM     84  N   UNL A   1      31.066  29.383  22.240  1.00  0.00    -0.229 N 
ATOM     85  C   UNL A   1      28.583  29.290  22.422  1.00  0.00     0.383 C 
ATOM     86  H   UNL A   1      27.859  27.511  23.104  1.00  0.00     0.313 HD
ATOM     87  C   UNL A   1      29.867  30.011  22.041  1.00  0.00     0.383 C 
ATOM     88  H   UNL A   1      31.894  29.795  21.900  1.00  0.00     0.313 HD
ATOM     89  N   UNL A   1      27.533  30.000  22.210  1.00  0.00    -0.122 N 
ATOM     90  N   UNL A   1      29.654  31.192  21.577  1.00  0.00    -0.122 N 
ATOM     91  S   UNL A   1      28.040  31.444  21.646  1.00  0.00     0.469 S 
ATOM     92  H   UNL A   1      26.600  29.725  22.361  1.00  0.00     0.331 HD
ATOM     93  H   UNL A   1      30.333  31.821  21.244  1.00  0.00     0.331 HD
ATOM     94  O   UNL A   1      27.540  31.627  20.291  1.00  0.00    -0.143 OA
ATOM     95  O   UNL A   1      27.790  32.441  22.656  1.00  0.00    -0.143 OA
ENDBRANCH  75  77
ENDBRANCH  74  75
ENDBRANCH  73  74
ENDBRANCH  72  73
ENDBRANCH  71  72
ENDBRANCH  70  71
ENDBRANCH   1  70
TORSDOF 17
ENDMDL
MODEL 2
REMARK VINA RESULT:     -13.3      4.797      9.318
REMARK SMILES O=C(OCCOCCOC(=O)c1ccc2c(c1)NC1=[NH+]S(=O)(=O)[NH+]=C1N2)c1ccc(-c2c3nc(c(-c4cc(S(=O)(=O)[O-])ccc4F)c4ccc([nH]4)c(-c4cc(S(=O)(=O)[O-])ccc4F)c4nc(c(-c5cc(S(=O)(=O)[O-])ccc5F)c5ccc2[nH]5)C=C4)C=C3)cc1
REMARK SMILES IDX 4 1 3 2 2 3 1 4 27 5 28 6 89 7 29 8 88 9 30 10 31 11 32 12
REMARK SMILES IDX 82 13 33 14 87 15 81 16 83 17 34 18 86 19 80 20 79 21 35 23
REMARK SMILES IDX 67 24 47 25 66 26 48 27 51 28 65 29 84 30 49 31 50 32 64 34
REMARK SMILES IDX 85 35 52 36 36 37 37 38 45 39 38 40 44 41 46 42 43 43 39 44
REMARK SMILES IDX 40 45 41 46 42 47 68 48 69 49 77 50 70 51 76 52 78 53 75 54
REMARK SMILES IDX 71 55 72 56 73 57 74 58 53 59 54 60 62 61 55 62 61 63 63 64
REMARK SMILES IDX 60 65 56 66 57 67 58 68 59 69 5 70 6 71 7 72 8 73 9 74 10 75
REMARK SMILES IDX 11 76 12 77 13 78 17 79 14 80 16 81 15 82 18 83 26 84 19 85
REMARK SMILES IDX 25 87 20 89 24 90 21 91 22 94 23 95
REMARK H PARENT 83 22 51 33 18 86 26 88 20 92 24 93
REMARK Flexibility Score: inf
ROOT
ATOM      1  C   UNL A   1      38.888  21.113  25.923  1.00  0.00     0.261 C 
ENDROOT
BRANCH   1   2
ATOM      2  O   UNL A   1      40.048  21.978  25.798  1.00  0.00    -0.460 OA
BRANCH   2   3
ATOM      3  C   UNL A   1      40.952  22.335  26.757  1.00  0.00     0.338 C 
ATOM      4  O   UNL A   1      41.850  21.563  27.078  1.00  0.00    -0.246 OA
BRANCH   3   5
ATOM      5  C   UNL A   1      40.805  23.627  27.474  1.00  0.00     0.060 A 
ATOM      6  C   UNL A   1      39.684  24.431  27.197  1.00  0.00     0.016 A 
ATOM      7  C   UNL A   1      41.812  24.107  28.304  1.00  0.00     0.016 A 
ATOM      8  C   UNL A   1      39.647  25.762  27.631  1.00  0.00     0.010 A 
ATOM      9  C   UNL A   1      41.815  25.451  28.650  1.00  0.00     0.010 A 
ATOM     10  C   UNL A   1      40.748  26.299  28.303  1.00  0.00    -0.014 A 
BRANCH  10  11
ATOM     11  C   UNL A   1      40.688  27.616  28.960  1.00  0.00     0.031 A 
ATOM     12  C   UNL A   1      41.642  28.563  28.348  1.00  0.00     0.074 A 
ATOM     13  C   UNL A   1      39.851  28.096  29.905  1.00  0.00     0.049 A 
ATOM     14  N   UNL A   1      42.720  28.994  28.916  1.00  0.00    -0.248 NA
ATOM     15  C   UNL A   1      41.511  28.921  26.932  1.00  0.00     0.031 C 
ATOM     16  C   UNL A   1      38.807  27.418  30.653  1.00  0.00     0.029 A 
ATOM     17  N   UNL A   1      39.698  29.386  30.337  1.00  0.00    -0.354 N 
ATOM     18  C   UNL A   1      43.320  29.817  27.981  1.00  0.00     0.074 A 
ATOM     19  C   UNL A   1      42.669  29.543  26.726  1.00  0.00     0.031 C 
ATOM     20  C   UNL A   1      37.928  28.301  31.173  1.00  0.00     0.029 A 
ATOM     21  C   UNL A   1      38.501  29.621  31.003  1.00  0.00     0.049 A 
ATOM     22  H   UNL A   1      40.375  30.086  30.188  1.00  0.00     0.167 HD
ATOM     23  C   UNL A   1      44.136  30.838  28.352  1.00  0.00     0.034 A 
ATOM     24  C   UNL A   1      38.049  30.765  31.564  1.00  0.00     0.034 A 
ATOM     25  C   UNL A   1      44.519  30.734  29.736  1.00  0.00     0.049 A 
ATOM     26  C   UNL A   1      39.232  31.580  31.897  1.00  0.00     0.074 A 
ATOM     27  C   UNL A   1      45.239  29.819  30.475  1.00  0.00     0.029 A 
ATOM     28  N   UNL A   1      43.802  31.483  30.639  1.00  0.00    -0.354 N 
ATOM     29  N   UNL A   1      40.069  31.274  32.847  1.00  0.00    -0.248 NA
ATOM     30  C   UNL A   1      39.719  32.531  30.914  1.00  0.00     0.031 C 
ATOM     31  C   UNL A   1      44.632  29.805  31.763  1.00  0.00     0.029 A 
ATOM     32  C   UNL A   1      43.590  30.736  31.771  1.00  0.00     0.049 A 
ATOM     33  H   UNL A   1      43.491  32.406  30.495  1.00  0.00     0.167 HD
ATOM     34  C   UNL A   1      41.308  31.585  32.314  1.00  0.00     0.074 A 
ATOM     35  C   UNL A   1      41.019  32.501  31.213  1.00  0.00     0.031 C 
ATOM     36  C   UNL A   1      42.419  30.856  32.629  1.00  0.00     0.034 A 
BRANCH  23  37
ATOM     37  C   UNL A   1      44.304  32.083  27.527  1.00  0.00     0.023 A 
ATOM     38  C   UNL A   1      43.732  33.318  27.891  1.00  0.00     0.031 A 
ATOM     39  C   UNL A   1      45.186  32.115  26.435  1.00  0.00     0.131 A 
ATOM     40  C   UNL A   1      43.949  34.483  27.154  1.00  0.00     0.055 A 
ATOM     41  C   UNL A   1      45.475  33.300  25.747  1.00  0.00     0.041 A 
ATOM     42  F   UNL A   1      45.824  31.006  26.032  1.00  0.00    -0.206 F 
ATOM     43  C   UNL A   1      44.843  34.491  26.093  1.00  0.00     0.022 A 
BRANCH  40  44
ATOM     44  S   UNL A   1      43.033  35.995  27.564  1.00  0.00     0.124 S 
ATOM     45  O   UNL A   1      43.891  37.027  26.994  1.00  0.00    -0.237 OA
ATOM     46  O   UNL A   1      41.764  35.770  26.876  1.00  0.00    -0.237 OA
ATOM     47  O   UNL A   1      42.956  35.964  29.022  1.00  0.00    -0.744 OA
ENDBRANCH  40  44
ENDBRANCH  23  37
BRANCH  24  48
ATOM     48  C   UNL A   1      36.693  31.339  31.418  1.00  0.00     0.023 A 
ATOM     49  C   UNL A   1      36.145  31.543  30.136  1.00  0.00     0.031 A 
ATOM     50  C   UNL A   1      36.049  31.955  32.505  1.00  0.00     0.131 A 
ATOM     51  C   UNL A   1      35.043  32.394  29.964  1.00  0.00     0.055 A 
ATOM     52  C   UNL A   1      34.939  32.790  32.332  1.00  0.00     0.041 A 
ATOM     53  F   UNL A   1      36.527  31.807  33.749  1.00  0.00    -0.206 F 
ATOM     54  C   UNL A   1      34.441  33.027  31.054  1.00  0.00     0.022 A 
BRANCH  51  55
ATOM     55  S   UNL A   1      34.402  32.745  28.302  1.00  0.00     0.124 S 
ATOM     56  O   UNL A   1      33.437  33.811  28.560  1.00  0.00    -0.237 OA
ATOM     57  O   UNL A   1      35.613  33.147  27.597  1.00  0.00    -0.237 OA
ATOM     58  O   UNL A   1      33.812  31.474  27.885  1.00  0.00    -0.744 OA
ENDBRANCH  51  55
ENDBRANCH  24  48
BRANCH  36  59
ATOM     59  C   UNL A   1      42.364  29.915  33.822  1.00  0.00     0.023 A 
ATOM     60  C   UNL A   1      43.006  30.333  35.003  1.00  0.00     0.031 A 
ATOM     61  C   UNL A   1      41.899  28.586  33.782  1.00  0.00     0.131 A 
ATOM     62  C   UNL A   1      43.214  29.436  36.059  1.00  0.00     0.055 A 
ATOM     63  C   UNL A   1      42.046  27.712  34.867  1.00  0.00     0.041 A 
ATOM     64  F   UNL A   1      41.360  28.062  32.676  1.00  0.00    -0.206 F 
ATOM     65  C   UNL A   1      42.722  28.130  36.007  1.00  0.00     0.022 A 
BRANCH  62  66
ATOM     66  S   UNL A   1      44.261  29.897  37.465  1.00  0.00     0.124 S 
ATOM     67  O   UNL A   1      43.400  30.818  38.201  1.00  0.00    -0.237 OA
ATOM     68  O   UNL A   1      44.494  28.607  38.112  1.00  0.00    -0.237 OA
ATOM     69  O   UNL A   1      45.437  30.500  36.846  1.00  0.00    -0.744 OA
ENDBRANCH  62  66
ENDBRANCH  36  59
ENDBRANCH  10  11
ENDBRANCH   3   5
ENDBRANCH   2   3
ENDBRANCH   1   2
BRANCH   1  70
ATOM     70  C   UNL A   1      37.702  21.383  24.986  1.00  0.00     0.202 C 
BRANCH  70  71
ATOM     71  O   UNL A   1      36.918  22.456  25.465  1.00  0.00    -0.374 OA
BRANCH  71  72
ATOM     72  C   UNL A   1      36.718  23.582  24.632  1.00  0.00     0.202 C 
BRANCH  72  73
ATOM     73  C   UNL A   1      35.985  23.278  23.327  1.00  0.00     0.261 C 
BRANCH  73  74
ATOM     74  O   UNL A   1      34.812  24.098  23.183  1.00  0.00    -0.460 OA
BRANCH  74  75
ATOM     75  C   UNL A   1      33.721  23.456  22.718  1.00  0.00     0.338 C 
ATOM     76  O   UNL A   1      33.231  23.563  21.603  1.00  0.00    -0.246 OA
BRANCH  75  77
ATOM     77  C   UNL A   1      33.222  22.455  23.657  1.00  0.00     0.064 A 
ATOM     78  C   UNL A   1      33.165  22.677  25.033  1.00  0.00     0.020 A 
ATOM     79  C   UNL A   1      32.926  21.204  23.108  1.00  0.00     0.072 A 
ATOM     80  C   UNL A   1      32.918  21.600  25.880  1.00  0.00     0.057 A 
ATOM     81  C   UNL A   1      32.717  20.121  23.943  1.00  0.00     0.173 A 
ATOM     82  C   UNL A   1      32.749  20.314  25.349  1.00  0.00     0.172 A 
ATOM     83  N   UNL A   1      32.668  18.829  23.393  1.00  0.00    -0.229 N 
ATOM     84  N   UNL A   1      32.738  19.195  26.201  1.00  0.00    -0.229 N 
ATOM     85  C   UNL A   1      32.806  17.731  24.187  1.00  0.00     0.383 C 
ATOM     86  H   UNL A   1      32.536  18.717  22.424  1.00  0.00     0.313 HD
ATOM     87  C   UNL A   1      32.842  17.928  25.694  1.00  0.00     0.383 C 
ATOM     88  H   UNL A   1      32.654  19.325  27.175  1.00  0.00     0.313 HD
ATOM     89  N   UNL A   1      32.941  16.499  23.843  1.00  0.00    -0.122 N 
ATOM     90  N   UNL A   1      32.998  16.825  26.336  1.00  0.00    -0.122 N 
ATOM     91  S   UNL A   1      33.149  15.642  25.216  1.00  0.00     0.469 S 
ATOM     92  H   UNL A   1      32.924  16.142  22.926  1.00  0.00     0.331 HD
ATOM     93  H   UNL A   1      33.022  16.713  27.313  1.00  0.00     0.331 HD
ATOM     94  O   UNL A   1      32.040  14.713  25.370  1.00  0.00    -0.143 OA
ATOM     95  O   UNL A   1      34.509  15.167  25.254  1.00  0.00    -0.143 OA
ENDBRANCH  75  77
ENDBRANCH  74  75
ENDBRANCH  73  74
ENDBRANCH  72  73
ENDBRANCH  71  72
ENDBRANCH  70  71
ENDBRANCH   1  70
TORSDOF 17
ENDMDL
MODEL 3
REMARK VINA RESULT:     -13.3      4.957     10.623
REMARK SMILES O=C(OCCOCCOC(=O)c1ccc2c(c1)NC1=[NH+]S(=O)(=O)[NH+]=C1N2)c1ccc(-c2c3nc(c(-c4cc(S(=O)(=O)[O-])ccc4F)c4ccc([nH]4)c(-c4cc(S(=O)(=O)[O-])ccc4F)c4nc(c(-c5cc(S(=O)(=O)[O-])ccc5F)c5ccc2[nH]5)C=C4)C=C3)cc1
REMARK SMILES IDX 4 1 3 2 2 3 1 4 27 5 28 6 89 7 29 8 88 9 30 10 31 11 32 12
REMARK SMILES IDX 82 13 33 14 87 15 81 16 83 17 34 18 86 19 80 20 79 21 35 23
REMARK SMILES IDX 67 24 47 25 66 26 48 27 51 28 65 29 84 30 49 31 50 32 64 34
REMARK SMILES IDX 85 35 52 36 36 37 37 38 45 39 38 40 44 41 46 42 43 43 39 44
REMARK SMILES IDX 40 45 41 46 42 47 68 48 69 49 77 50 70 51 76 52 78 53 75 54
REMARK SMILES IDX 71 55 72 56 73 57 74 58 53 59 54 60 62 61 55 62 61 63 63 64
REMARK SMILES IDX 60 65 56 66 57 67 58 68 59 69 5 70 6 71 7 72 8 73 9 74 10 75
REMARK SMILES IDX 11 76 12 77 13 78 17 79 14 80 16 81 15 82 18 83 26 84 19 85
REMARK SMILES IDX 25 87 20 89 24 90 21 91 22 94 23 95
REMARK H PARENT 83 22 51 33 18 86 26 88 20 92 24 93
REMARK Flexibility Score: inf
ROOT
ATOM      1  C   UNL A   1      31.383  30.149  25.112  1.00  0.00     0.261 C 
ENDROOT
BRANCH   1   2
ATOM      2  O   UNL A   1      31.377  30.766  26.427  1.00  0.00    -0.460 OA
BRANCH   2   3
ATOM      3  C   UNL A   1      32.012  31.902  26.838  1.00  0.00     0.338 C 
ATOM      4  O   UNL A   1      31.563  33.005  26.541  1.00  0.00    -0.246 OA
BRANCH   3   5
ATOM      5  C   UNL A   1      33.295  31.810  27.580  1.00  0.00     0.060 A 
ATOM      6  C   UNL A   1      33.908  32.996  28.024  1.00  0.00     0.016 A 
ATOM      7  C   UNL A   1      33.956  30.595  27.725  1.00  0.00     0.016 A 
ATOM      8  C   UNL A   1      35.234  32.979  28.473  1.00  0.00     0.010 A 
ATOM      9  C   UNL A   1      35.298  30.596  28.080  1.00  0.00     0.010 A 
ATOM     10  C   UNL A   1      35.959  31.785  28.437  1.00  0.00    -0.014 A 
BRANCH  10  11
ATOM     11  C   UNL A   1      37.277  31.660  29.082  1.00  0.00     0.031 A 
ATOM     12  C   UNL A   1      37.901  30.357  28.775  1.00  0.00     0.074 A 
ATOM     13  C   UNL A   1      38.013  32.557  29.773  1.00  0.00     0.049 A 
ATOM     14  N   UNL A   1      38.058  29.396  29.625  1.00  0.00    -0.248 NA
ATOM     15  C   UNL A   1      38.205  30.001  27.385  1.00  0.00     0.031 C 
ATOM     16  C   UNL A   1      37.679  33.906  30.193  1.00  0.00     0.029 A 
ATOM     17  N   UNL A   1      39.318  32.464  30.176  1.00  0.00    -0.354 N 
ATOM     18  C   UNL A   1      38.641  28.368  28.909  1.00  0.00     0.074 A 
ATOM     19  C   UNL A   1      38.484  28.706  27.518  1.00  0.00     0.031 C 
ATOM     20  C   UNL A   1      38.791  34.619  30.473  1.00  0.00     0.029 A 
ATOM     21  C   UNL A   1      39.899  33.686  30.496  1.00  0.00     0.049 A 
ATOM     22  H   UNL A   1      39.802  31.609  30.234  1.00  0.00     0.167 HD
ATOM     23  C   UNL A   1      39.425  27.436  29.511  1.00  0.00     0.034 A 
ATOM     24  C   UNL A   1      41.150  33.945  30.937  1.00  0.00     0.034 A 
ATOM     25  C   UNL A   1      39.296  27.481  30.945  1.00  0.00     0.049 A 
ATOM     26  C   UNL A   1      41.636  32.720  31.599  1.00  0.00     0.074 A 
ATOM     27  C   UNL A   1      38.263  27.263  31.831  1.00  0.00     0.029 A 
ATOM     28  N   UNL A   1      40.256  28.184  31.634  1.00  0.00    -0.354 N 
ATOM     29  N   UNL A   1      41.169  32.283  32.734  1.00  0.00    -0.248 NA
ATOM     30  C   UNL A   1      42.369  31.747  30.808  1.00  0.00     0.031 C 
ATOM     31  C   UNL A   1      38.480  28.174  32.903  1.00  0.00     0.029 A 
ATOM     32  C   UNL A   1      39.654  28.886  32.648  1.00  0.00     0.049 A 
ATOM     33  H   UNL A   1      41.220  28.182  31.432  1.00  0.00     0.167 HD
ATOM     34  C   UNL A   1      41.110  30.911  32.567  1.00  0.00     0.074 A 
ATOM     35  C   UNL A   1      42.009  30.634  31.450  1.00  0.00     0.031 C 
ATOM     36  C   UNL A   1      40.128  30.166  33.157  1.00  0.00     0.034 A 
BRANCH  23  37
ATOM     37  C   UNL A   1      40.534  26.721  28.791  1.00  0.00     0.023 A 
ATOM     38  C   UNL A   1      40.395  25.410  28.294  1.00  0.00     0.031 A 
ATOM     39  C   UNL A   1      41.714  27.391  28.431  1.00  0.00     0.131 A 
ATOM     40  C   UNL A   1      41.408  24.780  27.570  1.00  0.00     0.055 A 
ATOM     41  C   UNL A   1      42.695  26.793  27.630  1.00  0.00     0.041 A 
ATOM     42  F   UNL A   1      41.929  28.660  28.810  1.00  0.00    -0.206 F 
ATOM     43  C   UNL A   1      42.554  25.474  27.208  1.00  0.00     0.022 A 
BRANCH  40  44
ATOM     44  S   UNL A   1      41.242  23.030  27.121  1.00  0.00     0.124 S 
ATOM     45  O   UNL A   1      39.818  22.930  26.827  1.00  0.00    -0.237 OA
ATOM     46  O   UNL A   1      42.138  22.931  25.972  1.00  0.00    -0.237 OA
ATOM     47  O   UNL A   1      41.697  22.325  28.317  1.00  0.00    -0.744 OA
ENDBRANCH  40  44
ENDBRANCH  23  37
BRANCH  24  48
ATOM     48  C   UNL A   1      42.056  35.003  30.440  1.00  0.00     0.023 A 
ATOM     49  C   UNL A   1      42.193  35.224  29.055  1.00  0.00     0.031 A 
ATOM     50  C   UNL A   1      43.003  35.601  31.290  1.00  0.00     0.131 A 
ATOM     51  C   UNL A   1      43.284  35.954  28.560  1.00  0.00     0.055 A 
ATOM     52  C   UNL A   1      44.080  36.343  30.793  1.00  0.00     0.041 A 
ATOM     53  F   UNL A   1      42.934  35.421  32.617  1.00  0.00    -0.206 F 
ATOM     54  C   UNL A   1      44.235  36.508  29.420  1.00  0.00     0.022 A 
BRANCH  51  55
ATOM     55  S   UNL A   1      43.523  36.149  26.770  1.00  0.00     0.124 S 
ATOM     56  O   UNL A   1      42.398  35.395  26.222  1.00  0.00    -0.237 OA
ATOM     57  O   UNL A   1      43.447  37.596  26.617  1.00  0.00    -0.237 OA
ATOM     58  O   UNL A   1      44.835  35.549  26.532  1.00  0.00    -0.744 OA
ENDBRANCH  51  55
ENDBRANCH  24  48
BRANCH  36  59
ATOM     59  C   UNL A   1      39.301  30.793  34.267  1.00  0.00     0.023 A 
ATOM     60  C   UNL A   1      38.239  31.634  33.885  1.00  0.00     0.031 A 
ATOM     61  C   UNL A   1      39.630  30.760  35.637  1.00  0.00     0.131 A 
ATOM     62  C   UNL A   1      37.587  32.437  34.830  1.00  0.00     0.055 A 
ATOM     63  C   UNL A   1      38.930  31.512  36.590  1.00  0.00     0.041 A 
ATOM     64  F   UNL A   1      40.680  30.068  36.092  1.00  0.00    -0.206 F 
ATOM     65  C   UNL A   1      37.914  32.370  36.186  1.00  0.00     0.022 A 
BRANCH  62  66
ATOM     66  S   UNL A   1      36.402  33.702  34.302  1.00  0.00     0.124 S 
ATOM     67  O   UNL A   1      35.541  33.826  35.474  1.00  0.00    -0.237 OA
ATOM     68  O   UNL A   1      37.270  34.849  34.040  1.00  0.00    -0.237 OA
ATOM     69  O   UNL A   1      35.770  33.123  33.120  1.00  0.00    -0.744 OA
ENDBRANCH  62  66
ENDBRANCH  36  59
ENDBRANCH  10  11
ENDBRANCH   3   5
ENDBRANCH   2   3
ENDBRANCH   1   2
BRANCH   1  70
ATOM     70  C   UNL A   1      31.697  28.648  25.037  1.00  0.00     0.202 C 
BRANCH  70  71
ATOM     71  O   UNL A   1      33.072  28.435  24.795  1.00  0.00    -0.374 OA
BRANCH  71  72
ATOM     72  C   UNL A   1      33.579  27.115  24.852  1.00  0.00     0.202 C 
BRANCH  72  73
ATOM     73  C   UNL A   1      33.467  26.339  23.541  1.00  0.00     0.261 C 
BRANCH  73  74
ATOM     74  O   UNL A   1      34.096  25.049  23.642  1.00  0.00    -0.460 OA
BRANCH  74  75
ATOM     75  C   UNL A   1      33.432  24.042  23.040  1.00  0.00     0.338 C 
ATOM     76  O   UNL A   1      33.221  23.921  21.841  1.00  0.00    -0.246 OA
BRANCH  75  77
ATOM     77  C   UNL A   1      33.086  22.970  23.968  1.00  0.00     0.064 A 
ATOM     78  C   UNL A   1      33.268  23.080  25.346  1.00  0.00     0.020 A 
ATOM     79  C   UNL A   1      32.680  21.768  23.381  1.00  0.00     0.072 A 
ATOM     80  C   UNL A   1      33.153  21.939  26.136  1.00  0.00     0.057 A 
ATOM     81  C   UNL A   1      32.600  20.622  24.152  1.00  0.00     0.173 A 
ATOM     82  C   UNL A   1      32.876  20.700  25.542  1.00  0.00     0.172 A 
ATOM     83  N   UNL A   1      32.438  19.378  23.518  1.00  0.00    -0.229 N 
ATOM     84  N   UNL A   1      32.993  19.516  26.291  1.00  0.00    -0.229 N 
ATOM     85  C   UNL A   1      32.692  18.219  24.186  1.00  0.00     0.383 C 
ATOM     86  H   UNL A   1      32.139  19.345  22.580  1.00  0.00     0.313 HD
ATOM     87  C   UNL A   1      32.989  18.295  25.676  1.00  0.00     0.383 C 
ATOM     88  H   UNL A   1      33.079  19.567  27.272  1.00  0.00     0.313 HD
ATOM     89  N   UNL A   1      32.747  17.019  23.728  1.00  0.00    -0.122 N 
ATOM     90  N   UNL A   1      33.235  17.142  26.192  1.00  0.00    -0.122 N 
ATOM     91  S   UNL A   1      33.173  16.054  24.972  1.00  0.00     0.469 S 
ATOM     92  H   UNL A   1      32.567  16.737  22.803  1.00  0.00     0.331 HD
ATOM     93  H   UNL A   1      33.424  16.953  27.138  1.00  0.00     0.331 HD
ATOM     94  O   UNL A   1      32.092  15.117  25.241  1.00  0.00    -0.143 OA
ATOM     95  O   UNL A   1      34.512  15.574  24.738  1.00  0.00    -0.143 OA
ENDBRANCH  75  77
ENDBRANCH  74  75
ENDBRANCH  73  74
ENDBRANCH  72  73
ENDBRANCH  71  72
ENDBRANCH  70  71
ENDBRANCH   1  70
TORSDOF 17
ENDMDL
