MODEL 1
REMARK VINA RESULT:     -11.0      0.000      0.000
REMARK SMILES N#C/C(=C/c1ccc(-c2cccc(C(=O)OCCOCCOC(=O)c3ccc(-c4c5nc(c(-c6cc(S(=O)(=O)[O-])ccc6F)c6ccc([nH]6)c(-c6cc(S(=O)(=O)[O-])ccc6F)c6nc(c(-c7cc(S(=O)(=O)[O-])ccc7F)c7ccc4[nH]7)C=C6)C=C5)cc3)c2)o1)c1ccc(F)cc1
REMARK SMILES IDX 19 1 18 2 17 3 16 4 14 5 15 6 13 7 9 8 10 9 88 10 11 11
REMARK SMILES IDX 12 12 8 13 5 14 6 15 89 16 7 17 4 18 3 19 2 20 1 21 90 22
REMARK SMILES IDX 91 23 96 24 92 25 95 26 93 27 94 28 20 29 21 30 22 31 23 32
REMARK SMILES IDX 24 33 25 34 26 35 87 36 27 37 86 38 28 39 29 40 30 41 80 42
REMARK SMILES IDX 31 43 85 44 79 45 81 46 32 47 84 48 78 49 77 50 33 52 65 53
REMARK SMILES IDX 45 54 64 55 46 56 49 57 63 58 82 59 47 60 48 61 62 63 83 64
REMARK SMILES IDX 50 65 34 66 35 67 43 68 36 69 42 70 44 71 41 72 37 73 38 74
REMARK SMILES IDX 39 75 40 76 66 77 67 78 75 79 68 80 74 81 76 82 73 83 69 84
REMARK SMILES IDX 70 85 71 86 72 87 51 88 52 89 60 90 53 91 59 92 61 93 58 94
REMARK SMILES IDX 54 95 55 96 56 97 57 98
REMARK H PARENT 81 51 49 62
REMARK Flexibility Score: inf
ROOT
ATOM      1  O   UNL A   1      34.991  34.192  28.117  1.00  0.00    -0.374 OA
ENDROOT
BRANCH   1   2
ATOM      2  C   UNL A   1      35.373  32.823  27.980  1.00  0.00     0.202 C 
BRANCH   2   3
ATOM      3  C   UNL A   1      34.359  31.780  28.463  1.00  0.00     0.261 C 
BRANCH   3   4
ATOM      4  O   UNL A   1      33.564  31.279  27.374  1.00  0.00    -0.460 OA
BRANCH   4   5
ATOM      5  C   UNL A   1      33.792  29.993  27.018  1.00  0.00     0.338 C 
ATOM      6  O   UNL A   1      34.536  29.195  27.572  1.00  0.00    -0.246 OA
BRANCH   5   7
ATOM      7  C   UNL A   1      32.856  29.608  25.935  1.00  0.00     0.060 A 
ATOM      8  C   UNL A   1      32.204  28.181  24.066  1.00  0.00     0.018 A 
ATOM      9  C   UNL A   1      31.083  28.997  23.862  1.00  0.00     0.012 A 
ATOM     10  C   UNL A   1      33.099  28.510  25.101  1.00  0.00     0.027 A 
ATOM     11  C   UNL A   1      30.843  30.099  24.690  1.00  0.00     0.002 A 
ATOM     12  C   UNL A   1      31.720  30.398  25.731  1.00  0.00     0.016 A 
BRANCH   8  13
ATOM     13  C   UNL A   1      32.431  26.966  23.291  1.00  0.00     0.134 A 
ATOM     14  C   UNL A   1      32.305  24.774  22.899  1.00  0.00     0.128 A 
ATOM     15  C   UNL A   1      32.977  25.370  21.834  1.00  0.00     0.051 A 
ATOM     16  O   UNL A   1      31.952  25.780  23.781  1.00  0.00    -0.457 OA
ATOM     17  C   UNL A   1      33.081  26.747  22.099  1.00  0.00     0.051 A 
BRANCH  14  18
ATOM     18  C   UNL A   1      32.037  23.384  23.105  1.00  0.00     0.067 C 
ATOM     19  C   UNL A   1      32.956  22.542  23.634  1.00  0.00     0.063 C 
BRANCH  19  20
ATOM     20  C   UNL A   1      32.695  21.044  23.637  1.00  0.00     0.100 C 
ATOM     21  N   UNL A   1      32.479  19.802  23.639  1.00  0.00    -0.192 NA
ENDBRANCH  19  20
BRANCH  19  22
ATOM     22  C   UNL A   1      34.265  23.004  24.172  1.00  0.00    -0.007 A 
ATOM     23  C   UNL A   1      35.431  22.935  23.383  1.00  0.00     0.012 A 
ATOM     24  C   UNL A   1      34.378  23.450  25.500  1.00  0.00     0.012 A 
ATOM     25  C   UNL A   1      36.683  23.222  23.928  1.00  0.00     0.040 A 
ATOM     26  C   UNL A   1      35.632  23.758  26.038  1.00  0.00     0.040 A 
ATOM     27  C   UNL A   1      36.772  23.624  25.254  1.00  0.00     0.123 A 
ATOM     28  F   UNL A   1      37.975  23.877  25.785  1.00  0.00    -0.207 F 
ENDBRANCH  19  22
ENDBRANCH  14  18
ENDBRANCH   8  13
ENDBRANCH   5   7
ENDBRANCH   4   5
ENDBRANCH   3   4
ENDBRANCH   2   3
ENDBRANCH   1   2
BRANCH   1  29
ATOM     29  C   UNL A   1      33.594  34.480  28.171  1.00  0.00     0.202 C 
BRANCH  29  30
ATOM     30  C   UNL A   1      33.132  35.537  29.183  1.00  0.00     0.261 C 
BRANCH  30  31
ATOM     31  O   UNL A   1      32.688  34.959  30.422  1.00  0.00    -0.460 OA
BRANCH  31  32
ATOM     32  C   UNL A   1      32.983  35.686  31.527  1.00  0.00     0.338 C 
ATOM     33  O   UNL A   1      32.381  36.666  31.943  1.00  0.00    -0.246 OA
BRANCH  32  34
ATOM     34  C   UNL A   1      34.056  35.022  32.288  1.00  0.00     0.060 A 
ATOM     35  C   UNL A   1      35.359  35.526  32.167  1.00  0.00     0.016 A 
ATOM     36  C   UNL A   1      33.805  33.881  33.053  1.00  0.00     0.016 A 
ATOM     37  C   UNL A   1      36.425  34.863  32.772  1.00  0.00     0.010 A 
ATOM     38  C   UNL A   1      34.878  33.212  33.650  1.00  0.00     0.010 A 
ATOM     39  C   UNL A   1      36.196  33.679  33.485  1.00  0.00    -0.014 A 
BRANCH  39  40
ATOM     40  C   UNL A   1      37.331  32.823  33.912  1.00  0.00     0.031 A 
ATOM     41  C   UNL A   1      38.049  33.174  35.188  1.00  0.00     0.074 A 
ATOM     42  C   UNL A   1      37.723  31.763  33.181  1.00  0.00     0.049 A 
ATOM     43  N   UNL A   1      39.160  32.691  35.676  1.00  0.00    -0.248 NA
ATOM     44  C   UNL A   1      37.428  34.219  36.018  1.00  0.00     0.031 C 
ATOM     45  C   UNL A   1      37.062  31.280  31.970  1.00  0.00     0.029 A 
ATOM     46  N   UNL A   1      38.788  30.912  33.344  1.00  0.00    -0.354 N 
ATOM     47  C   UNL A   1      39.378  33.377  36.867  1.00  0.00     0.074 A 
ATOM     48  C   UNL A   1      38.301  34.334  37.006  1.00  0.00     0.031 C 
ATOM     49  C   UNL A   1      37.751  30.231  31.488  1.00  0.00     0.029 A 
ATOM     50  C   UNL A   1      38.930  30.003  32.321  1.00  0.00     0.049 A 
ATOM     51  H   UNL A   1      39.393  30.949  34.120  1.00  0.00     0.167 HD
ATOM     52  C   UNL A   1      40.380  33.216  37.765  1.00  0.00     0.034 A 
ATOM     53  C   UNL A   1      39.921  29.122  32.067  1.00  0.00     0.034 A 
ATOM     54  C   UNL A   1      41.450  32.264  37.607  1.00  0.00     0.049 A 
ATOM     55  C   UNL A   1      41.092  29.041  33.024  1.00  0.00     0.074 A 
ATOM     56  C   UNL A   1      42.532  32.035  38.440  1.00  0.00     0.029 A 
ATOM     57  N   UNL A   1      41.574  31.379  36.544  1.00  0.00    -0.354 N 
ATOM     58  N   UNL A   1      41.306  29.720  34.129  1.00  0.00    -0.248 NA
ATOM     59  C   UNL A   1      42.151  28.073  32.706  1.00  0.00     0.031 C 
ATOM     60  C   UNL A   1      43.341  31.060  37.851  1.00  0.00     0.029 A 
ATOM     61  C   UNL A   1      42.721  30.617  36.693  1.00  0.00     0.049 A 
ATOM     62  H   UNL A   1      40.940  31.304  35.794  1.00  0.00     0.167 HD
ATOM     63  C   UNL A   1      42.492  29.215  34.661  1.00  0.00     0.074 A 
ATOM     64  C   UNL A   1      42.947  28.181  33.759  1.00  0.00     0.031 C 
ATOM     65  C   UNL A   1      43.143  29.567  35.799  1.00  0.00     0.034 A 
BRANCH  52  66
ATOM     66  C   UNL A   1      40.385  34.114  38.976  1.00  0.00     0.023 A 
ATOM     67  C   UNL A   1      39.696  33.769  40.151  1.00  0.00     0.031 A 
ATOM     68  C   UNL A   1      41.091  35.329  38.957  1.00  0.00     0.131 A 
ATOM     69  C   UNL A   1      39.685  34.652  41.240  1.00  0.00     0.055 A 
ATOM     70  C   UNL A   1      41.139  36.169  40.070  1.00  0.00     0.041 A 
ATOM     71  F   UNL A   1      41.746  35.721  37.853  1.00  0.00    -0.206 F 
ATOM     72  C   UNL A   1      40.425  35.838  41.218  1.00  0.00     0.022 A 
BRANCH  69  73
ATOM     73  S   UNL A   1      38.600  34.285  42.644  1.00  0.00     0.124 S 
ATOM     74  O   UNL A   1      39.483  34.552  43.777  1.00  0.00    -0.237 OA
ATOM     75  O   UNL A   1      37.504  35.228  42.452  1.00  0.00    -0.237 OA
ATOM     76  O   UNL A   1      38.252  32.878  42.451  1.00  0.00    -0.744 OA
ENDBRANCH  69  73
ENDBRANCH  52  66
BRANCH  53  77
ATOM     77  C   UNL A   1      39.901  28.275  30.836  1.00  0.00     0.023 A 
ATOM     78  C   UNL A   1      40.672  28.618  29.714  1.00  0.00     0.031 A 
ATOM     79  C   UNL A   1      39.032  27.176  30.723  1.00  0.00     0.131 A 
ATOM     80  C   UNL A   1      40.497  27.925  28.506  1.00  0.00     0.055 A 
ATOM     81  C   UNL A   1      38.918  26.441  29.541  1.00  0.00     0.041 A 
ATOM     82  F   UNL A   1      38.265  26.802  31.761  1.00  0.00    -0.206 F 
ATOM     83  C   UNL A   1      39.638  26.829  28.416  1.00  0.00     0.022 A 
BRANCH  80  84
ATOM     84  S   UNL A   1      41.299  28.575  27.014  1.00  0.00     0.124 S 
ATOM     85  O   UNL A   1      40.164  29.140  26.294  1.00  0.00    -0.237 OA
ATOM     86  O   UNL A   1      42.247  29.533  27.575  1.00  0.00    -0.237 OA
ATOM     87  O   UNL A   1      41.899  27.389  26.408  1.00  0.00    -0.744 OA
ENDBRANCH  80  84
ENDBRANCH  53  77
BRANCH  65  88
ATOM     88  C   UNL A   1      44.359  28.761  36.188  1.00  0.00     0.023 A 
ATOM     89  C   UNL A   1      44.274  27.612  36.990  1.00  0.00     0.031 A 
ATOM     90  C   UNL A   1      45.627  29.149  35.716  1.00  0.00     0.131 A 
ATOM     91  C   UNL A   1      45.442  26.913  37.332  1.00  0.00     0.055 A 
ATOM     92  C   UNL A   1      46.778  28.416  36.011  1.00  0.00     0.041 A 
ATOM     93  F   UNL A   1      45.766  30.240  34.946  1.00  0.00    -0.206 F 
ATOM     94  C   UNL A   1      46.690  27.296  36.832  1.00  0.00     0.022 A 
BRANCH  91  95
ATOM     95  S   UNL A   1      45.323  25.527  38.497  1.00  0.00     0.124 S 
ATOM     96  O   UNL A   1      44.540  24.559  37.737  1.00  0.00    -0.237 OA
ATOM     97  O   UNL A   1      46.724  25.182  38.717  1.00  0.00    -0.237 OA
ATOM     98  O   UNL A   1      44.641  26.108  39.652  1.00  0.00    -0.744 OA
ENDBRANCH  91  95
ENDBRANCH  65  88
ENDBRANCH  39  40
ENDBRANCH  32  34
ENDBRANCH  31  32
ENDBRANCH  30  31
ENDBRANCH  29  30
ENDBRANCH   1  29
TORSDOF 21
ENDMDL
MODEL 2
REMARK VINA RESULT:     -10.5      2.510      3.384
REMARK SMILES N#C/C(=C/c1ccc(-c2cccc(C(=O)OCCOCCOC(=O)c3ccc(-c4c5nc(c(-c6cc(S(=O)(=O)[O-])ccc6F)c6ccc([nH]6)c(-c6cc(S(=O)(=O)[O-])ccc6F)c6nc(c(-c7cc(S(=O)(=O)[O-])ccc7F)c7ccc4[nH]7)C=C6)C=C5)cc3)c2)o1)c1ccc(F)cc1
REMARK SMILES IDX 19 1 18 2 17 3 16 4 14 5 15 6 13 7 9 8 10 9 88 10 11 11
REMARK SMILES IDX 12 12 8 13 5 14 6 15 89 16 7 17 4 18 3 19 2 20 1 21 90 22
REMARK SMILES IDX 91 23 96 24 92 25 95 26 93 27 94 28 20 29 21 30 22 31 23 32
REMARK SMILES IDX 24 33 25 34 26 35 87 36 27 37 86 38 28 39 29 40 30 41 80 42
REMARK SMILES IDX 31 43 85 44 79 45 81 46 32 47 84 48 78 49 77 50 33 52 65 53
REMARK SMILES IDX 45 54 64 55 46 56 49 57 63 58 82 59 47 60 48 61 62 63 83 64
REMARK SMILES IDX 50 65 34 66 35 67 43 68 36 69 42 70 44 71 41 72 37 73 38 74
REMARK SMILES IDX 39 75 40 76 66 77 67 78 75 79 68 80 74 81 76 82 73 83 69 84
REMARK SMILES IDX 70 85 71 86 72 87 51 88 52 89 60 90 53 91 59 92 61 93 58 94
REMARK SMILES IDX 54 95 55 96 56 97 57 98
REMARK H PARENT 81 51 49 62
REMARK Flexibility Score: inf
ROOT
ATOM      1  O   UNL A   1      33.244  32.191  28.103  1.00  0.00    -0.374 OA
ENDROOT
BRANCH   1   2
ATOM      2  C   UNL A   1      33.420  31.070  27.235  1.00  0.00     0.202 C 
BRANCH   2   3
ATOM      3  C   UNL A   1      32.196  30.172  27.026  1.00  0.00     0.261 C 
BRANCH   3   4
ATOM      4  O   UNL A   1      31.701  30.267  25.679  1.00  0.00    -0.460 OA
BRANCH   4   5
ATOM      5  C   UNL A   1      32.276  29.438  24.777  1.00  0.00     0.338 C 
ATOM      6  O   UNL A   1      33.389  29.546  24.280  1.00  0.00    -0.246 OA
BRANCH   5   7
ATOM      7  C   UNL A   1      31.422  28.240  24.593  1.00  0.00     0.060 A 
ATOM      8  C   UNL A   1      30.965  25.862  24.885  1.00  0.00     0.018 A 
ATOM      9  C   UNL A   1      29.794  26.016  24.131  1.00  0.00     0.012 A 
ATOM     10  C   UNL A   1      31.785  26.986  25.094  1.00  0.00     0.027 A 
ATOM     11  C   UNL A   1      29.432  27.268  23.622  1.00  0.00     0.002 A 
ATOM     12  C   UNL A   1      30.238  28.381  23.862  1.00  0.00     0.016 A 
BRANCH   8  13
ATOM     13  C   UNL A   1      31.320  24.596  25.517  1.00  0.00     0.134 A 
ATOM     14  C   UNL A   1      31.749  22.407  25.542  1.00  0.00     0.128 A 
ATOM     15  C   UNL A   1      31.868  22.890  26.843  1.00  0.00     0.051 A 
ATOM     16  O   UNL A   1      31.433  23.481  24.729  1.00  0.00    -0.457 OA
ATOM     17  C   UNL A   1      31.567  24.264  26.829  1.00  0.00     0.051 A 
BRANCH  14  18
ATOM     18  C   UNL A   1      31.882  21.057  25.086  1.00  0.00     0.067 C 
ATOM     19  C   UNL A   1      33.047  20.572  24.597  1.00  0.00     0.063 C 
BRANCH  19  20
ATOM     20  C   UNL A   1      33.077  19.203  23.936  1.00  0.00     0.100 C 
ATOM     21  N   UNL A   1      33.102  18.068  23.388  1.00  0.00    -0.192 NA
ENDBRANCH  19  20
BRANCH  19  22
ATOM     22  C   UNL A   1      34.320  21.345  24.616  1.00  0.00    -0.007 A 
ATOM     23  C   UNL A   1      35.362  20.992  25.497  1.00  0.00     0.012 A 
ATOM     24  C   UNL A   1      34.479  22.483  23.808  1.00  0.00     0.012 A 
ATOM     25  C   UNL A   1      36.492  21.800  25.628  1.00  0.00     0.040 A 
ATOM     26  C   UNL A   1      35.623  23.279  23.926  1.00  0.00     0.040 A 
ATOM     27  C   UNL A   1      36.608  22.941  24.846  1.00  0.00     0.123 A 
ATOM     28  F   UNL A   1      37.682  23.729  24.988  1.00  0.00    -0.207 F 
ENDBRANCH  19  22
ENDBRANCH  14  18
ENDBRANCH   8  13
ENDBRANCH   5   7
ENDBRANCH   4   5
ENDBRANCH   3   4
ENDBRANCH   2   3
ENDBRANCH   1   2
BRANCH   1  29
ATOM     29  C   UNL A   1      33.238  33.488  27.506  1.00  0.00     0.202 C 
BRANCH  29  30
ATOM     30  C   UNL A   1      32.920  34.680  28.418  1.00  0.00     0.261 C 
BRANCH  30  31
ATOM     31  O   UNL A   1      32.795  34.301  29.799  1.00  0.00    -0.460 OA
BRANCH  31  32
ATOM     32  C   UNL A   1      33.773  34.774  30.609  1.00  0.00     0.338 C 
ATOM     33  O   UNL A   1      33.717  35.762  31.327  1.00  0.00    -0.246 OA
BRANCH  32  34
ATOM     34  C   UNL A   1      34.892  33.816  30.649  1.00  0.00     0.060 A 
ATOM     35  C   UNL A   1      34.725  32.641  31.396  1.00  0.00     0.016 A 
ATOM     36  C   UNL A   1      36.110  34.094  30.026  1.00  0.00     0.016 A 
ATOM     37  C   UNL A   1      35.793  31.760  31.562  1.00  0.00     0.010 A 
ATOM     38  C   UNL A   1      37.182  33.214  30.202  1.00  0.00     0.010 A 
ATOM     39  C   UNL A   1      37.040  32.061  30.999  1.00  0.00    -0.014 A 
BRANCH  39  40
ATOM     40  C   UNL A   1      38.246  31.282  31.375  1.00  0.00     0.031 A 
ATOM     41  C   UNL A   1      38.992  31.680  32.621  1.00  0.00     0.074 A 
ATOM     42  C   UNL A   1      38.676  30.251  30.625  1.00  0.00     0.049 A 
ATOM     43  N   UNL A   1      40.152  31.271  33.060  1.00  0.00    -0.248 NA
ATOM     44  C   UNL A   1      38.339  32.680  33.480  1.00  0.00     0.031 C 
ATOM     45  C   UNL A   1      37.998  29.726  29.442  1.00  0.00     0.029 A 
ATOM     46  N   UNL A   1      39.801  29.472  30.741  1.00  0.00    -0.354 N 
ATOM     47  C   UNL A   1      40.374  31.969  34.244  1.00  0.00     0.074 A 
ATOM     48  C   UNL A   1      39.243  32.852  34.431  1.00  0.00     0.031 C 
ATOM     49  C   UNL A   1      38.734  28.724  28.927  1.00  0.00     0.029 A 
ATOM     50  C   UNL A   1      39.959  28.575  29.710  1.00  0.00     0.049 A 
ATOM     51  H   UNL A   1      40.434  29.549  31.490  1.00  0.00     0.167 HD
ATOM     52  C   UNL A   1      41.422  31.874  35.098  1.00  0.00     0.034 A 
ATOM     53  C   UNL A   1      40.994  27.761  29.412  1.00  0.00     0.034 A 
ATOM     54  C   UNL A   1      42.545  30.995  34.892  1.00  0.00     0.049 A 
ATOM     55  C   UNL A   1      42.207  27.757  30.318  1.00  0.00     0.074 A 
ATOM     56  C   UNL A   1      43.674  30.838  35.678  1.00  0.00     0.029 A 
ATOM     57  N   UNL A   1      42.682  30.121  33.822  1.00  0.00    -0.354 N 
ATOM     58  N   UNL A   1      42.423  28.448  31.415  1.00  0.00    -0.248 NA
ATOM     59  C   UNL A   1      43.314  26.861  29.953  1.00  0.00     0.031 C 
ATOM     60  C   UNL A   1      44.520  29.919  35.052  1.00  0.00     0.029 A 
ATOM     61  C   UNL A   1      43.883  29.436  33.920  1.00  0.00     0.049 A 
ATOM     62  H   UNL A   1      42.024  30.004  33.099  1.00  0.00     0.167 HD
ATOM     63  C   UNL A   1      43.661  28.023  31.895  1.00  0.00     0.074 A 
ATOM     64  C   UNL A   1      44.144  27.022  30.971  1.00  0.00     0.031 C 
ATOM     65  C   UNL A   1      44.335  28.417  33.006  1.00  0.00     0.034 A 
BRANCH  52  66
ATOM     66  C   UNL A   1      41.419  32.770  36.310  1.00  0.00     0.023 A 
ATOM     67  C   UNL A   1      40.611  32.495  37.426  1.00  0.00     0.031 A 
ATOM     68  C   UNL A   1      42.237  33.912  36.353  1.00  0.00     0.131 A 
ATOM     69  C   UNL A   1      40.600  33.378  38.516  1.00  0.00     0.055 A 
ATOM     70  C   UNL A   1      42.279  34.745  37.471  1.00  0.00     0.041 A 
ATOM     71  F   UNL A   1      43.011  34.237  35.306  1.00  0.00    -0.206 F 
ATOM     72  C   UNL A   1      41.449  34.487  38.558  1.00  0.00     0.022 A 
BRANCH  69  73
ATOM     73  S   UNL A   1      39.378  33.119  39.830  1.00  0.00     0.124 S 
ATOM     74  O   UNL A   1      38.760  34.440  39.920  1.00  0.00    -0.237 OA
ATOM     75  O   UNL A   1      38.541  32.059  39.279  1.00  0.00    -0.237 OA
ATOM     76  O   UNL A   1      40.190  32.737  40.984  1.00  0.00    -0.744 OA
ENDBRANCH  69  73
ENDBRANCH  52  66
BRANCH  53  77
ATOM     77  C   UNL A   1      40.979  26.916  28.180  1.00  0.00     0.023 A 
ATOM     78  C   UNL A   1      40.836  25.522  28.265  1.00  0.00     0.031 A 
ATOM     79  C   UNL A   1      41.217  27.474  26.911  1.00  0.00     0.131 A 
ATOM     80  C   UNL A   1      41.015  24.728  27.121  1.00  0.00     0.055 A 
ATOM     81  C   UNL A   1      41.318  26.685  25.763  1.00  0.00     0.041 A 
ATOM     82  F   UNL A   1      41.367  28.801  26.766  1.00  0.00    -0.206 F 
ATOM     83  C   UNL A   1      41.239  25.301  25.868  1.00  0.00     0.022 A 
BRANCH  80  84
ATOM     84  S   UNL A   1      41.101  22.927  27.325  1.00  0.00     0.124 S 
ATOM     85  O   UNL A   1      41.700  22.811  28.649  1.00  0.00    -0.237 OA
ATOM     86  O   UNL A   1      39.697  22.545  27.218  1.00  0.00    -0.237 OA
ATOM     87  O   UNL A   1      41.949  22.501  26.213  1.00  0.00    -0.744 OA
ENDBRANCH  80  84
ENDBRANCH  53  77
BRANCH  65  88
ATOM     88  C   UNL A   1      45.616  27.693  33.341  1.00  0.00     0.023 A 
ATOM     89  C   UNL A   1      45.636  26.504  34.088  1.00  0.00     0.031 A 
ATOM     90  C   UNL A   1      46.843  28.202  32.873  1.00  0.00     0.131 A 
ATOM     91  C   UNL A   1      46.860  25.885  34.382  1.00  0.00     0.055 A 
ATOM     92  C   UNL A   1      48.052  27.550  33.117  1.00  0.00     0.041 A 
ATOM     93  F   UNL A   1      46.882  29.335  32.154  1.00  0.00    -0.206 F 
ATOM     94  C   UNL A   1      48.066  26.389  33.885  1.00  0.00     0.022 A 
BRANCH  91  95
ATOM     95  S   UNL A   1      46.869  24.441  35.480  1.00  0.00     0.124 S 
ATOM     96  O   UNL A   1      47.581  23.453  34.677  1.00  0.00    -0.237 OA
ATOM     97  O   UNL A   1      47.581  24.943  36.652  1.00  0.00    -0.237 OA
ATOM     98  O   UNL A   1      45.450  24.163  35.693  1.00  0.00    -0.744 OA
ENDBRANCH  91  95
ENDBRANCH  65  88
ENDBRANCH  39  40
ENDBRANCH  32  34
ENDBRANCH  31  32
ENDBRANCH  30  31
ENDBRANCH  29  30
ENDBRANCH   1  29
TORSDOF 21
ENDMDL
MODEL 3
REMARK VINA RESULT:     -10.4      1.469      7.680
REMARK SMILES N#C/C(=C/c1ccc(-c2cccc(C(=O)OCCOCCOC(=O)c3ccc(-c4c5nc(c(-c6cc(S(=O)(=O)[O-])ccc6F)c6ccc([nH]6)c(-c6cc(S(=O)(=O)[O-])ccc6F)c6nc(c(-c7cc(S(=O)(=O)[O-])ccc7F)c7ccc4[nH]7)C=C6)C=C5)cc3)c2)o1)c1ccc(F)cc1
REMARK SMILES IDX 19 1 18 2 17 3 16 4 14 5 15 6 13 7 9 8 10 9 88 10 11 11
REMARK SMILES IDX 12 12 8 13 5 14 6 15 89 16 7 17 4 18 3 19 2 20 1 21 90 22
REMARK SMILES IDX 91 23 96 24 92 25 95 26 93 27 94 28 20 29 21 30 22 31 23 32
REMARK SMILES IDX 24 33 25 34 26 35 87 36 27 37 86 38 28 39 29 40 30 41 80 42
REMARK SMILES IDX 31 43 85 44 79 45 81 46 32 47 84 48 78 49 77 50 33 52 65 53
REMARK SMILES IDX 45 54 64 55 46 56 49 57 63 58 82 59 47 60 48 61 62 63 83 64
REMARK SMILES IDX 50 65 34 66 35 67 43 68 36 69 42 70 44 71 41 72 37 73 38 74
REMARK SMILES IDX 39 75 40 76 66 77 67 78 75 79 68 80 74 81 76 82 73 83 69 84
REMARK SMILES IDX 70 85 71 86 72 87 51 88 52 89 60 90 53 91 59 92 61 93 58 94
REMARK SMILES IDX 54 95 55 96 56 97 57 98
REMARK H PARENT 81 51 49 62
REMARK Flexibility Score: inf
ROOT
ATOM      1  O   UNL A   1      35.342  30.785  27.346  1.00  0.00    -0.374 OA
ENDROOT
BRANCH   1   2
ATOM      2  C   UNL A   1      35.391  29.358  27.314  1.00  0.00     0.202 C 
BRANCH   2   3
ATOM      3  C   UNL A   1      34.117  28.642  26.853  1.00  0.00     0.261 C 
BRANCH   3   4
ATOM      4  O   UNL A   1      33.695  29.106  25.559  1.00  0.00    -0.460 OA
BRANCH   4   5
ATOM      5  C   UNL A   1      32.407  29.512  25.467  1.00  0.00     0.338 C 
ATOM      6  O   UNL A   1      31.902  30.493  25.995  1.00  0.00    -0.246 OA
BRANCH   5   7
ATOM      7  C   UNL A   1      31.698  28.680  24.465  1.00  0.00     0.060 A 
ATOM      8  C   UNL A   1      31.545  26.720  23.021  1.00  0.00     0.018 A 
ATOM      9  C   UNL A   1      30.336  27.213  22.514  1.00  0.00     0.012 A 
ATOM     10  C   UNL A   1      32.230  27.477  23.989  1.00  0.00     0.027 A 
ATOM     11  C   UNL A   1      29.805  28.420  22.983  1.00  0.00     0.002 A 
ATOM     12  C   UNL A   1      30.478  29.147  23.964  1.00  0.00     0.016 A 
BRANCH   8  13
ATOM     13  C   UNL A   1      32.076  25.418  22.632  1.00  0.00     0.134 A 
ATOM     14  C   UNL A   1      32.431  23.230  22.884  1.00  0.00     0.128 A 
ATOM     15  C   UNL A   1      33.049  23.639  21.706  1.00  0.00     0.051 A 
ATOM     16  O   UNL A   1      31.811  24.339  23.434  1.00  0.00    -0.457 OA
ATOM     17  C   UNL A   1      32.850  25.024  21.565  1.00  0.00     0.051 A 
BRANCH  14  18
ATOM     18  C   UNL A   1      32.436  21.928  23.477  1.00  0.00     0.067 C 
ATOM     19  C   UNL A   1      33.486  21.464  24.194  1.00  0.00     0.063 C 
BRANCH  19  20
ATOM     20  C   UNL A   1      33.525  20.006  24.620  1.00  0.00     0.100 C 
ATOM     21  N   UNL A   1      33.557  18.796  24.974  1.00  0.00    -0.192 NA
ENDBRANCH  19  20
BRANCH  19  22
ATOM     22  C   UNL A   1      34.663  22.306  24.545  1.00  0.00    -0.007 A 
ATOM     23  C   UNL A   1      35.877  22.172  23.841  1.00  0.00     0.012 A 
ATOM     24  C   UNL A   1      34.610  23.197  25.630  1.00  0.00     0.012 A 
ATOM     25  C   UNL A   1      37.026  22.846  24.261  1.00  0.00     0.040 A 
ATOM     26  C   UNL A   1      35.757  23.887  26.035  1.00  0.00     0.040 A 
ATOM     27  C   UNL A   1      36.956  23.691  25.359  1.00  0.00     0.123 A 
ATOM     28  F   UNL A   1      38.062  24.320  25.777  1.00  0.00    -0.207 F 
ENDBRANCH  19  22
ENDBRANCH  14  18
ENDBRANCH   8  13
ENDBRANCH   5   7
ENDBRANCH   4   5
ENDBRANCH   3   4
ENDBRANCH   2   3
ENDBRANCH   1   2
BRANCH   1  29
ATOM     29  C   UNL A   1      34.395  31.389  28.227  1.00  0.00     0.202 C 
BRANCH  29  30
ATOM     30  C   UNL A   1      33.848  32.767  27.835  1.00  0.00     0.261 C 
BRANCH  30  31
ATOM     31  O   UNL A   1      33.130  33.402  28.906  1.00  0.00    -0.460 OA
BRANCH  31  32
ATOM     32  C   UNL A   1      33.702  34.536  29.380  1.00  0.00     0.338 C 
ATOM     33  O   UNL A   1      33.258  35.672  29.297  1.00  0.00    -0.246 OA
BRANCH  32  34
ATOM     34  C   UNL A   1      34.884  34.195  30.191  1.00  0.00     0.060 A 
ATOM     35  C   UNL A   1      36.146  34.563  29.703  1.00  0.00     0.016 A 
ATOM     36  C   UNL A   1      34.767  33.463  31.375  1.00  0.00     0.016 A 
ATOM     37  C   UNL A   1      37.300  34.161  30.373  1.00  0.00     0.010 A 
ATOM     38  C   UNL A   1      35.926  33.053  32.039  1.00  0.00     0.010 A 
ATOM     39  C   UNL A   1      37.198  33.369  31.524  1.00  0.00    -0.014 A 
BRANCH  39  40
ATOM     40  C   UNL A   1      38.401  32.717  32.101  1.00  0.00     0.031 A 
ATOM     41  C   UNL A   1      39.033  31.584  31.336  1.00  0.00     0.074 A 
ATOM     42  C   UNL A   1      38.916  33.113  33.279  1.00  0.00     0.049 A 
ATOM     43  N   UNL A   1      39.972  30.755  31.706  1.00  0.00    -0.248 NA
ATOM     44  C   UNL A   1      38.528  31.357  29.973  1.00  0.00     0.031 C 
ATOM     45  C   UNL A   1      38.438  34.243  34.073  1.00  0.00     0.029 A 
ATOM     46  N   UNL A   1      39.947  32.593  34.022  1.00  0.00    -0.354 N 
ATOM     47  C   UNL A   1      40.168  29.901  30.625  1.00  0.00     0.074 A 
ATOM     48  C   UNL A   1      39.222  30.293  29.602  1.00  0.00     0.031 C 
ATOM     49  C   UNL A   1      39.161  34.316  35.205  1.00  0.00     0.029 A 
ATOM     50  C   UNL A   1      40.114  33.208  35.241  1.00  0.00     0.049 A 
ATOM     51  H   UNL A   1      40.513  31.849  33.712  1.00  0.00     0.167 HD
ATOM     52  C   UNL A   1      41.059  28.889  30.497  1.00  0.00     0.034 A 
ATOM     53  C   UNL A   1      40.913  32.884  36.280  1.00  0.00     0.034 A 
ATOM     54  C   UNL A   1      41.988  28.506  31.530  1.00  0.00     0.049 A 
ATOM     55  C   UNL A   1      41.819  31.677  36.159  1.00  0.00     0.074 A 
ATOM     56  C   UNL A   1      42.916  27.478  31.519  1.00  0.00     0.029 A 
ATOM     57  N   UNL A   1      42.109  29.136  32.761  1.00  0.00    -0.354 N 
ATOM     58  N   UNL A   1      41.969  30.854  35.146  1.00  0.00    -0.248 NA
ATOM     59  C   UNL A   1      42.667  31.357  37.316  1.00  0.00     0.031 C 
ATOM     60  C   UNL A   1      43.552  27.448  32.763  1.00  0.00     0.029 A 
ATOM     61  C   UNL A   1      43.084  28.509  33.521  1.00  0.00     0.049 A 
ATOM     62  H   UNL A   1      41.581  29.913  33.053  1.00  0.00     0.167 HD
ATOM     63  C   UNL A   1      42.969  29.960  35.527  1.00  0.00     0.074 A 
ATOM     64  C   UNL A   1      43.383  30.342  36.859  1.00  0.00     0.031 C 
ATOM     65  C   UNL A   1      43.506  28.922  34.836  1.00  0.00     0.034 A 
BRANCH  52  66
ATOM     66  C   UNL A   1      41.045  28.103  29.211  1.00  0.00     0.023 A 
ATOM     67  C   UNL A   1      42.058  28.248  28.248  1.00  0.00     0.031 A 
ATOM     68  C   UNL A   1      40.007  27.193  28.945  1.00  0.00     0.131 A 
ATOM     69  C   UNL A   1      41.985  27.534  27.043  1.00  0.00     0.055 A 
ATOM     70  C   UNL A   1      39.979  26.429  27.777  1.00  0.00     0.041 A 
ATOM     71  F   UNL A   1      39.000  27.031  29.817  1.00  0.00    -0.206 F 
ATOM     72  C   UNL A   1      40.967  26.605  26.812  1.00  0.00     0.022 A 
BRANCH  69  73
ATOM     73  S   UNL A   1      43.176  27.921  25.732  1.00  0.00     0.124 S 
ATOM     74  O   UNL A   1      42.299  28.073  24.574  1.00  0.00    -0.237 OA
ATOM     75  O   UNL A   1      43.803  29.142  26.224  1.00  0.00    -0.237 OA
ATOM     76  O   UNL A   1      44.043  26.744  25.699  1.00  0.00    -0.744 OA
ENDBRANCH  69  73
ENDBRANCH  52  66
BRANCH  53  77
ATOM     77  C   UNL A   1      40.872  33.664  37.554  1.00  0.00     0.023 A 
ATOM     78  C   UNL A   1      40.228  33.151  38.691  1.00  0.00     0.031 A 
ATOM     79  C   UNL A   1      41.379  34.974  37.623  1.00  0.00     0.131 A 
ATOM     80  C   UNL A   1      40.033  33.970  39.815  1.00  0.00     0.055 A 
ATOM     81  C   UNL A   1      41.249  35.758  38.771  1.00  0.00     0.041 A 
ATOM     82  F   UNL A   1      42.001  35.521  36.566  1.00  0.00    -0.206 F 
ATOM     83  C   UNL A   1      40.552  35.264  39.869  1.00  0.00     0.022 A 
BRANCH  80  84
ATOM     84  S   UNL A   1      38.956  33.368  41.145  1.00  0.00     0.124 S 
ATOM     85  O   UNL A   1      37.651  33.845  40.705  1.00  0.00    -0.237 OA
ATOM     86  O   UNL A   1      39.171  31.926  41.077  1.00  0.00    -0.237 OA
ATOM     87  O   UNL A   1      39.493  34.022  42.337  1.00  0.00    -0.744 OA
ENDBRANCH  80  84
ENDBRANCH  53  77
BRANCH  65  88
ATOM     88  C   UNL A   1      44.669  28.190  35.462  1.00  0.00     0.023 A 
ATOM     89  C   UNL A   1      44.496  27.056  36.271  1.00  0.00     0.031 A 
ATOM     90  C   UNL A   1      45.981  28.634  35.214  1.00  0.00     0.131 A 
ATOM     91  C   UNL A   1      45.615  26.428  36.839  1.00  0.00     0.055 A 
ATOM     92  C   UNL A   1      47.093  27.971  35.732  1.00  0.00     0.041 A 
ATOM     93  F   UNL A   1      46.203  29.714  34.447  1.00  0.00    -0.206 F 
ATOM     94  C   UNL A   1      46.913  26.866  36.559  1.00  0.00     0.022 A 
BRANCH  91  95
ATOM     95  S   UNL A   1      45.354  25.063  38.005  1.00  0.00     0.124 S 
ATOM     96  O   UNL A   1      46.590  24.302  37.864  1.00  0.00    -0.237 OA
ATOM     97  O   UNL A   1      45.180  25.765  39.274  1.00  0.00    -0.237 OA
ATOM     98  O   UNL A   1      44.155  24.401  37.496  1.00  0.00    -0.744 OA
ENDBRANCH  91  95
ENDBRANCH  65  88
ENDBRANCH  39  40
ENDBRANCH  32  34
ENDBRANCH  31  32
ENDBRANCH  30  31
ENDBRANCH  29  30
ENDBRANCH   1  29
TORSDOF 21
ENDMDL
