MODEL 1
REMARK VINA RESULT:     -11.3      0.000      0.000
REMARK SMILES COc1ccc(-c2cccc(Cl)c2C(=O)OCCOCCOC(=O)c2ccc(-c3c4nc(c(-c5cc(S(=O)(=O)[O-])ccc5F)c5ccc([nH]5)c(-c5cc(S(=O)(=O)[O-])ccc5F)c5nc(c(-c6cc(S(=O)(=O)[O-])ccc6F)c6ccc3[nH]6)C=C5)C=C4)cc2)c(F)c1
REMARK SMILES IDX 20 1 19 2 18 3 17 4 16 5 14 6 15 7 13 8 7 9 8 10 9 11 11 12
REMARK SMILES IDX 10 13 12 14 6 15 3 16 4 17 90 18 5 19 88 20 89 21 2 22 1 23
REMARK SMILES IDX 21 24 22 25 23 26 24 27 25 28 26 29 87 30 27 31 86 32 28 33
REMARK SMILES IDX 29 34 30 35 80 36 31 37 85 38 79 39 81 40 32 41 84 42 78 43
REMARK SMILES IDX 77 44 33 46 65 47 45 48 64 49 46 50 49 51 63 52 82 53 47 54
REMARK SMILES IDX 48 55 62 57 83 58 50 59 34 60 35 61 43 62 36 63 42 64 44 65
REMARK SMILES IDX 41 66 37 67 38 68 39 69 40 70 66 71 67 72 75 73 68 74 74 75
REMARK SMILES IDX 76 76 73 77 69 78 70 79 71 80 72 81 51 82 52 83 60 84 53 85
REMARK SMILES IDX 59 86 61 87 58 88 54 89 55 90 56 91 57 92
REMARK H PARENT 81 45 49 56
REMARK Flexibility Score: inf
ROOT
ATOM      1  C   UNL A   1      31.391  31.499  26.235  1.00  0.00     0.202 C 
ENDROOT
BRANCH   1   2
ATOM      2  O   UNL A   1      32.361  30.460  26.170  1.00  0.00    -0.374 OA
BRANCH   2   3
ATOM      3  C   UNL A   1      32.357  29.485  27.217  1.00  0.00     0.202 C 
BRANCH   3   4
ATOM      4  C   UNL A   1      31.464  28.259  27.016  1.00  0.00     0.261 C 
BRANCH   4   5
ATOM      5  O   UNL A   1      32.197  27.217  26.349  1.00  0.00    -0.460 OA
BRANCH   5   6
ATOM      6  C   UNL A   1      31.471  26.142  25.966  1.00  0.00     0.340 C 
ATOM      7  O   UNL A   1      30.492  25.685  26.536  1.00  0.00    -0.246 OA
BRANCH   6   8
ATOM      8  C   UNL A   1      31.960  25.653  24.655  1.00  0.00     0.086 A 
ATOM      9  C   UNL A   1      31.317  26.082  23.464  1.00  0.00     0.001 A 
ATOM     10  C   UNL A   1      31.747  25.541  22.237  1.00  0.00     0.010 A 
ATOM     11  C   UNL A   1      32.796  24.625  22.183  1.00  0.00     0.002 A 
ATOM     12  C   UNL A   1      33.028  24.744  24.590  1.00  0.00     0.056 A 
ATOM     13  C   UNL A   1      33.445  24.241  23.354  1.00  0.00     0.021 A 
ATOM     14  Cl  UNL A   1      33.868  24.164  25.986  1.00  0.00    -0.083 Cl
BRANCH   9  15
ATOM     15  C   UNL A   1      30.258  27.106  23.443  1.00  0.00     0.019 A 
ATOM     16  C   UNL A   1      28.192  29.031  23.263  1.00  0.00     0.121 A 
ATOM     17  C   UNL A   1      27.885  27.694  23.507  1.00  0.00     0.047 A 
ATOM     18  C   UNL A   1      29.529  29.412  23.151  1.00  0.00     0.086 A 
ATOM     19  C   UNL A   1      28.913  26.745  23.614  1.00  0.00     0.015 A 
ATOM     20  C   UNL A   1      30.544  28.461  23.252  1.00  0.00     0.134 A 
ATOM     21  F   UNL A   1      31.818  28.872  23.168  1.00  0.00    -0.206 F 
BRANCH  16  22
ATOM     22  O   UNL A   1      27.289  30.048  23.110  1.00  0.00    -0.497 OA
ATOM     23  C   UNL A   1      27.661  31.326  23.610  1.00  0.00     0.278 C 
ENDBRANCH  16  22
ENDBRANCH   9  15
ENDBRANCH   6   8
ENDBRANCH   5   6
ENDBRANCH   4   5
ENDBRANCH   3   4
ENDBRANCH   2   3
ENDBRANCH   1   2
BRANCH   1  24
ATOM     24  C   UNL A   1      31.838  32.899  26.676  1.00  0.00     0.261 C 
BRANCH  24  25
ATOM     25  O   UNL A   1      32.619  32.912  27.873  1.00  0.00    -0.460 OA
BRANCH  25  26
ATOM     26  C   UNL A   1      33.708  33.717  27.801  1.00  0.00     0.338 C 
ATOM     27  O   UNL A   1      33.723  34.918  27.576  1.00  0.00    -0.246 OA
BRANCH  26  28
ATOM     28  C   UNL A   1      34.902  32.961  28.206  1.00  0.00     0.060 A 
ATOM     29  C   UNL A   1      34.719  31.648  28.659  1.00  0.00     0.016 A 
ATOM     30  C   UNL A   1      36.171  33.544  28.191  1.00  0.00     0.016 A 
ATOM     31  C   UNL A   1      35.804  30.924  29.140  1.00  0.00     0.010 A 
ATOM     32  C   UNL A   1      37.258  32.819  28.686  1.00  0.00     0.010 A 
ATOM     33  C   UNL A   1      37.070  31.520  29.192  1.00  0.00    -0.014 A 
BRANCH  33  34
ATOM     34  C   UNL A   1      38.167  30.839  29.918  1.00  0.00     0.031 A 
ATOM     35  C   UNL A   1      38.405  31.193  31.359  1.00  0.00     0.074 A 
ATOM     36  C   UNL A   1      38.909  29.897  29.310  1.00  0.00     0.049 A 
ATOM     37  N   UNL A   1      39.339  30.772  32.170  1.00  0.00    -0.248 NA
ATOM     38  C   UNL A   1      37.464  32.149  31.967  1.00  0.00     0.031 C 
ATOM     39  C   UNL A   1      38.722  29.434  27.934  1.00  0.00     0.029 A 
ATOM     40  N   UNL A   1      39.966  29.156  29.773  1.00  0.00    -0.354 N 
ATOM     41  C   UNL A   1      39.104  31.414  33.380  1.00  0.00     0.074 A 
ATOM     42  C   UNL A   1      37.959  32.276  33.190  1.00  0.00     0.031 C 
ATOM     43  C   UNL A   1      39.636  28.486  27.666  1.00  0.00     0.029 A 
ATOM     44  C   UNL A   1      40.499  28.308  28.832  1.00  0.00     0.049 A 
ATOM     45  H   UNL A   1      40.311  29.226  30.692  1.00  0.00     0.167 HD
ATOM     46  C   UNL A   1      39.783  31.287  34.545  1.00  0.00     0.034 A 
ATOM     47  C   UNL A   1      41.576  27.499  28.898  1.00  0.00     0.034 A 
ATOM     48  C   UNL A   1      40.918  30.419  34.717  1.00  0.00     0.049 A 
ATOM     49  C   UNL A   1      42.370  27.443  30.177  1.00  0.00     0.074 A 
ATOM     50  C   UNL A   1      41.670  30.206  35.859  1.00  0.00     0.029 A 
ATOM     51  N   UNL A   1      41.471  29.625  33.721  1.00  0.00    -0.354 N 
ATOM     52  N   UNL A   1      42.158  28.078  31.306  1.00  0.00    -0.248 NA
ATOM     53  C   UNL A   1      43.549  26.566  30.192  1.00  0.00     0.031 C 
ATOM     54  C   UNL A   1      42.718  29.340  35.537  1.00  0.00     0.029 A 
ATOM     55  C   UNL A   1      42.575  28.949  34.214  1.00  0.00     0.049 A 
ATOM     56  H   UNL A   1      41.129  29.553  32.801  1.00  0.00     0.167 HD
ATOM     57  C   UNL A   1      43.165  27.662  32.172  1.00  0.00     0.074 A 
ATOM     58  C   UNL A   1      43.982  26.718  31.438  1.00  0.00     0.031 C 
ATOM     59  C   UNL A   1      43.388  28.023  33.462  1.00  0.00     0.034 A 
BRANCH  46  60
ATOM     60  C   UNL A   1      39.343  32.132  35.711  1.00  0.00     0.023 A 
ATOM     61  C   UNL A   1      39.779  33.458  35.871  1.00  0.00     0.031 A 
ATOM     62  C   UNL A   1      38.445  31.610  36.659  1.00  0.00     0.131 A 
ATOM     63  C   UNL A   1      39.340  34.208  36.972  1.00  0.00     0.055 A 
ATOM     64  C   UNL A   1      37.964  32.380  37.718  1.00  0.00     0.041 A 
ATOM     65  F   UNL A   1      38.013  30.342  36.564  1.00  0.00    -0.206 F 
ATOM     66  C   UNL A   1      38.417  33.687  37.882  1.00  0.00     0.022 A 
BRANCH  63  67
ATOM     67  S   UNL A   1      40.042  35.857  37.242  1.00  0.00     0.124 S 
ATOM     68  O   UNL A   1      41.457  35.548  37.434  1.00  0.00    -0.237 OA
ATOM     69  O   UNL A   1      39.704  36.552  36.005  1.00  0.00    -0.237 OA
ATOM     70  O   UNL A   1      39.347  36.336  38.435  1.00  0.00    -0.744 OA
ENDBRANCH  63  67
ENDBRANCH  46  60
BRANCH  47  71
ATOM     71  C   UNL A   1      41.985  26.711  27.702  1.00  0.00     0.023 A 
ATOM     72  C   UNL A   1      41.715  25.338  27.610  1.00  0.00     0.031 A 
ATOM     73  C   UNL A   1      42.653  27.329  26.629  1.00  0.00     0.131 A 
ATOM     74  C   UNL A   1      42.127  24.621  26.475  1.00  0.00     0.055 A 
ATOM     75  C   UNL A   1      43.024  26.621  25.485  1.00  0.00     0.041 A 
ATOM     76  F   UNL A   1      42.932  28.642  26.669  1.00  0.00    -0.206 F 
ATOM     77  C   UNL A   1      42.766  25.256  25.406  1.00  0.00     0.022 A 
BRANCH  74  78
ATOM     78  S   UNL A   1      41.839  22.832  26.422  1.00  0.00     0.124 S 
ATOM     79  O   UNL A   1      42.527  22.384  27.627  1.00  0.00    -0.237 OA
ATOM     80  O   UNL A   1      40.382  22.755  26.449  1.00  0.00    -0.237 OA
ATOM     81  O   UNL A   1      42.458  22.425  25.161  1.00  0.00    -0.744 OA
ENDBRANCH  74  78
ENDBRANCH  47  71
BRANCH  59  82
ATOM     82  C   UNL A   1      44.545  27.377  34.178  1.00  0.00     0.023 A 
ATOM     83  C   UNL A   1      44.383  26.199  34.925  1.00  0.00     0.031 A 
ATOM     84  C   UNL A   1      45.838  27.916  34.056  1.00  0.00     0.131 A 
ATOM     85  C   UNL A   1      45.494  25.609  35.544  1.00  0.00     0.055 A 
ATOM     86  C   UNL A   1      46.948  27.298  34.632  1.00  0.00     0.041 A 
ATOM     87  F   UNL A   1      46.047  29.038  33.348  1.00  0.00    -0.206 F 
ATOM     88  C   UNL A   1      46.778  26.140  35.387  1.00  0.00     0.022 A 
BRANCH  85  89
ATOM     89  S   UNL A   1      45.238  24.150  36.591  1.00  0.00     0.124 S 
ATOM     90  O   UNL A   1      44.399  24.688  37.657  1.00  0.00    -0.237 OA
ATOM     91  O   UNL A   1      44.587  23.217  35.677  1.00  0.00    -0.237 OA
ATOM     92  O   UNL A   1      46.592  23.776  36.994  1.00  0.00    -0.744 OA
ENDBRANCH  85  89
ENDBRANCH  59  82
ENDBRANCH  33  34
ENDBRANCH  26  28
ENDBRANCH  25  26
ENDBRANCH  24  25
ENDBRANCH   1  24
TORSDOF 19
ENDMDL
MODEL 2
REMARK VINA RESULT:     -11.1      5.131     10.600
REMARK SMILES COc1ccc(-c2cccc(Cl)c2C(=O)OCCOCCOC(=O)c2ccc(-c3c4nc(c(-c5cc(S(=O)(=O)[O-])ccc5F)c5ccc([nH]5)c(-c5cc(S(=O)(=O)[O-])ccc5F)c5nc(c(-c6cc(S(=O)(=O)[O-])ccc6F)c6ccc3[nH]6)C=C5)C=C4)cc2)c(F)c1
REMARK SMILES IDX 20 1 19 2 18 3 17 4 16 5 14 6 15 7 13 8 7 9 8 10 9 11 11 12
REMARK SMILES IDX 10 13 12 14 6 15 3 16 4 17 90 18 5 19 88 20 89 21 2 22 1 23
REMARK SMILES IDX 21 24 22 25 23 26 24 27 25 28 26 29 87 30 27 31 86 32 28 33
REMARK SMILES IDX 29 34 30 35 80 36 31 37 85 38 79 39 81 40 32 41 84 42 78 43
REMARK SMILES IDX 77 44 33 46 65 47 45 48 64 49 46 50 49 51 63 52 82 53 47 54
REMARK SMILES IDX 48 55 62 57 83 58 50 59 34 60 35 61 43 62 36 63 42 64 44 65
REMARK SMILES IDX 41 66 37 67 38 68 39 69 40 70 66 71 67 72 75 73 68 74 74 75
REMARK SMILES IDX 76 76 73 77 69 78 70 79 71 80 72 81 51 82 52 83 60 84 53 85
REMARK SMILES IDX 59 86 61 87 58 88 54 89 55 90 56 91 57 92
REMARK H PARENT 81 45 49 56
REMARK Flexibility Score: inf
ROOT
ATOM      1  C   UNL A   1      37.234  20.108  25.002  1.00  0.00     0.202 C 
ENDROOT
BRANCH   1   2
ATOM      2  O   UNL A   1      37.031  21.451  24.578  1.00  0.00    -0.374 OA
BRANCH   2   3
ATOM      3  C   UNL A   1      36.408  22.350  25.499  1.00  0.00     0.202 C 
BRANCH   3   4
ATOM      4  C   UNL A   1      36.229  23.798  25.039  1.00  0.00     0.261 C 
BRANCH   4   5
ATOM      5  O   UNL A   1      34.829  24.105  24.908  1.00  0.00    -0.460 OA
BRANCH   5   6
ATOM      6  C   UNL A   1      34.351  24.135  23.643  1.00  0.00     0.340 C 
ATOM      7  O   UNL A   1      34.936  23.766  22.636  1.00  0.00    -0.246 OA
BRANCH   6   8
ATOM      8  C   UNL A   1      32.935  24.570  23.658  1.00  0.00     0.086 A 
ATOM      9  C   UNL A   1      31.902  23.595  23.625  1.00  0.00     0.001 A 
ATOM     10  C   UNL A   1      30.566  24.035  23.557  1.00  0.00     0.010 A 
ATOM     11  C   UNL A   1      30.255  25.394  23.549  1.00  0.00     0.002 A 
ATOM     12  C   UNL A   1      32.612  25.937  23.668  1.00  0.00     0.056 A 
ATOM     13  C   UNL A   1      31.274  26.340  23.620  1.00  0.00     0.021 A 
ATOM     14  Cl  UNL A   1      33.800  27.192  23.704  1.00  0.00    -0.083 Cl
BRANCH   9  15
ATOM     15  C   UNL A   1      32.158  22.147  23.713  1.00  0.00     0.019 A 
ATOM     16  C   UNL A   1      32.500  19.343  23.873  1.00  0.00     0.121 A 
ATOM     17  C   UNL A   1      32.262  19.951  22.642  1.00  0.00     0.047 A 
ATOM     18  C   UNL A   1      32.609  20.138  25.014  1.00  0.00     0.086 A 
ATOM     19  C   UNL A   1      32.110  21.343  22.563  1.00  0.00     0.015 A 
ATOM     20  C   UNL A   1      32.451  21.520  24.927  1.00  0.00     0.134 A 
ATOM     21  F   UNL A   1      32.591  22.253  26.042  1.00  0.00    -0.206 F 
BRANCH  16  22
ATOM     22  O   UNL A   1      32.639  18.000  24.093  1.00  0.00    -0.497 OA
ATOM     23  C   UNL A   1      32.540  17.548  25.437  1.00  0.00     0.278 C 
ENDBRANCH  16  22
ENDBRANCH   9  15
ENDBRANCH   6   8
ENDBRANCH   5   6
ENDBRANCH   4   5
ENDBRANCH   3   4
ENDBRANCH   2   3
ENDBRANCH   1   2
BRANCH   1  24
ATOM     24  C   UNL A   1      38.670  19.580  25.118  1.00  0.00     0.261 C 
BRANCH  24  25
ATOM     25  O   UNL A   1      39.260  19.775  26.406  1.00  0.00    -0.460 OA
BRANCH  25  26
ATOM     26  C   UNL A   1      40.586  20.053  26.357  1.00  0.00     0.338 C 
ATOM     27  O   UNL A   1      41.468  19.356  25.878  1.00  0.00    -0.246 OA
BRANCH  26  28
ATOM     28  C   UNL A   1      40.815  21.427  26.828  1.00  0.00     0.060 A 
ATOM     29  C   UNL A   1      40.126  22.460  26.181  1.00  0.00     0.016 A 
ATOM     30  C   UNL A   1      41.725  21.702  27.851  1.00  0.00     0.016 A 
ATOM     31  C   UNL A   1      40.378  23.783  26.527  1.00  0.00     0.010 A 
ATOM     32  C   UNL A   1      41.985  23.032  28.189  1.00  0.00     0.010 A 
ATOM     33  C   UNL A   1      41.336  24.076  27.505  1.00  0.00    -0.014 A 
BRANCH  33  34
ATOM     34  C   UNL A   1      41.771  25.478  27.702  1.00  0.00     0.031 A 
ATOM     35  C   UNL A   1      43.085  25.914  27.117  1.00  0.00     0.074 A 
ATOM     36  C   UNL A   1      40.988  26.352  28.359  1.00  0.00     0.049 A 
ATOM     37  N   UNL A   1      43.691  27.067  27.214  1.00  0.00    -0.248 NA
ATOM     38  C   UNL A   1      43.813  24.915  26.315  1.00  0.00     0.031 C 
ATOM     39  C   UNL A   1      39.667  26.048  28.913  1.00  0.00     0.029 A 
ATOM     40  N   UNL A   1      41.187  27.672  28.667  1.00  0.00    -0.354 N 
ATOM     41  C   UNL A   1      44.872  26.934  26.493  1.00  0.00     0.074 A 
ATOM     42  C   UNL A   1      44.913  25.579  25.989  1.00  0.00     0.031 C 
ATOM     43  C   UNL A   1      39.176  27.156  29.494  1.00  0.00     0.029 A 
ATOM     44  C   UNL A   1      40.162  28.230  29.393  1.00  0.00     0.049 A 
ATOM     45  H   UNL A   1      41.989  28.174  28.395  1.00  0.00     0.167 HD
ATOM     46  C   UNL A   1      45.829  27.864  26.269  1.00  0.00     0.034 A 
ATOM     47  C   UNL A   1      40.045  29.459  29.935  1.00  0.00     0.034 A 
ATOM     48  C   UNL A   1      45.769  29.210  26.775  1.00  0.00     0.049 A 
ATOM     49  C   UNL A   1      41.165  30.449  29.749  1.00  0.00     0.074 A 
ATOM     50  C   UNL A   1      46.680  30.236  26.595  1.00  0.00     0.029 A 
ATOM     51  N   UNL A   1      44.746  29.719  27.563  1.00  0.00    -0.354 N 
ATOM     52  N   UNL A   1      42.293  30.302  29.092  1.00  0.00    -0.248 NA
ATOM     53  C   UNL A   1      41.004  31.766  30.379  1.00  0.00     0.031 C 
ATOM     54  C   UNL A   1      46.245  31.340  27.331  1.00  0.00     0.029 A 
ATOM     55  C   UNL A   1      45.022  31.032  27.907  1.00  0.00     0.049 A 
ATOM     56  H   UNL A   1      43.943  29.220  27.838  1.00  0.00     0.167 HD
ATOM     57  C   UNL A   1      42.964  31.515  29.212  1.00  0.00     0.074 A 
ATOM     58  C   UNL A   1      42.115  32.385  30.000  1.00  0.00     0.031 C 
ATOM     59  C   UNL A   1      44.171  31.879  28.708  1.00  0.00     0.034 A 
BRANCH  46  60
ATOM     60  C   UNL A   1      47.042  27.449  25.477  1.00  0.00     0.023 A 
ATOM     61  C   UNL A   1      47.191  27.783  24.121  1.00  0.00     0.031 A 
ATOM     62  C   UNL A   1      48.080  26.736  26.104  1.00  0.00     0.131 A 
ATOM     63  C   UNL A   1      48.340  27.377  23.426  1.00  0.00     0.055 A 
ATOM     64  C   UNL A   1      49.247  26.389  25.424  1.00  0.00     0.041 A 
ATOM     65  F   UNL A   1      47.978  26.374  27.393  1.00  0.00    -0.206 F 
ATOM     66  C   UNL A   1      49.380  26.705  24.074  1.00  0.00     0.022 A 
BRANCH  63  67
ATOM     67  S   UNL A   1      48.434  27.681  21.642  1.00  0.00     0.124 S 
ATOM     68  O   UNL A   1      47.108  28.226  21.365  1.00  0.00    -0.237 OA
ATOM     69  O   UNL A   1      49.544  28.620  21.537  1.00  0.00    -0.237 OA
ATOM     70  O   UNL A   1      48.686  26.354  21.080  1.00  0.00    -0.744 OA
ENDBRANCH  63  67
ENDBRANCH  46  60
BRANCH  47  71
ATOM     71  C   UNL A   1      38.838  29.804  30.738  1.00  0.00     0.023 A 
ATOM     72  C   UNL A   1      37.858  30.673  30.238  1.00  0.00     0.031 A 
ATOM     73  C   UNL A   1      38.651  29.260  32.022  1.00  0.00     0.131 A 
ATOM     74  C   UNL A   1      36.739  30.989  31.026  1.00  0.00     0.055 A 
ATOM     75  C   UNL A   1      37.517  29.545  32.785  1.00  0.00     0.041 A 
ATOM     76  F   UNL A   1      39.561  28.421  32.544  1.00  0.00    -0.206 F 
ATOM     77  C   UNL A   1      36.555  30.419  32.289  1.00  0.00     0.022 A 
BRANCH  74  78
ATOM     78  S   UNL A   1      35.531  32.180  30.388  1.00  0.00     0.124 S 
ATOM     79  O   UNL A   1      34.567  32.240  31.481  1.00  0.00    -0.237 OA
ATOM     80  O   UNL A   1      36.350  33.371  30.189  1.00  0.00    -0.237 OA
ATOM     81  O   UNL A   1      35.047  31.550  29.161  1.00  0.00    -0.744 OA
ENDBRANCH  74  78
ENDBRANCH  47  71
BRANCH  59  82
ATOM     82  C   UNL A   1      44.640  33.286  28.967  1.00  0.00     0.023 A 
ATOM     83  C   UNL A   1      45.448  33.601  30.072  1.00  0.00     0.031 A 
ATOM     84  C   UNL A   1      44.325  34.313  28.059  1.00  0.00     0.131 A 
ATOM     85  C   UNL A   1      45.895  34.918  30.255  1.00  0.00     0.055 A 
ATOM     86  C   UNL A   1      44.813  35.609  28.219  1.00  0.00     0.041 A 
ATOM     87  F   UNL A   1      43.560  34.063  26.983  1.00  0.00    -0.206 F 
ATOM     88  C   UNL A   1      45.599  35.919  29.325  1.00  0.00     0.022 A 
BRANCH  85  89
ATOM     89  S   UNL A   1      46.846  35.317  31.746  1.00  0.00     0.124 S 
ATOM     90  O   UNL A   1      46.569  36.741  31.907  1.00  0.00    -0.237 OA
ATOM     91  O   UNL A   1      46.251  34.436  32.746  1.00  0.00    -0.237 OA
ATOM     92  O   UNL A   1      48.221  34.990  31.374  1.00  0.00    -0.744 OA
ENDBRANCH  85  89
ENDBRANCH  59  82
ENDBRANCH  33  34
ENDBRANCH  26  28
ENDBRANCH  25  26
ENDBRANCH  24  25
ENDBRANCH   1  24
TORSDOF 19
ENDMDL
MODEL 3
REMARK VINA RESULT:     -11.0      2.171      2.512
REMARK SMILES COc1ccc(-c2cccc(Cl)c2C(=O)OCCOCCOC(=O)c2ccc(-c3c4nc(c(-c5cc(S(=O)(=O)[O-])ccc5F)c5ccc([nH]5)c(-c5cc(S(=O)(=O)[O-])ccc5F)c5nc(c(-c6cc(S(=O)(=O)[O-])ccc6F)c6ccc3[nH]6)C=C5)C=C4)cc2)c(F)c1
REMARK SMILES IDX 20 1 19 2 18 3 17 4 16 5 14 6 15 7 13 8 7 9 8 10 9 11 11 12
REMARK SMILES IDX 10 13 12 14 6 15 3 16 4 17 90 18 5 19 88 20 89 21 2 22 1 23
REMARK SMILES IDX 21 24 22 25 23 26 24 27 25 28 26 29 87 30 27 31 86 32 28 33
REMARK SMILES IDX 29 34 30 35 80 36 31 37 85 38 79 39 81 40 32 41 84 42 78 43
REMARK SMILES IDX 77 44 33 46 65 47 45 48 64 49 46 50 49 51 63 52 82 53 47 54
REMARK SMILES IDX 48 55 62 57 83 58 50 59 34 60 35 61 43 62 36 63 42 64 44 65
REMARK SMILES IDX 41 66 37 67 38 68 39 69 40 70 66 71 67 72 75 73 68 74 74 75
REMARK SMILES IDX 76 76 73 77 69 78 70 79 71 80 72 81 51 82 52 83 60 84 53 85
REMARK SMILES IDX 59 86 61 87 58 88 54 89 55 90 56 91 57 92
REMARK H PARENT 81 45 49 56
REMARK Flexibility Score: inf
ROOT
ATOM      1  C   UNL A   1      31.778  30.082  25.559  1.00  0.00     0.202 C 
ENDROOT
BRANCH   1   2
ATOM      2  O   UNL A   1      33.035  29.784  24.963  1.00  0.00    -0.374 OA
BRANCH   2   3
ATOM      3  C   UNL A   1      33.644  28.533  25.293  1.00  0.00     0.202 C 
BRANCH   3   4
ATOM      4  C   UNL A   1      33.096  27.799  26.518  1.00  0.00     0.261 C 
BRANCH   4   5
ATOM      5  O   UNL A   1      32.885  26.410  26.209  1.00  0.00    -0.460 OA
BRANCH   5   6
ATOM      6  C   UNL A   1      31.596  26.000  26.196  1.00  0.00     0.340 C 
ATOM      7  O   UNL A   1      30.661  26.526  26.780  1.00  0.00    -0.246 OA
BRANCH   6   8
ATOM      8  C   UNL A   1      31.443  24.870  25.251  1.00  0.00     0.086 A 
ATOM      9  C   UNL A   1      30.862  25.098  23.974  1.00  0.00     0.001 A 
ATOM     10  C   UNL A   1      30.653  23.994  23.126  1.00  0.00     0.010 A 
ATOM     11  C   UNL A   1      31.027  22.708  23.512  1.00  0.00     0.002 A 
ATOM     12  C   UNL A   1      31.834  23.574  25.624  1.00  0.00     0.056 A 
ATOM     13  C   UNL A   1      31.631  22.502  24.750  1.00  0.00     0.021 A 
ATOM     14  Cl  UNL A   1      32.545  23.202  27.156  1.00  0.00    -0.083 Cl
BRANCH   9  15
ATOM     15  C   UNL A   1      30.519  26.440  23.474  1.00  0.00     0.019 A 
ATOM     16  C   UNL A   1      29.939  29.078  22.628  1.00  0.00     0.121 A 
ATOM     17  C   UNL A   1      31.184  28.512  22.358  1.00  0.00     0.047 A 
ATOM     18  C   UNL A   1      28.973  28.312  23.281  1.00  0.00     0.086 A 
ATOM     19  C   UNL A   1      31.462  27.199  22.763  1.00  0.00     0.015 A 
ATOM     20  C   UNL A   1      29.260  27.009  23.686  1.00  0.00     0.134 A 
ATOM     21  F   UNL A   1      28.296  26.296  24.285  1.00  0.00    -0.206 F 
BRANCH  16  22
ATOM     22  O   UNL A   1      29.549  30.351  22.314  1.00  0.00    -0.497 OA
ATOM     23  C   UNL A   1      28.722  31.026  23.253  1.00  0.00     0.278 C 
ENDBRANCH  16  22
ENDBRANCH   9  15
ENDBRANCH   6   8
ENDBRANCH   5   6
ENDBRANCH   4   5
ENDBRANCH   3   4
ENDBRANCH   2   3
ENDBRANCH   1   2
BRANCH   1  24
ATOM     24  C   UNL A   1      31.656  31.334  26.438  1.00  0.00     0.261 C 
BRANCH  24  25
ATOM     25  O   UNL A   1      32.485  31.311  27.603  1.00  0.00    -0.460 OA
BRANCH  25  26
ATOM     26  C   UNL A   1      33.414  32.298  27.626  1.00  0.00     0.338 C 
ATOM     27  O   UNL A   1      33.224  33.493  27.455  1.00  0.00    -0.246 OA
BRANCH  26  28
ATOM     28  C   UNL A   1      34.705  31.744  28.063  1.00  0.00     0.060 A 
ATOM     29  C   UNL A   1      34.766  30.372  28.334  1.00  0.00     0.016 A 
ATOM     30  C   UNL A   1      35.820  32.563  28.252  1.00  0.00     0.016 A 
ATOM     31  C   UNL A   1      35.937  29.817  28.838  1.00  0.00     0.010 A 
ATOM     32  C   UNL A   1      36.991  32.006  28.769  1.00  0.00     0.010 A 
ATOM     33  C   UNL A   1      37.042  30.638  29.094  1.00  0.00    -0.014 A 
BRANCH  33  34
ATOM     34  C   UNL A   1      38.195  30.094  29.846  1.00  0.00     0.031 A 
ATOM     35  C   UNL A   1      38.410  30.547  31.263  1.00  0.00     0.074 A 
ATOM     36  C   UNL A   1      39.011  29.184  29.284  1.00  0.00     0.049 A 
ATOM     37  N   UNL A   1      39.380  30.252  32.087  1.00  0.00    -0.248 NA
ATOM     38  C   UNL A   1      37.395  31.454  31.826  1.00  0.00     0.031 C 
ATOM     39  C   UNL A   1      38.857  28.631  27.938  1.00  0.00     0.029 A 
ATOM     40  N   UNL A   1      40.129  28.563  29.777  1.00  0.00    -0.354 N 
ATOM     41  C   UNL A   1      39.098  30.940  33.262  1.00  0.00     0.074 A 
ATOM     42  C   UNL A   1      37.884  31.690  33.035  1.00  0.00     0.031 C 
ATOM     43  C   UNL A   1      39.846  27.750  27.714  1.00  0.00     0.029 A 
ATOM     44  C   UNL A   1      40.727  27.710  28.880  1.00  0.00     0.049 A 
ATOM     45  H   UNL A   1      40.471  28.713  30.688  1.00  0.00     0.167 HD
ATOM     46  C   UNL A   1      39.791  30.935  34.425  1.00  0.00     0.034 A 
ATOM     47  C   UNL A   1      41.869  27.000  28.980  1.00  0.00     0.034 A 
ATOM     48  C   UNL A   1      40.997  30.177  34.634  1.00  0.00     0.049 A 
ATOM     49  C   UNL A   1      42.671  27.083  30.252  1.00  0.00     0.074 A 
ATOM     50  C   UNL A   1      41.770  30.092  35.779  1.00  0.00     0.029 A 
ATOM     51  N   UNL A   1      41.609  29.377  33.678  1.00  0.00    -0.354 N 
ATOM     52  N   UNL A   1      42.412  27.761  31.347  1.00  0.00    -0.248 NA
ATOM     53  C   UNL A   1      43.920  26.311  30.305  1.00  0.00     0.031 C 
ATOM     54  C   UNL A   1      42.885  29.301  35.494  1.00  0.00     0.029 A 
ATOM     55  C   UNL A   1      42.769  28.825  34.197  1.00  0.00     0.049 A 
ATOM     56  H   UNL A   1      41.270  29.226  32.767  1.00  0.00     0.167 HD
ATOM     57  C   UNL A   1      43.455  27.480  32.224  1.00  0.00     0.074 A 
ATOM     58  C   UNL A   1      44.345  26.568  31.536  1.00  0.00     0.031 C 
ATOM     59  C   UNL A   1      43.653  27.930  33.490  1.00  0.00     0.034 A 
BRANCH  46  60
ATOM     60  C   UNL A   1      39.288  31.805  35.546  1.00  0.00     0.023 A 
ATOM     61  C   UNL A   1      38.553  31.277  36.621  1.00  0.00     0.031 A 
ATOM     62  C   UNL A   1      39.580  33.181  35.554  1.00  0.00     0.131 A 
ATOM     63  C   UNL A   1      38.109  32.127  37.645  1.00  0.00     0.055 A 
ATOM     64  C   UNL A   1      39.187  34.010  36.605  1.00  0.00     0.041 A 
ATOM     65  F   UNL A   1      40.260  33.740  34.540  1.00  0.00    -0.206 F 
ATOM     66  C   UNL A   1      38.442  33.484  37.657  1.00  0.00     0.022 A 
BRANCH  63  67
ATOM     67  S   UNL A   1      37.028  31.450  38.934  1.00  0.00     0.124 S 
ATOM     68  O   UNL A   1      37.870  31.576  40.121  1.00  0.00    -0.237 OA
ATOM     69  O   UNL A   1      35.871  32.335  38.876  1.00  0.00    -0.237 OA
ATOM     70  O   UNL A   1      36.785  30.077  38.492  1.00  0.00    -0.744 OA
ENDBRANCH  63  67
ENDBRANCH  46  60
BRANCH  47  71
ATOM     71  C   UNL A   1      42.337  26.183  27.826  1.00  0.00     0.023 A 
ATOM     72  C   UNL A   1      41.936  24.848  27.670  1.00  0.00     0.031 A 
ATOM     73  C   UNL A   1      43.195  26.735  26.856  1.00  0.00     0.131 A 
ATOM     74  C   UNL A   1      42.407  24.101  26.578  1.00  0.00     0.055 A 
ATOM     75  C   UNL A   1      43.628  26.001  25.751  1.00  0.00     0.041 A 
ATOM     76  F   UNL A   1      43.605  28.010  26.960  1.00  0.00    -0.206 F 
ATOM     77  C   UNL A   1      43.237  24.673  25.611  1.00  0.00     0.022 A 
BRANCH  74  78
ATOM     78  S   UNL A   1      41.938  22.355  26.450  1.00  0.00     0.124 S 
ATOM     79  O   UNL A   1      42.680  21.935  25.265  1.00  0.00    -0.237 OA
ATOM     80  O   UNL A   1      42.406  21.818  27.723  1.00  0.00    -0.237 OA
ATOM     81  O   UNL A   1      40.486  22.403  26.293  1.00  0.00    -0.744 OA
ENDBRANCH  74  78
ENDBRANCH  47  71
BRANCH  59  82
ATOM     82  C   UNL A   1      44.864  27.425  34.229  1.00  0.00     0.023 A 
ATOM     83  C   UNL A   1      46.099  28.089  34.156  1.00  0.00     0.031 A 
ATOM     84  C   UNL A   1      44.761  26.300  35.065  1.00  0.00     0.131 A 
ATOM     85  C   UNL A   1      47.193  27.607  34.891  1.00  0.00     0.055 A 
ATOM     86  C   UNL A   1      45.838  25.855  35.832  1.00  0.00     0.041 A 
ATOM     87  F   UNL A   1      43.600  25.633  35.173  1.00  0.00    -0.206 F 
ATOM     88  C   UNL A   1      47.065  26.506  35.743  1.00  0.00     0.022 A 
BRANCH  85  89
ATOM     89  S   UNL A   1      48.802  28.420  34.696  1.00  0.00     0.124 S 
ATOM     90  O   UNL A   1      49.293  27.823  33.457  1.00  0.00    -0.237 OA
ATOM     91  O   UNL A   1      48.436  29.831  34.622  1.00  0.00    -0.237 OA
ATOM     92  O   UNL A   1      49.530  28.033  35.902  1.00  0.00    -0.744 OA
ENDBRANCH  85  89
ENDBRANCH  59  82
ENDBRANCH  33  34
ENDBRANCH  26  28
ENDBRANCH  25  26
ENDBRANCH  24  25
ENDBRANCH   1  24
TORSDOF 19
ENDMDL
