MODEL 1
REMARK VINA RESULT:     -12.0      0.000      0.000
REMARK SMILES CCc1cc(S(F)(F)(F)(F)F)cc2c1O[C@@H](C(F)(F)F)C(C(=O)OCCOCCOC(=O)c1ccc(-c3c4nc(c(-c5cc(S(=O)(=O)[O-])ccc5F)c5ccc([nH]5)c(-c5cc(S(=O)(=O)[O-])ccc5F)c5nc(c(-c6cc(S(=O)(=O)[O-])ccc6F)c6ccc3[nH]6)C=C5)C=C4)cc1)=C2
REMARK SMILES IDX 28 1 27 2 26 3 25 4 24 5 22 6 23 7 21 8 3 9 4 10 14 11 5 12
REMARK SMILES IDX 13 13 15 14 12 15 96 16 16 17 2 18 1 19 6 20 7 21 8 22 9 23
REMARK SMILES IDX 10 24 11 25 17 26 18 27 19 28 20 29 29 30 30 31 31 32 32 33
REMARK SMILES IDX 33 34 34 35 95 36 35 37 94 38 36 39 37 40 38 41 88 42 39 43
REMARK SMILES IDX 93 44 87 45 89 46 40 47 92 48 86 49 85 50 41 52 73 53 53 54
REMARK SMILES IDX 72 55 54 56 57 57 71 58 90 59 55 60 56 61 70 63 91 64 58 65
REMARK SMILES IDX 42 66 43 67 51 68 44 69 50 70 52 71 49 72 45 73 46 74 47 75
REMARK SMILES IDX 48 76 74 77 75 78 83 79 76 80 82 81 84 82 81 83 77 84 78 85
REMARK SMILES IDX 79 86 80 87 59 88 60 89 68 90 61 91 67 92 69 93 66 94 62 95
REMARK SMILES IDX 63 96 64 97 65 98
REMARK H PARENT 89 51 57 62
REMARK Flexibility Score: inf
ROOT
ATOM      1  C   UNL A   1      34.340  20.627  25.184  1.00  0.00     0.202 C 
ENDROOT
BRANCH   1   2
ATOM      2  O   UNL A   1      33.640  20.393  23.970  1.00  0.00    -0.374 OA
BRANCH   2   3
ATOM      3  C   UNL A   1      32.246  20.552  24.191  1.00  0.00     0.202 C 
BRANCH   3   4
ATOM      4  C   UNL A   1      31.928  22.026  24.384  1.00  0.00     0.261 C 
BRANCH   4   5
ATOM      5  O   UNL A   1      31.759  22.643  23.117  1.00  0.00    -0.460 OA
BRANCH   5   6
ATOM      6  C   UNL A   1      32.693  23.616  22.670  1.00  0.00     0.338 C 
ATOM      7  O   UNL A   1      33.665  23.271  21.929  1.00  0.00    -0.246 OA
BRANCH   6   8
ATOM      8  C   UNL A   1      32.528  25.071  23.079  1.00  0.00     0.087 C 
ATOM      9  C   UNL A   1      31.912  28.890  24.655  1.00  0.00    -0.004 A 
ATOM     10  C   UNL A   1      30.917  29.700  24.135  1.00  0.00     0.032 A 
ATOM     11  C   UNL A   1      32.057  27.619  24.155  1.00  0.00     0.131 A 
ATOM     12  C   UNL A   1      30.088  29.247  23.142  1.00  0.00     0.108 A 
ATOM     13  C   UNL A   1      31.251  27.136  23.141  1.00  0.00     0.019 A 
ATOM     14  O   UNL A   1      32.972  26.790  24.757  1.00  0.00    -0.475 OA
ATOM     15  C   UNL A   1      30.259  27.972  22.644  1.00  0.00     0.036 A 
ATOM     16  C   UNL A   1      31.459  25.764  22.706  1.00  0.00     0.027 C 
ATOM     17  C   UNL A   1      33.586  25.765  23.927  1.00  0.00     0.316 C 
BRANCH   9  18
ATOM     18  C   UNL A   1      32.737  29.272  25.872  1.00  0.00     0.036 C 
ATOM     19  C   UNL A   1      31.815  29.514  27.055  1.00  0.00     0.009 C 
ENDBRANCH   9  18
BRANCH  12  20
ATOM     20  S   UNL A   1      28.778  30.313  22.492  1.00  0.00     0.310 S 
ATOM     21  F   UNL A   1      28.156  28.996  21.865  1.00  0.00    -0.094 F 
ATOM     22  F   UNL A   1      29.560  30.506  21.139  1.00  0.00    -0.094 F 
ATOM     23  F   UNL A   1      27.554  31.087  21.927  1.00  0.00    -0.094 F 
ATOM     24  F   UNL A   1      27.959  29.990  23.804  1.00  0.00    -0.094 F 
ATOM     25  F   UNL A   1      29.970  29.428  23.036  1.00  0.00    -0.094 F 
ENDBRANCH  12  20
BRANCH  17  26
ATOM     26  C   UNL A   1      34.257  24.737  24.824  1.00  0.00     0.430 C 
ATOM     27  F   UNL A   1      34.922  23.862  24.074  1.00  0.00    -0.167 F 
ATOM     28  F   UNL A   1      35.103  25.351  25.645  1.00  0.00    -0.167 F 
ATOM     29  F   UNL A   1      33.332  24.099  25.535  1.00  0.00    -0.167 F 
ENDBRANCH  17  26
ENDBRANCH   6   8
ENDBRANCH   5   6
ENDBRANCH   4   5
ENDBRANCH   3   4
ENDBRANCH   2   3
ENDBRANCH   1   2
BRANCH   1  30
ATOM     30  C   UNL A   1      35.816  20.323  24.984  1.00  0.00     0.261 C 
BRANCH  30  31
ATOM     31  O   UNL A   1      36.593  21.208  25.776  1.00  0.00    -0.460 OA
BRANCH  31  32
ATOM     32  C   UNL A   1      38.011  21.153  25.720  1.00  0.00     0.338 C 
ATOM     33  O   UNL A   1      38.589  20.106  25.289  1.00  0.00    -0.246 OA
BRANCH  32  34
ATOM     34  C   UNL A   1      38.837  22.344  26.175  1.00  0.00     0.060 A 
ATOM     35  C   UNL A   1      40.008  22.098  26.874  1.00  0.00     0.016 A 
ATOM     36  C   UNL A   1      38.421  23.583  25.943  1.00  0.00     0.016 A 
ATOM     37  C   UNL A   1      40.524  23.232  27.544  1.00  0.00     0.010 A 
ATOM     38  C   UNL A   1      39.057  24.655  26.523  1.00  0.00     0.010 A 
ATOM     39  C   UNL A   1      40.185  24.480  27.277  1.00  0.00    -0.014 A 
BRANCH  39  40
ATOM     40  C   UNL A   1      41.004  25.658  27.778  1.00  0.00     0.031 A 
ATOM     41  C   UNL A   1      42.333  25.756  27.359  1.00  0.00     0.074 A 
ATOM     42  C   UNL A   1      40.374  26.596  28.576  1.00  0.00     0.049 A 
ATOM     43  N   UNL A   1      43.193  26.745  27.607  1.00  0.00    -0.248 NA
ATOM     44  C   UNL A   1      43.016  24.744  26.540  1.00  0.00     0.031 C 
ATOM     45  C   UNL A   1      39.032  26.507  28.995  1.00  0.00     0.029 A 
ATOM     46  N   UNL A   1      40.903  27.755  29.099  1.00  0.00    -0.354 N 
ATOM     47  C   UNL A   1      44.366  26.493  27.022  1.00  0.00     0.074 A 
ATOM     48  C   UNL A   1      44.270  25.200  26.332  1.00  0.00     0.031 C 
ATOM     49  C   UNL A   1      38.760  27.591  29.770  1.00  0.00     0.029 A 
ATOM     50  C   UNL A   1      39.927  28.375  29.847  1.00  0.00     0.049 A 
ATOM     51  H   UNL A   1      41.822  28.082  28.963  1.00  0.00     0.167 HD
ATOM     52  C   UNL A   1      45.510  27.293  27.036  1.00  0.00     0.034 A 
ATOM     53  C   UNL A   1      40.029  29.556  30.564  1.00  0.00     0.034 A 
ATOM     54  C   UNL A   1      45.598  28.496  27.718  1.00  0.00     0.049 A 
ATOM     55  C   UNL A   1      41.192  30.327  30.626  1.00  0.00     0.074 A 
ATOM     56  C   UNL A   1      46.742  29.318  27.734  1.00  0.00     0.029 A 
ATOM     57  N   UNL A   1      44.630  29.104  28.486  1.00  0.00    -0.354 N 
ATOM     58  N   UNL A   1      42.353  30.095  30.009  1.00  0.00    -0.248 NA
ATOM     59  C   UNL A   1      41.323  31.563  31.408  1.00  0.00     0.031 C 
ATOM     60  C   UNL A   1      46.470  30.402  28.510  1.00  0.00     0.029 A 
ATOM     61  C   UNL A   1      45.153  30.274  28.991  1.00  0.00     0.049 A 
ATOM     62  H   UNL A   1      43.721  28.762  28.646  1.00  0.00     0.167 HD
ATOM     63  C   UNL A   1      43.225  31.064  30.292  1.00  0.00     0.074 A 
ATOM     64  C   UNL A   1      42.578  32.018  31.203  1.00  0.00     0.031 C 
ATOM     65  C   UNL A   1      44.535  31.192  29.824  1.00  0.00     0.034 A 
BRANCH  52  66
ATOM     66  C   UNL A   1      46.726  26.817  26.258  1.00  0.00     0.023 A 
ATOM     67  C   UNL A   1      47.684  26.040  26.888  1.00  0.00     0.031 A 
ATOM     68  C   UNL A   1      46.845  27.155  24.979  1.00  0.00     0.131 A 
ATOM     69  C   UNL A   1      48.887  25.906  26.155  1.00  0.00     0.055 A 
ATOM     70  C   UNL A   1      47.996  26.872  24.286  1.00  0.00     0.041 A 
ATOM     71  F   UNL A   1      45.839  27.771  24.365  1.00  0.00    -0.206 F 
ATOM     72  C   UNL A   1      49.009  26.159  24.864  1.00  0.00     0.022 A 
BRANCH  69  73
ATOM     73  S   UNL A   1      50.360  25.352  27.047  1.00  0.00     0.124 S 
ATOM     74  O   UNL A   1      49.983  24.213  27.997  1.00  0.00    -0.237 OA
ATOM     75  O   UNL A   1      51.406  24.855  26.046  1.00  0.00    -0.237 OA
ATOM     76  O   UNL A   1      51.007  26.654  27.946  1.00  0.00    -0.744 OA
ENDBRANCH  69  73
ENDBRANCH  52  66
BRANCH  53  77
ATOM     77  C   UNL A   1      38.807  30.040  31.328  1.00  0.00     0.023 A 
ATOM     78  C   UNL A   1      37.841  30.787  30.673  1.00  0.00     0.031 A 
ATOM     79  C   UNL A   1      38.690  29.738  32.616  1.00  0.00     0.131 A 
ATOM     80  C   UNL A   1      36.921  31.420  31.541  1.00  0.00     0.055 A 
ATOM     81  C   UNL A   1      37.685  30.288  33.374  1.00  0.00     0.041 A 
ATOM     82  F   UNL A   1      39.553  28.897  33.176  1.00  0.00    -0.206 F 
ATOM     83  C   UNL A   1      36.729  31.084  32.804  1.00  0.00     0.022 A 
BRANCH  80  84
ATOM     84  S   UNL A   1      35.939  32.787  30.876  1.00  0.00     0.124 S 
ATOM     85  O   UNL A   1      34.471  32.597  31.263  1.00  0.00    -0.237 OA
ATOM     86  O   UNL A   1      36.452  34.110  31.450  1.00  0.00    -0.237 OA
ATOM     87  O   UNL A   1      36.080  32.813  29.172  1.00  0.00    -0.744 OA
ENDBRANCH  80  84
ENDBRANCH  53  77
BRANCH  65  88
ATOM     88  C   UNL A   1      45.331  32.412  30.258  1.00  0.00     0.023 A 
ATOM     89  C   UNL A   1      45.247  33.559  29.485  1.00  0.00     0.031 A 
ATOM     90  C   UNL A   1      46.096  32.366  31.341  1.00  0.00     0.131 A 
ATOM     91  C   UNL A   1      46.241  34.523  29.780  1.00  0.00     0.055 A 
ATOM     92  C   UNL A   1      46.946  33.403  31.642  1.00  0.00     0.041 A 
ATOM     93  F   UNL A   1      46.040  31.307  32.143  1.00  0.00    -0.206 F 
ATOM     94  C   UNL A   1      46.959  34.543  30.888  1.00  0.00     0.022 A 
BRANCH  91  95
ATOM     95  S   UNL A   1      46.551  35.816  28.552  1.00  0.00     0.124 S 
ATOM     96  O   UNL A   1      48.052  35.893  28.260  1.00  0.00    -0.237 OA
ATOM     97  O   UNL A   1      45.797  35.485  27.262  1.00  0.00    -0.237 OA
ATOM     98  O   UNL A   1      46.011  37.320  29.159  1.00  0.00    -0.744 OA
ENDBRANCH  91  95
ENDBRANCH  65  88
ENDBRANCH  39  40
ENDBRANCH  32  34
ENDBRANCH  31  32
ENDBRANCH  30  31
ENDBRANCH   1  30
TORSDOF 20
ENDMDL
MODEL 2
REMARK VINA RESULT:     -11.8      4.917      9.365
REMARK SMILES CCc1cc(S(F)(F)(F)(F)F)cc2c1O[C@@H](C(F)(F)F)C(C(=O)OCCOCCOC(=O)c1ccc(-c3c4nc(c(-c5cc(S(=O)(=O)[O-])ccc5F)c5ccc([nH]5)c(-c5cc(S(=O)(=O)[O-])ccc5F)c5nc(c(-c6cc(S(=O)(=O)[O-])ccc6F)c6ccc3[nH]6)C=C5)C=C4)cc1)=C2
REMARK SMILES IDX 28 1 27 2 26 3 25 4 24 5 22 6 23 7 21 8 3 9 4 10 14 11 5 12
REMARK SMILES IDX 13 13 15 14 12 15 96 16 16 17 2 18 1 19 6 20 7 21 8 22 9 23
REMARK SMILES IDX 10 24 11 25 17 26 18 27 19 28 20 29 29 30 30 31 31 32 32 33
REMARK SMILES IDX 33 34 34 35 95 36 35 37 94 38 36 39 37 40 38 41 88 42 39 43
REMARK SMILES IDX 93 44 87 45 89 46 40 47 92 48 86 49 85 50 41 52 73 53 53 54
REMARK SMILES IDX 72 55 54 56 57 57 71 58 90 59 55 60 56 61 70 63 91 64 58 65
REMARK SMILES IDX 42 66 43 67 51 68 44 69 50 70 52 71 49 72 45 73 46 74 47 75
REMARK SMILES IDX 48 76 74 77 75 78 83 79 76 80 82 81 84 82 81 83 77 84 78 85
REMARK SMILES IDX 79 86 80 87 59 88 60 89 68 90 61 91 67 92 69 93 66 94 62 95
REMARK SMILES IDX 63 96 64 97 65 98
REMARK H PARENT 89 51 57 62
REMARK Flexibility Score: inf
ROOT
ATOM      1  C   UNL A   1      44.123  19.830  25.305  1.00  0.00     0.202 C 
ENDROOT
BRANCH   1   2
ATOM      2  O   UNL A   1      42.716  20.013  25.364  1.00  0.00    -0.374 OA
BRANCH   2   3
ATOM      3  C   UNL A   1      42.215  19.439  26.563  1.00  0.00     0.202 C 
BRANCH   3   4
ATOM      4  C   UNL A   1      41.674  20.538  27.464  1.00  0.00     0.261 C 
BRANCH   4   5
ATOM      5  O   UNL A   1      40.315  20.787  27.144  1.00  0.00    -0.460 OA
BRANCH   5   6
ATOM      6  C   UNL A   1      39.979  21.800  26.207  1.00  0.00     0.338 C 
ATOM      7  O   UNL A   1      40.898  22.435  25.601  1.00  0.00    -0.246 OA
BRANCH   6   8
ATOM      8  C   UNL A   1      38.520  22.124  25.929  1.00  0.00     0.087 C 
ATOM      9  C   UNL A   1      34.460  23.071  25.673  1.00  0.00    -0.004 A 
ATOM     10  C   UNL A   1      33.552  22.113  25.256  1.00  0.00     0.032 A 
ATOM     11  C   UNL A   1      35.781  22.718  25.799  1.00  0.00     0.131 A 
ATOM     12  C   UNL A   1      33.957  20.834  24.978  1.00  0.00     0.108 A 
ATOM     13  C   UNL A   1      36.228  21.442  25.510  1.00  0.00     0.019 A 
ATOM     14  O   UNL A   1      36.649  23.645  26.320  1.00  0.00    -0.475 OA
ATOM     15  C   UNL A   1      35.290  20.502  25.099  1.00  0.00     0.036 A 
ATOM     16  C   UNL A   1      37.639  21.156  25.712  1.00  0.00     0.027 C 
ATOM     17  C   UNL A   1      38.038  23.569  25.893  1.00  0.00     0.316 C 
BRANCH   9  18
ATOM     18  C   UNL A   1      34.043  24.447  26.165  1.00  0.00     0.036 C 
ATOM     19  C   UNL A   1      34.017  25.417  24.995  1.00  0.00     0.009 C 
ENDBRANCH   9  18
BRANCH  12  20
ATOM     20  S   UNL A   1      32.750  19.589  24.458  1.00  0.00     0.310 S 
ATOM     21  F   UNL A   1      33.995  18.724  23.991  1.00  0.00    -0.094 F 
ATOM     22  F   UNL A   1      32.708  20.189  23.002  1.00  0.00    -0.094 F 
ATOM     23  F   UNL A   1      31.841  18.404  24.026  1.00  0.00    -0.094 F 
ATOM     24  F   UNL A   1      32.917  18.930  25.884  1.00  0.00    -0.094 F 
ATOM     25  F   UNL A   1      33.765  20.726  24.880  1.00  0.00    -0.094 F 
ENDBRANCH  12  20
BRANCH  17  26
ATOM     26  C   UNL A   1      38.893  24.401  26.835  1.00  0.00     0.430 C 
ATOM     27  F   UNL A   1      39.914  24.924  26.160  1.00  0.00    -0.167 F 
ATOM     28  F   UNL A   1      38.157  25.379  27.354  1.00  0.00    -0.167 F 
ATOM     29  F   UNL A   1      39.357  23.628  27.812  1.00  0.00    -0.167 F 
ENDBRANCH  17  26
ENDBRANCH   6   8
ENDBRANCH   5   6
ENDBRANCH   4   5
ENDBRANCH   3   4
ENDBRANCH   2   3
ENDBRANCH   1   2
BRANCH   1  30
ATOM     30  C   UNL A   1      44.805  21.181  25.163  1.00  0.00     0.261 C 
BRANCH  30  31
ATOM     31  O   UNL A   1      43.848  22.215  25.336  1.00  0.00    -0.460 OA
BRANCH  31  32
ATOM     32  C   UNL A   1      44.260  23.574  25.313  1.00  0.00     0.338 C 
ATOM     33  O   UNL A   1      45.010  23.995  24.378  1.00  0.00    -0.246 OA
BRANCH  32  34
ATOM     34  C   UNL A   1      43.804  24.525  26.408  1.00  0.00     0.060 A 
ATOM     35  C   UNL A   1      43.087  24.001  27.471  1.00  0.00     0.016 A 
ATOM     36  C   UNL A   1      44.052  25.826  26.319  1.00  0.00     0.016 A 
ATOM     37  C   UNL A   1      42.421  24.977  28.250  1.00  0.00     0.010 A 
ATOM     38  C   UNL A   1      43.474  26.711  27.198  1.00  0.00     0.010 A 
ATOM     39  C   UNL A   1      42.704  26.267  28.237  1.00  0.00    -0.014 A 
BRANCH  39  40
ATOM     40  C   UNL A   1      42.203  27.207  29.322  1.00  0.00     0.031 A 
ATOM     41  C   UNL A   1      41.041  27.939  29.068  1.00  0.00     0.074 A 
ATOM     42  C   UNL A   1      42.893  27.244  30.520  1.00  0.00     0.049 A 
ATOM     43  N   UNL A   1      40.389  28.747  29.906  1.00  0.00    -0.248 NA
ATOM     44  C   UNL A   1      40.325  27.928  27.784  1.00  0.00     0.031 C 
ATOM     45  C   UNL A   1      44.061  26.502  30.786  1.00  0.00     0.029 A 
ATOM     46  N   UNL A   1      42.596  27.979  31.646  1.00  0.00    -0.354 N 
ATOM     47  C   UNL A   1      39.309  29.255  29.308  1.00  0.00     0.074 A 
ATOM     48  C   UNL A   1      39.255  28.740  27.933  1.00  0.00     0.031 C 
ATOM     49  C   UNL A   1      44.468  26.794  32.050  1.00  0.00     0.029 A 
ATOM     50  C   UNL A   1      43.561  27.723  32.594  1.00  0.00     0.049 A 
ATOM     51  H   UNL A   1      41.826  28.583  31.753  1.00  0.00     0.167 HD
ATOM     52  C   UNL A   1      38.366  30.125  29.858  1.00  0.00     0.034 A 
ATOM     53  C   UNL A   1      43.663  28.261  33.867  1.00  0.00     0.034 A 
ATOM     54  C   UNL A   1      38.445  30.629  31.147  1.00  0.00     0.049 A 
ATOM     55  C   UNL A   1      42.751  29.177  34.397  1.00  0.00     0.074 A 
ATOM     56  C   UNL A   1      37.498  31.500  31.718  1.00  0.00     0.029 A 
ATOM     57  N   UNL A   1      39.423  30.393  32.087  1.00  0.00    -0.354 N 
ATOM     58  N   UNL A   1      41.650  29.655  33.814  1.00  0.00    -0.248 NA
ATOM     59  C   UNL A   1      42.867  29.778  35.732  1.00  0.00     0.031 C 
ATOM     60  C   UNL A   1      37.904  31.794  32.983  1.00  0.00     0.029 A 
ATOM     61  C   UNL A   1      39.112  31.111  33.221  1.00  0.00     0.049 A 
ATOM     62  H   UNL A   1      40.208  29.811  31.969  1.00  0.00     0.167 HD
ATOM     63  C   UNL A   1      41.022  30.495  34.639  1.00  0.00     0.074 A 
ATOM     64  C   UNL A   1      41.799  30.593  35.881  1.00  0.00     0.031 C 
ATOM     65  C   UNL A   1      39.828  31.180  34.406  1.00  0.00     0.034 A 
BRANCH  52  66
ATOM     66  C   UNL A   1      37.187  30.542  28.995  1.00  0.00     0.023 A 
ATOM     67  C   UNL A   1      36.923  31.886  28.793  1.00  0.00     0.031 A 
ATOM     68  C   UNL A   1      36.429  29.601  28.443  1.00  0.00     0.131 A 
ATOM     69  C   UNL A   1      35.654  32.143  28.222  1.00  0.00     0.055 A 
ATOM     70  C   UNL A   1      35.272  29.934  27.782  1.00  0.00     0.041 A 
ATOM     71  F   UNL A   1      36.795  28.325  28.529  1.00  0.00    -0.206 F 
ATOM     72  C   UNL A   1      34.918  31.241  27.597  1.00  0.00     0.022 A 
BRANCH  69  73
ATOM     73  S   UNL A   1      34.992  33.822  28.359  1.00  0.00     0.124 S 
ATOM     74  O   UNL A   1      35.885  34.648  29.288  1.00  0.00    -0.237 OA
ATOM     75  O   UNL A   1      34.959  34.471  26.973  1.00  0.00    -0.237 OA
ATOM     76  O   UNL A   1      33.408  33.760  28.997  1.00  0.00    -0.744 OA
ENDBRANCH  69  73
ENDBRANCH  52  66
BRANCH  53  77
ATOM     77  C   UNL A   1      44.834  27.830  34.736  1.00  0.00     0.023 A 
ATOM     78  C   UNL A   1      44.729  26.685  35.509  1.00  0.00     0.031 A 
ATOM     79  C   UNL A   1      45.938  28.567  34.741  1.00  0.00     0.131 A 
ATOM     80  C   UNL A   1      45.748  26.555  36.482  1.00  0.00     0.055 A 
ATOM     81  C   UNL A   1      46.953  28.300  35.629  1.00  0.00     0.041 A 
ATOM     82  F   UNL A   1      46.064  29.572  33.881  1.00  0.00    -0.206 F 
ATOM     83  C   UNL A   1      46.891  27.218  36.463  1.00  0.00     0.022 A 
BRANCH  80  84
ATOM     84  S   UNL A   1      45.466  25.402  37.847  1.00  0.00     0.124 S 
ATOM     85  O   UNL A   1      45.911  26.047  39.161  1.00  0.00    -0.237 OA
ATOM     86  O   UNL A   1      43.977  25.059  37.926  1.00  0.00    -0.237 OA
ATOM     87  O   UNL A   1      46.367  23.972  37.581  1.00  0.00    -0.744 OA
ENDBRANCH  80  84
ENDBRANCH  53  77
BRANCH  65  88
ATOM     88  C   UNL A   1      39.280  32.058  35.519  1.00  0.00     0.023 A 
ATOM     89  C   UNL A   1      39.628  33.399  35.530  1.00  0.00     0.031 A 
ATOM     90  C   UNL A   1      38.500  31.541  36.461  1.00  0.00     0.131 A 
ATOM     91  C   UNL A   1      39.336  34.057  36.749  1.00  0.00     0.055 A 
ATOM     92  C   UNL A   1      38.142  32.286  37.559  1.00  0.00     0.041 A 
ATOM     93  F   UNL A   1      38.061  30.292  36.341  1.00  0.00    -0.206 F 
ATOM     94  C   UNL A   1      38.501  33.601  37.665  1.00  0.00     0.022 A 
BRANCH  91  95
ATOM     95  S   UNL A   1      40.164  35.633  37.075  1.00  0.00     0.124 S 
ATOM     96  O   UNL A   1      39.711  36.177  38.432  1.00  0.00    -0.237 OA
ATOM     97  O   UNL A   1      41.679  35.419  37.090  1.00  0.00    -0.237 OA
ATOM     98  O   UNL A   1      39.759  36.754  35.848  1.00  0.00    -0.744 OA
ENDBRANCH  91  95
ENDBRANCH  65  88
ENDBRANCH  39  40
ENDBRANCH  32  34
ENDBRANCH  31  32
ENDBRANCH  30  31
ENDBRANCH   1  30
TORSDOF 20
ENDMDL
MODEL 3
REMARK VINA RESULT:     -11.6      0.600      7.429
REMARK SMILES CCc1cc(S(F)(F)(F)(F)F)cc2c1O[C@@H](C(F)(F)F)C(C(=O)OCCOCCOC(=O)c1ccc(-c3c4nc(c(-c5cc(S(=O)(=O)[O-])ccc5F)c5ccc([nH]5)c(-c5cc(S(=O)(=O)[O-])ccc5F)c5nc(c(-c6cc(S(=O)(=O)[O-])ccc6F)c6ccc3[nH]6)C=C5)C=C4)cc1)=C2
REMARK SMILES IDX 28 1 27 2 26 3 25 4 24 5 22 6 23 7 21 8 3 9 4 10 14 11 5 12
REMARK SMILES IDX 13 13 15 14 12 15 96 16 16 17 2 18 1 19 6 20 7 21 8 22 9 23
REMARK SMILES IDX 10 24 11 25 17 26 18 27 19 28 20 29 29 30 30 31 31 32 32 33
REMARK SMILES IDX 33 34 34 35 95 36 35 37 94 38 36 39 37 40 38 41 88 42 39 43
REMARK SMILES IDX 93 44 87 45 89 46 40 47 92 48 86 49 85 50 41 52 73 53 53 54
REMARK SMILES IDX 72 55 54 56 57 57 71 58 90 59 55 60 56 61 70 63 91 64 58 65
REMARK SMILES IDX 42 66 43 67 51 68 44 69 50 70 52 71 49 72 45 73 46 74 47 75
REMARK SMILES IDX 48 76 74 77 75 78 83 79 76 80 82 81 84 82 81 83 77 84 78 85
REMARK SMILES IDX 79 86 80 87 59 88 60 89 68 90 61 91 67 92 69 93 66 94 62 95
REMARK SMILES IDX 63 96 64 97 65 98
REMARK H PARENT 89 51 57 62
REMARK Flexibility Score: inf
ROOT
ATOM      1  C   UNL A   1      34.475  20.495  25.326  1.00  0.00     0.202 C 
ENDROOT
BRANCH   1   2
ATOM      2  O   UNL A   1      33.766  20.056  24.177  1.00  0.00    -0.374 OA
BRANCH   2   3
ATOM      3  C   UNL A   1      32.370  20.182  24.406  1.00  0.00     0.202 C 
BRANCH   3   4
ATOM      4  C   UNL A   1      32.039  21.630  24.731  1.00  0.00     0.261 C 
BRANCH   4   5
ATOM      5  O   UNL A   1      31.694  22.316  23.537  1.00  0.00    -0.460 OA
BRANCH   5   6
ATOM      6  C   UNL A   1      32.582  23.281  22.991  1.00  0.00     0.338 C 
ATOM      7  O   UNL A   1      33.511  22.916  22.204  1.00  0.00    -0.246 OA
BRANCH   6   8
ATOM      8  C   UNL A   1      32.420  24.750  23.347  1.00  0.00     0.087 C 
ATOM      9  C   UNL A   1      31.816  28.624  24.786  1.00  0.00    -0.004 A 
ATOM     10  C   UNL A   1      30.820  29.415  24.241  1.00  0.00     0.032 A 
ATOM     11  C   UNL A   1      31.958  27.336  24.331  1.00  0.00     0.131 A 
ATOM     12  C   UNL A   1      29.986  28.928  23.270  1.00  0.00     0.108 A 
ATOM     13  C   UNL A   1      31.146  26.816  23.340  1.00  0.00     0.019 A 
ATOM     14  O   UNL A   1      32.875  26.528  24.959  1.00  0.00    -0.475 OA
ATOM     15  C   UNL A   1      30.152  27.636  22.817  1.00  0.00     0.036 A 
ATOM     16  C   UNL A   1      31.351  25.430  22.954  1.00  0.00     0.027 C 
ATOM     17  C   UNL A   1      33.484  25.473  24.164  1.00  0.00     0.316 C 
BRANCH   9  18
ATOM     18  C   UNL A   1      32.648  29.049  25.984  1.00  0.00     0.036 C 
ATOM     19  C   UNL A   1      31.798  28.983  27.242  1.00  0.00     0.009 C 
ENDBRANCH   9  18
BRANCH  12  20
ATOM     20  S   UNL A   1      28.674  29.971  22.588  1.00  0.00     0.310 S 
ATOM     21  F   UNL A   1      28.961  30.952  23.802  1.00  0.00    -0.094 F 
ATOM     22  F   UNL A   1      27.596  29.271  23.500  1.00  0.00    -0.094 F 
ATOM     23  F   UNL A   1      27.620  31.000  22.087  1.00  0.00    -0.094 F 
ATOM     24  F   UNL A   1      29.797  30.744  21.790  1.00  0.00    -0.094 F 
ATOM     25  F   UNL A   1      29.777  29.004  23.177  1.00  0.00    -0.094 F 
ENDBRANCH  12  20
BRANCH  17  26
ATOM     26  C   UNL A   1      34.158  24.477  25.094  1.00  0.00     0.430 C 
ATOM     27  F   UNL A   1      33.261  23.992  25.948  1.00  0.00    -0.167 F 
ATOM     28  F   UNL A   1      34.673  23.482  24.379  1.00  0.00    -0.167 F 
ATOM     29  F   UNL A   1      35.127  25.088  25.769  1.00  0.00    -0.167 F 
ENDBRANCH  17  26
ENDBRANCH   6   8
ENDBRANCH   5   6
ENDBRANCH   4   5
ENDBRANCH   3   4
ENDBRANCH   2   3
ENDBRANCH   1   2
BRANCH   1  30
ATOM     30  C   UNL A   1      35.967  20.309  25.103  1.00  0.00     0.261 C 
BRANCH  30  31
ATOM     31  O   UNL A   1      36.674  21.372  25.722  1.00  0.00    -0.460 OA
BRANCH  31  32
ATOM     32  C   UNL A   1      38.093  21.344  25.778  1.00  0.00     0.338 C 
ATOM     33  O   UNL A   1      38.717  20.264  25.538  1.00  0.00    -0.246 OA
BRANCH  32  34
ATOM     34  C   UNL A   1      38.866  22.606  26.126  1.00  0.00     0.060 A 
ATOM     35  C   UNL A   1      40.088  22.468  26.763  1.00  0.00     0.016 A 
ATOM     36  C   UNL A   1      38.358  23.804  25.863  1.00  0.00     0.016 A 
ATOM     37  C   UNL A   1      40.569  23.664  27.346  1.00  0.00     0.010 A 
ATOM     38  C   UNL A   1      38.955  24.941  26.353  1.00  0.00     0.010 A 
ATOM     39  C   UNL A   1      40.134  24.874  27.043  1.00  0.00    -0.014 A 
BRANCH  39  40
ATOM     40  C   UNL A   1      40.904  26.124  27.437  1.00  0.00     0.031 A 
ATOM     41  C   UNL A   1      40.244  27.082  28.210  1.00  0.00     0.074 A 
ATOM     42  C   UNL A   1      42.230  26.218  27.056  1.00  0.00     0.049 A 
ATOM     43  N   UNL A   1      40.755  28.198  28.732  1.00  0.00    -0.248 NA
ATOM     44  C   UNL A   1      38.825  27.002  28.587  1.00  0.00     0.031 C 
ATOM     45  C   UNL A   1      42.904  25.251  26.284  1.00  0.00     0.029 A 
ATOM     46  N   UNL A   1      43.123  27.228  27.340  1.00  0.00    -0.354 N 
ATOM     47  C   UNL A   1      39.820  28.851  29.426  1.00  0.00     0.074 A 
ATOM     48  C   UNL A   1      38.565  28.094  29.338  1.00  0.00     0.031 C 
ATOM     49  C   UNL A   1      44.181  25.678  26.095  1.00  0.00     0.029 A 
ATOM     50  C   UNL A   1      44.326  26.917  26.746  1.00  0.00     0.049 A 
ATOM     51  H   UNL A   1      42.933  28.032  27.874  1.00  0.00     0.167 HD
ATOM     52  C   UNL A   1      39.968  30.047  30.131  1.00  0.00     0.034 A 
ATOM     53  C   UNL A   1      45.495  27.661  26.759  1.00  0.00     0.034 A 
ATOM     54  C   UNL A   1      41.150  30.770  30.180  1.00  0.00     0.049 A 
ATOM     55  C   UNL A   1      45.627  28.887  27.416  1.00  0.00     0.074 A 
ATOM     56  C   UNL A   1      41.318  31.972  30.893  1.00  0.00     0.029 A 
ATOM     57  N   UNL A   1      42.347  30.472  29.566  1.00  0.00    -0.354 N 
ATOM     58  N   UNL A   1      44.705  29.521  28.143  1.00  0.00    -0.248 NA
ATOM     59  C   UNL A   1      46.850  29.700  27.410  1.00  0.00     0.031 C 
ATOM     60  C   UNL A   1      42.595  32.400  30.704  1.00  0.00     0.029 A 
ATOM     61  C   UNL A   1      43.245  31.471  29.869  1.00  0.00     0.049 A 
ATOM     62  H   UNL A   1      42.528  29.682  29.008  1.00  0.00     0.167 HD
ATOM     63  C   UNL A   1      45.205  30.658  28.630  1.00  0.00     0.074 A 
ATOM     64  C   UNL A   1      46.589  30.794  28.159  1.00  0.00     0.031 C 
ATOM     65  C   UNL A   1      44.562  31.586  29.452  1.00  0.00     0.034 A 
BRANCH  52  66
ATOM     66  C   UNL A   1      38.765  30.587  30.887  1.00  0.00     0.023 A 
ATOM     67  C   UNL A   1      37.784  31.287  30.207  1.00  0.00     0.031 A 
ATOM     68  C   UNL A   1      38.677  30.369  32.195  1.00  0.00     0.131 A 
ATOM     69  C   UNL A   1      36.880  31.974  31.053  1.00  0.00     0.055 A 
ATOM     70  C   UNL A   1      37.687  30.965  32.937  1.00  0.00     0.041 A 
ATOM     71  F   UNL A   1      39.555  29.567  32.790  1.00  0.00    -0.206 F 
ATOM     72  C   UNL A   1      36.717  31.720  32.338  1.00  0.00     0.022 A 
BRANCH  69  73
ATOM     73  S   UNL A   1      35.879  33.293  30.322  1.00  0.00     0.124 S 
ATOM     74  O   UNL A   1      34.724  32.677  29.528  1.00  0.00    -0.237 OA
ATOM     75  O   UNL A   1      35.316  34.181  31.433  1.00  0.00    -0.237 OA
ATOM     76  O   UNL A   1      36.851  34.235  29.277  1.00  0.00    -0.744 OA
ENDBRANCH  69  73
ENDBRANCH  52  66
BRANCH  53  77
ATOM     77  C   UNL A   1      46.703  27.113  26.017  1.00  0.00     0.023 A 
ATOM     78  C   UNL A   1      47.686  26.431  26.715  1.00  0.00     0.031 A 
ATOM     79  C   UNL A   1      46.795  27.303  24.706  1.00  0.00     0.131 A 
ATOM     80  C   UNL A   1      48.879  26.235  25.981  1.00  0.00     0.055 A 
ATOM     81  C   UNL A   1      47.941  26.963  24.028  1.00  0.00     0.041 A 
ATOM     82  F   UNL A   1      45.769  27.827  24.043  1.00  0.00    -0.206 F 
ATOM     83  C   UNL A   1      48.977  26.339  24.668  1.00  0.00     0.022 A 
BRANCH  80  84
ATOM     84  S   UNL A   1      50.377  25.814  26.905  1.00  0.00     0.124 S 
ATOM     85  O   UNL A   1      51.573  25.776  25.951  1.00  0.00    -0.237 OA
ATOM     86  O   UNL A   1      50.622  26.867  27.988  1.00  0.00    -0.237 OA
ATOM     87  O   UNL A   1      50.183  24.280  27.636  1.00  0.00    -0.744 OA
ENDBRANCH  80  84
ENDBRANCH  53  77
BRANCH  65  88
ATOM     88  C   UNL A   1      45.355  32.797  29.916  1.00  0.00     0.023 A 
ATOM     89  C   UNL A   1      45.308  33.947  29.145  1.00  0.00     0.031 A 
ATOM     90  C   UNL A   1      46.082  32.740  31.025  1.00  0.00     0.131 A 
ATOM     91  C   UNL A   1      46.301  34.900  29.477  1.00  0.00     0.055 A 
ATOM     92  C   UNL A   1      46.931  33.768  31.359  1.00  0.00     0.041 A 
ATOM     93  F   UNL A   1      45.987  31.679  31.821  1.00  0.00    -0.206 F 
ATOM     94  C   UNL A   1      46.981  34.910  30.609  1.00  0.00     0.022 A 
BRANCH  91  95
ATOM     95  S   UNL A   1      46.666  36.193  28.264  1.00  0.00     0.124 S 
ATOM     96  O   UNL A   1      46.356  35.676  26.857  1.00  0.00    -0.237 OA
ATOM     97  O   UNL A   1      45.804  37.424  28.557  1.00  0.00    -0.237 OA
ATOM     98  O   UNL A   1      48.319  36.618  28.364  1.00  0.00    -0.744 OA
ENDBRANCH  91  95
ENDBRANCH  65  88
ENDBRANCH  39  40
ENDBRANCH  32  34
ENDBRANCH  31  32
ENDBRANCH  30  31
ENDBRANCH   1  30
TORSDOF 20
ENDMDL
