MODEL 1
REMARK VINA RESULT:     -10.5      0.000      0.000
REMARK SMILES CCCCCCNC(=O)Oc1cccc(-c2ccc([C@@H](C)C(=O)OCCOCCOC(=O)c3ccc(-c4c5nc(c(-c6cc(S(=O)(=O)[O-])ccc6F)c6ccc([nH]6)c(-c6cc(S(=O)(=O)[O-])ccc6F)c6nc(c(-c7cc(S(=O)(=O)[O-])ccc7F)c7ccc4[nH]7)C=C6)C=C5)cc3)cc2Cl)c1
REMARK SMILES IDX 24 1 22 2 23 3 20 4 21 5 19 6 16 7 17 8 97 9 18 10 96 11
REMARK SMILES IDX 98 12 15 13 11 14 12 15 99 16 13 17 14 18 10 19 8 20 7 21
REMARK SMILES IDX 9 23 6 24 5 25 4 26 3 27 2 28 1 29 25 30 26 31 27 32 28 33
REMARK SMILES IDX 29 34 30 35 31 36 32 37 33 38 34 39 95 40 35 41 94 42 36 43
REMARK SMILES IDX 37 44 38 45 88 46 39 47 93 48 87 49 89 50 40 51 92 52 86 53
REMARK SMILES IDX 85 54 41 56 73 57 53 58 72 59 54 60 57 61 71 62 90 63 55 64
REMARK SMILES IDX 56 65 70 67 91 68 58 69 42 70 43 71 51 72 44 73 50 74 52 75
REMARK SMILES IDX 49 76 45 77 46 78 47 79 48 80 74 81 75 82 83 83 76 84 82 85
REMARK SMILES IDX 84 86 81 87 77 88 78 89 79 90 80 91 59 92 60 93 68 94 61 95
REMARK SMILES IDX 67 96 69 97 66 98 62 99 63 100 64 101 65 102
REMARK H PARENT 7 22 89 55 57 66
REMARK Flexibility Score: inf
ROOT
ATOM      1  O   UNL A   1      31.361  25.599  24.487  1.00  0.00    -0.463 OA
ENDROOT
BRANCH   1   2
ATOM      2  C   UNL A   1      31.215  24.313  24.081  1.00  0.00     0.313 C 
ATOM      3  O   UNL A   1      30.617  23.967  23.065  1.00  0.00    -0.252 OA
BRANCH   2   4
ATOM      4  C   UNL A   1      31.835  23.294  25.024  1.00  0.00     0.126 C 
ATOM      5  C   UNL A   1      31.132  23.360  26.376  1.00  0.00     0.025 C 
BRANCH   4   6
ATOM      6  C   UNL A   1      33.354  23.277  25.171  1.00  0.00    -0.033 A 
ATOM      7  C   UNL A   1      36.175  23.086  25.628  1.00  0.00     0.000 A 
ATOM      8  C   UNL A   1      35.480  24.300  25.786  1.00  0.00     0.010 A 
ATOM      9  C   UNL A   1      35.428  21.971  25.207  1.00  0.00     0.049 A 
ATOM     10  C   UNL A   1      34.095  24.395  25.569  1.00  0.00     0.005 A 
ATOM     11  C   UNL A   1      34.047  22.070  24.976  1.00  0.00     0.025 A 
ATOM     12  Cl  UNL A   1      36.131  20.397  25.014  1.00  0.00    -0.084 Cl
BRANCH   7  13
ATOM     13  C   UNL A   1      37.617  23.021  25.946  1.00  0.00    -0.013 A 
ATOM     14  C   UNL A   1      39.697  21.781  26.164  1.00  0.00     0.133 A 
ATOM     15  C   UNL A   1      40.353  22.908  26.653  1.00  0.00     0.047 A 
ATOM     16  C   UNL A   1      38.344  21.826  25.816  1.00  0.00     0.056 A 
ATOM     17  C   UNL A   1      39.651  24.106  26.767  1.00  0.00     0.004 A 
ATOM     18  C   UNL A   1      38.298  24.160  26.418  1.00  0.00     0.009 A 
BRANCH  14  19
ATOM     19  O   UNL A   1      40.419  20.576  26.156  1.00  0.00    -0.410 OA
BRANCH  19  20
ATOM     20  C   UNL A   1      41.159  20.266  27.286  1.00  0.00     0.412 C 
ATOM     21  N   UNL A   1      42.501  20.162  27.046  1.00  0.00    -0.321 N 
ATOM     22  H   UNL A   1      43.065  19.927  27.818  1.00  0.00     0.167 HD
ATOM     23  O   UNL A   1      40.711  20.088  28.415  1.00  0.00    -0.224 OA
BRANCH  21  24
ATOM     24  C   UNL A   1      43.187  20.359  25.785  1.00  0.00     0.119 C 
BRANCH  24  25
ATOM     25  C   UNL A   1      43.806  19.062  25.260  1.00  0.00     0.021 C 
BRANCH  25  26
ATOM     26  C   UNL A   1      44.650  19.217  23.987  1.00  0.00     0.002 C 
BRANCH  26  27
ATOM     27  C   UNL A   1      46.104  19.650  24.206  1.00  0.00    -0.000 C 
BRANCH  27  28
ATOM     28  C   UNL A   1      46.293  20.936  25.016  1.00  0.00    -0.003 C 
ATOM     29  C   UNL A   1      46.049  22.200  24.208  1.00  0.00     0.004 C 
ENDBRANCH  27  28
ENDBRANCH  26  27
ENDBRANCH  25  26
ENDBRANCH  24  25
ENDBRANCH  21  24
ENDBRANCH  19  20
ENDBRANCH  14  19
ENDBRANCH   7  13
ENDBRANCH   4   6
ENDBRANCH   2   4
ENDBRANCH   1   2
BRANCH   1  30
ATOM     30  C   UNL A   1      30.397  26.537  23.975  1.00  0.00     0.261 C 
BRANCH  30  31
ATOM     31  C   UNL A   1      30.941  27.968  23.992  1.00  0.00     0.202 C 
BRANCH  31  32
ATOM     32  O   UNL A   1      31.175  28.542  25.277  1.00  0.00    -0.374 OA
BRANCH  32  33
ATOM     33  C   UNL A   1      31.549  29.918  25.323  1.00  0.00     0.202 C 
BRANCH  33  34
ATOM     34  C   UNL A   1      32.070  30.462  26.660  1.00  0.00     0.261 C 
BRANCH  34  35
ATOM     35  O   UNL A   1      33.502  30.395  26.768  1.00  0.00    -0.460 OA
BRANCH  35  36
ATOM     36  C   UNL A   1      34.067  31.420  27.456  1.00  0.00     0.338 C 
ATOM     37  O   UNL A   1      33.547  32.484  27.744  1.00  0.00    -0.246 OA
BRANCH  36  38
ATOM     38  C   UNL A   1      35.365  30.992  28.015  1.00  0.00     0.060 A 
ATOM     39  C   UNL A   1      35.474  29.661  28.442  1.00  0.00     0.016 A 
ATOM     40  C   UNL A   1      36.430  31.878  28.179  1.00  0.00     0.016 A 
ATOM     41  C   UNL A   1      36.637  29.221  29.073  1.00  0.00     0.010 A 
ATOM     42  C   UNL A   1      37.593  31.437  28.822  1.00  0.00     0.010 A 
ATOM     43  C   UNL A   1      37.692  30.115  29.298  1.00  0.00    -0.014 A 
BRANCH  43  44
ATOM     44  C   UNL A   1      38.834  29.704  30.153  1.00  0.00     0.031 A 
ATOM     45  C   UNL A   1      38.936  30.259  31.548  1.00  0.00     0.074 A 
ATOM     46  C   UNL A   1      39.753  28.830  29.705  1.00  0.00     0.049 A 
ATOM     47  N   UNL A   1      39.876  30.096  32.441  1.00  0.00    -0.248 NA
ATOM     48  C   UNL A   1      37.824  31.114  31.991  1.00  0.00     0.031 C 
ATOM     49  C   UNL A   1      39.727  28.176  28.397  1.00  0.00     0.029 A 
ATOM     50  N   UNL A   1      40.893  28.346  30.299  1.00  0.00    -0.354 N 
ATOM     51  C   UNL A   1      39.477  30.832  33.552  1.00  0.00     0.074 A 
ATOM     52  C   UNL A   1      38.223  31.468  33.204  1.00  0.00     0.031 C 
ATOM     53  C   UNL A   1      40.811  27.389  28.282  1.00  0.00     0.029 A 
ATOM     54  C   UNL A   1      41.631  27.518  29.485  1.00  0.00     0.049 A 
ATOM     55  H   UNL A   1      41.158  28.571  31.220  1.00  0.00     0.167 HD
ATOM     56  C   UNL A   1      40.097  30.961  34.751  1.00  0.00     0.034 A 
ATOM     57  C   UNL A   1      42.844  26.959  29.675  1.00  0.00     0.034 A 
ATOM     58  C   UNL A   1      41.353  30.329  35.077  1.00  0.00     0.049 A 
ATOM     59  C   UNL A   1      43.571  27.209  30.977  1.00  0.00     0.074 A 
ATOM     60  C   UNL A   1      42.056  30.375  36.268  1.00  0.00     0.029 A 
ATOM     61  N   UNL A   1      42.102  29.551  34.205  1.00  0.00    -0.354 N 
ATOM     62  N   UNL A   1      43.181  27.904  32.020  1.00  0.00    -0.248 NA
ATOM     63  C   UNL A   1      44.901  26.600  31.123  1.00  0.00     0.031 C 
ATOM     64  C   UNL A   1      43.265  29.694  36.090  1.00  0.00     0.029 A 
ATOM     65  C   UNL A   1      43.281  29.151  34.815  1.00  0.00     0.049 A 
ATOM     66  H   UNL A   1      41.836  29.318  33.286  1.00  0.00     0.167 HD
ATOM     67  C   UNL A   1      44.207  27.792  32.956  1.00  0.00     0.074 A 
ATOM     68  C   UNL A   1      45.226  26.955  32.357  1.00  0.00     0.031 C 
ATOM     69  C   UNL A   1      44.297  28.328  34.200  1.00  0.00     0.034 A 
BRANCH  56  70
ATOM     70  C   UNL A   1      39.452  31.868  35.772  1.00  0.00     0.023 A 
ATOM     71  C   UNL A   1      38.702  31.361  36.848  1.00  0.00     0.031 A 
ATOM     72  C   UNL A   1      39.574  33.263  35.652  1.00  0.00     0.131 A 
ATOM     73  C   UNL A   1      38.048  32.244  37.721  1.00  0.00     0.055 A 
ATOM     74  C   UNL A   1      38.984  34.135  36.569  1.00  0.00     0.041 A 
ATOM     75  F   UNL A   1      40.259  33.806  34.633  1.00  0.00    -0.206 F 
ATOM     76  C   UNL A   1      38.204  33.628  37.604  1.00  0.00     0.022 A 
BRANCH  73  77
ATOM     77  S   UNL A   1      36.882  31.563  38.932  1.00  0.00     0.124 S 
ATOM     78  O   UNL A   1      37.696  31.538  40.145  1.00  0.00    -0.237 OA
ATOM     79  O   UNL A   1      35.798  32.538  38.909  1.00  0.00    -0.237 OA
ATOM     80  O   UNL A   1      36.550  30.248  38.387  1.00  0.00    -0.744 OA
ENDBRANCH  73  77
ENDBRANCH  56  70
BRANCH  57  81
ATOM     81  C   UNL A   1      43.484  26.160  28.591  1.00  0.00     0.023 A 
ATOM     82  C   UNL A   1      44.407  26.738  27.705  1.00  0.00     0.031 A 
ATOM     83  C   UNL A   1      43.134  24.812  28.389  1.00  0.00     0.131 A 
ATOM     84  C   UNL A   1      44.916  25.984  26.635  1.00  0.00     0.055 A 
ATOM     85  C   UNL A   1      43.685  24.051  27.356  1.00  0.00     0.041 A 
ATOM     86  F   UNL A   1      42.251  24.210  29.202  1.00  0.00    -0.206 F 
ATOM     87  C   UNL A   1      44.572  24.642  26.463  1.00  0.00     0.022 A 
BRANCH  84  88
ATOM     88  S   UNL A   1      45.972  26.812  25.413  1.00  0.00     0.124 S 
ATOM     89  O   UNL A   1      46.279  25.720  24.497  1.00  0.00    -0.237 OA
ATOM     90  O   UNL A   1      45.084  27.851  24.902  1.00  0.00    -0.237 OA
ATOM     91  O   UNL A   1      47.097  27.295  26.210  1.00  0.00    -0.744 OA
ENDBRANCH  84  88
ENDBRANCH  57  81
BRANCH  69  92
ATOM     92  C   UNL A   1      45.525  27.991  35.011  1.00  0.00     0.023 A 
ATOM     93  C   UNL A   1      46.669  28.808  34.998  1.00  0.00     0.031 A 
ATOM     94  C   UNL A   1      45.544  26.840  35.820  1.00  0.00     0.131 A 
ATOM     95  C   UNL A   1      47.799  28.440  35.745  1.00  0.00     0.055 A 
ATOM     96  C   UNL A   1      46.649  26.510  36.604  1.00  0.00     0.041 A 
ATOM     97  F   UNL A   1      44.479  26.023  35.870  1.00  0.00    -0.206 F 
ATOM     98  C   UNL A   1      47.790  27.307  36.562  1.00  0.00     0.022 A 
BRANCH  95  99
ATOM     99  S   UNL A   1      49.312  29.428  35.583  1.00  0.00     0.124 S 
ATOM    100  O   UNL A   1      50.218  28.489  34.930  1.00  0.00    -0.237 OA
ATOM    101  O   UNL A   1      48.866  30.555  34.770  1.00  0.00    -0.237 OA
ATOM    102  O   UNL A   1      49.655  29.760  36.965  1.00  0.00    -0.744 OA
ENDBRANCH  95  99
ENDBRANCH  69  92
ENDBRANCH  43  44
ENDBRANCH  36  38
ENDBRANCH  35  36
ENDBRANCH  34  35
ENDBRANCH  33  34
ENDBRANCH  32  33
ENDBRANCH  31  32
ENDBRANCH  30  31
ENDBRANCH   1  30
TORSDOF 26
ENDMDL
MODEL 2
REMARK VINA RESULT:     -10.3      1.933      2.348
REMARK SMILES CCCCCCNC(=O)Oc1cccc(-c2ccc([C@@H](C)C(=O)OCCOCCOC(=O)c3ccc(-c4c5nc(c(-c6cc(S(=O)(=O)[O-])ccc6F)c6ccc([nH]6)c(-c6cc(S(=O)(=O)[O-])ccc6F)c6nc(c(-c7cc(S(=O)(=O)[O-])ccc7F)c7ccc4[nH]7)C=C6)C=C5)cc3)cc2Cl)c1
REMARK SMILES IDX 24 1 22 2 23 3 20 4 21 5 19 6 16 7 17 8 97 9 18 10 96 11
REMARK SMILES IDX 98 12 15 13 11 14 12 15 99 16 13 17 14 18 10 19 8 20 7 21
REMARK SMILES IDX 9 23 6 24 5 25 4 26 3 27 2 28 1 29 25 30 26 31 27 32 28 33
REMARK SMILES IDX 29 34 30 35 31 36 32 37 33 38 34 39 95 40 35 41 94 42 36 43
REMARK SMILES IDX 37 44 38 45 88 46 39 47 93 48 87 49 89 50 40 51 92 52 86 53
REMARK SMILES IDX 85 54 41 56 73 57 53 58 72 59 54 60 57 61 71 62 90 63 55 64
REMARK SMILES IDX 56 65 70 67 91 68 58 69 42 70 43 71 51 72 44 73 50 74 52 75
REMARK SMILES IDX 49 76 45 77 46 78 47 79 48 80 74 81 75 82 83 83 76 84 82 85
REMARK SMILES IDX 84 86 81 87 77 88 78 89 79 90 80 91 59 92 60 93 68 94 61 95
REMARK SMILES IDX 67 96 69 97 66 98 62 99 63 100 64 101 65 102
REMARK H PARENT 7 22 89 55 57 66
REMARK Flexibility Score: inf
ROOT
ATOM      1  O   UNL A   1      33.369  25.615  24.519  1.00  0.00    -0.463 OA
ENDROOT
BRANCH   1   2
ATOM      2  C   UNL A   1      33.828  24.669  23.661  1.00  0.00     0.313 C 
ATOM      3  O   UNL A   1      34.018  24.850  22.460  1.00  0.00    -0.252 OA
BRANCH   2   4
ATOM      4  C   UNL A   1      34.063  23.313  24.307  1.00  0.00     0.126 C 
ATOM      5  C   UNL A   1      33.078  23.120  25.455  1.00  0.00     0.025 C 
BRANCH   4   6
ATOM      6  C   UNL A   1      35.488  22.942  24.709  1.00  0.00    -0.033 A 
ATOM      7  C   UNL A   1      38.064  22.093  25.626  1.00  0.00     0.000 A 
ATOM      8  C   UNL A   1      37.641  23.431  25.743  1.00  0.00     0.010 A 
ATOM      9  C   UNL A   1      37.177  21.192  25.011  1.00  0.00     0.049 A 
ATOM     10  C   UNL A   1      36.375  23.848  25.300  1.00  0.00     0.005 A 
ATOM     11  C   UNL A   1      35.918  21.613  24.556  1.00  0.00     0.025 A 
ATOM     12  Cl  UNL A   1      37.535  19.504  24.838  1.00  0.00    -0.084 Cl
BRANCH   7  13
ATOM     13  C   UNL A   1      39.374  21.689  26.180  1.00  0.00    -0.013 A 
ATOM     14  C   UNL A   1      41.231  20.128  26.337  1.00  0.00     0.133 A 
ATOM     15  C   UNL A   1      41.834  20.898  27.329  1.00  0.00     0.047 A 
ATOM     16  C   UNL A   1      40.013  20.509  25.766  1.00  0.00     0.056 A 
ATOM     17  C   UNL A   1      41.224  22.082  27.734  1.00  0.00     0.004 A 
ATOM     18  C   UNL A   1      40.006  22.472  27.165  1.00  0.00     0.009 A 
BRANCH  14  19
ATOM     19  O   UNL A   1      41.835  18.898  26.029  1.00  0.00    -0.410 OA
BRANCH  19  20
ATOM     20  C   UNL A   1      42.814  18.432  26.892  1.00  0.00     0.412 C 
ATOM     21  N   UNL A   1      44.062  18.402  26.336  1.00  0.00    -0.321 N 
ATOM     22  H   UNL A   1      44.787  18.063  26.908  1.00  0.00     0.167 HD
ATOM     23  O   UNL A   1      42.637  18.065  28.051  1.00  0.00    -0.224 OA
BRANCH  21  24
ATOM     24  C   UNL A   1      44.438  18.814  24.999  1.00  0.00     0.119 C 
BRANCH  24  25
ATOM     25  C   UNL A   1      45.946  19.035  24.869  1.00  0.00     0.021 C 
BRANCH  25  26
ATOM     26  C   UNL A   1      46.383  20.506  24.819  1.00  0.00     0.002 C 
BRANCH  26  27
ATOM     27  C   UNL A   1      45.508  21.483  25.611  1.00  0.00    -0.000 C 
BRANCH  27  28
ATOM     28  C   UNL A   1      44.296  22.041  24.860  1.00  0.00    -0.003 C 
ATOM     29  C   UNL A   1      44.666  22.787  23.587  1.00  0.00     0.004 C 
ENDBRANCH  27  28
ENDBRANCH  26  27
ENDBRANCH  25  26
ENDBRANCH  24  25
ENDBRANCH  21  24
ENDBRANCH  19  20
ENDBRANCH  14  19
ENDBRANCH   7  13
ENDBRANCH   4   6
ENDBRANCH   2   4
ENDBRANCH   1   2
BRANCH   1  30
ATOM     30  C   UNL A   1      32.135  26.258  24.149  1.00  0.00     0.261 C 
BRANCH  30  31
ATOM     31  C   UNL A   1      32.278  27.782  24.137  1.00  0.00     0.202 C 
BRANCH  31  32
ATOM     32  O   UNL A   1      31.635  28.487  25.199  1.00  0.00    -0.374 OA
BRANCH  32  33
ATOM     33  C   UNL A   1      31.919  29.880  25.328  1.00  0.00     0.202 C 
BRANCH  33  34
ATOM     34  C   UNL A   1      32.397  30.376  26.699  1.00  0.00     0.261 C 
BRANCH  34  35
ATOM     35  O   UNL A   1      33.830  30.409  26.809  1.00  0.00    -0.460 OA
BRANCH  35  36
ATOM     36  C   UNL A   1      34.318  31.435  27.553  1.00  0.00     0.338 C 
ATOM     37  O   UNL A   1      33.730  32.455  27.869  1.00  0.00    -0.246 OA
BRANCH  36  38
ATOM     38  C   UNL A   1      35.623  31.057  28.132  1.00  0.00     0.060 A 
ATOM     39  C   UNL A   1      35.780  29.730  28.553  1.00  0.00     0.016 A 
ATOM     40  C   UNL A   1      36.647  31.986  28.319  1.00  0.00     0.016 A 
ATOM     41  C   UNL A   1      36.950  29.334  29.200  1.00  0.00     0.010 A 
ATOM     42  C   UNL A   1      37.817  31.589  28.979  1.00  0.00     0.010 A 
ATOM     43  C   UNL A   1      37.962  30.269  29.448  1.00  0.00    -0.014 A 
BRANCH  43  44
ATOM     44  C   UNL A   1      39.106  29.900  30.320  1.00  0.00     0.031 A 
ATOM     45  C   UNL A   1      39.162  30.449  31.720  1.00  0.00     0.074 A 
ATOM     46  C   UNL A   1      40.069  29.069  29.882  1.00  0.00     0.049 A 
ATOM     47  N   UNL A   1      40.092  30.318  32.628  1.00  0.00    -0.248 NA
ATOM     48  C   UNL A   1      38.007  31.252  32.150  1.00  0.00     0.031 C 
ATOM     49  C   UNL A   1      40.093  28.425  28.570  1.00  0.00     0.029 A 
ATOM     50  N   UNL A   1      41.218  28.630  30.493  1.00  0.00    -0.354 N 
ATOM     51  C   UNL A   1      39.644  31.029  33.737  1.00  0.00     0.074 A 
ATOM     52  C   UNL A   1      38.370  31.614  33.372  1.00  0.00     0.031 C 
ATOM     53  C   UNL A   1      41.210  27.685  28.468  1.00  0.00     0.029 A 
ATOM     54  C   UNL A   1      42.004  27.839  29.686  1.00  0.00     0.049 A 
ATOM     55  H   UNL A   1      41.458  28.858  31.419  1.00  0.00     0.167 HD
ATOM     56  C   UNL A   1      40.237  31.174  34.948  1.00  0.00     0.034 A 
ATOM     57  C   UNL A   1      43.236  27.331  29.892  1.00  0.00     0.034 A 
ATOM     58  C   UNL A   1      41.513  30.594  35.291  1.00  0.00     0.049 A 
ATOM     59  C   UNL A   1      43.930  27.601  31.208  1.00  0.00     0.074 A 
ATOM     60  C   UNL A   1      42.194  30.661  36.494  1.00  0.00     0.029 A 
ATOM     61  N   UNL A   1      42.309  29.855  34.426  1.00  0.00    -0.354 N 
ATOM     62  N   UNL A   1      43.494  28.271  32.249  1.00  0.00    -0.248 NA
ATOM     63  C   UNL A   1      45.282  27.048  31.373  1.00  0.00     0.031 C 
ATOM     64  C   UNL A   1      43.433  30.032  36.332  1.00  0.00     0.029 A 
ATOM     65  C   UNL A   1      43.493  29.500  35.054  1.00  0.00     0.049 A 
ATOM     66  H   UNL A   1      42.068  29.617  33.501  1.00  0.00     0.167 HD
ATOM     67  C   UNL A   1      44.507  28.195  33.202  1.00  0.00     0.074 A 
ATOM     68  C   UNL A   1      45.571  27.407  32.615  1.00  0.00     0.031 C 
ATOM     69  C   UNL A   1      44.554  28.725  34.451  1.00  0.00     0.034 A 
BRANCH  56  70
ATOM     70  C   UNL A   1      39.538  32.046  35.963  1.00  0.00     0.023 A 
ATOM     71  C   UNL A   1      39.966  33.356  36.240  1.00  0.00     0.031 A 
ATOM     72  C   UNL A   1      38.437  31.547  36.683  1.00  0.00     0.131 A 
ATOM     73  C   UNL A   1      39.341  34.097  37.254  1.00  0.00     0.055 A 
ATOM     74  C   UNL A   1      37.771  32.317  37.637  1.00  0.00     0.041 A 
ATOM     75  F   UNL A   1      37.997  30.295  36.478  1.00  0.00    -0.206 F 
ATOM     76  C   UNL A   1      38.230  33.595  37.938  1.00  0.00     0.022 A 
BRANCH  73  77
ATOM     77  S   UNL A   1      40.082  35.672  37.762  1.00  0.00     0.124 S 
ATOM     78  O   UNL A   1      39.505  35.856  39.092  1.00  0.00    -0.237 OA
ATOM     79  O   UNL A   1      41.510  35.378  37.720  1.00  0.00    -0.237 OA
ATOM     80  O   UNL A   1      39.610  36.616  36.752  1.00  0.00    -0.744 OA
ENDBRANCH  73  77
ENDBRANCH  56  70
BRANCH  57  81
ATOM     81  C   UNL A   1      43.928  26.567  28.814  1.00  0.00     0.023 A 
ATOM     82  C   UNL A   1      44.786  27.204  27.904  1.00  0.00     0.031 A 
ATOM     83  C   UNL A   1      43.692  25.191  28.642  1.00  0.00     0.131 A 
ATOM     84  C   UNL A   1      45.344  26.475  26.840  1.00  0.00     0.055 A 
ATOM     85  C   UNL A   1      44.291  24.459  27.616  1.00  0.00     0.041 A 
ATOM     86  F   UNL A   1      42.874  24.532  29.481  1.00  0.00    -0.206 F 
ATOM     87  C   UNL A   1      45.113  25.105  26.699  1.00  0.00     0.022 A 
BRANCH  84  88
ATOM     88  S   UNL A   1      46.308  27.365  25.588  1.00  0.00     0.124 S 
ATOM     89  O   UNL A   1      47.129  26.297  25.030  1.00  0.00    -0.237 OA
ATOM     90  O   UNL A   1      45.261  27.893  24.720  1.00  0.00    -0.237 OA
ATOM     91  O   UNL A   1      47.032  28.367  26.367  1.00  0.00    -0.744 OA
ENDBRANCH  84  88
ENDBRANCH  57  81
BRANCH  69  92
ATOM     92  C   UNL A   1      45.780  28.435  35.281  1.00  0.00     0.023 A 
ATOM     93  C   UNL A   1      45.862  27.305  36.113  1.00  0.00     0.031 A 
ATOM     94  C   UNL A   1      46.890  29.297  35.228  1.00  0.00     0.131 A 
ATOM     95  C   UNL A   1      47.011  27.089  36.890  1.00  0.00     0.055 A 
ATOM     96  C   UNL A   1      48.052  29.049  35.960  1.00  0.00     0.041 A 
ATOM     97  F   UNL A   1      46.867  30.393  34.452  1.00  0.00    -0.206 F 
ATOM     98  C   UNL A   1      48.113  27.943  36.805  1.00  0.00     0.022 A 
BRANCH  95  99
ATOM     99  S   UNL A   1      47.021  25.712  38.070  1.00  0.00     0.124 S 
ATOM    100  O   UNL A   1      45.885  26.036  38.925  1.00  0.00    -0.237 OA
ATOM    101  O   UNL A   1      46.855  24.552  37.200  1.00  0.00    -0.237 OA
ATOM    102  O   UNL A   1      48.331  25.820  38.712  1.00  0.00    -0.744 OA
ENDBRANCH  95  99
ENDBRANCH  69  92
ENDBRANCH  43  44
ENDBRANCH  36  38
ENDBRANCH  35  36
ENDBRANCH  34  35
ENDBRANCH  33  34
ENDBRANCH  32  33
ENDBRANCH  31  32
ENDBRANCH  30  31
ENDBRANCH   1  30
TORSDOF 26
ENDMDL
MODEL 3
REMARK VINA RESULT:     -10.2      1.443      7.501
REMARK SMILES CCCCCCNC(=O)Oc1cccc(-c2ccc([C@@H](C)C(=O)OCCOCCOC(=O)c3ccc(-c4c5nc(c(-c6cc(S(=O)(=O)[O-])ccc6F)c6ccc([nH]6)c(-c6cc(S(=O)(=O)[O-])ccc6F)c6nc(c(-c7cc(S(=O)(=O)[O-])ccc7F)c7ccc4[nH]7)C=C6)C=C5)cc3)cc2Cl)c1
REMARK SMILES IDX 24 1 22 2 23 3 20 4 21 5 19 6 16 7 17 8 97 9 18 10 96 11
REMARK SMILES IDX 98 12 15 13 11 14 12 15 99 16 13 17 14 18 10 19 8 20 7 21
REMARK SMILES IDX 9 23 6 24 5 25 4 26 3 27 2 28 1 29 25 30 26 31 27 32 28 33
REMARK SMILES IDX 29 34 30 35 31 36 32 37 33 38 34 39 95 40 35 41 94 42 36 43
REMARK SMILES IDX 37 44 38 45 88 46 39 47 93 48 87 49 89 50 40 51 92 52 86 53
REMARK SMILES IDX 85 54 41 56 73 57 53 58 72 59 54 60 57 61 71 62 90 63 55 64
REMARK SMILES IDX 56 65 70 67 91 68 58 69 42 70 43 71 51 72 44 73 50 74 52 75
REMARK SMILES IDX 49 76 45 77 46 78 47 79 48 80 74 81 75 82 83 83 76 84 82 85
REMARK SMILES IDX 84 86 81 87 77 88 78 89 79 90 80 91 59 92 60 93 68 94 61 95
REMARK SMILES IDX 67 96 69 97 66 98 62 99 63 100 64 101 65 102
REMARK H PARENT 7 22 89 55 57 66
REMARK Flexibility Score: inf
ROOT
ATOM      1  O   UNL A   1      31.338  25.424  24.655  1.00  0.00    -0.463 OA
ENDROOT
BRANCH   1   2
ATOM      2  C   UNL A   1      31.193  24.154  24.202  1.00  0.00     0.313 C 
ATOM      3  O   UNL A   1      30.577  23.843  23.185  1.00  0.00    -0.252 OA
BRANCH   2   4
ATOM      4  C   UNL A   1      31.838  23.103  25.092  1.00  0.00     0.126 C 
ATOM      5  C   UNL A   1      31.153  23.104  26.455  1.00  0.00     0.025 C 
BRANCH   4   6
ATOM      6  C   UNL A   1      33.359  23.099  25.218  1.00  0.00    -0.033 A 
ATOM      7  C   UNL A   1      36.187  22.929  25.634  1.00  0.00     0.000 A 
ATOM      8  C   UNL A   1      35.485  24.137  25.808  1.00  0.00     0.010 A 
ATOM      9  C   UNL A   1      35.443  21.810  25.219  1.00  0.00     0.049 A 
ATOM     10  C   UNL A   1      34.096  24.220  25.611  1.00  0.00     0.005 A 
ATOM     11  C   UNL A   1      34.058  21.898  25.008  1.00  0.00     0.025 A 
ATOM     12  Cl  UNL A   1      36.156  20.243  25.008  1.00  0.00    -0.084 Cl
BRANCH   7  13
ATOM     13  C   UNL A   1      37.633  22.874  25.932  1.00  0.00    -0.013 A 
ATOM     14  C   UNL A   1      39.745  21.673  26.029  1.00  0.00     0.133 A 
ATOM     15  C   UNL A   1      40.380  22.774  26.600  1.00  0.00     0.047 A 
ATOM     16  C   UNL A   1      38.387  21.712  25.699  1.00  0.00     0.056 A 
ATOM     17  C   UNL A   1      39.651  23.941  26.817  1.00  0.00     0.004 A 
ATOM     18  C   UNL A   1      38.293  23.989  26.486  1.00  0.00     0.009 A 
BRANCH  14  19
ATOM     19  O   UNL A   1      40.496  20.491  25.917  1.00  0.00    -0.410 OA
BRANCH  19  20
ATOM     20  C   UNL A   1      41.202  20.073  27.034  1.00  0.00     0.412 C 
ATOM     21  N   UNL A   1      42.477  19.671  26.753  1.00  0.00    -0.321 N 
ATOM     22  H   UNL A   1      43.011  19.350  27.515  1.00  0.00     0.167 HD
ATOM     23  O   UNL A   1      40.776  20.042  28.186  1.00  0.00    -0.224 OA
BRANCH  21  24
ATOM     24  C   UNL A   1      43.132  19.663  25.461  1.00  0.00     0.119 C 
BRANCH  24  25
ATOM     25  C   UNL A   1      44.450  18.887  25.490  1.00  0.00     0.021 C 
BRANCH  25  26
ATOM     26  C   UNL A   1      45.428  19.231  24.358  1.00  0.00     0.002 C 
BRANCH  26  27
ATOM     27  C   UNL A   1      46.526  20.239  24.715  1.00  0.00    -0.000 C 
BRANCH  27  28
ATOM     28  C   UNL A   1      46.059  21.686  24.893  1.00  0.00    -0.003 C 
ATOM     29  C   UNL A   1      45.086  22.143  23.817  1.00  0.00     0.004 C 
ENDBRANCH  27  28
ENDBRANCH  26  27
ENDBRANCH  25  26
ENDBRANCH  24  25
ENDBRANCH  21  24
ENDBRANCH  19  20
ENDBRANCH  14  19
ENDBRANCH   7  13
ENDBRANCH   4   6
ENDBRANCH   2   4
ENDBRANCH   1   2
BRANCH   1  30
ATOM     30  C   UNL A   1      30.479  26.411  24.055  1.00  0.00     0.261 C 
BRANCH  30  31
ATOM     31  C   UNL A   1      31.125  27.799  24.064  1.00  0.00     0.202 C 
BRANCH  31  32
ATOM     32  O   UNL A   1      31.331  28.394  25.345  1.00  0.00    -0.374 OA
BRANCH  32  33
ATOM     33  C   UNL A   1      31.658  29.783  25.378  1.00  0.00     0.202 C 
BRANCH  33  34
ATOM     34  C   UNL A   1      32.119  30.365  26.721  1.00  0.00     0.261 C 
BRANCH  34  35
ATOM     35  O   UNL A   1      33.550  30.407  26.848  1.00  0.00    -0.460 OA
BRANCH  35  36
ATOM     36  C   UNL A   1      34.035  31.533  27.429  1.00  0.00     0.338 C 
ATOM     37  O   UNL A   1      33.442  32.586  27.596  1.00  0.00    -0.246 OA
BRANCH  36  38
ATOM     38  C   UNL A   1      35.346  31.252  28.049  1.00  0.00     0.060 A 
ATOM     39  C   UNL A   1      35.555  29.963  28.556  1.00  0.00     0.016 A 
ATOM     40  C   UNL A   1      36.325  32.237  28.189  1.00  0.00     0.016 A 
ATOM     41  C   UNL A   1      36.730  29.663  29.243  1.00  0.00     0.010 A 
ATOM     42  C   UNL A   1      37.501  31.935  28.888  1.00  0.00     0.010 A 
ATOM     43  C   UNL A   1      37.697  30.656  29.444  1.00  0.00    -0.014 A 
BRANCH  43  44
ATOM     44  C   UNL A   1      38.842  30.395  30.352  1.00  0.00     0.031 A 
ATOM     45  C   UNL A   1      39.974  29.531  29.867  1.00  0.00     0.074 A 
ATOM     46  C   UNL A   1      38.887  30.940  31.582  1.00  0.00     0.049 A 
ATOM     47  N   UNL A   1      41.035  29.114  30.506  1.00  0.00    -0.248 NA
ATOM     48  C   UNL A   1      39.893  29.078  28.470  1.00  0.00     0.031 C 
ATOM     49  C   UNL A   1      37.882  31.843  32.140  1.00  0.00     0.029 A 
ATOM     50  N   UNL A   1      39.813  30.806  32.587  1.00  0.00    -0.354 N 
ATOM     51  C   UNL A   1      41.749  28.343  29.595  1.00  0.00     0.074 A 
ATOM     52  C   UNL A   1      40.979  28.325  28.368  1.00  0.00     0.031 C 
ATOM     53  C   UNL A   1      38.239  32.170  33.394  1.00  0.00     0.029 A 
ATOM     54  C   UNL A   1      39.469  31.464  33.745  1.00  0.00     0.049 A 
ATOM     55  H   UNL A   1      40.644  30.289  32.488  1.00  0.00     0.167 HD
ATOM     56  C   UNL A   1      42.937  27.712  29.765  1.00  0.00     0.034 A 
ATOM     57  C   UNL A   1      40.060  31.465  34.958  1.00  0.00     0.034 A 
ATOM     58  C   UNL A   1      43.686  27.731  30.999  1.00  0.00     0.049 A 
ATOM     59  C   UNL A   1      41.325  30.662  35.159  1.00  0.00     0.074 A 
ATOM     60  C   UNL A   1      44.909  27.145  31.273  1.00  0.00     0.029 A 
ATOM     61  N   UNL A   1      43.274  28.353  32.171  1.00  0.00    -0.354 N 
ATOM     62  N   UNL A   1      41.991  29.939  34.289  1.00  0.00    -0.248 NA
ATOM     63  C   UNL A   1      41.913  30.674  36.506  1.00  0.00     0.031 C 
ATOM     64  C   UNL A   1      45.198  27.344  32.628  1.00  0.00     0.029 A 
ATOM     65  C   UNL A   1      44.196  28.126  33.181  1.00  0.00     0.049 A 
ATOM     66  H   UNL A   1      42.447  28.878  32.270  1.00  0.00     0.167 HD
ATOM     67  C   UNL A   1      43.092  29.434  34.978  1.00  0.00     0.074 A 
ATOM     68  C   UNL A   1      43.005  29.944  36.331  1.00  0.00     0.031 C 
ATOM     69  C   UNL A   1      44.088  28.627  34.532  1.00  0.00     0.034 A 
BRANCH  56  70
ATOM     70  C   UNL A   1      43.465  26.901  28.607  1.00  0.00     0.023 A 
ATOM     71  C   UNL A   1      44.526  27.354  27.803  1.00  0.00     0.031 A 
ATOM     72  C   UNL A   1      42.881  25.662  28.290  1.00  0.00     0.131 A 
ATOM     73  C   UNL A   1      44.925  26.607  26.684  1.00  0.00     0.055 A 
ATOM     74  C   UNL A   1      43.334  24.886  27.220  1.00  0.00     0.041 A 
ATOM     75  F   UNL A   1      41.851  25.187  29.007  1.00  0.00    -0.206 F 
ATOM     76  C   UNL A   1      44.352  25.364  26.402  1.00  0.00     0.022 A 
BRANCH  73  77
ATOM     77  S   UNL A   1      46.109  27.344  25.525  1.00  0.00     0.124 S 
ATOM     78  O   UNL A   1      46.987  26.212  25.239  1.00  0.00    -0.237 OA
ATOM     79  O   UNL A   1      45.250  27.780  24.430  1.00  0.00    -0.237 OA
ATOM     80  O   UNL A   1      46.725  28.419  26.300  1.00  0.00    -0.744 OA
ENDBRANCH  73  77
ENDBRANCH  56  70
BRANCH  57  81
ATOM     81  C   UNL A   1      39.438  32.197  36.100  1.00  0.00     0.023 A 
ATOM     82  C   UNL A   1      38.649  31.530  37.051  1.00  0.00     0.031 A 
ATOM     83  C   UNL A   1      39.576  33.592  36.220  1.00  0.00     0.131 A 
ATOM     84  C   UNL A   1      37.997  32.264  38.056  1.00  0.00     0.055 A 
ATOM     85  C   UNL A   1      38.970  34.309  37.253  1.00  0.00     0.041 A 
ATOM     86  F   UNL A   1      40.313  34.280  35.333  1.00  0.00    -0.206 F 
ATOM     87  C   UNL A   1      38.163  33.646  38.170  1.00  0.00     0.022 A 
BRANCH  84  88
ATOM     88  S   UNL A   1      36.852  31.394  39.162  1.00  0.00     0.124 S 
ATOM     89  O   UNL A   1      35.716  32.308  39.192  1.00  0.00    -0.237 OA
ATOM     90  O   UNL A   1      36.647  30.135  38.455  1.00  0.00    -0.237 OA
ATOM     91  O   UNL A   1      37.603  31.289  40.412  1.00  0.00    -0.744 OA
ENDBRANCH  84  88
ENDBRANCH  57  81
BRANCH  69  92
ATOM     92  C   UNL A   1      45.185  28.278  35.508  1.00  0.00     0.023 A 
ATOM     93  C   UNL A   1      45.114  27.136  36.324  1.00  0.00     0.031 A 
ATOM     94  C   UNL A   1      46.324  29.096  35.613  1.00  0.00     0.131 A 
ATOM     95  C   UNL A   1      46.144  26.865  37.240  1.00  0.00     0.055 A 
ATOM     96  C   UNL A   1      47.371  28.792  36.484  1.00  0.00     0.041 A 
ATOM     97  F   UNL A   1      46.444  30.200  34.859  1.00  0.00    -0.206 F 
ATOM     98  C   UNL A   1      47.280  27.675  37.312  1.00  0.00     0.022 A 
BRANCH  95  99
ATOM     99  S   UNL A   1      45.949  25.475  38.388  1.00  0.00     0.124 S 
ATOM    100  O   UNL A   1      47.248  24.817  38.292  1.00  0.00    -0.237 OA
ATOM    101  O   UNL A   1      45.665  26.148  39.651  1.00  0.00    -0.237 OA
ATOM    102  O   UNL A   1      44.830  24.719  37.825  1.00  0.00    -0.744 OA
ENDBRANCH  95  99
ENDBRANCH  69  92
ENDBRANCH  43  44
ENDBRANCH  36  38
ENDBRANCH  35  36
ENDBRANCH  34  35
ENDBRANCH  33  34
ENDBRANCH  32  33
ENDBRANCH  31  32
ENDBRANCH  30  31
ENDBRANCH   1  30
TORSDOF 26
ENDMDL
