MODEL 1
REMARK VINA RESULT:     -11.8      0.000      0.000
REMARK SMILES CC[NH+]1CCC2(CC1)OC[C@H](C(=O)OCCOCCOC(=O)c1ccc(-c3c4nc(c(-c5cc(S(=O)(=O)[O-])ccc5F)c5ccc([nH]5)c(-c5cc(S(=O)(=O)[O-])ccc5F)c5nc(c(-c6cc(S(=O)(=O)[O-])ccc6F)c6ccc3[nH]6)C=C5)C=C4)cc1)N2C(=O)c1ccccc1
REMARK SMILES IDX 18 1 17 2 16 3 15 4 14 5 12 6 13 7 11 8 3 9 4 10 8 11 5 13
REMARK SMILES IDX 7 14 6 15 9 16 86 17 10 18 2 19 1 20 87 21 88 22 89 23 90 24
REMARK SMILES IDX 94 25 91 26 93 27 92 28 19 29 20 30 21 31 22 32 23 33 24 34
REMARK SMILES IDX 85 35 25 36 84 37 26 38 27 39 28 40 78 41 29 42 83 43 77 44
REMARK SMILES IDX 79 45 30 46 82 47 76 48 75 49 31 51 63 52 43 53 62 54 44 55
REMARK SMILES IDX 47 56 61 57 80 58 45 59 46 60 60 62 81 63 48 64 32 65 33 66
REMARK SMILES IDX 41 67 34 68 40 69 42 70 39 71 35 72 36 73 37 74 38 75 64 76
REMARK SMILES IDX 65 77 73 78 66 79 72 80 74 81 71 82 67 83 68 84 69 85 70 86
REMARK SMILES IDX 49 87 50 88 58 89 51 90 57 91 59 92 56 93 52 94 53 95 54 96
REMARK SMILES IDX 55 97
REMARK H PARENT 3 12 79 50 47 61
REMARK Flexibility Score: inf
ROOT
ATOM      1  C   UNL A   1      35.763  21.390  25.775  1.00  0.00     0.202 C 
ENDROOT
BRANCH   1   2
ATOM      2  O   UNL A   1      34.698  21.901  24.976  1.00  0.00    -0.374 OA
BRANCH   2   3
ATOM      3  C   UNL A   1      34.194  23.203  25.260  1.00  0.00     0.202 C 
BRANCH   3   4
ATOM      4  C   UNL A   1      33.703  24.037  24.076  1.00  0.00     0.261 C 
BRANCH   4   5
ATOM      5  O   UNL A   1      32.355  24.510  24.245  1.00  0.00    -0.462 OA
BRANCH   5   6
ATOM      6  C   UNL A   1      32.094  25.705  23.646  1.00  0.00     0.331 C 
ATOM      7  O   UNL A   1      32.680  26.116  22.648  1.00  0.00    -0.250 OA
BRANCH   6   8
ATOM      8  C   UNL A   1      30.917  26.422  24.315  1.00  0.00     0.224 C 
ATOM      9  N   UNL A   1      34.080  29.598  26.768  1.00  0.00    -0.335 N 
ATOM     10  C   UNL A   1      34.279  28.529  25.792  1.00  0.00     0.267 C 
ATOM     11  C   UNL A   1      32.695  29.827  27.188  1.00  0.00     0.267 C 
ATOM     12  H   UNL A   1      34.293  30.447  26.244  1.00  0.00     0.348 HD
ATOM     13  C   UNL A   1      33.463  27.302  26.109  1.00  0.00     0.120 C 
ATOM     14  C   UNL A   1      31.687  28.673  27.142  1.00  0.00     0.120 C 
ATOM     15  C   UNL A   1      31.960  27.606  26.089  1.00  0.00     0.155 C 
ATOM     16  O   UNL A   1      31.357  26.378  26.617  1.00  0.00    -0.352 OA
ATOM     17  N   UNL A   1      31.340  27.743  24.753  1.00  0.00    -0.293 N 
ATOM     18  C   UNL A   1      30.508  25.794  25.615  1.00  0.00     0.200 C 
BRANCH   9  19
ATOM     19  C   UNL A   1      35.045  29.566  27.867  1.00  0.00     0.258 C 
ATOM     20  C   UNL A   1      36.433  29.954  27.362  1.00  0.00     0.071 C 
ENDBRANCH   9  19
BRANCH  17  21
ATOM     21  C   UNL A   1      31.191  28.757  23.820  1.00  0.00     0.256 C 
ATOM     22  O   UNL A   1      32.077  29.043  23.010  1.00  0.00    -0.269 OA
BRANCH  21  23
ATOM     23  C   UNL A   1      29.940  29.502  23.661  1.00  0.00     0.040 A 
ATOM     24  C   UNL A   1      28.874  28.918  22.966  1.00  0.00     0.014 A 
ATOM     25  C   UNL A   1      29.875  30.838  24.061  1.00  0.00     0.014 A 
ATOM     26  C   UNL A   1      27.695  29.645  22.783  1.00  0.00     0.001 A 
ATOM     27  C   UNL A   1      28.686  31.551  23.901  1.00  0.00     0.001 A 
ATOM     28  C   UNL A   1      27.593  30.949  23.275  1.00  0.00     0.000 A 
ENDBRANCH  21  23
ENDBRANCH  17  21
ENDBRANCH   6   8
ENDBRANCH   5   6
ENDBRANCH   4   5
ENDBRANCH   3   4
ENDBRANCH   2   3
ENDBRANCH   1   2
BRANCH   1  29
ATOM     29  C   UNL A   1      36.980  20.813  25.045  1.00  0.00     0.261 C 
BRANCH  29  30
ATOM     30  O   UNL A   1      38.109  21.706  25.068  1.00  0.00    -0.460 OA
BRANCH  30  31
ATOM     31  C   UNL A   1      39.066  21.371  25.964  1.00  0.00     0.338 C 
ATOM     32  O   UNL A   1      39.577  20.267  26.115  1.00  0.00    -0.246 OA
BRANCH  31  33
ATOM     33  C   UNL A   1      39.581  22.572  26.646  1.00  0.00     0.060 A 
ATOM     34  C   UNL A   1      39.046  23.807  26.259  1.00  0.00     0.016 A 
ATOM     35  C   UNL A   1      40.623  22.509  27.574  1.00  0.00     0.016 A 
ATOM     36  C   UNL A   1      39.590  24.988  26.754  1.00  0.00     0.010 A 
ATOM     37  C   UNL A   1      41.172  23.700  28.067  1.00  0.00     0.010 A 
ATOM     38  C   UNL A   1      40.683  24.944  27.629  1.00  0.00    -0.014 A 
BRANCH  38  39
ATOM     39  C   UNL A   1      41.381  26.211  27.961  1.00  0.00     0.031 A 
ATOM     40  C   UNL A   1      42.794  26.419  27.487  1.00  0.00     0.074 A 
ATOM     41  C   UNL A   1      40.731  27.193  28.611  1.00  0.00     0.049 A 
ATOM     42  N   UNL A   1      43.566  27.467  27.610  1.00  0.00    -0.248 NA
ATOM     43  C   UNL A   1      43.418  25.291  26.780  1.00  0.00     0.031 C 
ATOM     44  C   UNL A   1      39.350  27.115  29.087  1.00  0.00     0.029 A 
ATOM     45  N   UNL A   1      41.140  28.451  28.972  1.00  0.00    -0.354 N 
ATOM     46  C   UNL A   1      44.765  27.131  26.989  1.00  0.00     0.074 A 
ATOM     47  C   UNL A   1      44.631  25.763  26.534  1.00  0.00     0.031 C 
ATOM     48  C   UNL A   1      39.026  28.280  29.675  1.00  0.00     0.029 A 
ATOM     49  C   UNL A   1      40.181  29.173  29.639  1.00  0.00     0.049 A 
ATOM     50  H   UNL A   1      42.038  28.803  28.770  1.00  0.00     0.167 HD
ATOM     51  C   UNL A   1      45.870  27.898  26.805  1.00  0.00     0.034 A 
ATOM     52  C   UNL A   1      40.232  30.412  30.169  1.00  0.00     0.034 A 
ATOM     53  C   UNL A   1      45.994  29.255  27.282  1.00  0.00     0.049 A 
ATOM     54  C   UNL A   1      41.495  31.221  30.007  1.00  0.00     0.074 A 
ATOM     55  C   UNL A   1      47.064  30.123  27.146  1.00  0.00     0.029 A 
ATOM     56  N   UNL A   1      45.020  29.940  27.999  1.00  0.00    -0.354 N 
ATOM     57  N   UNL A   1      42.616  30.899  29.402  1.00  0.00    -0.248 NA
ATOM     58  C   UNL A   1      41.489  32.571  30.584  1.00  0.00     0.031 C 
ATOM     59  C   UNL A   1      46.764  31.303  27.839  1.00  0.00     0.029 A 
ATOM     60  C   UNL A   1      45.476  31.205  28.339  1.00  0.00     0.049 A 
ATOM     61  H   UNL A   1      44.134  29.578  28.231  1.00  0.00     0.167 HD
ATOM     62  C   UNL A   1      43.439  32.017  29.505  1.00  0.00     0.074 A 
ATOM     63  C   UNL A   1      42.672  33.029  30.205  1.00  0.00     0.031 C 
ATOM     64  C   UNL A   1      44.711  32.196  29.062  1.00  0.00     0.034 A 
BRANCH  51  65
ATOM     65  C   UNL A   1      47.045  27.259  26.102  1.00  0.00     0.023 A 
ATOM     66  C   UNL A   1      48.030  26.542  26.805  1.00  0.00     0.031 A 
ATOM     67  C   UNL A   1      47.199  27.393  24.710  1.00  0.00     0.131 A 
ATOM     68  C   UNL A   1      49.156  26.048  26.127  1.00  0.00     0.055 A 
ATOM     69  C   UNL A   1      48.281  26.832  24.030  1.00  0.00     0.041 A 
ATOM     70  F   UNL A   1      46.304  28.085  23.988  1.00  0.00    -0.206 F 
ATOM     71  C   UNL A   1      49.276  26.168  24.740  1.00  0.00     0.022 A 
BRANCH  68  72
ATOM     72  S   UNL A   1      50.530  25.369  27.098  1.00  0.00     0.124 S 
ATOM     73  O   UNL A   1      49.860  24.319  27.861  1.00  0.00    -0.237 OA
ATOM     74  O   UNL A   1      51.455  24.919  26.064  1.00  0.00    -0.237 OA
ATOM     75  O   UNL A   1      50.986  26.510  27.891  1.00  0.00    -0.744 OA
ENDBRANCH  68  72
ENDBRANCH  51  65
BRANCH  52  76
ATOM     76  C   UNL A   1      39.068  30.960  30.923  1.00  0.00     0.023 A 
ATOM     77  C   UNL A   1      38.023  31.629  30.267  1.00  0.00     0.031 A 
ATOM     78  C   UNL A   1      39.015  30.867  32.325  1.00  0.00     0.131 A 
ATOM     79  C   UNL A   1      36.993  32.219  31.016  1.00  0.00     0.055 A 
ATOM     80  C   UNL A   1      37.963  31.410  33.061  1.00  0.00     0.041 A 
ATOM     81  F   UNL A   1      39.988  30.235  33.001  1.00  0.00    -0.206 F 
ATOM     82  C   UNL A   1      36.949  32.104  32.408  1.00  0.00     0.022 A 
BRANCH  79  83
ATOM     83  S   UNL A   1      35.749  33.216  30.149  1.00  0.00     0.124 S 
ATOM     84  O   UNL A   1      36.417  33.490  28.883  1.00  0.00    -0.237 OA
ATOM     85  O   UNL A   1      34.615  32.299  30.092  1.00  0.00    -0.237 OA
ATOM     86  O   UNL A   1      35.569  34.371  31.026  1.00  0.00    -0.744 OA
ENDBRANCH  79  83
ENDBRANCH  52  76
BRANCH  64  87
ATOM     87  C   UNL A   1      45.330  33.555  29.302  1.00  0.00     0.023 A 
ATOM     88  C   UNL A   1      45.250  34.582  28.344  1.00  0.00     0.031 A 
ATOM     89  C   UNL A   1      46.051  33.809  30.482  1.00  0.00     0.131 A 
ATOM     90  C   UNL A   1      45.950  35.782  28.545  1.00  0.00     0.055 A 
ATOM     91  C   UNL A   1      46.685  35.032  30.709  1.00  0.00     0.041 A 
ATOM     92  F   UNL A   1      46.163  32.866  31.432  1.00  0.00    -0.206 F 
ATOM     93  C   UNL A   1      46.654  36.020  29.728  1.00  0.00     0.022 A 
BRANCH  90  94
ATOM     94  S   UNL A   1      46.040  36.973  27.180  1.00  0.00     0.124 S 
ATOM     95  O   UNL A   1      47.156  37.820  27.587  1.00  0.00    -0.237 OA
ATOM     96  O   UNL A   1      46.283  36.110  26.029  1.00  0.00    -0.237 OA
ATOM     97  O   UNL A   1      44.730  37.622  27.203  1.00  0.00    -0.744 OA
ENDBRANCH  90  94
ENDBRANCH  64  87
ENDBRANCH  38  39
ENDBRANCH  31  33
ENDBRANCH  30  31
ENDBRANCH  29  30
ENDBRANCH   1  29
TORSDOF 20
ENDMDL
MODEL 2
REMARK VINA RESULT:     -11.7      1.828      3.134
REMARK SMILES CC[NH+]1CCC2(CC1)OC[C@H](C(=O)OCCOCCOC(=O)c1ccc(-c3c4nc(c(-c5cc(S(=O)(=O)[O-])ccc5F)c5ccc([nH]5)c(-c5cc(S(=O)(=O)[O-])ccc5F)c5nc(c(-c6cc(S(=O)(=O)[O-])ccc6F)c6ccc3[nH]6)C=C5)C=C4)cc1)N2C(=O)c1ccccc1
REMARK SMILES IDX 18 1 17 2 16 3 15 4 14 5 12 6 13 7 11 8 3 9 4 10 8 11 5 13
REMARK SMILES IDX 7 14 6 15 9 16 86 17 10 18 2 19 1 20 87 21 88 22 89 23 90 24
REMARK SMILES IDX 94 25 91 26 93 27 92 28 19 29 20 30 21 31 22 32 23 33 24 34
REMARK SMILES IDX 85 35 25 36 84 37 26 38 27 39 28 40 78 41 29 42 83 43 77 44
REMARK SMILES IDX 79 45 30 46 82 47 76 48 75 49 31 51 63 52 43 53 62 54 44 55
REMARK SMILES IDX 47 56 61 57 80 58 45 59 46 60 60 62 81 63 48 64 32 65 33 66
REMARK SMILES IDX 41 67 34 68 40 69 42 70 39 71 35 72 36 73 37 74 38 75 64 76
REMARK SMILES IDX 65 77 73 78 66 79 72 80 74 81 71 82 67 83 68 84 69 85 70 86
REMARK SMILES IDX 49 87 50 88 58 89 51 90 57 91 59 92 56 93 52 94 53 95 54 96
REMARK SMILES IDX 55 97
REMARK H PARENT 3 12 79 50 47 61
REMARK Flexibility Score: inf
ROOT
ATOM      1  C   UNL A   1      35.770  20.951  25.351  1.00  0.00     0.202 C 
ENDROOT
BRANCH   1   2
ATOM      2  O   UNL A   1      34.696  20.549  24.503  1.00  0.00    -0.374 OA
BRANCH   2   3
ATOM      3  C   UNL A   1      33.408  20.350  25.080  1.00  0.00     0.202 C 
BRANCH   3   4
ATOM      4  C   UNL A   1      32.195  20.569  24.174  1.00  0.00     0.261 C 
BRANCH   4   5
ATOM      5  O   UNL A   1      32.263  21.802  23.435  1.00  0.00    -0.462 OA
BRANCH   5   6
ATOM      6  C   UNL A   1      32.063  22.922  24.182  1.00  0.00     0.331 C 
ATOM      7  O   UNL A   1      31.083  23.104  24.900  1.00  0.00    -0.250 OA
BRANCH   6   8
ATOM      8  C   UNL A   1      33.257  23.878  24.091  1.00  0.00     0.224 C 
ATOM      9  N   UNL A   1      30.154  27.915  23.657  1.00  0.00    -0.335 N 
ATOM     10  C   UNL A   1      29.929  26.485  23.859  1.00  0.00     0.267 C 
ATOM     11  C   UNL A   1      31.554  28.324  23.510  1.00  0.00     0.267 C 
ATOM     12  H   UNL A   1      29.897  28.330  24.552  1.00  0.00     0.348 HD
ATOM     13  C   UNL A   1      30.786  25.635  22.957  1.00  0.00     0.120 C 
ATOM     14  C   UNL A   1      32.583  27.331  22.960  1.00  0.00     0.120 C 
ATOM     15  C   UNL A   1      32.280  25.861  23.224  1.00  0.00     0.155 C 
ATOM     16  O   UNL A   1      32.934  25.129  22.135  1.00  0.00    -0.352 OA
ATOM     17  N   UNL A   1      32.828  25.224  24.441  1.00  0.00    -0.293 N 
ATOM     18  C   UNL A   1      33.744  24.077  22.685  1.00  0.00     0.200 C 
BRANCH   9  19
ATOM     19  C   UNL A   1      29.247  28.510  22.676  1.00  0.00     0.258 C 
ATOM     20  C   UNL A   1      29.854  29.790  22.104  1.00  0.00     0.071 C 
ENDBRANCH   9  19
BRANCH  17  21
ATOM     21  C   UNL A   1      32.908  25.544  25.787  1.00  0.00     0.256 C 
ATOM     22  O   UNL A   1      33.115  24.692  26.656  1.00  0.00    -0.269 OA
BRANCH  21  23
ATOM     23  C   UNL A   1      32.847  26.924  26.272  1.00  0.00     0.040 A 
ATOM     24  C   UNL A   1      33.991  27.728  26.210  1.00  0.00     0.014 A 
ATOM     25  C   UNL A   1      31.702  27.375  26.932  1.00  0.00     0.014 A 
ATOM     26  C   UNL A   1      33.940  29.033  26.707  1.00  0.00     0.001 A 
ATOM     27  C   UNL A   1      31.646  28.687  27.403  1.00  0.00     0.001 A 
ATOM     28  C   UNL A   1      32.760  29.519  27.278  1.00  0.00     0.000 A 
ENDBRANCH  21  23
ENDBRANCH  17  21
ENDBRANCH   6   8
ENDBRANCH   5   6
ENDBRANCH   4   5
ENDBRANCH   3   4
ENDBRANCH   2   3
ENDBRANCH   1   2
BRANCH   1  29
ATOM     29  C   UNL A   1      37.157  20.370  25.057  1.00  0.00     0.261 C 
BRANCH  29  30
ATOM     30  O   UNL A   1      38.189  21.373  25.076  1.00  0.00    -0.460 OA
BRANCH  30  31
ATOM     31  C   UNL A   1      39.206  21.110  25.929  1.00  0.00     0.338 C 
ATOM     32  O   UNL A   1      39.813  20.051  26.045  1.00  0.00    -0.246 OA
BRANCH  31  33
ATOM     33  C   UNL A   1      39.646  22.343  26.607  1.00  0.00     0.060 A 
ATOM     34  C   UNL A   1      39.064  23.546  26.189  1.00  0.00     0.016 A 
ATOM     35  C   UNL A   1      40.665  22.341  27.562  1.00  0.00     0.016 A 
ATOM     36  C   UNL A   1      39.539  24.757  26.680  1.00  0.00     0.010 A 
ATOM     37  C   UNL A   1      41.146  23.562  28.052  1.00  0.00     0.010 A 
ATOM     38  C   UNL A   1      40.611  24.776  27.584  1.00  0.00    -0.014 A 
BRANCH  38  39
ATOM     39  C   UNL A   1      41.240  26.079  27.916  1.00  0.00     0.031 A 
ATOM     40  C   UNL A   1      42.607  26.395  27.373  1.00  0.00     0.074 A 
ATOM     41  C   UNL A   1      40.562  26.997  28.628  1.00  0.00     0.049 A 
ATOM     42  N   UNL A   1      43.313  27.490  27.485  1.00  0.00    -0.248 NA
ATOM     43  C   UNL A   1      43.265  25.331  26.601  1.00  0.00     0.031 C 
ATOM     44  C   UNL A   1      39.217  26.813  29.174  1.00  0.00     0.029 A 
ATOM     45  N   UNL A   1      40.906  28.270  29.003  1.00  0.00    -0.354 N 
ATOM     46  C   UNL A   1      44.496  27.253  26.792  1.00  0.00     0.074 A 
ATOM     47  C   UNL A   1      44.428  25.892  26.304  1.00  0.00     0.031 C 
ATOM     48  C   UNL A   1      38.849  27.937  29.813  1.00  0.00     0.029 A 
ATOM     49  C   UNL A   1      39.938  28.908  29.742  1.00  0.00     0.049 A 
ATOM     50  H   UNL A   1      41.766  28.688  28.765  1.00  0.00     0.167 HD
ATOM     51  C   UNL A   1      45.535  28.098  26.572  1.00  0.00     0.034 A 
ATOM     52  C   UNL A   1      39.936  30.133  30.304  1.00  0.00     0.034 A 
ATOM     53  C   UNL A   1      45.594  29.447  27.082  1.00  0.00     0.049 A 
ATOM     54  C   UNL A   1      41.131  31.031  30.100  1.00  0.00     0.074 A 
ATOM     55  C   UNL A   1      46.594  30.390  26.914  1.00  0.00     0.029 A 
ATOM     56  N   UNL A   1      44.617  30.046  27.870  1.00  0.00    -0.354 N 
ATOM     57  N   UNL A   1      42.236  30.801  29.426  1.00  0.00    -0.248 NA
ATOM     58  C   UNL A   1      41.067  32.362  30.716  1.00  0.00     0.031 C 
ATOM     59  C   UNL A   1      46.255  31.528  27.658  1.00  0.00     0.029 A 
ATOM     60  C   UNL A   1      45.006  31.329  28.223  1.00  0.00     0.049 A 
ATOM     61  H   UNL A   1      43.772  29.618  28.138  1.00  0.00     0.167 HD
ATOM     62  C   UNL A   1      42.987  31.970  29.519  1.00  0.00     0.074 A 
ATOM     63  C   UNL A   1      42.194  32.909  30.288  1.00  0.00     0.031 C 
ATOM     64  C   UNL A   1      44.218  32.247  29.013  1.00  0.00     0.034 A 
BRANCH  51  65
ATOM     65  C   UNL A   1      46.710  27.559  25.789  1.00  0.00     0.023 A 
ATOM     66  C   UNL A   1      46.972  27.967  24.469  1.00  0.00     0.031 A 
ATOM     67  C   UNL A   1      47.564  26.600  26.362  1.00  0.00     0.131 A 
ATOM     68  C   UNL A   1      48.016  27.369  23.745  1.00  0.00     0.055 A 
ATOM     69  C   UNL A   1      48.648  26.065  25.662  1.00  0.00     0.041 A 
ATOM     70  F   UNL A   1      47.351  26.153  27.610  1.00  0.00    -0.206 F 
ATOM     71  C   UNL A   1      48.870  26.438  24.340  1.00  0.00     0.022 A 
BRANCH  68  72
ATOM     72  S   UNL A   1      48.156  27.720  21.970  1.00  0.00     0.124 S 
ATOM     73  O   UNL A   1      49.302  28.626  21.939  1.00  0.00    -0.237 OA
ATOM     74  O   UNL A   1      48.374  26.394  21.403  1.00  0.00    -0.237 OA
ATOM     75  O   UNL A   1      46.874  28.337  21.639  1.00  0.00    -0.744 OA
ENDBRANCH  68  72
ENDBRANCH  51  65
BRANCH  52  76
ATOM     76  C   UNL A   1      38.782  30.580  31.135  1.00  0.00     0.023 A 
ATOM     77  C   UNL A   1      37.658  31.190  30.555  1.00  0.00     0.031 A 
ATOM     78  C   UNL A   1      38.814  30.451  32.535  1.00  0.00     0.131 A 
ATOM     79  C   UNL A   1      36.634  31.689  31.376  1.00  0.00     0.055 A 
ATOM     80  C   UNL A   1      37.769  30.902  33.343  1.00  0.00     0.041 A 
ATOM     81  F   UNL A   1      39.864  29.873  33.140  1.00  0.00    -0.206 F 
ATOM     82  C   UNL A   1      36.675  31.539  32.764  1.00  0.00     0.022 A 
BRANCH  79  83
ATOM     83  S   UNL A   1      35.278  32.617  30.605  1.00  0.00     0.124 S 
ATOM     84  O   UNL A   1      34.255  32.568  31.643  1.00  0.00    -0.237 OA
ATOM     85  O   UNL A   1      35.897  33.919  30.374  1.00  0.00    -0.237 OA
ATOM     86  O   UNL A   1      34.983  31.847  29.398  1.00  0.00    -0.744 OA
ENDBRANCH  79  83
ENDBRANCH  52  76
BRANCH  64  87
ATOM     87  C   UNL A   1      44.756  33.638  29.261  1.00  0.00     0.023 A 
ATOM     88  C   UNL A   1      44.370  34.732  28.465  1.00  0.00     0.031 A 
ATOM     89  C   UNL A   1      45.707  33.863  30.272  1.00  0.00     0.131 A 
ATOM     90  C   UNL A   1      44.992  35.978  28.638  1.00  0.00     0.055 A 
ATOM     91  C   UNL A   1      46.269  35.123  30.487  1.00  0.00     0.041 A 
ATOM     92  F   UNL A   1      46.116  32.858  31.063  1.00  0.00    -0.206 F 
ATOM     93  C   UNL A   1      45.927  36.185  29.654  1.00  0.00     0.022 A 
BRANCH  90  94
ATOM     94  S   UNL A   1      44.661  37.288  27.428  1.00  0.00     0.124 S 
ATOM     95  O   UNL A   1      44.473  38.454  28.284  1.00  0.00    -0.237 OA
ATOM     96  O   UNL A   1      45.876  37.281  26.620  1.00  0.00    -0.237 OA
ATOM     97  O   UNL A   1      43.456  36.825  26.740  1.00  0.00    -0.744 OA
ENDBRANCH  90  94
ENDBRANCH  64  87
ENDBRANCH  38  39
ENDBRANCH  31  33
ENDBRANCH  30  31
ENDBRANCH  29  30
ENDBRANCH   1  29
TORSDOF 20
ENDMDL
MODEL 3
REMARK VINA RESULT:     -11.7      4.904     10.283
REMARK SMILES CC[NH+]1CCC2(CC1)OC[C@H](C(=O)OCCOCCOC(=O)c1ccc(-c3c4nc(c(-c5cc(S(=O)(=O)[O-])ccc5F)c5ccc([nH]5)c(-c5cc(S(=O)(=O)[O-])ccc5F)c5nc(c(-c6cc(S(=O)(=O)[O-])ccc6F)c6ccc3[nH]6)C=C5)C=C4)cc1)N2C(=O)c1ccccc1
REMARK SMILES IDX 18 1 17 2 16 3 15 4 14 5 12 6 13 7 11 8 3 9 4 10 8 11 5 13
REMARK SMILES IDX 7 14 6 15 9 16 86 17 10 18 2 19 1 20 87 21 88 22 89 23 90 24
REMARK SMILES IDX 94 25 91 26 93 27 92 28 19 29 20 30 21 31 22 32 23 33 24 34
REMARK SMILES IDX 85 35 25 36 84 37 26 38 27 39 28 40 78 41 29 42 83 43 77 44
REMARK SMILES IDX 79 45 30 46 82 47 76 48 75 49 31 51 63 52 43 53 62 54 44 55
REMARK SMILES IDX 47 56 61 57 80 58 45 59 46 60 60 62 81 63 48 64 32 65 33 66
REMARK SMILES IDX 41 67 34 68 40 69 42 70 39 71 35 72 36 73 37 74 38 75 64 76
REMARK SMILES IDX 65 77 73 78 66 79 72 80 74 81 71 82 67 83 68 84 69 85 70 86
REMARK SMILES IDX 49 87 50 88 58 89 51 90 57 91 59 92 56 93 52 94 53 95 54 96
REMARK SMILES IDX 55 97
REMARK H PARENT 3 12 79 50 47 61
REMARK Flexibility Score: inf
ROOT
ATOM      1  C   UNL A   1      31.738  28.889  26.384  1.00  0.00     0.202 C 
ENDROOT
BRANCH   1   2
ATOM      2  O   UNL A   1      31.588  28.615  24.992  1.00  0.00    -0.374 OA
BRANCH   2   3
ATOM      3  C   UNL A   1      31.340  27.273  24.583  1.00  0.00     0.202 C 
BRANCH   3   4
ATOM      4  C   UNL A   1      32.258  26.188  25.149  1.00  0.00     0.261 C 
BRANCH   4   5
ATOM      5  O   UNL A   1      32.480  25.106  24.227  1.00  0.00    -0.462 OA
BRANCH   5   6
ATOM      6  C   UNL A   1      32.549  23.875  24.805  1.00  0.00     0.331 C 
ATOM      7  O   UNL A   1      32.171  23.629  25.947  1.00  0.00    -0.250 OA
BRANCH   6   8
ATOM      8  C   UNL A   1      33.064  22.822  23.819  1.00  0.00     0.224 C 
ATOM      9  N   UNL A   1      37.623  22.709  26.123  1.00  0.00    -0.335 N 
ATOM     10  C   UNL A   1      36.373  23.415  26.393  1.00  0.00     0.267 C 
ATOM     11  C   UNL A   1      37.630  21.860  24.928  1.00  0.00     0.267 C 
ATOM     12  H   UNL A   1      37.682  22.024  26.877  1.00  0.00     0.348 HD
ATOM     13  C   UNL A   1      35.767  24.008  25.146  1.00  0.00     0.120 C 
ATOM     14  C   UNL A   1      36.705  22.195  23.753  1.00  0.00     0.120 C 
ATOM     15  C   UNL A   1      35.417  22.922  24.120  1.00  0.00     0.155 C 
ATOM     16  O   UNL A   1      35.050  23.688  22.925  1.00  0.00    -0.352 OA
ATOM     17  N   UNL A   1      34.202  22.127  24.402  1.00  0.00    -0.293 N 
ATOM     18  C   UNL A   1      33.680  23.420  22.588  1.00  0.00     0.200 C 
BRANCH   9  19
ATOM     19  C   UNL A   1      38.808  23.553  26.269  1.00  0.00     0.258 C 
ATOM     20  C   UNL A   1      38.765  24.298  27.602  1.00  0.00     0.071 C 
ENDBRANCH   9  19
BRANCH  17  21
ATOM     21  C   UNL A   1      33.893  21.006  25.157  1.00  0.00     0.256 C 
ATOM     22  O   UNL A   1      33.710  21.062  26.376  1.00  0.00    -0.269 OA
BRANCH  21  23
ATOM     23  C   UNL A   1      33.668  19.690  24.554  1.00  0.00     0.040 A 
ATOM     24  C   UNL A   1      34.670  18.717  24.631  1.00  0.00     0.014 A 
ATOM     25  C   UNL A   1      32.529  19.472  23.776  1.00  0.00     0.014 A 
ATOM     26  C   UNL A   1      34.468  17.475  24.022  1.00  0.00     0.001 A 
ATOM     27  C   UNL A   1      32.319  18.221  23.193  1.00  0.00     0.001 A 
ATOM     28  C   UNL A   1      33.282  17.220  23.329  1.00  0.00     0.000 A 
ENDBRANCH  21  23
ENDBRANCH  17  21
ENDBRANCH   6   8
ENDBRANCH   5   6
ENDBRANCH   4   5
ENDBRANCH   3   4
ENDBRANCH   2   3
ENDBRANCH   1   2
BRANCH   1  29
ATOM     29  C   UNL A   1      32.040  30.335  26.790  1.00  0.00     0.261 C 
BRANCH  29  30
ATOM     30  O   UNL A   1      33.409  30.703  26.538  1.00  0.00    -0.460 OA
BRANCH  30  31
ATOM     31  C   UNL A   1      33.935  31.552  27.451  1.00  0.00     0.338 C 
ATOM     32  O   UNL A   1      33.345  32.445  28.050  1.00  0.00    -0.246 OA
BRANCH  31  33
ATOM     33  C   UNL A   1      35.311  31.154  27.796  1.00  0.00     0.060 A 
ATOM     34  C   UNL A   1      35.582  29.782  27.866  1.00  0.00     0.016 A 
ATOM     35  C   UNL A   1      36.292  32.089  28.134  1.00  0.00     0.016 A 
ATOM     36  C   UNL A   1      36.815  29.338  28.330  1.00  0.00     0.010 A 
ATOM     37  C   UNL A   1      37.531  31.640  28.606  1.00  0.00     0.010 A 
ATOM     38  C   UNL A   1      37.784  30.263  28.743  1.00  0.00    -0.014 A 
BRANCH  38  39
ATOM     39  C   UNL A   1      38.996  29.764  29.439  1.00  0.00     0.031 A 
ATOM     40  C   UNL A   1      39.312  30.270  30.821  1.00  0.00     0.074 A 
ATOM     41  C   UNL A   1      39.758  28.810  28.874  1.00  0.00     0.049 A 
ATOM     42  N   UNL A   1      40.278  29.925  31.631  1.00  0.00    -0.248 NA
ATOM     43  C   UNL A   1      38.417  31.306  31.357  1.00  0.00     0.031 C 
ATOM     44  C   UNL A   1      39.527  28.221  27.555  1.00  0.00     0.029 A 
ATOM     45  N   UNL A   1      40.873  28.162  29.340  1.00  0.00    -0.354 N 
ATOM     46  C   UNL A   1      40.105  30.693  32.778  1.00  0.00     0.074 A 
ATOM     47  C   UNL A   1      38.968  31.556  32.535  1.00  0.00     0.031 C 
ATOM     48  C   UNL A   1      40.471  27.294  27.321  1.00  0.00     0.029 A 
ATOM     49  C   UNL A   1      41.386  27.241  28.459  1.00  0.00     0.049 A 
ATOM     50  H   UNL A   1      41.268  28.341  30.225  1.00  0.00     0.167 HD
ATOM     51  C   UNL A   1      40.820  30.671  33.931  1.00  0.00     0.034 A 
ATOM     52  C   UNL A   1      42.474  26.453  28.556  1.00  0.00     0.034 A 
ATOM     53  C   UNL A   1      41.964  29.817  34.150  1.00  0.00     0.049 A 
ATOM     54  C   UNL A   1      43.292  26.493  29.823  1.00  0.00     0.074 A 
ATOM     55  C   UNL A   1      42.757  29.708  35.280  1.00  0.00     0.029 A 
ATOM     56  N   UNL A   1      42.487  28.930  33.216  1.00  0.00    -0.354 N 
ATOM     57  N   UNL A   1      43.107  27.211  30.908  1.00  0.00    -0.248 NA
ATOM     58  C   UNL A   1      44.454  25.598  29.885  1.00  0.00     0.031 C 
ATOM     59  C   UNL A   1      43.797  28.812  35.003  1.00  0.00     0.029 A 
ATOM     60  C   UNL A   1      43.608  28.298  33.731  1.00  0.00     0.049 A 
ATOM     61  H   UNL A   1      42.114  28.775  32.318  1.00  0.00     0.167 HD
ATOM     62  C   UNL A   1      44.117  26.835  31.790  1.00  0.00     0.074 A 
ATOM     63  C   UNL A   1      44.887  25.807  31.118  1.00  0.00     0.031 C 
ATOM     64  C   UNL A   1      44.385  27.293  33.041  1.00  0.00     0.034 A 
BRANCH  51  65
ATOM     65  C   UNL A   1      40.412  31.640  35.017  1.00  0.00     0.023 A 
ATOM     66  C   UNL A   1      39.486  31.288  36.015  1.00  0.00     0.031 A 
ATOM     67  C   UNL A   1      40.935  32.945  35.037  1.00  0.00     0.131 A 
ATOM     68  C   UNL A   1      39.061  32.249  36.946  1.00  0.00     0.055 A 
ATOM     69  C   UNL A   1      40.566  33.873  36.013  1.00  0.00     0.041 A 
ATOM     70  F   UNL A   1      41.805  33.347  34.097  1.00  0.00    -0.206 F 
ATOM     71  C   UNL A   1      39.612  33.532  36.967  1.00  0.00     0.022 A 
BRANCH  68  72
ATOM     72  S   UNL A   1      37.674  31.843  38.044  1.00  0.00     0.124 S 
ATOM     73  O   UNL A   1      38.258  32.092  39.361  1.00  0.00    -0.237 OA
ATOM     74  O   UNL A   1      36.645  32.782  37.613  1.00  0.00    -0.237 OA
ATOM     75  O   UNL A   1      37.401  30.438  37.748  1.00  0.00    -0.744 OA
ENDBRANCH  68  72
ENDBRANCH  51  65
BRANCH  52  76
ATOM     76  C   UNL A   1      42.876  25.576  27.419  1.00  0.00     0.023 A 
ATOM     77  C   UNL A   1      42.462  24.236  27.349  1.00  0.00     0.031 A 
ATOM     78  C   UNL A   1      43.728  26.057  26.410  1.00  0.00     0.131 A 
ATOM     79  C   UNL A   1      42.940  23.411  26.318  1.00  0.00     0.055 A 
ATOM     80  C   UNL A   1      44.158  25.247  25.358  1.00  0.00     0.041 A 
ATOM     81  F   UNL A   1      44.151  27.331  26.428  1.00  0.00    -0.206 F 
ATOM     82  C   UNL A   1      43.775  23.910  25.315  1.00  0.00     0.022 A 
BRANCH  79  83
ATOM     83  S   UNL A   1      42.518  21.647  26.352  1.00  0.00     0.124 S 
ATOM     84  O   UNL A   1      43.779  21.031  25.955  1.00  0.00    -0.237 OA
ATOM     85  O   UNL A   1      42.121  21.458  27.743  1.00  0.00    -0.237 OA
ATOM     86  O   UNL A   1      41.434  21.538  25.377  1.00  0.00    -0.744 OA
ENDBRANCH  79  83
ENDBRANCH  52  76
BRANCH  64  87
ATOM     87  C   UNL A   1      45.548  26.651  33.765  1.00  0.00     0.023 A 
ATOM     88  C   UNL A   1      45.379  25.506  34.562  1.00  0.00     0.031 A 
ATOM     89  C   UNL A   1      46.831  27.224  33.697  1.00  0.00     0.131 A 
ATOM     90  C   UNL A   1      46.453  25.019  35.325  1.00  0.00     0.055 A 
ATOM     91  C   UNL A   1      47.912  26.692  34.400  1.00  0.00     0.041 A 
ATOM     92  F   UNL A   1      47.052  28.319  32.952  1.00  0.00    -0.206 F 
ATOM     93  C   UNL A   1      47.722  25.595  35.237  1.00  0.00     0.022 A 
BRANCH  90  94
ATOM     94  S   UNL A   1      46.132  23.708  36.537  1.00  0.00     0.124 S 
ATOM     95  O   UNL A   1      47.377  22.946  36.498  1.00  0.00    -0.237 OA
ATOM     96  O   UNL A   1      45.888  24.466  37.759  1.00  0.00    -0.237 OA
ATOM     97  O   UNL A   1      44.966  23.014  35.992  1.00  0.00    -0.744 OA
ENDBRANCH  90  94
ENDBRANCH  64  87
ENDBRANCH  38  39
ENDBRANCH  31  33
ENDBRANCH  30  31
ENDBRANCH  29  30
ENDBRANCH   1  29
TORSDOF 20
ENDMDL
