MODEL 1
REMARK VINA RESULT:     -10.0      0.000      0.000
REMARK SMILES O=C(OCCOCCOC(=O)c1ccc(-c2c3nc(c(-c4cc(S(=O)(=O)[O-])ccc4F)c4ccc([nH]4)c(-c4cc(S(=O)(=O)[O-])ccc4F)c4nc(c(-c5cc(S(=O)(=O)[O-])ccc5F)c5ccc2[nH]5)C=C4)C=C3)cc1)C1=Cc2cc(Cl)cc(-c3ccc(CO)cc3)c2O[C@@H]1C(F)(F)F
REMARK SMILES IDX 6 1 5 2 4 3 3 4 2 5 1 6 75 7 76 8 93 9 77 10 92 11 78 12
REMARK SMILES IDX 91 13 79 14 82 15 80 16 81 17 94 18 95 19 96 20 97 21 83 22
REMARK SMILES IDX 84 23 90 24 85 25 89 26 86 27 87 28 88 29 7 31 8 32 9 33
REMARK SMILES IDX 10 34 11 35 12 36 13 37 74 38 14 39 73 40 15 41 16 42 17 43
REMARK SMILES IDX 67 44 18 45 72 46 66 47 68 48 19 49 71 50 65 51 64 52 20 54
REMARK SMILES IDX 52 55 32 56 51 57 33 58 36 59 50 60 69 61 34 62 35 63 49 65
REMARK SMILES IDX 70 66 37 67 21 68 22 69 30 70 23 71 29 72 31 73 28 74 24 75
REMARK SMILES IDX 25 76 26 77 27 78 53 79 54 80 62 81 55 82 61 83 63 84 60 85
REMARK SMILES IDX 56 86 57 87 58 88 59 89 38 90 39 91 47 92 40 93 46 94 48 95
REMARK SMILES IDX 45 96 41 97 42 98 43 99 44 100
REMARK H PARENT 88 30 68 53 36 64
REMARK Flexibility Score: inf
ROOT
ATOM      1  O   UNL A   1      35.200  35.366  33.863  1.00  0.00    -0.374 OA
ENDROOT
BRANCH   1   2
ATOM      2  C   UNL A   1      34.162  35.680  32.608  1.00  0.00     0.202 C 
BRANCH   2   3
ATOM      3  C   UNL A   1      34.155  34.826  30.605  1.00  0.00     0.261 C 
BRANCH   3   4
ATOM      4  O   UNL A   1      33.845  33.317  30.265  1.00  0.00    -0.460 OA
BRANCH   4   5
ATOM      5  C   UNL A   1      34.822  32.474  30.622  1.00  0.00     0.338 C 
ATOM      6  O   UNL A   1      35.100  31.991  31.688  1.00  0.00    -0.246 OA
BRANCH   5   7
ATOM      7  C   UNL A   1      35.577  32.655  29.412  1.00  0.00     0.087 C 
ATOM      8  C   UNL A   1      36.857  33.310  29.682  1.00  0.00     0.027 C 
ATOM      9  C   UNL A   1      35.375  30.860  28.718  1.00  0.00     0.316 C 
ATOM     10  C   UNL A   1      38.443  32.461  29.600  1.00  0.00     0.019 A 
ATOM     11  O   UNL A   1      37.087  29.920  28.647  1.00  0.00    -0.475 OA
ATOM     12  C   UNL A   1      39.499  33.177  30.099  1.00  0.00     0.032 A 
ATOM     13  C   UNL A   1      38.628  30.774  29.168  1.00  0.00     0.135 A 
ATOM     14  C   UNL A   1      40.668  32.445  30.280  1.00  0.00     0.042 A 
ATOM     15  C   UNL A   1      39.910  30.154  29.302  1.00  0.00     0.026 A 
ATOM     16  Cl  UNL A   1      42.030  33.295  30.931  1.00  0.00    -0.084 Cl
ATOM     17  C   UNL A   1      40.837  31.047  29.951  1.00  0.00     0.033 A 
BRANCH   9  18
ATOM     18  C   UNL A   1      34.273  31.292  27.609  1.00  0.00     0.430 C 
ATOM     19  F   UNL A   1      34.252  30.530  26.494  1.00  0.00    -0.167 F 
ATOM     20  F   UNL A   1      33.029  31.108  28.151  1.00  0.00    -0.167 F 
ATOM     21  F   UNL A   1      34.286  32.595  27.248  1.00  0.00    -0.167 F 
ENDBRANCH   9  18
BRANCH  15  22
ATOM     22  C   UNL A   1      40.501  28.714  28.854  1.00  0.00    -0.015 A 
ATOM     23  C   UNL A   1      39.261  27.511  29.409  1.00  0.00     0.009 A 
ATOM     24  C   UNL A   1      41.889  28.014  27.543  1.00  0.00     0.009 A 
ATOM     25  C   UNL A   1      39.315  25.862  28.773  1.00  0.00     0.007 A 
ATOM     26  C   UNL A   1      41.797  26.320  26.965  1.00  0.00     0.007 A 
ATOM     27  C   UNL A   1      40.533  25.300  27.604  1.00  0.00    -0.023 A 
BRANCH  27  28
ATOM     28  C   UNL A   1      40.707  23.830  27.341  1.00  0.00     0.191 C 
BRANCH  28  29
ATOM     29  O   UNL A   1      41.564  23.271  28.324  1.00  0.00    -0.392 OA
ATOM     30  H   UNL A   1      41.140  23.332  29.194  1.00  0.00     0.211 HD
ENDBRANCH  28  29
ENDBRANCH  27  28
ENDBRANCH  15  22
ENDBRANCH   5   7
ENDBRANCH   4   5
ENDBRANCH   3   4
ENDBRANCH   2   3
ENDBRANCH   1   2
BRANCH   1  31
ATOM     31  C   UNL A   1      35.967  34.184  34.237  1.00  0.00     0.202 C 
BRANCH  31  32
ATOM     32  C   UNL A   1      37.395  34.038  33.702  1.00  0.00     0.261 C 
BRANCH  32  33
ATOM     33  O   UNL A   1      37.541  32.762  33.140  1.00  0.00    -0.460 OA
BRANCH  33  34
ATOM     34  C   UNL A   1      37.938  31.894  34.087  1.00  0.00     0.338 C 
ATOM     35  O   UNL A   1      37.413  31.604  35.145  1.00  0.00    -0.246 OA
BRANCH  34  36
ATOM     36  C   UNL A   1      39.106  31.264  33.546  1.00  0.00     0.060 A 
ATOM     37  C   UNL A   1      38.964  29.588  32.961  1.00  0.00     0.016 A 
ATOM     38  C   UNL A   1      40.762  31.960  33.817  1.00  0.00     0.016 A 
ATOM     39  C   UNL A   1      40.384  28.541  32.685  1.00  0.00     0.010 A 
ATOM     40  C   UNL A   1      42.318  30.724  33.463  1.00  0.00     0.010 A 
ATOM     41  C   UNL A   1      42.038  29.051  32.941  1.00  0.00    -0.014 A 
BRANCH  41  42
ATOM     42  C   UNL A   1      43.236  28.170  33.104  1.00  0.00     0.031 A 
ATOM     43  C   UNL A   1      43.793  27.822  34.480  1.00  0.00     0.074 A 
ATOM     44  C   UNL A   1      44.037  28.013  32.039  1.00  0.00     0.049 A 
ATOM     45  N   UNL A   1      44.949  27.296  34.819  1.00  0.00    -0.248 NA
ATOM     46  C   UNL A   1      42.982  28.205  35.640  1.00  0.00     0.031 C 
ATOM     47  C   UNL A   1      43.753  28.524  30.701  1.00  0.00     0.029 A 
ATOM     48  N   UNL A   1      45.276  27.439  31.922  1.00  0.00    -0.354 N 
ATOM     49  C   UNL A   1      45.004  27.321  36.217  1.00  0.00     0.074 A 
ATOM     50  C   UNL A   1      43.818  28.022  36.652  1.00  0.00     0.031 C 
ATOM     51  C   UNL A   1      44.780  28.228  29.891  1.00  0.00     0.029 A 
ATOM     52  C   UNL A   1      45.797  27.514  30.653  1.00  0.00     0.049 A 
ATOM     53  H   UNL A   1      45.748  27.014  32.675  1.00  0.00     0.167 HD
ATOM     54  C   UNL A   1      45.913  26.759  37.061  1.00  0.00     0.034 A 
ATOM     55  C   UNL A   1      46.955  27.041  30.157  1.00  0.00     0.034 A 
ATOM     56  C   UNL A   1      47.062  26.015  36.597  1.00  0.00     0.049 A 
ATOM     57  C   UNL A   1      47.874  26.270  31.068  1.00  0.00     0.074 A 
ATOM     58  C   UNL A   1      47.958  25.250  37.326  1.00  0.00     0.029 A 
ATOM     59  N   UNL A   1      47.471  25.944  35.273  1.00  0.00    -0.354 N 
ATOM     60  N   UNL A   1      47.814  26.120  32.371  1.00  0.00    -0.248 NA
ATOM     61  C   UNL A   1      48.983  25.555  30.428  1.00  0.00     0.031 C 
ATOM     62  C   UNL A   1      48.935  24.761  36.450  1.00  0.00     0.029 A 
ATOM     63  C   UNL A   1      48.602  25.151  35.163  1.00  0.00     0.049 A 
ATOM     64  H   UNL A   1      47.021  26.391  34.519  1.00  0.00     0.167 HD
ATOM     65  C   UNL A   1      48.858  25.260  32.701  1.00  0.00     0.074 A 
ATOM     66  C   UNL A   1      49.503  24.900  31.454  1.00  0.00     0.031 C 
ATOM     67  C   UNL A   1      49.250  24.809  33.920  1.00  0.00     0.034 A 
BRANCH  54  68
ATOM     68  C   UNL A   1      45.674  26.850  38.563  1.00  0.00     0.023 A 
ATOM     69  C   UNL A   1      46.252  27.877  39.331  1.00  0.00     0.031 A 
ATOM     70  C   UNL A   1      44.830  25.947  39.238  1.00  0.00     0.131 A 
ATOM     71  C   UNL A   1      46.061  27.926  40.721  1.00  0.00     0.055 A 
ATOM     72  C   UNL A   1      44.560  26.060  40.607  1.00  0.00     0.041 A 
ATOM     73  F   UNL A   1      44.240  24.936  38.579  1.00  0.00    -0.206 F 
ATOM     74  C   UNL A   1      45.192  27.044  41.362  1.00  0.00     0.022 A 
BRANCH  71  75
ATOM     75  S   UNL A   1      47.082  29.071  41.686  1.00  0.00     0.124 S 
ATOM     76  O   UNL A   1      46.184  29.400  42.791  1.00  0.00    -0.237 OA
ATOM     77  O   UNL A   1      48.239  28.250  42.029  1.00  0.00    -0.237 OA
ATOM     78  O   UNL A   1      47.345  30.167  40.756  1.00  0.00    -0.744 OA
ENDBRANCH  71  75
ENDBRANCH  54  68
BRANCH  55  79
ATOM     79  C   UNL A   1      47.247  27.176  28.704  1.00  0.00     0.023 A 
ATOM     80  C   UNL A   1      46.765  26.220  27.798  1.00  0.00     0.031 A 
ATOM     81  C   UNL A   1      48.006  28.244  28.197  1.00  0.00     0.131 A 
ATOM     82  C   UNL A   1      47.103  26.306  26.442  1.00  0.00     0.055 A 
ATOM     83  C   UNL A   1      48.286  28.362  26.835  1.00  0.00     0.041 A 
ATOM     84  F   UNL A   1      48.464  29.202  29.018  1.00  0.00    -0.206 F 
ATOM     85  C   UNL A   1      47.849  27.378  25.950  1.00  0.00     0.022 A 
BRANCH  82  86
ATOM     86  S   UNL A   1      46.639  24.933  25.353  1.00  0.00     0.124 S 
ATOM     87  O   UNL A   1      46.938  23.777  26.189  1.00  0.00    -0.237 OA
ATOM     88  O   UNL A   1      45.225  25.204  25.113  1.00  0.00    -0.237 OA
ATOM     89  O   UNL A   1      47.513  25.111  24.194  1.00  0.00    -0.744 OA
ENDBRANCH  82  86
ENDBRANCH  55  79
BRANCH  67  90
ATOM     90  C   UNL A   1      50.408  23.841  33.949  1.00  0.00     0.023 A 
ATOM     91  C   UNL A   1      51.741  24.287  33.910  1.00  0.00     0.031 A 
ATOM     92  C   UNL A   1      50.179  22.454  33.953  1.00  0.00     0.131 A 
ATOM     93  C   UNL A   1      52.784  23.362  33.767  1.00  0.00     0.055 A 
ATOM     94  C   UNL A   1      51.228  21.534  33.904  1.00  0.00     0.041 A 
ATOM     95  F   UNL A   1      48.928  21.965  33.988  1.00  0.00    -0.206 F 
ATOM     96  C   UNL A   1      52.539  21.987  33.785  1.00  0.00     0.022 A 
BRANCH  93  97
ATOM     97  S   UNL A   1      54.443  23.988  33.387  1.00  0.00     0.124 S 
ATOM     98  O   UNL A   1      54.152  25.034  32.412  1.00  0.00    -0.237 OA
ATOM     99  O   UNL A   1      54.910  24.443  34.692  1.00  0.00    -0.237 OA
ATOM    100  O   UNL A   1      55.135  22.817  32.853  1.00  0.00    -0.744 OA
ENDBRANCH  93  97
ENDBRANCH  67  90
ENDBRANCH  41  42
ENDBRANCH  34  36
ENDBRANCH  33  34
ENDBRANCH  32  33
ENDBRANCH  31  32
ENDBRANCH   1  31
TORSDOF 21
ENDMDL
MODEL 2
REMARK VINA RESULT:      -9.6      5.095      8.818
REMARK SMILES O=C(OCCOCCOC(=O)c1ccc(-c2c3nc(c(-c4cc(S(=O)(=O)[O-])ccc4F)c4ccc([nH]4)c(-c4cc(S(=O)(=O)[O-])ccc4F)c4nc(c(-c5cc(S(=O)(=O)[O-])ccc5F)c5ccc2[nH]5)C=C4)C=C3)cc1)C1=Cc2cc(Cl)cc(-c3ccc(CO)cc3)c2O[C@@H]1C(F)(F)F
REMARK SMILES IDX 6 1 5 2 4 3 3 4 2 5 1 6 75 7 76 8 93 9 77 10 92 11 78 12
REMARK SMILES IDX 91 13 79 14 82 15 80 16 81 17 94 18 95 19 96 20 97 21 83 22
REMARK SMILES IDX 84 23 90 24 85 25 89 26 86 27 87 28 88 29 7 31 8 32 9 33
REMARK SMILES IDX 10 34 11 35 12 36 13 37 74 38 14 39 73 40 15 41 16 42 17 43
REMARK SMILES IDX 67 44 18 45 72 46 66 47 68 48 19 49 71 50 65 51 64 52 20 54
REMARK SMILES IDX 52 55 32 56 51 57 33 58 36 59 50 60 69 61 34 62 35 63 49 65
REMARK SMILES IDX 70 66 37 67 21 68 22 69 30 70 23 71 29 72 31 73 28 74 24 75
REMARK SMILES IDX 25 76 26 77 27 78 53 79 54 80 62 81 55 82 61 83 63 84 60 85
REMARK SMILES IDX 56 86 57 87 58 88 59 89 38 90 39 91 47 92 40 93 46 94 48 95
REMARK SMILES IDX 45 96 41 97 42 98 43 99 44 100
REMARK H PARENT 88 30 68 53 36 64
REMARK Flexibility Score: inf
ROOT
ATOM      1  O   UNL A   1      36.384  33.558  36.403  1.00  0.00    -0.374 OA
ENDROOT
BRANCH   1   2
ATOM      2  C   UNL A   1      35.890  33.942  34.866  1.00  0.00     0.202 C 
BRANCH   2   3
ATOM      3  C   UNL A   1      35.467  32.604  33.201  1.00  0.00     0.261 C 
BRANCH   3   4
ATOM      4  O   UNL A   1      35.509  33.013  31.678  1.00  0.00    -0.460 OA
BRANCH   4   5
ATOM      5  C   UNL A   1      34.663  34.001  31.363  1.00  0.00     0.338 C 
ATOM      6  O   UNL A   1      33.646  34.371  31.891  1.00  0.00    -0.246 OA
BRANCH   5   7
ATOM      7  C   UNL A   1      35.194  34.191  30.041  1.00  0.00     0.087 C 
ATOM      8  C   UNL A   1      36.271  33.241  29.764  1.00  0.00     0.027 C 
ATOM      9  C   UNL A   1      33.507  34.261  29.098  1.00  0.00     0.316 C 
ATOM     10  C   UNL A   1      36.101  31.852  28.632  1.00  0.00     0.019 A 
ATOM     11  O   UNL A   1      33.300  32.745  27.882  1.00  0.00    -0.475 OA
ATOM     12  C   UNL A   1      37.133  30.952  28.673  1.00  0.00     0.032 A 
ATOM     13  C   UNL A   1      34.644  31.502  27.724  1.00  0.00     0.135 A 
ATOM     14  C   UNL A   1      36.895  29.757  28.003  1.00  0.00     0.042 A 
ATOM     15  C   UNL A   1      34.555  30.279  26.987  1.00  0.00     0.026 A 
ATOM     16  Cl  UNL A   1      38.158  28.572  28.043  1.00  0.00    -0.084 Cl
ATOM     17  C   UNL A   1      35.692  29.438  27.267  1.00  0.00     0.033 A 
BRANCH   9  18
ATOM     18  C   UNL A   1      33.553  35.871  28.903  1.00  0.00     0.430 C 
ATOM     19  F   UNL A   1      34.449  36.314  27.996  1.00  0.00    -0.167 F 
ATOM     20  F   UNL A   1      32.348  36.272  28.393  1.00  0.00    -0.167 F 
ATOM     21  F   UNL A   1      33.687  36.593  30.039  1.00  0.00    -0.167 F 
ENDBRANCH   9  18
BRANCH  15  22
ATOM     22  C   UNL A   1      33.482  29.699  25.922  1.00  0.00    -0.015 A 
ATOM     23  C   UNL A   1      34.393  28.442  24.983  1.00  0.00     0.009 A 
ATOM     24  C   UNL A   1      31.459  29.671  25.708  1.00  0.00     0.009 A 
ATOM     25  C   UNL A   1      33.494  27.285  23.993  1.00  0.00     0.007 A 
ATOM     26  C   UNL A   1      30.687  28.415  24.689  1.00  0.00     0.007 A 
ATOM     27  C   UNL A   1      31.720  27.281  23.857  1.00  0.00    -0.023 A 
BRANCH  27  28
ATOM     28  C   UNL A   1      31.047  26.480  22.777  1.00  0.00     0.191 C 
BRANCH  28  29
ATOM     29  O   UNL A   1      31.345  27.047  21.511  1.00  0.00    -0.392 OA
ATOM     30  H   UNL A   1      31.537  27.991  21.617  1.00  0.00     0.211 HD
ENDBRANCH  28  29
ENDBRANCH  27  28
ENDBRANCH  15  22
ENDBRANCH   5   7
ENDBRANCH   4   5
ENDBRANCH   3   4
ENDBRANCH   2   3
ENDBRANCH   1   2
BRANCH   1  31
ATOM     31  C   UNL A   1      37.622  33.803  37.132  1.00  0.00     0.202 C 
BRANCH  31  32
ATOM     32  C   UNL A   1      38.235  32.657  37.942  1.00  0.00     0.261 C 
BRANCH  32  33
ATOM     33  O   UNL A   1      38.744  31.696  37.058  1.00  0.00    -0.460 OA
BRANCH  33  34
ATOM     34  C   UNL A   1      40.034  31.966  36.792  1.00  0.00     0.338 C 
ATOM     35  O   UNL A   1      40.869  32.527  37.477  1.00  0.00    -0.246 OA
BRANCH  34  36
ATOM     36  C   UNL A   1      40.288  31.349  35.524  1.00  0.00     0.060 A 
ATOM     37  C   UNL A   1      40.994  29.714  35.510  1.00  0.00     0.016 A 
ATOM     38  C   UNL A   1      40.297  32.321  33.989  1.00  0.00     0.016 A 
ATOM     39  C   UNL A   1      41.765  29.011  34.060  1.00  0.00     0.010 A 
ATOM     40  C   UNL A   1      41.166  31.451  32.387  1.00  0.00     0.010 A 
ATOM     41  C   UNL A   1      41.890  29.836  32.523  1.00  0.00    -0.014 A 
BRANCH  41  42
ATOM     42  C   UNL A   1      42.820  29.507  31.398  1.00  0.00     0.031 A 
ATOM     43  C   UNL A   1      42.479  28.440  30.364  1.00  0.00     0.074 A 
ATOM     44  C   UNL A   1      44.104  29.872  31.531  1.00  0.00     0.049 A 
ATOM     45  N   UNL A   1      43.245  27.840  29.480  1.00  0.00    -0.248 NA
ATOM     46  C   UNL A   1      41.114  27.905  30.388  1.00  0.00     0.031 C 
ATOM     47  C   UNL A   1      44.631  30.684  32.625  1.00  0.00     0.029 A 
ATOM     48  N   UNL A   1      45.211  29.559  30.785  1.00  0.00    -0.354 N 
ATOM     49  C   UNL A   1      42.461  26.849  28.880  1.00  0.00     0.074 A 
ATOM     50  C   UNL A   1      41.200  26.853  29.586  1.00  0.00     0.031 C 
ATOM     51  C   UNL A   1      45.956  30.820  32.472  1.00  0.00     0.029 A 
ATOM     52  C   UNL A   1      46.374  30.101  31.275  1.00  0.00     0.049 A 
ATOM     53  H   UNL A   1      45.174  29.000  29.975  1.00  0.00     0.167 HD
ATOM     54  C   UNL A   1      42.733  26.058  27.806  1.00  0.00     0.034 A 
ATOM     55  C   UNL A   1      47.631  30.040  30.800  1.00  0.00     0.034 A 
ATOM     56  C   UNL A   1      43.983  26.114  27.084  1.00  0.00     0.049 A 
ATOM     57  C   UNL A   1      47.887  29.302  29.513  1.00  0.00     0.074 A 
ATOM     58  C   UNL A   1      44.328  25.507  25.887  1.00  0.00     0.029 A 
ATOM     59  N   UNL A   1      45.100  26.825  27.499  1.00  0.00    -0.354 N 
ATOM     60  N   UNL A   1      47.078  28.522  28.831  1.00  0.00    -0.248 NA
ATOM     61  C   UNL A   1      49.208  29.483  28.903  1.00  0.00     0.031 C 
ATOM     62  C   UNL A   1      45.666  25.811  25.607  1.00  0.00     0.029 A 
ATOM     63  C   UNL A   1      46.131  26.674  26.585  1.00  0.00     0.049 A 
ATOM     64  H   UNL A   1      45.152  27.361  28.324  1.00  0.00     0.167 HD
ATOM     65  C   UNL A   1      47.785  28.153  27.689  1.00  0.00     0.074 A 
ATOM     66  C   UNL A   1      49.066  28.827  27.763  1.00  0.00     0.031 C 
ATOM     67  C   UNL A   1      47.411  27.334  26.673  1.00  0.00     0.034 A 
BRANCH  54  68
ATOM     68  C   UNL A   1      41.646  25.122  27.289  1.00  0.00     0.023 A 
ATOM     69  C   UNL A   1      41.720  23.734  27.501  1.00  0.00     0.031 A 
ATOM     70  C   UNL A   1      40.502  25.607  26.626  1.00  0.00     0.131 A 
ATOM     71  C   UNL A   1      40.735  22.877  26.983  1.00  0.00     0.055 A 
ATOM     72  C   UNL A   1      39.472  24.758  26.201  1.00  0.00     0.041 A 
ATOM     73  F   UNL A   1      40.354  26.919  26.382  1.00  0.00    -0.206 F 
ATOM     74  C   UNL A   1      39.594  23.382  26.362  1.00  0.00     0.022 A 
BRANCH  71  75
ATOM     75  S   UNL A   1      41.052  21.092  27.011  1.00  0.00     0.124 S 
ATOM     76  O   UNL A   1      42.436  21.036  26.545  1.00  0.00    -0.237 OA
ATOM     77  O   UNL A   1      40.840  20.756  28.414  1.00  0.00    -0.237 OA
ATOM     78  O   UNL A   1      40.064  20.552  26.080  1.00  0.00    -0.744 OA
ENDBRANCH  71  75
ENDBRANCH  54  68
BRANCH  55  79
ATOM     79  C   UNL A   1      48.715  30.802  31.479  1.00  0.00     0.023 A 
ATOM     80  C   UNL A   1      48.929  32.151  31.165  1.00  0.00     0.031 A 
ATOM     81  C   UNL A   1      49.550  30.205  32.438  1.00  0.00     0.131 A 
ATOM     82  C   UNL A   1      49.997  32.846  31.747  1.00  0.00     0.055 A 
ATOM     83  C   UNL A   1      50.573  30.920  33.065  1.00  0.00     0.041 A 
ATOM     84  F   UNL A   1      49.368  28.924  32.797  1.00  0.00    -0.206 F 
ATOM     85  C   UNL A   1      50.813  32.245  32.706  1.00  0.00     0.022 A 
BRANCH  82  86
ATOM     86  S   UNL A   1      50.362  34.518  31.147  1.00  0.00     0.124 S 
ATOM     87  O   UNL A   1      51.819  34.545  31.215  1.00  0.00    -0.237 OA
ATOM     88  O   UNL A   1      49.782  34.491  29.808  1.00  0.00    -0.237 OA
ATOM     89  O   UNL A   1      49.674  35.379  32.107  1.00  0.00    -0.744 OA
ENDBRANCH  82  86
ENDBRANCH  55  79
BRANCH  67  90
ATOM     90  C   UNL A   1      48.394  27.161  25.540  1.00  0.00     0.023 A 
ATOM     91  C   UNL A   1      48.171  27.741  24.278  1.00  0.00     0.031 A 
ATOM     92  C   UNL A   1      49.535  26.357  25.703  1.00  0.00     0.131 A 
ATOM     93  C   UNL A   1      49.014  27.421  23.205  1.00  0.00     0.055 A 
ATOM     94  C   UNL A   1      50.422  26.117  24.651  1.00  0.00     0.041 A 
ATOM     95  F   UNL A   1      49.802  25.774  26.883  1.00  0.00    -0.206 F 
ATOM     96  C   UNL A   1      50.150  26.630  23.387  1.00  0.00     0.022 A 
BRANCH  93  97
ATOM     97  S   UNL A   1      48.505  27.917  21.536  1.00  0.00     0.124 S 
ATOM     98  O   UNL A   1      49.686  28.630  21.061  1.00  0.00    -0.237 OA
ATOM     99  O   UNL A   1      48.235  26.632  20.898  1.00  0.00    -0.237 OA
ATOM    100  O   UNL A   1      47.329  28.751  21.772  1.00  0.00    -0.744 OA
ENDBRANCH  93  97
ENDBRANCH  67  90
ENDBRANCH  41  42
ENDBRANCH  34  36
ENDBRANCH  33  34
ENDBRANCH  32  33
ENDBRANCH  31  32
ENDBRANCH   1  31
TORSDOF 21
ENDMDL
MODEL 3
REMARK VINA RESULT:      -9.5      8.455     13.793
REMARK SMILES O=C(OCCOCCOC(=O)c1ccc(-c2c3nc(c(-c4cc(S(=O)(=O)[O-])ccc4F)c4ccc([nH]4)c(-c4cc(S(=O)(=O)[O-])ccc4F)c4nc(c(-c5cc(S(=O)(=O)[O-])ccc5F)c5ccc2[nH]5)C=C4)C=C3)cc1)C1=Cc2cc(Cl)cc(-c3ccc(CO)cc3)c2O[C@@H]1C(F)(F)F
REMARK SMILES IDX 6 1 5 2 4 3 3 4 2 5 1 6 75 7 76 8 93 9 77 10 92 11 78 12
REMARK SMILES IDX 91 13 79 14 82 15 80 16 81 17 94 18 95 19 96 20 97 21 83 22
REMARK SMILES IDX 84 23 90 24 85 25 89 26 86 27 87 28 88 29 7 31 8 32 9 33
REMARK SMILES IDX 10 34 11 35 12 36 13 37 74 38 14 39 73 40 15 41 16 42 17 43
REMARK SMILES IDX 67 44 18 45 72 46 66 47 68 48 19 49 71 50 65 51 64 52 20 54
REMARK SMILES IDX 52 55 32 56 51 57 33 58 36 59 50 60 69 61 34 62 35 63 49 65
REMARK SMILES IDX 70 66 37 67 21 68 22 69 30 70 23 71 29 72 31 73 28 74 24 75
REMARK SMILES IDX 25 76 26 77 27 78 53 79 54 80 62 81 55 82 61 83 63 84 60 85
REMARK SMILES IDX 56 86 57 87 58 88 59 89 38 90 39 91 47 92 40 93 46 94 48 95
REMARK SMILES IDX 45 96 41 97 42 98 43 99 44 100
REMARK H PARENT 88 30 68 53 36 64
REMARK Flexibility Score: inf
ROOT
ATOM      1  O   UNL A   1      48.420  36.739  25.765  1.00  0.00    -0.374 OA
ENDROOT
BRANCH   1   2
ATOM      2  C   UNL A   1      48.716  37.749  27.048  1.00  0.00     0.202 C 
BRANCH   2   3
ATOM      3  C   UNL A   1      47.825  39.687  27.484  1.00  0.00     0.261 C 
BRANCH   3   4
ATOM      4  O   UNL A   1      46.279  39.999  27.457  1.00  0.00    -0.460 OA
BRANCH   4   5
ATOM      5  C   UNL A   1      45.544  39.142  28.177  1.00  0.00     0.338 C 
ATOM      6  O   UNL A   1      45.671  37.961  28.372  1.00  0.00    -0.246 OA
BRANCH   5   7
ATOM      7  C   UNL A   1      44.423  40.032  28.306  1.00  0.00     0.087 C 
ATOM      8  C   UNL A   1      44.864  41.404  28.556  1.00  0.00     0.027 C 
ATOM      9  C   UNL A   1      43.455  39.448  26.737  1.00  0.00     0.316 C 
ATOM     10  C   UNL A   1      44.750  42.721  27.334  1.00  0.00     0.019 A 
ATOM     11  O   UNL A   1      43.344  40.862  25.392  1.00  0.00    -0.475 OA
ATOM     12  C   UNL A   1      45.414  43.872  27.671  1.00  0.00     0.032 A 
ATOM     13  C   UNL A   1      44.079  42.512  25.729  1.00  0.00     0.135 A 
ATOM     14  C   UNL A   1      45.551  44.792  26.637  1.00  0.00     0.042 A 
ATOM     15  C   UNL A   1      44.194  43.574  24.779  1.00  0.00     0.026 A 
ATOM     16  Cl  UNL A   1      46.403  46.256  27.001  1.00  0.00    -0.084 Cl
ATOM     17  C   UNL A   1      45.025  44.630  25.301  1.00  0.00     0.033 A 
BRANCH   9  18
ATOM     18  C   UNL A   1      42.360  38.605  27.587  1.00  0.00     0.430 C 
ATOM     19  F   UNL A   1      41.683  37.672  26.884  1.00  0.00    -0.167 F 
ATOM     20  F   UNL A   1      43.026  37.878  28.536  1.00  0.00    -0.167 F 
ATOM     21  F   UNL A   1      41.477  39.343  28.297  1.00  0.00    -0.167 F 
ENDBRANCH   9  18
BRANCH  15  22
ATOM     22  C   UNL A   1      43.570  43.819  23.304  1.00  0.00    -0.015 A 
ATOM     23  C   UNL A   1      45.009  44.005  22.216  1.00  0.00     0.009 A 
ATOM     24  C   UNL A   1      41.787  43.521  22.371  1.00  0.00     0.009 A 
ATOM     25  C   UNL A   1      44.787  43.890  20.465  1.00  0.00     0.007 A 
ATOM     26  C   UNL A   1      41.725  43.397  20.585  1.00  0.00     0.007 A 
ATOM     27  C   UNL A   1      43.211  43.600  19.693  1.00  0.00    -0.023 A 
BRANCH  27  28
ATOM     28  C   UNL A   1      43.043  43.814  18.215  1.00  0.00     0.191 C 
BRANCH  28  29
ATOM     29  O   UNL A   1      42.970  42.557  17.559  1.00  0.00    -0.392 OA
ATOM     30  H   UNL A   1      42.182  42.532  16.995  1.00  0.00     0.211 HD
ENDBRANCH  28  29
ENDBRANCH  27  28
ENDBRANCH  15  22
ENDBRANCH   5   7
ENDBRANCH   4   5
ENDBRANCH   3   4
ENDBRANCH   2   3
ENDBRANCH   1   2
BRANCH   1  31
ATOM     31  C   UNL A   1      47.900  35.379  25.680  1.00  0.00     0.202 C 
BRANCH  31  32
ATOM     32  C   UNL A   1      46.398  35.182  25.456  1.00  0.00     0.261 C 
BRANCH  32  33
ATOM     33  O   UNL A   1      46.052  33.873  25.820  1.00  0.00    -0.460 OA
BRANCH  33  34
ATOM     34  C   UNL A   1      44.877  33.543  25.257  1.00  0.00     0.338 C 
ATOM     35  O   UNL A   1      44.609  33.316  24.092  1.00  0.00    -0.246 OA
BRANCH  34  36
ATOM     36  C   UNL A   1      43.967  33.402  26.354  1.00  0.00     0.060 A 
ATOM     37  C   UNL A   1      43.215  34.874  27.019  1.00  0.00     0.016 A 
ATOM     38  C   UNL A   1      43.884  31.865  27.319  1.00  0.00     0.016 A 
ATOM     39  C   UNL A   1      42.433  34.916  28.624  1.00  0.00     0.010 A 
ATOM     40  C   UNL A   1      42.966  31.986  29.113  1.00  0.00     0.010 A 
ATOM     41  C   UNL A   1      42.312  33.533  29.687  1.00  0.00    -0.014 A 
BRANCH  41  42
ATOM     42  C   UNL A   1      42.031  33.549  31.156  1.00  0.00     0.031 A 
ATOM     43  C   UNL A   1      40.611  33.659  31.699  1.00  0.00     0.074 A 
ATOM     44  C   UNL A   1      43.048  33.858  31.976  1.00  0.00     0.049 A 
ATOM     45  N   UNL A   1      40.186  33.941  32.911  1.00  0.00    -0.248 NA
ATOM     46  C   UNL A   1      39.518  33.529  30.730  1.00  0.00     0.031 C 
ATOM     47  C   UNL A   1      44.433  34.043  31.552  1.00  0.00     0.029 A 
ATOM     48  N   UNL A   1      43.069  34.133  33.319  1.00  0.00    -0.354 N 
ATOM     49  C   UNL A   1      38.793  34.051  32.829  1.00  0.00     0.074 A 
ATOM     50  C   UNL A   1      38.463  33.923  31.428  1.00  0.00     0.031 C 
ATOM     51  C   UNL A   1      45.175  34.386  32.615  1.00  0.00     0.029 A 
ATOM     52  C   UNL A   1      44.318  34.452  33.793  1.00  0.00     0.049 A 
ATOM     53  H   UNL A   1      42.266  34.105  33.888  1.00  0.00     0.167 HD
ATOM     54  C   UNL A   1      37.872  34.179  33.823  1.00  0.00     0.034 A 
ATOM     55  C   UNL A   1      44.729  34.744  35.041  1.00  0.00     0.034 A 
ATOM     56  C   UNL A   1      38.229  34.249  35.222  1.00  0.00     0.049 A 
ATOM     57  C   UNL A   1      43.724  34.712  36.162  1.00  0.00     0.074 A 
ATOM     58  C   UNL A   1      37.406  34.202  36.335  1.00  0.00     0.029 A 
ATOM     59  N   UNL A   1      39.526  34.382  35.697  1.00  0.00    -0.354 N 
ATOM     60  N   UNL A   1      42.416  34.610  36.098  1.00  0.00    -0.248 NA
ATOM     61  C   UNL A   1      44.259  34.776  37.525  1.00  0.00     0.031 C 
ATOM     62  C   UNL A   1      38.200  34.357  37.478  1.00  0.00     0.029 A 
ATOM     63  C   UNL A   1      39.526  34.418  37.083  1.00  0.00     0.049 A 
ATOM     64  H   UNL A   1      40.329  34.442  35.132  1.00  0.00     0.167 HD
ATOM     65  C   UNL A   1      41.977  34.558  37.419  1.00  0.00     0.074 A 
ATOM     66  C   UNL A   1      43.164  34.603  38.248  1.00  0.00     0.031 C 
ATOM     67  C   UNL A   1      40.711  34.480  37.903  1.00  0.00     0.034 A 
BRANCH  54  68
ATOM     68  C   UNL A   1      36.392  34.170  33.458  1.00  0.00     0.023 A 
ATOM     69  C   UNL A   1      35.707  35.364  33.168  1.00  0.00     0.031 A 
ATOM     70  C   UNL A   1      35.661  32.972  33.346  1.00  0.00     0.131 A 
ATOM     71  C   UNL A   1      34.334  35.349  32.876  1.00  0.00     0.055 A 
ATOM     72  C   UNL A   1      34.317  32.953  32.954  1.00  0.00     0.041 A 
ATOM     73  F   UNL A   1      36.239  31.788  33.607  1.00  0.00    -0.206 F 
ATOM     74  C   UNL A   1      33.639  34.149  32.734  1.00  0.00     0.022 A 
BRANCH  71  75
ATOM     75  S   UNL A   1      33.451  36.932  32.830  1.00  0.00     0.124 S 
ATOM     76  O   UNL A   1      33.770  37.403  31.484  1.00  0.00    -0.237 OA
ATOM     77  O   UNL A   1      32.067  36.527  33.051  1.00  0.00    -0.237 OA
ATOM     78  O   UNL A   1      34.060  37.698  33.914  1.00  0.00    -0.744 OA
ENDBRANCH  71  75
ENDBRANCH  54  68
BRANCH  55  79
ATOM     79  C   UNL A   1      46.176  34.968  35.310  1.00  0.00     0.023 A 
ATOM     80  C   UNL A   1      47.021  33.877  35.561  1.00  0.00     0.031 A 
ATOM     81  C   UNL A   1      46.735  36.256  35.327  1.00  0.00     0.131 A 
ATOM     82  C   UNL A   1      48.365  34.092  35.889  1.00  0.00     0.055 A 
ATOM     83  C   UNL A   1      48.091  36.462  35.590  1.00  0.00     0.041 A 
ATOM     84  F   UNL A   1      45.976  37.331  35.063  1.00  0.00    -0.206 F 
ATOM     85  C   UNL A   1      48.911  35.376  35.892  1.00  0.00     0.022 A 
BRANCH  82  86
ATOM     86  S   UNL A   1      49.358  32.670  36.416  1.00  0.00     0.124 S 
ATOM     87  O   UNL A   1      49.818  32.140  35.137  1.00  0.00    -0.237 OA
ATOM     88  O   UNL A   1      50.374  33.305  37.250  1.00  0.00    -0.237 OA
ATOM     89  O   UNL A   1      48.397  31.834  37.132  1.00  0.00    -0.744 OA
ENDBRANCH  82  86
ENDBRANCH  55  79
BRANCH  67  90
ATOM     90  C   UNL A   1      40.558  34.397  39.403  1.00  0.00     0.023 A 
ATOM     91  C   UNL A   1      40.493  33.160  40.068  1.00  0.00     0.031 A 
ATOM     92  C   UNL A   1      40.415  35.566  40.172  1.00  0.00     0.131 A 
ATOM     93  C   UNL A   1      40.182  33.117  41.434  1.00  0.00     0.055 A 
ATOM     94  C   UNL A   1      40.197  35.517  41.550  1.00  0.00     0.041 A 
ATOM     95  F   UNL A   1      40.466  36.777  39.594  1.00  0.00    -0.206 F 
ATOM     96  C   UNL A   1      40.054  34.287  42.184  1.00  0.00     0.022 A 
BRANCH  93  97
ATOM     97  S   UNL A   1      39.780  31.510  42.173  1.00  0.00     0.124 S 
ATOM     98  O   UNL A   1      38.637  31.088  41.371  1.00  0.00    -0.237 OA
ATOM     99  O   UNL A   1      41.013  30.757  41.972  1.00  0.00    -0.237 OA
ATOM    100  O   UNL A   1      39.474  31.842  43.563  1.00  0.00    -0.744 OA
ENDBRANCH  93  97
ENDBRANCH  67  90
ENDBRANCH  41  42
ENDBRANCH  34  36
ENDBRANCH  33  34
ENDBRANCH  32  33
ENDBRANCH  31  32
ENDBRANCH   1  31
TORSDOF 21
ENDMDL
