MODEL 1
REMARK VINA RESULT:     -10.1      0.000      0.000
REMARK SMILES Cc1ccc(NC(=O)c2cccn2CC(=O)OCCOCCOC(=O)c2ccc(-c3c4nc(c(-c5cc(S(=O)(=O)[O-])ccc5F)c5ccc([nH]5)c(-c5cc(S(=O)(=O)[O-])ccc5F)c5nc(c(-c6cc(S(=O)(=O)[O-])ccc6F)c6ccc3[nH]6)C=C5)C=C4)cc2)cc1
REMARK SMILES IDX 20 1 19 2 18 3 17 4 15 5 16 6 14 7 13 8 9 9 10 10 11 11
REMARK SMILES IDX 12 12 7 13 6 14 8 16 5 17 1 18 2 19 3 20 90 21 4 22 89 23
REMARK SMILES IDX 21 24 22 25 23 26 24 27 25 28 26 29 27 30 88 31 28 32 87 33
REMARK SMILES IDX 29 34 30 35 31 36 81 37 32 38 86 39 80 40 82 41 33 42 85 43
REMARK SMILES IDX 79 44 78 45 34 47 66 48 46 49 65 50 47 51 50 52 64 53 83 54
REMARK SMILES IDX 48 55 49 56 63 58 84 59 51 60 35 61 36 62 44 63 37 64 43 65
REMARK SMILES IDX 45 66 42 67 38 68 39 69 40 70 41 71 67 72 68 73 76 74 69 75
REMARK SMILES IDX 75 76 77 77 74 78 70 79 71 80 72 81 73 82 52 83 53 84 61 85
REMARK SMILES IDX 54 86 60 87 62 88 59 89 55 90 56 91 57 92 58 93
REMARK H PARENT 6 15 82 46 50 57
REMARK Flexibility Score: inf
ROOT
ATOM      1  O   UNL A   1      46.691  26.492  25.927  1.00  0.00    -0.374 OA
ENDROOT
BRANCH   1   2
ATOM      2  C   UNL A   1      46.207  25.455  25.080  1.00  0.00     0.202 C 
BRANCH   2   3
ATOM      3  C   UNL A   1      45.184  24.641  25.861  1.00  0.00     0.261 C 
BRANCH   3   4
ATOM      4  O   UNL A   1      44.051  24.411  25.009  1.00  0.00    -0.462 OA
BRANCH   4   5
ATOM      5  C   UNL A   1      43.764  23.098  24.745  1.00  0.00     0.326 C 
ATOM      6  O   UNL A   1      43.664  22.592  23.652  1.00  0.00    -0.250 OA
BRANCH   5   7
ATOM      7  C   UNL A   1      43.624  22.319  26.028  1.00  0.00     0.244 C 
BRANCH   7   8
ATOM      8  N   UNL A   1      42.308  22.473  26.650  1.00  0.00    -0.332 N 
ATOM      9  C   UNL A   1      42.024  23.128  27.838  1.00  0.00     0.107 A 
ATOM     10  C   UNL A   1      40.638  23.139  27.948  1.00  0.00     0.033 A 
ATOM     11  C   UNL A   1      40.098  22.353  26.905  1.00  0.00     0.020 A 
ATOM     12  C   UNL A   1      41.152  21.938  26.128  1.00  0.00     0.087 A 
BRANCH   9  13
ATOM     13  C   UNL A   1      43.023  23.731  28.699  1.00  0.00     0.272 C 
ATOM     14  N   UNL A   1      43.120  25.094  28.865  1.00  0.00    -0.321 N 
ATOM     15  H   UNL A   1      43.953  25.366  29.315  1.00  0.00     0.170 HD
ATOM     16  O   UNL A   1      43.874  23.048  29.271  1.00  0.00    -0.267 OA
BRANCH  14  17
ATOM     17  C   UNL A   1      42.299  26.184  28.536  1.00  0.00     0.041 A 
ATOM     18  C   UNL A   1      39.531  29.249  27.262  1.00  0.00     0.044 C 
ATOM     19  C   UNL A   1      40.543  28.227  27.686  1.00  0.00    -0.051 A 
ATOM     20  C   UNL A   1      40.904  28.108  29.032  1.00  0.00     0.005 A 
ATOM     21  C   UNL A   1      41.112  27.352  26.759  1.00  0.00     0.005 A 
ATOM     22  C   UNL A   1      41.792  27.108  29.447  1.00  0.00     0.026 A 
ATOM     23  C   UNL A   1      41.992  26.351  27.181  1.00  0.00     0.026 A 
ENDBRANCH  14  17
ENDBRANCH   9  13
ENDBRANCH   7   8
ENDBRANCH   5   7
ENDBRANCH   4   5
ENDBRANCH   3   4
ENDBRANCH   2   3
ENDBRANCH   1   2
BRANCH   1  24
ATOM     24  C   UNL A   1      45.725  27.121  26.755  1.00  0.00     0.202 C 
BRANCH  24  25
ATOM     25  C   UNL A   1      44.893  28.181  26.023  1.00  0.00     0.261 C 
BRANCH  25  26
ATOM     26  O   UNL A   1      44.509  29.197  26.970  1.00  0.00    -0.460 OA
BRANCH  26  27
ATOM     27  C   UNL A   1      44.910  30.475  26.722  1.00  0.00     0.338 C 
ATOM     28  O   UNL A   1      45.671  30.822  25.831  1.00  0.00    -0.246 OA
BRANCH  27  29
ATOM     29  C   UNL A   1      44.348  31.390  27.762  1.00  0.00     0.060 A 
ATOM     30  C   UNL A   1      44.777  32.719  27.945  1.00  0.00     0.016 A 
ATOM     31  C   UNL A   1      43.425  30.882  28.657  1.00  0.00     0.016 A 
ATOM     32  C   UNL A   1      44.200  33.566  28.948  1.00  0.00     0.010 A 
ATOM     33  C   UNL A   1      42.916  31.697  29.662  1.00  0.00     0.010 A 
ATOM     34  C   UNL A   1      43.210  33.082  29.807  1.00  0.00    -0.014 A 
BRANCH  34  35
ATOM     35  C   UNL A   1      42.326  33.839  30.779  1.00  0.00     0.031 A 
ATOM     36  C   UNL A   1      40.924  33.863  30.351  1.00  0.00     0.074 A 
ATOM     37  C   UNL A   1      42.325  34.249  32.081  1.00  0.00     0.049 A 
ATOM     38  N   UNL A   1      40.154  32.900  30.721  1.00  0.00    -0.248 NA
ATOM     39  C   UNL A   1      40.326  34.855  29.486  1.00  0.00     0.031 C 
ATOM     40  C   UNL A   1      43.410  34.210  33.038  1.00  0.00     0.029 A 
ATOM     41  N   UNL A   1      41.185  34.613  32.872  1.00  0.00    -0.354 N 
ATOM     42  C   UNL A   1      38.943  33.102  30.140  1.00  0.00     0.074 A 
ATOM     43  C   UNL A   1      39.074  34.375  29.438  1.00  0.00     0.031 C 
ATOM     44  C   UNL A   1      42.905  34.410  34.275  1.00  0.00     0.029 A 
ATOM     45  C   UNL A   1      41.422  34.549  34.256  1.00  0.00     0.049 A 
ATOM     46  H   UNL A   1      40.321  34.883  32.484  1.00  0.00     0.167 HD
ATOM     47  C   UNL A   1      37.958  32.182  30.316  1.00  0.00     0.034 A 
ATOM     48  C   UNL A   1      40.646  33.877  35.173  1.00  0.00     0.034 A 
ATOM     49  C   UNL A   1      38.318  30.927  31.013  1.00  0.00     0.049 A 
ATOM     50  C   UNL A   1      41.041  32.455  34.972  1.00  0.00     0.074 A 
ATOM     51  C   UNL A   1      37.870  29.618  30.992  1.00  0.00     0.029 A 
ATOM     52  N   UNL A   1      39.363  30.903  31.929  1.00  0.00    -0.354 N 
ATOM     53  N   UNL A   1      40.622  31.739  33.977  1.00  0.00    -0.248 NA
ATOM     54  C   UNL A   1      42.017  31.818  35.833  1.00  0.00     0.031 C 
ATOM     55  C   UNL A   1      38.730  28.824  31.831  1.00  0.00     0.029 A 
ATOM     56  C   UNL A   1      39.701  29.642  32.389  1.00  0.00     0.049 A 
ATOM     57  H   UNL A   1      39.828  31.718  32.226  1.00  0.00     0.167 HD
ATOM     58  C   UNL A   1      41.222  30.511  34.085  1.00  0.00     0.074 A 
ATOM     59  C   UNL A   1      42.197  30.678  35.159  1.00  0.00     0.031 C 
ATOM     60  C   UNL A   1      40.869  29.459  33.285  1.00  0.00     0.034 A 
BRANCH  47  61
ATOM     61  C   UNL A   1      36.567  32.563  29.924  1.00  0.00     0.023 A 
ATOM     62  C   UNL A   1      35.830  33.364  30.807  1.00  0.00     0.031 A 
ATOM     63  C   UNL A   1      35.989  32.289  28.669  1.00  0.00     0.131 A 
ATOM     64  C   UNL A   1      34.613  33.928  30.401  1.00  0.00     0.055 A 
ATOM     65  C   UNL A   1      34.825  32.928  28.233  1.00  0.00     0.041 A 
ATOM     66  F   UNL A   1      36.557  31.419  27.817  1.00  0.00    -0.206 F 
ATOM     67  C   UNL A   1      34.137  33.768  29.098  1.00  0.00     0.022 A 
BRANCH  64  68
ATOM     68  S   UNL A   1      33.630  34.846  31.612  1.00  0.00     0.124 S 
ATOM     69  O   UNL A   1      34.584  35.858  32.058  1.00  0.00    -0.237 OA
ATOM     70  O   UNL A   1      32.507  35.324  30.817  1.00  0.00    -0.237 OA
ATOM     71  O   UNL A   1      33.300  33.833  32.614  1.00  0.00    -0.744 OA
ENDBRANCH  64  68
ENDBRANCH  47  61
BRANCH  48  72
ATOM     72  C   UNL A   1      39.219  34.034  35.692  1.00  0.00     0.023 A 
ATOM     73  C   UNL A   1      38.865  33.564  36.975  1.00  0.00     0.031 A 
ATOM     74  C   UNL A   1      38.116  34.343  34.843  1.00  0.00     0.131 A 
ATOM     75  C   UNL A   1      37.499  33.370  37.328  1.00  0.00     0.055 A 
ATOM     76  C   UNL A   1      36.775  34.171  35.205  1.00  0.00     0.041 A 
ATOM     77  F   UNL A   1      38.276  34.764  33.584  1.00  0.00    -0.206 F 
ATOM     78  C   UNL A   1      36.457  33.667  36.449  1.00  0.00     0.022 A 
BRANCH  75  79
ATOM     79  S   UNL A   1      37.071  32.623  38.933  1.00  0.00     0.124 S 
ATOM     80  O   UNL A   1      35.610  32.661  38.903  1.00  0.00    -0.237 OA
ATOM     81  O   UNL A   1      37.669  31.295  38.838  1.00  0.00    -0.237 OA
ATOM     82  O   UNL A   1      37.685  33.510  39.919  1.00  0.00    -0.744 OA
ENDBRANCH  75  79
ENDBRANCH  48  72
BRANCH  60  83
ATOM     83  C   UNL A   1      41.752  28.226  33.263  1.00  0.00     0.023 A 
ATOM     84  C   UNL A   1      41.493  27.065  34.017  1.00  0.00     0.031 A 
ATOM     85  C   UNL A   1      42.988  28.252  32.598  1.00  0.00     0.131 A 
ATOM     86  C   UNL A   1      42.513  26.141  34.304  1.00  0.00     0.055 A 
ATOM     87  C   UNL A   1      43.949  27.242  32.756  1.00  0.00     0.041 A 
ATOM     88  F   UNL A   1      43.331  29.282  31.815  1.00  0.00    -0.206 F 
ATOM     89  C   UNL A   1      43.743  26.215  33.664  1.00  0.00     0.022 A 
BRANCH  86  90
ATOM     90  S   UNL A   1      42.262  24.942  35.644  1.00  0.00     0.124 S 
ATOM     91  O   UNL A   1      40.876  25.206  36.026  1.00  0.00    -0.237 OA
ATOM     92  O   UNL A   1      42.504  23.666  34.980  1.00  0.00    -0.237 OA
ATOM     93  O   UNL A   1      43.261  25.325  36.639  1.00  0.00    -0.744 OA
ENDBRANCH  86  90
ENDBRANCH  60  83
ENDBRANCH  34  35
ENDBRANCH  27  29
ENDBRANCH  26  27
ENDBRANCH  25  26
ENDBRANCH  24  25
ENDBRANCH   1  24
TORSDOF 20
ENDMDL
MODEL 2
REMARK VINA RESULT:     -10.0      1.182      1.743
REMARK SMILES Cc1ccc(NC(=O)c2cccn2CC(=O)OCCOCCOC(=O)c2ccc(-c3c4nc(c(-c5cc(S(=O)(=O)[O-])ccc5F)c5ccc([nH]5)c(-c5cc(S(=O)(=O)[O-])ccc5F)c5nc(c(-c6cc(S(=O)(=O)[O-])ccc6F)c6ccc3[nH]6)C=C5)C=C4)cc2)cc1
REMARK SMILES IDX 20 1 19 2 18 3 17 4 15 5 16 6 14 7 13 8 9 9 10 10 11 11
REMARK SMILES IDX 12 12 7 13 6 14 8 16 5 17 1 18 2 19 3 20 90 21 4 22 89 23
REMARK SMILES IDX 21 24 22 25 23 26 24 27 25 28 26 29 27 30 88 31 28 32 87 33
REMARK SMILES IDX 29 34 30 35 31 36 81 37 32 38 86 39 80 40 82 41 33 42 85 43
REMARK SMILES IDX 79 44 78 45 34 47 66 48 46 49 65 50 47 51 50 52 64 53 83 54
REMARK SMILES IDX 48 55 49 56 63 58 84 59 51 60 35 61 36 62 44 63 37 64 43 65
REMARK SMILES IDX 45 66 42 67 38 68 39 69 40 70 41 71 67 72 68 73 76 74 69 75
REMARK SMILES IDX 75 76 77 77 74 78 70 79 71 80 72 81 73 82 52 83 53 84 61 85
REMARK SMILES IDX 54 86 60 87 62 88 59 89 55 90 56 91 57 92 58 93
REMARK H PARENT 6 15 82 46 50 57
REMARK Flexibility Score: inf
ROOT
ATOM      1  O   UNL A   1      46.703  26.873  25.712  1.00  0.00    -0.374 OA
ENDROOT
BRANCH   1   2
ATOM      2  C   UNL A   1      47.564  25.750  25.553  1.00  0.00     0.202 C 
BRANCH   2   3
ATOM      3  C   UNL A   1      46.740  24.592  25.007  1.00  0.00     0.261 C 
BRANCH   3   4
ATOM      4  O   UNL A   1      46.784  23.522  25.963  1.00  0.00    -0.462 OA
BRANCH   4   5
ATOM      5  C   UNL A   1      45.808  22.569  25.833  1.00  0.00     0.326 C 
ATOM      6  O   UNL A   1      45.981  21.378  25.713  1.00  0.00    -0.250 OA
BRANCH   5   7
ATOM      7  C   UNL A   1      44.441  23.200  25.901  1.00  0.00     0.244 C 
BRANCH   7   8
ATOM      8  N   UNL A   1      43.844  23.128  27.235  1.00  0.00    -0.332 N 
ATOM      9  C   UNL A   1      42.502  22.954  27.535  1.00  0.00     0.107 A 
ATOM     10  C   UNL A   1      42.433  22.805  28.915  1.00  0.00     0.033 A 
ATOM     11  C   UNL A   1      43.716  23.048  29.458  1.00  0.00     0.020 A 
ATOM     12  C   UNL A   1      44.565  23.264  28.401  1.00  0.00     0.087 A 
BRANCH   9  13
ATOM     13  C   UNL A   1      41.447  22.868  26.544  1.00  0.00     0.272 C 
ATOM     14  N   UNL A   1      40.501  23.856  26.393  1.00  0.00    -0.321 N 
ATOM     15  H   UNL A   1      39.745  23.578  25.825  1.00  0.00     0.170 HD
ATOM     16  O   UNL A   1      41.315  21.869  25.834  1.00  0.00    -0.267 OA
BRANCH  14  17
ATOM     17  C   UNL A   1      40.371  25.171  26.865  1.00  0.00     0.041 A 
ATOM     18  C   UNL A   1      39.886  29.342  27.886  1.00  0.00     0.044 C 
ATOM     19  C   UNL A   1      40.114  27.895  27.566  1.00  0.00    -0.051 A 
ATOM     20  C   UNL A   1      39.506  26.898  28.335  1.00  0.00     0.005 A 
ATOM     21  C   UNL A   1      40.899  27.516  26.475  1.00  0.00     0.005 A 
ATOM     22  C   UNL A   1      39.653  25.547  27.999  1.00  0.00     0.026 A 
ATOM     23  C   UNL A   1      41.036  26.166  26.140  1.00  0.00     0.026 A 
ENDBRANCH  14  17
ENDBRANCH   9  13
ENDBRANCH   7   8
ENDBRANCH   5   7
ENDBRANCH   4   5
ENDBRANCH   3   4
ENDBRANCH   2   3
ENDBRANCH   1   2
BRANCH   1  24
ATOM     24  C   UNL A   1      47.337  28.104  26.026  1.00  0.00     0.202 C 
BRANCH  24  25
ATOM     25  C   UNL A   1      46.462  29.331  25.742  1.00  0.00     0.261 C 
BRANCH  25  26
ATOM     26  O   UNL A   1      46.391  30.130  26.939  1.00  0.00    -0.460 OA
BRANCH  26  27
ATOM     27  C   UNL A   1      46.257  31.477  26.790  1.00  0.00     0.338 C 
ATOM     28  O   UNL A   1      46.950  32.188  26.078  1.00  0.00    -0.246 OA
BRANCH  27  29
ATOM     29  C   UNL A   1      45.184  31.980  27.703  1.00  0.00     0.060 A 
ATOM     30  C   UNL A   1      44.211  31.150  28.293  1.00  0.00     0.016 A 
ATOM     31  C   UNL A   1      45.079  33.343  27.908  1.00  0.00     0.016 A 
ATOM     32  C   UNL A   1      43.208  31.673  29.173  1.00  0.00     0.010 A 
ATOM     33  C   UNL A   1      44.065  33.843  28.718  1.00  0.00     0.010 A 
ATOM     34  C   UNL A   1      43.142  33.042  29.447  1.00  0.00    -0.014 A 
BRANCH  34  35
ATOM     35  C   UNL A   1      42.321  33.777  30.488  1.00  0.00     0.031 A 
ATOM     36  C   UNL A   1      40.893  33.799  30.155  1.00  0.00     0.074 A 
ATOM     37  C   UNL A   1      42.404  34.165  31.794  1.00  0.00     0.049 A 
ATOM     38  N   UNL A   1      40.154  32.826  30.558  1.00  0.00    -0.248 NA
ATOM     39  C   UNL A   1      40.234  34.802  29.348  1.00  0.00     0.031 C 
ATOM     40  C   UNL A   1      43.551  34.115  32.676  1.00  0.00     0.029 A 
ATOM     41  N   UNL A   1      41.317  34.508  32.666  1.00  0.00    -0.354 N 
ATOM     42  C   UNL A   1      38.906  33.030  30.063  1.00  0.00     0.074 A 
ATOM     43  C   UNL A   1      38.984  34.316  29.376  1.00  0.00     0.031 C 
ATOM     44  C   UNL A   1      43.128  34.291  33.947  1.00  0.00     0.029 A 
ATOM     45  C   UNL A   1      41.647  34.421  34.029  1.00  0.00     0.049 A 
ATOM     46  H   UNL A   1      40.429  34.779  32.341  1.00  0.00     0.167 HD
ATOM     47  C   UNL A   1      37.940  32.102  30.288  1.00  0.00     0.034 A 
ATOM     48  C   UNL A   1      40.937  33.729  34.984  1.00  0.00     0.034 A 
ATOM     49  C   UNL A   1      38.351  30.837  30.936  1.00  0.00     0.049 A 
ATOM     50  C   UNL A   1      41.324  32.313  34.732  1.00  0.00     0.074 A 
ATOM     51  C   UNL A   1      37.909  29.526  30.923  1.00  0.00     0.029 A 
ATOM     52  N   UNL A   1      39.455  30.803  31.780  1.00  0.00    -0.354 N 
ATOM     53  N   UNL A   1      40.844  31.611  33.755  1.00  0.00    -0.248 NA
ATOM     54  C   UNL A   1      42.359  31.668  35.515  1.00  0.00     0.031 C 
ATOM     55  C   UNL A   1      38.827  28.723  31.689  1.00  0.00     0.029 A 
ATOM     56  C   UNL A   1      39.829  29.537  32.195  1.00  0.00     0.049 A 
ATOM     57  H   UNL A   1      39.935  31.617  32.061  1.00  0.00     0.167 HD
ATOM     58  C   UNL A   1      41.455  30.385  33.801  1.00  0.00     0.074 A 
ATOM     59  C   UNL A   1      42.499  30.540  34.811  1.00  0.00     0.031 C 
ATOM     60  C   UNL A   1      41.055  29.346  33.008  1.00  0.00     0.034 A 
BRANCH  47  61
ATOM     61  C   UNL A   1      36.524  32.481  29.995  1.00  0.00     0.023 A 
ATOM     62  C   UNL A   1      35.843  33.262  30.939  1.00  0.00     0.031 A 
ATOM     63  C   UNL A   1      35.865  32.225  28.777  1.00  0.00     0.131 A 
ATOM     64  C   UNL A   1      34.599  33.825  30.625  1.00  0.00     0.055 A 
ATOM     65  C   UNL A   1      34.672  32.865  28.431  1.00  0.00     0.041 A 
ATOM     66  F   UNL A   1      36.379  31.374  27.874  1.00  0.00    -0.206 F 
ATOM     67  C   UNL A   1      34.038  33.685  29.354  1.00  0.00     0.022 A 
BRANCH  64  68
ATOM     68  S   UNL A   1      33.694  34.715  31.916  1.00  0.00     0.124 S 
ATOM     69  O   UNL A   1      32.586  35.288  31.155  1.00  0.00    -0.237 OA
ATOM     70  O   UNL A   1      33.351  33.656  32.854  1.00  0.00    -0.237 OA
ATOM     71  O   UNL A   1      34.671  35.689  32.401  1.00  0.00    -0.744 OA
ENDBRANCH  64  68
ENDBRANCH  47  61
BRANCH  48  72
ATOM     72  C   UNL A   1      39.546  33.869  35.600  1.00  0.00     0.023 A 
ATOM     73  C   UNL A   1      39.251  33.281  36.848  1.00  0.00     0.031 A 
ATOM     74  C   UNL A   1      38.407  34.289  34.852  1.00  0.00     0.131 A 
ATOM     75  C   UNL A   1      37.901  33.086  37.260  1.00  0.00     0.055 A 
ATOM     76  C   UNL A   1      37.084  34.115  35.273  1.00  0.00     0.041 A 
ATOM     77  F   UNL A   1      38.509  34.831  33.634  1.00  0.00    -0.206 F 
ATOM     78  C   UNL A   1      36.821  33.496  36.478  1.00  0.00     0.022 A 
BRANCH  75  79
ATOM     79  S   UNL A   1      37.541  32.192  38.805  1.00  0.00     0.124 S 
ATOM     80  O   UNL A   1      38.836  32.224  39.481  1.00  0.00    -0.237 OA
ATOM     81  O   UNL A   1      36.494  33.008  39.411  1.00  0.00    -0.237 OA
ATOM     82  O   UNL A   1      37.115  30.865  38.363  1.00  0.00    -0.744 OA
ENDBRANCH  75  79
ENDBRANCH  48  72
BRANCH  60  83
ATOM     83  C   UNL A   1      41.940  28.119  32.906  1.00  0.00     0.023 A 
ATOM     84  C   UNL A   1      42.099  27.179  33.944  1.00  0.00     0.031 A 
ATOM     85  C   UNL A   1      42.792  27.949  31.803  1.00  0.00     0.131 A 
ATOM     86  C   UNL A   1      43.212  26.322  33.985  1.00  0.00     0.055 A 
ATOM     87  C   UNL A   1      43.805  26.979  31.775  1.00  0.00     0.041 A 
ATOM     88  F   UNL A   1      42.708  28.752  30.735  1.00  0.00    -0.206 F 
ATOM     89  C   UNL A   1      44.065  26.205  32.896  1.00  0.00     0.022 A 
BRANCH  86  90
ATOM     90  S   UNL A   1      43.619  25.485  35.545  1.00  0.00     0.124 S 
ATOM     91  O   UNL A   1      45.029  25.829  35.710  1.00  0.00    -0.237 OA
ATOM     92  O   UNL A   1      42.699  26.107  36.490  1.00  0.00    -0.237 OA
ATOM     93  O   UNL A   1      43.356  24.077  35.257  1.00  0.00    -0.744 OA
ENDBRANCH  86  90
ENDBRANCH  60  83
ENDBRANCH  34  35
ENDBRANCH  27  29
ENDBRANCH  26  27
ENDBRANCH  25  26
ENDBRANCH  24  25
ENDBRANCH   1  24
TORSDOF 20
ENDMDL
MODEL 3
REMARK VINA RESULT:      -9.3      4.698     11.085
REMARK SMILES Cc1ccc(NC(=O)c2cccn2CC(=O)OCCOCCOC(=O)c2ccc(-c3c4nc(c(-c5cc(S(=O)(=O)[O-])ccc5F)c5ccc([nH]5)c(-c5cc(S(=O)(=O)[O-])ccc5F)c5nc(c(-c6cc(S(=O)(=O)[O-])ccc6F)c6ccc3[nH]6)C=C5)C=C4)cc2)cc1
REMARK SMILES IDX 20 1 19 2 18 3 17 4 15 5 16 6 14 7 13 8 9 9 10 10 11 11
REMARK SMILES IDX 12 12 7 13 6 14 8 16 5 17 1 18 2 19 3 20 90 21 4 22 89 23
REMARK SMILES IDX 21 24 22 25 23 26 24 27 25 28 26 29 27 30 88 31 28 32 87 33
REMARK SMILES IDX 29 34 30 35 31 36 81 37 32 38 86 39 80 40 82 41 33 42 85 43
REMARK SMILES IDX 79 44 78 45 34 47 66 48 46 49 65 50 47 51 50 52 64 53 83 54
REMARK SMILES IDX 48 55 49 56 63 58 84 59 51 60 35 61 36 62 44 63 37 64 43 65
REMARK SMILES IDX 45 66 42 67 38 68 39 69 40 70 41 71 67 72 68 73 76 74 69 75
REMARK SMILES IDX 75 76 77 77 74 78 70 79 71 80 72 81 73 82 52 83 53 84 61 85
REMARK SMILES IDX 54 86 60 87 62 88 59 89 55 90 56 91 57 92 58 93
REMARK H PARENT 6 15 82 46 50 57
REMARK Flexibility Score: inf
ROOT
ATOM      1  O   UNL A   1      35.300  32.323  30.269  1.00  0.00    -0.374 OA
ENDROOT
BRANCH   1   2
ATOM      2  C   UNL A   1      35.592  32.242  28.878  1.00  0.00     0.202 C 
BRANCH   2   3
ATOM      3  C   UNL A   1      34.293  31.955  28.136  1.00  0.00     0.261 C 
BRANCH   3   4
ATOM      4  O   UNL A   1      34.472  30.754  27.369  1.00  0.00    -0.462 OA
BRANCH   4   5
ATOM      5  C   UNL A   1      33.365  30.309  26.696  1.00  0.00     0.326 C 
ATOM      6  O   UNL A   1      32.286  30.852  26.654  1.00  0.00    -0.250 OA
BRANCH   5   7
ATOM      7  C   UNL A   1      33.676  29.036  25.951  1.00  0.00     0.244 C 
BRANCH   7   8
ATOM      8  N   UNL A   1      32.582  28.600  25.083  1.00  0.00    -0.332 N 
ATOM      9  C   UNL A   1      31.506  27.802  25.441  1.00  0.00     0.107 A 
ATOM     10  C   UNL A   1      30.663  27.777  24.336  1.00  0.00     0.033 A 
ATOM     11  C   UNL A   1      31.308  28.431  23.262  1.00  0.00     0.020 A 
ATOM     12  C   UNL A   1      32.501  28.914  23.744  1.00  0.00     0.087 A 
BRANCH   9  13
ATOM     13  C   UNL A   1      31.324  27.216  26.754  1.00  0.00     0.272 C 
ATOM     14  N   UNL A   1      31.362  25.856  26.962  1.00  0.00    -0.321 N 
ATOM     15  H   UNL A   1      31.034  25.596  27.854  1.00  0.00     0.170 HD
ATOM     16  O   UNL A   1      31.061  27.913  27.737  1.00  0.00    -0.267 OA
BRANCH  14  17
ATOM     17  C   UNL A   1      31.764  24.756  26.189  1.00  0.00     0.041 A 
ATOM     18  C   UNL A   1      32.811  21.583  23.448  1.00  0.00     0.044 C 
ATOM     19  C   UNL A   1      32.420  22.637  24.440  1.00  0.00    -0.051 A 
ATOM     20  C   UNL A   1      33.356  23.123  25.359  1.00  0.00     0.005 A 
ATOM     21  C   UNL A   1      31.134  23.181  24.441  1.00  0.00     0.005 A 
ATOM     22  C   UNL A   1      33.021  24.159  26.240  1.00  0.00     0.026 A 
ATOM     23  C   UNL A   1      30.808  24.220  25.318  1.00  0.00     0.026 A 
ENDBRANCH  14  17
ENDBRANCH   9  13
ENDBRANCH   7   8
ENDBRANCH   5   7
ENDBRANCH   4   5
ENDBRANCH   3   4
ENDBRANCH   2   3
ENDBRANCH   1   2
BRANCH   1  24
ATOM     24  C   UNL A   1      36.416  32.249  31.144  1.00  0.00     0.202 C 
BRANCH  24  25
ATOM     25  C   UNL A   1      36.180  31.341  32.357  1.00  0.00     0.261 C 
BRANCH  25  26
ATOM     26  O   UNL A   1      36.210  29.969  31.918  1.00  0.00    -0.460 OA
BRANCH  26  27
ATOM     27  C   UNL A   1      37.103  29.134  32.518  1.00  0.00     0.338 C 
ATOM     28  O   UNL A   1      37.082  28.796  33.692  1.00  0.00    -0.246 OA
BRANCH  27  29
ATOM     29  C   UNL A   1      38.173  28.757  31.545  1.00  0.00     0.060 A 
ATOM     30  C   UNL A   1      39.453  28.311  31.929  1.00  0.00     0.016 A 
ATOM     31  C   UNL A   1      37.933  28.944  30.197  1.00  0.00     0.016 A 
ATOM     32  C   UNL A   1      40.446  27.947  30.961  1.00  0.00     0.010 A 
ATOM     33  C   UNL A   1      38.925  28.642  29.270  1.00  0.00     0.010 A 
ATOM     34  C   UNL A   1      40.184  28.060  29.593  1.00  0.00    -0.014 A 
BRANCH  34  35
ATOM     35  C   UNL A   1      40.986  27.545  28.414  1.00  0.00     0.031 A 
ATOM     36  C   UNL A   1      41.982  28.517  27.952  1.00  0.00     0.074 A 
ATOM     37  C   UNL A   1      41.316  26.362  27.818  1.00  0.00     0.049 A 
ATOM     38  N   UNL A   1      43.151  28.499  28.490  1.00  0.00    -0.248 NA
ATOM     39  C   UNL A   1      41.753  29.554  26.972  1.00  0.00     0.031 C 
ATOM     40  C   UNL A   1      40.792  25.040  28.089  1.00  0.00     0.029 A 
ATOM     41  N   UNL A   1      42.421  26.116  26.936  1.00  0.00    -0.354 N 
ATOM     42  C   UNL A   1      43.858  29.530  27.962  1.00  0.00     0.074 A 
ATOM     43  C   UNL A   1      42.970  30.117  26.962  1.00  0.00     0.031 C 
ATOM     44  C   UNL A   1      41.602  24.126  27.513  1.00  0.00     0.029 A 
ATOM     45  C   UNL A   1      42.774  24.759  26.849  1.00  0.00     0.049 A 
ATOM     46  H   UNL A   1      42.884  26.829  26.439  1.00  0.00     0.167 HD
ATOM     47  C   UNL A   1      45.115  29.778  28.415  1.00  0.00     0.034 A 
ATOM     48  C   UNL A   1      44.039  24.246  27.026  1.00  0.00     0.034 A 
ATOM     49  C   UNL A   1      45.583  28.993  29.579  1.00  0.00     0.049 A 
ATOM     50  C   UNL A   1      44.205  24.263  28.507  1.00  0.00     0.074 A 
ATOM     51  C   UNL A   1      46.475  29.195  30.618  1.00  0.00     0.029 A 
ATOM     52  N   UNL A   1      45.070  27.725  29.828  1.00  0.00    -0.354 N 
ATOM     53  N   UNL A   1      44.464  25.340  29.177  1.00  0.00    -0.248 NA
ATOM     54  C   UNL A   1      43.975  23.073  29.301  1.00  0.00     0.031 C 
ATOM     55  C   UNL A   1      46.396  28.074  31.517  1.00  0.00     0.029 A 
ATOM     56  C   UNL A   1      45.471  27.164  31.029  1.00  0.00     0.049 A 
ATOM     57  H   UNL A   1      44.469  27.263  29.201  1.00  0.00     0.167 HD
ATOM     58  C   UNL A   1      44.498  24.991  30.503  1.00  0.00     0.074 A 
ATOM     59  C   UNL A   1      44.027  23.609  30.524  1.00  0.00     0.031 C 
ATOM     60  C   UNL A   1      44.911  25.864  31.471  1.00  0.00     0.034 A 
BRANCH  47  61
ATOM     61  C   UNL A   1      45.972  30.713  27.626  1.00  0.00     0.023 A 
ATOM     62  C   UNL A   1      45.416  31.937  27.226  1.00  0.00     0.031 A 
ATOM     63  C   UNL A   1      47.343  30.516  27.369  1.00  0.00     0.131 A 
ATOM     64  C   UNL A   1      46.230  32.937  26.678  1.00  0.00     0.055 A 
ATOM     65  C   UNL A   1      48.168  31.546  26.911  1.00  0.00     0.041 A 
ATOM     66  F   UNL A   1      47.926  29.325  27.588  1.00  0.00    -0.206 F 
ATOM     67  C   UNL A   1      47.613  32.774  26.577  1.00  0.00     0.022 A 
BRANCH  64  68
ATOM     68  S   UNL A   1      45.454  34.449  26.054  1.00  0.00     0.124 S 
ATOM     69  O   UNL A   1      44.099  34.321  26.582  1.00  0.00    -0.237 OA
ATOM     70  O   UNL A   1      46.279  35.497  26.640  1.00  0.00    -0.237 OA
ATOM     71  O   UNL A   1      45.561  34.308  24.602  1.00  0.00    -0.744 OA
ENDBRANCH  64  68
ENDBRANCH  47  61
BRANCH  48  72
ATOM     72  C   UNL A   1      45.363  24.367  26.274  1.00  0.00     0.023 A 
ATOM     73  C   UNL A   1      45.878  25.634  25.929  1.00  0.00     0.031 A 
ATOM     74  C   UNL A   1      45.976  23.269  25.604  1.00  0.00     0.131 A 
ATOM     75  C   UNL A   1      46.891  25.763  24.935  1.00  0.00     0.055 A 
ATOM     76  C   UNL A   1      46.987  23.400  24.645  1.00  0.00     0.041 A 
ATOM     77  F   UNL A   1      45.581  22.005  25.788  1.00  0.00    -0.206 F 
ATOM     78  C   UNL A   1      47.442  24.654  24.292  1.00  0.00     0.022 A 
BRANCH  75  79
ATOM     79  S   UNL A   1      47.437  27.415  24.398  1.00  0.00     0.124 S 
ATOM     80  O   UNL A   1      47.668  27.207  22.970  1.00  0.00    -0.237 OA
ATOM     81  O   UNL A   1      46.292  28.255  24.736  1.00  0.00    -0.237 OA
ATOM     82  O   UNL A   1      48.644  27.669  25.183  1.00  0.00    -0.744 OA
ENDBRANCH  75  79
ENDBRANCH  48  72
BRANCH  60  83
ATOM     83  C   UNL A   1      44.662  25.514  32.926  1.00  0.00     0.023 A 
ATOM     84  C   UNL A   1      43.458  25.789  33.602  1.00  0.00     0.031 A 
ATOM     85  C   UNL A   1      45.711  25.037  33.729  1.00  0.00     0.131 A 
ATOM     86  C   UNL A   1      43.409  25.849  35.006  1.00  0.00     0.055 A 
ATOM     87  C   UNL A   1      45.606  24.941  35.124  1.00  0.00     0.041 A 
ATOM     88  F   UNL A   1      46.891  24.699  33.196  1.00  0.00    -0.206 F 
ATOM     89  C   UNL A   1      44.477  25.411  35.777  1.00  0.00     0.022 A 
BRANCH  86  90
ATOM     90  S   UNL A   1      41.991  26.657  35.802  1.00  0.00     0.124 S 
ATOM     91  O   UNL A   1      41.875  27.890  35.026  1.00  0.00    -0.237 OA
ATOM     92  O   UNL A   1      40.921  25.685  35.612  1.00  0.00    -0.237 OA
ATOM     93  O   UNL A   1      42.431  26.837  37.184  1.00  0.00    -0.744 OA
ENDBRANCH  86  90
ENDBRANCH  60  83
ENDBRANCH  34  35
ENDBRANCH  27  29
ENDBRANCH  26  27
ENDBRANCH  25  26
ENDBRANCH  24  25
ENDBRANCH   1  24
TORSDOF 20
ENDMDL
