MODEL 1
REMARK VINA RESULT:     -11.7      0.000      0.000
REMARK SMILES Cc1ccnc(C(=O)c2[nH]c3cc(F)ccc3c2CC(=O)OCCOCCOC(=O)c2ccc(-c3c4nc(c(-c5cc(S(=O)(=O)[O-])ccc5F)c5ccc([nH]5)c(-c5cc(S(=O)(=O)[O-])ccc5F)c5nc(c(-c6cc(S(=O)(=O)[O-])ccc6F)c6ccc3[nH]6)C=C5)C=C4)cc2)c1
REMARK SMILES IDX 25 1 24 2 23 3 22 4 20 5 21 6 19 7 18 8 9 9 10 10 11 11
REMARK SMILES IDX 17 13 12 14 16 15 13 16 15 17 14 18 7 19 8 20 6 21 1 22 2 23
REMARK SMILES IDX 3 24 94 25 4 26 5 27 26 28 27 29 28 30 29 31 30 32 31 33
REMARK SMILES IDX 32 34 93 35 33 36 92 37 34 38 35 39 36 40 86 41 37 42 91 43
REMARK SMILES IDX 85 44 87 45 38 46 90 47 84 48 83 49 39 51 71 52 51 53 70 54
REMARK SMILES IDX 52 55 55 56 69 57 88 58 53 59 54 60 68 62 89 63 56 64 40 65
REMARK SMILES IDX 41 66 49 67 42 68 48 69 50 70 47 71 43 72 44 73 45 74 46 75
REMARK SMILES IDX 72 76 73 77 81 78 74 79 80 80 82 81 79 82 75 83 76 84 77 85
REMARK SMILES IDX 78 86 57 87 58 88 66 89 59 90 65 91 67 92 64 93 60 94 61 95
REMARK SMILES IDX 62 96 63 97
REMARK H PARENT 10 12 87 50 55 61
REMARK Flexibility Score: inf
ROOT
ATOM      1  O   UNL A   1      37.620  21.329  24.721  1.00  0.00    -0.374 OA
ENDROOT
BRANCH   1   2
ATOM      2  C   UNL A   1      36.278  21.786  24.562  1.00  0.00     0.202 C 
BRANCH   2   3
ATOM      3  C   UNL A   1      36.033  23.044  23.720  1.00  0.00     0.261 C 
BRANCH   3   4
ATOM      4  O   UNL A   1      35.012  22.880  22.710  1.00  0.00    -0.463 OA
BRANCH   4   5
ATOM      5  C   UNL A   1      33.971  23.754  22.792  1.00  0.00     0.310 C 
ATOM      6  O   UNL A   1      34.080  24.969  22.630  1.00  0.00    -0.252 OA
BRANCH   5   7
ATOM      7  C   UNL A   1      32.645  23.153  23.201  1.00  0.00     0.161 C 
BRANCH   7   8
ATOM      8  C   UNL A   1      32.610  22.080  24.259  1.00  0.00     0.000 A 
ATOM      9  C   UNL A   1      32.896  22.219  25.622  1.00  0.00     0.093 A 
ATOM     10  N   UNL A   1      32.720  20.974  26.190  1.00  0.00    -0.351 N 
ATOM     11  C   UNL A   1      32.626  20.009  25.215  1.00  0.00     0.049 A 
ATOM     12  H   UNL A   1      32.668  20.801  27.158  1.00  0.00     0.167 HD
ATOM     13  C   UNL A   1      32.514  20.674  23.995  1.00  0.00     0.004 A 
ATOM     14  C   UNL A   1      32.642  18.612  25.314  1.00  0.00     0.066 A 
ATOM     15  C   UNL A   1      32.407  19.906  22.815  1.00  0.00     0.013 A 
ATOM     16  C   UNL A   1      32.579  17.887  24.123  1.00  0.00     0.125 A 
ATOM     17  C   UNL A   1      32.459  18.511  22.891  1.00  0.00     0.040 A 
ATOM     18  F   UNL A   1      32.657  16.550  24.174  1.00  0.00    -0.207 F 
BRANCH   9  19
ATOM     19  C   UNL A   1      33.290  23.439  26.323  1.00  0.00     0.227 C 
ATOM     20  O   UNL A   1      34.277  23.475  27.056  1.00  0.00    -0.285 OA
BRANCH  19  21
ATOM     21  C   UNL A   1      32.470  24.686  26.240  1.00  0.00     0.113 A 
ATOM     22  C   UNL A   1      32.735  28.265  25.037  1.00  0.00     0.044 C 
ATOM     23  C   UNL A   1      32.192  26.969  25.561  1.00  0.00    -0.047 A 
ATOM     24  C   UNL A   1      30.811  26.785  25.676  1.00  0.00     0.023 A 
ATOM     25  C   UNL A   1      33.039  25.893  25.845  1.00  0.00     0.036 A 
ATOM     26  C   UNL A   1      30.335  25.557  26.102  1.00  0.00     0.112 A 
ATOM     27  N   UNL A   1      31.131  24.510  26.396  1.00  0.00    -0.253 NA
ENDBRANCH  19  21
ENDBRANCH   9  19
ENDBRANCH   7   8
ENDBRANCH   5   7
ENDBRANCH   4   5
ENDBRANCH   3   4
ENDBRANCH   2   3
ENDBRANCH   1   2
BRANCH   1  28
ATOM     28  C   UNL A   1      37.806  19.930  24.917  1.00  0.00     0.202 C 
BRANCH  28  29
ATOM     29  C   UNL A   1      39.169  19.460  25.445  1.00  0.00     0.261 C 
BRANCH  29  30
ATOM     30  O   UNL A   1      39.523  20.018  26.718  1.00  0.00    -0.460 OA
BRANCH  30  31
ATOM     31  C   UNL A   1      40.852  20.220  26.891  1.00  0.00     0.338 C 
ATOM     32  O   UNL A   1      41.757  19.419  26.698  1.00  0.00    -0.246 OA
BRANCH  31  33
ATOM     33  C   UNL A   1      41.095  21.638  27.200  1.00  0.00     0.060 A 
ATOM     34  C   UNL A   1      40.572  22.594  26.322  1.00  0.00     0.016 A 
ATOM     35  C   UNL A   1      41.845  22.021  28.313  1.00  0.00     0.016 A 
ATOM     36  C   UNL A   1      40.806  23.947  26.550  1.00  0.00     0.010 A 
ATOM     37  C   UNL A   1      42.092  23.379  28.533  1.00  0.00     0.010 A 
ATOM     38  C   UNL A   1      41.586  24.345  27.644  1.00  0.00    -0.014 A 
BRANCH  38  39
ATOM     39  C   UNL A   1      41.946  25.772  27.809  1.00  0.00     0.031 A 
ATOM     40  C   UNL A   1      43.247  26.266  27.243  1.00  0.00     0.074 A 
ATOM     41  C   UNL A   1      41.105  26.607  28.446  1.00  0.00     0.049 A 
ATOM     42  N   UNL A   1      43.784  27.454  27.317  1.00  0.00    -0.248 NA
ATOM     43  C   UNL A   1      44.050  25.286  26.494  1.00  0.00     0.031 C 
ATOM     44  C   UNL A   1      39.797  26.233  28.986  1.00  0.00     0.029 A 
ATOM     45  N   UNL A   1      41.225  27.939  28.752  1.00  0.00    -0.354 N 
ATOM     46  C   UNL A   1      44.992  27.367  26.634  1.00  0.00     0.074 A 
ATOM     47  C   UNL A   1      45.119  26.000  26.175  1.00  0.00     0.031 C 
ATOM     48  C   UNL A   1      39.238  27.310  29.563  1.00  0.00     0.029 A 
ATOM     49  C   UNL A   1      40.166  28.435  29.478  1.00  0.00     0.049 A 
ATOM     50  H   UNL A   1      41.995  28.488  28.479  1.00  0.00     0.167 HD
ATOM     51  C   UNL A   1      45.906  28.343  26.414  1.00  0.00     0.034 A 
ATOM     52  C   UNL A   1      39.987  29.649  30.036  1.00  0.00     0.034 A 
ATOM     53  C   UNL A   1      45.756  29.696  26.893  1.00  0.00     0.049 A 
ATOM     54  C   UNL A   1      41.071  30.688  29.860  1.00  0.00     0.074 A 
ATOM     55  C   UNL A   1      46.598  30.776  26.700  1.00  0.00     0.029 A 
ATOM     56  N   UNL A   1      44.701  30.149  27.677  1.00  0.00    -0.354 N 
ATOM     57  N   UNL A   1      42.196  30.602  29.185  1.00  0.00    -0.248 NA
ATOM     58  C   UNL A   1      40.863  31.983  30.519  1.00  0.00     0.031 C 
ATOM     59  C   UNL A   1      46.101  31.854  27.439  1.00  0.00     0.029 A 
ATOM     60  C   UNL A   1      44.901  31.476  28.021  1.00  0.00     0.049 A 
ATOM     61  H   UNL A   1      43.926  29.606  27.948  1.00  0.00     0.167 HD
ATOM     62  C   UNL A   1      42.814  31.843  29.319  1.00  0.00     0.074 A 
ATOM     63  C   UNL A   1      41.926  32.663  30.117  1.00  0.00     0.031 C 
ATOM     64  C   UNL A   1      44.007  32.269  28.831  1.00  0.00     0.034 A 
BRANCH  51  65
ATOM     65  C   UNL A   1      47.170  27.972  25.679  1.00  0.00     0.023 A 
ATOM     66  C   UNL A   1      47.290  28.097  24.285  1.00  0.00     0.031 A 
ATOM     67  C   UNL A   1      48.281  27.486  26.394  1.00  0.00     0.131 A 
ATOM     68  C   UNL A   1      48.473  27.696  23.645  1.00  0.00     0.055 A 
ATOM     69  C   UNL A   1      49.480  27.157  25.760  1.00  0.00     0.041 A 
ATOM     70  F   UNL A   1      48.217  27.320  27.725  1.00  0.00    -0.206 F 
ATOM     71  C   UNL A   1      49.579  27.252  24.376  1.00  0.00     0.022 A 
BRANCH  68  72
ATOM     72  S   UNL A   1      48.513  27.653  21.832  1.00  0.00     0.124 S 
ATOM     73  O   UNL A   1      48.830  26.249  21.577  1.00  0.00    -0.237 OA
ATOM     74  O   UNL A   1      47.164  28.078  21.476  1.00  0.00    -0.237 OA
ATOM     75  O   UNL A   1      49.575  28.596  21.489  1.00  0.00    -0.744 OA
ENDBRANCH  68  72
ENDBRANCH  51  65
BRANCH  52  76
ATOM     76  C   UNL A   1      38.775  29.948  30.855  1.00  0.00     0.023 A 
ATOM     77  C   UNL A   1      37.722  30.716  30.336  1.00  0.00     0.031 A 
ATOM     78  C   UNL A   1      38.685  29.535  32.198  1.00  0.00     0.131 A 
ATOM     79  C   UNL A   1      36.656  31.100  31.167  1.00  0.00     0.055 A 
ATOM     80  C   UNL A   1      37.592  29.863  33.001  1.00  0.00     0.041 A 
ATOM     81  F   UNL A   1      39.665  28.805  32.753  1.00  0.00    -0.206 F 
ATOM     82  C   UNL A   1      36.577  30.665  32.491  1.00  0.00     0.022 A 
BRANCH  79  83
ATOM     83  S   UNL A   1      35.437  32.279  30.523  1.00  0.00     0.124 S 
ATOM     84  O   UNL A   1      36.251  33.476  30.344  1.00  0.00    -0.237 OA
ATOM     85  O   UNL A   1      34.991  31.616  29.302  1.00  0.00    -0.237 OA
ATOM     86  O   UNL A   1      34.442  32.355  31.590  1.00  0.00    -0.744 OA
ENDBRANCH  79  83
ENDBRANCH  52  76
BRANCH  64  87
ATOM     87  C   UNL A   1      44.398  33.695  29.131  1.00  0.00     0.023 A 
ATOM     88  C   UNL A   1      43.947  34.765  28.337  1.00  0.00     0.031 A 
ATOM     89  C   UNL A   1      45.236  33.989  30.222  1.00  0.00     0.131 A 
ATOM     90  C   UNL A   1      44.381  36.070  28.611  1.00  0.00     0.055 A 
ATOM     91  C   UNL A   1      45.608  35.297  30.531  1.00  0.00     0.041 A 
ATOM     92  F   UNL A   1      45.699  33.006  31.012  1.00  0.00    -0.206 F 
ATOM     93  C   UNL A   1      45.192  36.345  29.715  1.00  0.00     0.022 A 
BRANCH  90  94
ATOM     94  S   UNL A   1      43.945  37.392  27.449  1.00  0.00     0.124 S 
ATOM     95  O   UNL A   1      45.258  37.833  26.987  1.00  0.00    -0.237 OA
ATOM     96  O   UNL A   1      43.128  36.689  26.467  1.00  0.00    -0.237 OA
ATOM     97  O   UNL A   1      43.224  38.354  28.280  1.00  0.00    -0.744 OA
ENDBRANCH  90  94
ENDBRANCH  64  87
ENDBRANCH  38  39
ENDBRANCH  31  33
ENDBRANCH  30  31
ENDBRANCH  29  30
ENDBRANCH  28  29
ENDBRANCH   1  28
TORSDOF 20
ENDMDL
MODEL 2
REMARK VINA RESULT:     -11.5      4.864     10.244
REMARK SMILES Cc1ccnc(C(=O)c2[nH]c3cc(F)ccc3c2CC(=O)OCCOCCOC(=O)c2ccc(-c3c4nc(c(-c5cc(S(=O)(=O)[O-])ccc5F)c5ccc([nH]5)c(-c5cc(S(=O)(=O)[O-])ccc5F)c5nc(c(-c6cc(S(=O)(=O)[O-])ccc6F)c6ccc3[nH]6)C=C5)C=C4)cc2)c1
REMARK SMILES IDX 25 1 24 2 23 3 22 4 20 5 21 6 19 7 18 8 9 9 10 10 11 11
REMARK SMILES IDX 17 13 12 14 16 15 13 16 15 17 14 18 7 19 8 20 6 21 1 22 2 23
REMARK SMILES IDX 3 24 94 25 4 26 5 27 26 28 27 29 28 30 29 31 30 32 31 33
REMARK SMILES IDX 32 34 93 35 33 36 92 37 34 38 35 39 36 40 86 41 37 42 91 43
REMARK SMILES IDX 85 44 87 45 38 46 90 47 84 48 83 49 39 51 71 52 51 53 70 54
REMARK SMILES IDX 52 55 55 56 69 57 88 58 53 59 54 60 68 62 89 63 56 64 40 65
REMARK SMILES IDX 41 66 49 67 42 68 48 69 50 70 47 71 43 72 44 73 45 74 46 75
REMARK SMILES IDX 72 76 73 77 81 78 74 79 80 80 82 81 79 82 75 83 76 84 77 85
REMARK SMILES IDX 78 86 57 87 58 88 66 89 59 90 65 91 67 92 64 93 60 94 61 95
REMARK SMILES IDX 62 96 63 97
REMARK H PARENT 10 12 87 50 55 61
REMARK Flexibility Score: inf
ROOT
ATOM      1  O   UNL A   1      32.835  30.319  26.700  1.00  0.00    -0.374 OA
ENDROOT
BRANCH   1   2
ATOM      2  C   UNL A   1      32.709  28.905  26.840  1.00  0.00     0.202 C 
BRANCH   2   3
ATOM      3  C   UNL A   1      33.041  28.022  25.631  1.00  0.00     0.261 C 
BRANCH   3   4
ATOM      4  O   UNL A   1      34.007  26.985  25.913  1.00  0.00    -0.463 OA
BRANCH   4   5
ATOM      5  C   UNL A   1      33.559  25.712  25.736  1.00  0.00     0.310 C 
ATOM      6  O   UNL A   1      32.599  25.231  26.337  1.00  0.00    -0.252 OA
BRANCH   5   7
ATOM      7  C   UNL A   1      34.385  24.854  24.804  1.00  0.00     0.161 C 
BRANCH   7   8
ATOM      8  C   UNL A   1      33.694  23.901  23.862  1.00  0.00     0.000 A 
ATOM      9  C   UNL A   1      32.952  24.221  22.720  1.00  0.00     0.093 A 
ATOM     10  N   UNL A   1      32.525  23.026  22.180  1.00  0.00    -0.351 N 
ATOM     11  C   UNL A   1      32.710  21.999  23.076  1.00  0.00     0.049 A 
ATOM     12  H   UNL A   1      32.142  22.922  21.278  1.00  0.00     0.167 HD
ATOM     13  C   UNL A   1      33.475  22.507  24.123  1.00  0.00     0.004 A 
ATOM     14  C   UNL A   1      32.255  20.674  23.047  1.00  0.00     0.066 A 
ATOM     15  C   UNL A   1      33.808  21.650  25.194  1.00  0.00     0.013 A 
ATOM     16  C   UNL A   1      32.565  19.869  24.144  1.00  0.00     0.125 A 
ATOM     17  C   UNL A   1      33.331  20.335  25.201  1.00  0.00     0.040 A 
ATOM     18  F   UNL A   1      32.093  18.616  24.182  1.00  0.00    -0.207 F 
BRANCH   9  19
ATOM     19  C   UNL A   1      32.685  25.554  22.184  1.00  0.00     0.227 C 
ATOM     20  O   UNL A   1      33.409  26.067  21.333  1.00  0.00    -0.285 OA
BRANCH  19  21
ATOM     21  C   UNL A   1      31.556  26.389  22.697  1.00  0.00     0.113 A 
ATOM     22  C   UNL A   1      29.907  29.740  22.085  1.00  0.00     0.044 C 
ATOM     23  C   UNL A   1      30.194  28.361  22.597  1.00  0.00    -0.047 A 
ATOM     24  C   UNL A   1      29.223  27.669  23.327  1.00  0.00     0.023 A 
ATOM     25  C   UNL A   1      31.385  27.703  22.271  1.00  0.00     0.036 A 
ATOM     26  C   UNL A   1      29.491  26.373  23.733  1.00  0.00     0.112 A 
ATOM     27  N   UNL A   1      30.636  25.723  23.444  1.00  0.00    -0.253 NA
ENDBRANCH  19  21
ENDBRANCH   9  19
ENDBRANCH   7   8
ENDBRANCH   5   7
ENDBRANCH   4   5
ENDBRANCH   3   4
ENDBRANCH   2   3
ENDBRANCH   1   2
BRANCH   1  28
ATOM     28  C   UNL A   1      31.635  31.053  26.473  1.00  0.00     0.202 C 
BRANCH  28  29
ATOM     29  C   UNL A   1      31.621  32.535  26.877  1.00  0.00     0.261 C 
BRANCH  29  30
ATOM     30  O   UNL A   1      32.889  33.189  26.731  1.00  0.00    -0.460 OA
BRANCH  30  31
ATOM     31  C   UNL A   1      33.330  33.812  27.852  1.00  0.00     0.338 C 
ATOM     32  O   UNL A   1      32.795  34.737  28.447  1.00  0.00    -0.246 OA
BRANCH  31  33
ATOM     33  C   UNL A   1      34.504  33.097  28.378  1.00  0.00     0.060 A 
ATOM     34  C   UNL A   1      34.281  31.903  29.075  1.00  0.00     0.016 A 
ATOM     35  C   UNL A   1      35.795  33.603  28.218  1.00  0.00     0.016 A 
ATOM     36  C   UNL A   1      35.355  31.210  29.625  1.00  0.00     0.010 A 
ATOM     37  C   UNL A   1      36.871  32.913  28.783  1.00  0.00     0.010 A 
ATOM     38  C   UNL A   1      36.653  31.723  29.501  1.00  0.00    -0.014 A 
BRANCH  38  39
ATOM     39  C   UNL A   1      37.775  31.057  30.200  1.00  0.00     0.031 A 
ATOM     40  C   UNL A   1      38.086  31.446  31.617  1.00  0.00     0.074 A 
ATOM     41  C   UNL A   1      38.491  30.107  29.569  1.00  0.00     0.049 A 
ATOM     42  N   UNL A   1      39.050  31.035  32.397  1.00  0.00    -0.248 NA
ATOM     43  C   UNL A   1      37.189  32.435  32.237  1.00  0.00     0.031 C 
ATOM     44  C   UNL A   1      38.233  29.625  28.212  1.00  0.00     0.029 A 
ATOM     45  N   UNL A   1      39.579  29.382  29.982  1.00  0.00    -0.354 N 
ATOM     46  C   UNL A   1      38.884  31.718  33.596  1.00  0.00     0.074 A 
ATOM     47  C   UNL A   1      37.742  32.591  33.431  1.00  0.00     0.031 C 
ATOM     48  C   UNL A   1      39.145  28.687  27.901  1.00  0.00     0.029 A 
ATOM     49  C   UNL A   1      40.077  28.538  29.016  1.00  0.00     0.049 A 
ATOM     50  H   UNL A   1      39.968  29.459  30.883  1.00  0.00     0.167 HD
ATOM     51  C   UNL A   1      39.623  31.621  34.728  1.00  0.00     0.034 A 
ATOM     52  C   UNL A   1      41.180  27.762  29.024  1.00  0.00     0.034 A 
ATOM     53  C   UNL A   1      40.764  30.748  34.861  1.00  0.00     0.049 A 
ATOM     54  C   UNL A   1      42.042  27.751  30.265  1.00  0.00     0.074 A 
ATOM     55  C   UNL A   1      41.565  30.540  35.969  1.00  0.00     0.029 A 
ATOM     56  N   UNL A   1      41.279  29.953  33.844  1.00  0.00    -0.354 N 
ATOM     57  N   UNL A   1      41.857  28.379  31.406  1.00  0.00    -0.248 NA
ATOM     58  C   UNL A   1      43.258  26.929  30.222  1.00  0.00     0.031 C 
ATOM     59  C   UNL A   1      42.612  29.691  35.598  1.00  0.00     0.029 A 
ATOM     60  C   UNL A   1      42.417  29.296  34.283  1.00  0.00     0.049 A 
ATOM     61  H   UNL A   1      40.891  29.868  32.943  1.00  0.00     0.167 HD
ATOM     62  C   UNL A   1      42.922  28.005  32.221  1.00  0.00     0.074 A 
ATOM     63  C   UNL A   1      43.728  27.080  31.451  1.00  0.00     0.031 C 
ATOM     64  C   UNL A   1      43.213  28.389  33.490  1.00  0.00     0.034 A 
BRANCH  51  65
ATOM     65  C   UNL A   1      39.261  32.518  35.886  1.00  0.00     0.023 A 
ATOM     66  C   UNL A   1      39.709  33.847  35.972  1.00  0.00     0.031 A 
ATOM     67  C   UNL A   1      38.444  32.031  36.923  1.00  0.00     0.131 A 
ATOM     68  C   UNL A   1      39.380  34.626  37.093  1.00  0.00     0.055 A 
ATOM     69  C   UNL A   1      38.061  32.833  38.000  1.00  0.00     0.041 A 
ATOM     70  F   UNL A   1      38.008  30.761  36.909  1.00  0.00    -0.206 F 
ATOM     71  C   UNL A   1      38.537  34.137  38.094  1.00  0.00     0.022 A 
BRANCH  68  72
ATOM     72  S   UNL A   1      40.160  36.252  37.284  1.00  0.00     0.124 S 
ATOM     73  O   UNL A   1      39.340  36.850  38.336  1.00  0.00    -0.237 OA
ATOM     74  O   UNL A   1      41.527  35.906  37.659  1.00  0.00    -0.237 OA
ATOM     75  O   UNL A   1      40.010  36.863  35.965  1.00  0.00    -0.744 OA
ENDBRANCH  68  72
ENDBRANCH  51  65
BRANCH  52  76
ATOM     76  C   UNL A   1      41.574  26.973  27.819  1.00  0.00     0.023 A 
ATOM     77  C   UNL A   1      41.445  25.576  27.794  1.00  0.00     0.031 A 
ATOM     78  C   UNL A   1      42.158  27.597  26.700  1.00  0.00     0.131 A 
ATOM     79  C   UNL A   1      41.947  24.843  26.707  1.00  0.00     0.055 A 
ATOM     80  C   UNL A   1      42.596  26.870  25.592  1.00  0.00     0.041 A 
ATOM     81  F   UNL A   1      42.315  28.930  26.669  1.00  0.00    -0.206 F 
ATOM     82  C   UNL A   1      42.508  25.482  25.599  1.00  0.00     0.022 A 
BRANCH  79  83
ATOM     83  S   UNL A   1      41.968  23.033  26.818  1.00  0.00     0.124 S 
ATOM     84  O   UNL A   1      40.709  22.764  27.503  1.00  0.00    -0.237 OA
ATOM     85  O   UNL A   1      42.031  22.645  25.413  1.00  0.00    -0.237 OA
ATOM     86  O   UNL A   1      43.174  22.754  27.596  1.00  0.00    -0.744 OA
ENDBRANCH  79  83
ENDBRANCH  52  76
BRANCH  64  87
ATOM     87  C   UNL A   1      44.441  27.784  34.124  1.00  0.00     0.023 A 
ATOM     88  C   UNL A   1      44.376  26.588  34.861  1.00  0.00     0.031 A 
ATOM     89  C   UNL A   1      45.692  28.411  33.992  1.00  0.00     0.131 A 
ATOM     90  C   UNL A   1      45.527  26.089  35.486  1.00  0.00     0.055 A 
ATOM     91  C   UNL A   1      46.848  27.873  34.559  1.00  0.00     0.041 A 
ATOM     92  F   UNL A   1      45.813  29.558  33.302  1.00  0.00    -0.206 F 
ATOM     93  C   UNL A   1      46.767  26.712  35.322  1.00  0.00     0.022 A 
BRANCH  90  94
ATOM     94  S   UNL A   1      45.366  24.662  36.593  1.00  0.00     0.124 S 
ATOM     95  O   UNL A   1      46.749  24.442  37.006  1.00  0.00    -0.237 OA
ATOM     96  O   UNL A   1      44.466  25.167  37.625  1.00  0.00    -0.237 OA
ATOM     97  O   UNL A   1      44.802  23.623  35.734  1.00  0.00    -0.744 OA
ENDBRANCH  90  94
ENDBRANCH  64  87
ENDBRANCH  38  39
ENDBRANCH  31  33
ENDBRANCH  30  31
ENDBRANCH  29  30
ENDBRANCH  28  29
ENDBRANCH   1  28
TORSDOF 20
ENDMDL
MODEL 3
REMARK VINA RESULT:     -11.4      4.956      7.871
REMARK SMILES Cc1ccnc(C(=O)c2[nH]c3cc(F)ccc3c2CC(=O)OCCOCCOC(=O)c2ccc(-c3c4nc(c(-c5cc(S(=O)(=O)[O-])ccc5F)c5ccc([nH]5)c(-c5cc(S(=O)(=O)[O-])ccc5F)c5nc(c(-c6cc(S(=O)(=O)[O-])ccc6F)c6ccc3[nH]6)C=C5)C=C4)cc2)c1
REMARK SMILES IDX 25 1 24 2 23 3 22 4 20 5 21 6 19 7 18 8 9 9 10 10 11 11
REMARK SMILES IDX 17 13 12 14 16 15 13 16 15 17 14 18 7 19 8 20 6 21 1 22 2 23
REMARK SMILES IDX 3 24 94 25 4 26 5 27 26 28 27 29 28 30 29 31 30 32 31 33
REMARK SMILES IDX 32 34 93 35 33 36 92 37 34 38 35 39 36 40 86 41 37 42 91 43
REMARK SMILES IDX 85 44 87 45 38 46 90 47 84 48 83 49 39 51 71 52 51 53 70 54
REMARK SMILES IDX 52 55 55 56 69 57 88 58 53 59 54 60 68 62 89 63 56 64 40 65
REMARK SMILES IDX 41 66 49 67 42 68 48 69 50 70 47 71 43 72 44 73 45 74 46 75
REMARK SMILES IDX 72 76 73 77 81 78 74 79 80 80 82 81 79 82 75 83 76 84 77 85
REMARK SMILES IDX 78 86 57 87 58 88 66 89 59 90 65 91 67 92 64 93 60 94 61 95
REMARK SMILES IDX 62 96 63 97
REMARK H PARENT 10 12 87 50 55 61
REMARK Flexibility Score: inf
ROOT
ATOM      1  O   UNL A   1      32.049  27.886  25.829  1.00  0.00    -0.374 OA
ENDROOT
BRANCH   1   2
ATOM      2  C   UNL A   1      32.303  26.629  26.455  1.00  0.00     0.202 C 
BRANCH   2   3
ATOM      3  C   UNL A   1      31.121  25.679  26.685  1.00  0.00     0.261 C 
BRANCH   3   4
ATOM      4  O   UNL A   1      31.505  24.383  27.195  1.00  0.00    -0.463 OA
BRANCH   4   5
ATOM      5  C   UNL A   1      30.712  23.348  26.803  1.00  0.00     0.310 C 
ATOM      6  O   UNL A   1      29.659  23.039  27.360  1.00  0.00    -0.252 OA
BRANCH   5   7
ATOM      7  C   UNL A   1      31.253  22.504  25.670  1.00  0.00     0.161 C 
BRANCH   7   8
ATOM      8  C   UNL A   1      32.449  22.986  24.890  1.00  0.00     0.000 A 
ATOM      9  C   UNL A   1      32.462  23.894  23.825  1.00  0.00     0.093 A 
ATOM     10  N   UNL A   1      33.780  24.032  23.441  1.00  0.00    -0.351 N 
ATOM     11  C   UNL A   1      34.552  23.046  24.009  1.00  0.00     0.049 A 
ATOM     12  H   UNL A   1      34.120  24.738  22.845  1.00  0.00     0.167 HD
ATOM     13  C   UNL A   1      33.757  22.399  24.952  1.00  0.00     0.004 A 
ATOM     14  C   UNL A   1      35.879  22.672  23.756  1.00  0.00     0.066 A 
ATOM     15  C   UNL A   1      34.313  21.327  25.684  1.00  0.00     0.013 A 
ATOM     16  C   UNL A   1      36.380  21.580  24.467  1.00  0.00     0.125 A 
ATOM     17  C   UNL A   1      35.623  20.915  25.419  1.00  0.00     0.040 A 
ATOM     18  F   UNL A   1      37.623  21.152  24.206  1.00  0.00    -0.207 F 
BRANCH   9  19
ATOM     19  C   UNL A   1      31.315  24.581  23.235  1.00  0.00     0.227 C 
ATOM     20  O   UNL A   1      30.273  23.987  22.965  1.00  0.00    -0.285 OA
BRANCH  19  21
ATOM     21  C   UNL A   1      31.379  26.028  22.863  1.00  0.00     0.113 A 
ATOM     22  C   UNL A   1      29.309  29.186  23.107  1.00  0.00     0.044 C 
ATOM     23  C   UNL A   1      30.443  28.235  22.868  1.00  0.00    -0.047 A 
ATOM     24  C   UNL A   1      31.724  28.728  22.600  1.00  0.00     0.023 A 
ATOM     25  C   UNL A   1      30.269  26.854  23.007  1.00  0.00     0.036 A 
ATOM     26  C   UNL A   1      32.765  27.828  22.446  1.00  0.00     0.112 A 
ATOM     27  N   UNL A   1      32.620  26.493  22.560  1.00  0.00    -0.253 NA
ENDBRANCH  19  21
ENDBRANCH   9  19
ENDBRANCH   7   8
ENDBRANCH   5   7
ENDBRANCH   4   5
ENDBRANCH   3   4
ENDBRANCH   2   3
ENDBRANCH   1   2
BRANCH   1  28
ATOM     28  C   UNL A   1      31.534  28.925  26.657  1.00  0.00     0.202 C 
BRANCH  28  29
ATOM     29  C   UNL A   1      31.810  30.375  26.231  1.00  0.00     0.261 C 
BRANCH  29  30
ATOM     30  O   UNL A   1      33.199  30.731  26.245  1.00  0.00    -0.460 OA
BRANCH  30  31
ATOM     31  C   UNL A   1      33.528  31.668  27.167  1.00  0.00     0.338 C 
ATOM     32  O   UNL A   1      32.841  32.603  27.554  1.00  0.00    -0.246 OA
BRANCH  31  33
ATOM     33  C   UNL A   1      34.812  31.312  27.790  1.00  0.00     0.060 A 
ATOM     34  C   UNL A   1      34.950  30.015  28.302  1.00  0.00     0.016 A 
ATOM     35  C   UNL A   1      35.851  32.238  27.897  1.00  0.00     0.016 A 
ATOM     36  C   UNL A   1      36.132  29.641  28.934  1.00  0.00     0.010 A 
ATOM     37  C   UNL A   1      37.031  31.865  28.545  1.00  0.00     0.010 A 
ATOM     38  C   UNL A   1      37.170  30.570  29.079  1.00  0.00    -0.014 A 
BRANCH  38  39
ATOM     39  C   UNL A   1      38.370  30.213  29.868  1.00  0.00     0.031 A 
ATOM     40  C   UNL A   1      39.344  29.217  29.304  1.00  0.00     0.074 A 
ATOM     41  C   UNL A   1      38.584  30.789  31.066  1.00  0.00     0.049 A 
ATOM     42  N   UNL A   1      40.425  28.720  29.842  1.00  0.00    -0.248 NA
ATOM     43  C   UNL A   1      39.055  28.712  27.952  1.00  0.00     0.031 C 
ATOM     44  C   UNL A   1      37.723  31.804  31.675  1.00  0.00     0.029 A 
ATOM     45  N   UNL A   1      39.584  30.601  31.986  1.00  0.00    -0.354 N 
ATOM     46  C   UNL A   1      40.945  27.838  28.901  1.00  0.00     0.074 A 
ATOM     47  C   UNL A   1      40.044  27.849  27.769  1.00  0.00     0.031 C 
ATOM     48  C   UNL A   1      38.230  32.145  32.872  1.00  0.00     0.029 A 
ATOM     49  C   UNL A   1      39.420  31.340  33.135  1.00  0.00     0.049 A 
ATOM     50  H   UNL A   1      40.346  29.996  31.838  1.00  0.00     0.167 HD
ATOM     51  C   UNL A   1      42.072  27.090  28.982  1.00  0.00     0.034 A 
ATOM     52  C   UNL A   1      40.134  31.337  34.279  1.00  0.00     0.034 A 
ATOM     53  C   UNL A   1      42.948  27.093  30.129  1.00  0.00     0.049 A 
ATOM     54  C   UNL A   1      41.328  30.417  34.379  1.00  0.00     0.074 A 
ATOM     55  C   UNL A   1      44.135  26.405  30.308  1.00  0.00     0.029 A 
ATOM     56  N   UNL A   1      42.721  27.805  31.300  1.00  0.00    -0.354 N 
ATOM     57  N   UNL A   1      41.828  29.610  33.470  1.00  0.00    -0.248 NA
ATOM     58  C   UNL A   1      42.055  30.408  35.655  1.00  0.00     0.031 C 
ATOM     59  C   UNL A   1      44.576  26.630  31.615  1.00  0.00     0.029 A 
ATOM     60  C   UNL A   1      43.715  27.530  32.225  1.00  0.00     0.049 A 
ATOM     61  H   UNL A   1      41.964  28.416  31.452  1.00  0.00     0.167 HD
ATOM     62  C   UNL A   1      42.941  29.017  34.060  1.00  0.00     0.074 A 
ATOM     63  C   UNL A   1      43.054  29.579  35.390  1.00  0.00     0.031 C 
ATOM     64  C   UNL A   1      43.796  28.092  33.552  1.00  0.00     0.034 A 
BRANCH  51  65
ATOM     65  C   UNL A   1      42.390  26.166  27.832  1.00  0.00     0.023 A 
ATOM     66  C   UNL A   1      41.889  24.856  27.764  1.00  0.00     0.031 A 
ATOM     67  C   UNL A   1      43.210  26.613  26.779  1.00  0.00     0.131 A 
ATOM     68  C   UNL A   1      42.251  24.022  26.694  1.00  0.00     0.055 A 
ATOM     69  C   UNL A   1      43.508  25.803  25.682  1.00  0.00     0.041 A 
ATOM     70  F   UNL A   1      43.739  27.846  26.802  1.00  0.00    -0.206 F 
ATOM     71  C   UNL A   1      43.035  24.496  25.639  1.00  0.00     0.022 A 
BRANCH  68  72
ATOM     72  S   UNL A   1      41.777  22.272  26.752  1.00  0.00     0.124 S 
ATOM     73  O   UNL A   1      42.223  21.802  25.443  1.00  0.00    -0.237 OA
ATOM     74  O   UNL A   1      42.532  21.778  27.899  1.00  0.00    -0.237 OA
ATOM     75  O   UNL A   1      40.328  22.314  26.931  1.00  0.00    -0.744 OA
ENDBRANCH  68  72
ENDBRANCH  51  65
BRANCH  52  76
ATOM     76  C   UNL A   1      39.725  32.180  35.442  1.00  0.00     0.023 A 
ATOM     77  C   UNL A   1      38.959  31.645  36.489  1.00  0.00     0.031 A 
ATOM     78  C   UNL A   1      40.028  33.554  35.487  1.00  0.00     0.131 A 
ATOM     79  C   UNL A   1      38.470  32.486  37.502  1.00  0.00     0.055 A 
ATOM     80  C   UNL A   1      39.596  34.373  36.531  1.00  0.00     0.041 A 
ATOM     81  F   UNL A   1      40.751  34.124  34.510  1.00  0.00    -0.206 F 
ATOM     82  C   UNL A   1      38.797  33.843  37.538  1.00  0.00     0.022 A 
BRANCH  79  83
ATOM     83  S   UNL A   1      37.297  31.802  38.706  1.00  0.00     0.124 S 
ATOM     84  O   UNL A   1      37.054  30.473  38.157  1.00  0.00    -0.237 OA
ATOM     85  O   UNL A   1      38.069  31.855  39.943  1.00  0.00    -0.237 OA
ATOM     86  O   UNL A   1      36.165  32.723  38.637  1.00  0.00    -0.744 OA
ENDBRANCH  79  83
ENDBRANCH  52  76
BRANCH  64  87
ATOM     87  C   UNL A   1      44.937  27.656  34.439  1.00  0.00     0.023 A 
ATOM     88  C   UNL A   1      44.821  26.548  35.297  1.00  0.00     0.031 A 
ATOM     89  C   UNL A   1      46.154  28.359  34.428  1.00  0.00     0.131 A 
ATOM     90  C   UNL A   1      45.881  26.211  36.150  1.00  0.00     0.055 A 
ATOM     91  C   UNL A   1      47.231  27.977  35.229  1.00  0.00     0.041 A 
ATOM     92  F   UNL A   1      46.320  29.427  33.630  1.00  0.00    -0.206 F 
ATOM     93  C   UNL A   1      47.094  26.906  36.106  1.00  0.00     0.022 A 
BRANCH  90  94
ATOM     94  S   UNL A   1      45.624  24.908  37.384  1.00  0.00     0.124 S 
ATOM     95  O   UNL A   1      46.280  23.764  36.758  1.00  0.00    -0.237 OA
ATOM     96  O   UNL A   1      46.288  25.457  38.562  1.00  0.00    -0.237 OA
ATOM     97  O   UNL A   1      44.169  24.812  37.483  1.00  0.00    -0.744 OA
ENDBRANCH  90  94
ENDBRANCH  64  87
ENDBRANCH  38  39
ENDBRANCH  31  33
ENDBRANCH  30  31
ENDBRANCH  29  30
ENDBRANCH  28  29
ENDBRANCH   1  28
TORSDOF 20
ENDMDL
