MODEL 1
REMARK VINA RESULT:     -12.0      0.000      0.000
REMARK SMILES Cc1c(Cl)cc2c(c1C)O[C@@H](C(F)(F)F)C(C(=O)OCCOCCOC(=O)c1ccc(-c3c4nc(c(-c5cc(S(=O)(=O)[O-])ccc5F)c5ccc([nH]5)c(-c5cc(S(=O)(=O)[O-])ccc5F)c5nc(c(-c6cc(S(=O)(=O)[O-])ccc6F)c6ccc3[nH]6)C=C5)C=C4)cc1)=C2
REMARK SMILES IDX 23 1 22 2 21 3 20 4 19 5 17 6 18 7 16 8 1 9 2 10 3 11 8 12
REMARK SMILES IDX 4 13 5 14 7 15 9 16 6 17 10 18 91 19 11 20 12 21 13 22 14 23
REMARK SMILES IDX 15 24 24 25 25 26 26 27 27 28 28 29 29 30 90 31 30 32 89 33
REMARK SMILES IDX 31 34 32 35 33 36 83 37 34 38 88 39 82 40 84 41 35 42 87 43
REMARK SMILES IDX 81 44 80 45 36 47 68 48 48 49 67 50 49 51 52 52 66 53 85 54
REMARK SMILES IDX 50 55 51 56 65 58 86 59 53 60 37 61 38 62 46 63 39 64 45 65
REMARK SMILES IDX 47 66 44 67 40 68 41 69 42 70 43 71 69 72 70 73 78 74 71 75
REMARK SMILES IDX 77 76 79 77 76 78 72 79 73 80 74 81 75 82 54 83 55 84 63 85
REMARK SMILES IDX 56 86 62 87 64 88 61 89 57 90 58 91 59 92 60 93
REMARK H PARENT 84 46 52 57
REMARK Flexibility Score: inf
ROOT
ATOM      1  C   UNL A   1      35.690  20.411  25.021  1.00  0.00     0.202 C 
ENDROOT
BRANCH   1   2
ATOM      2  O   UNL A   1      34.820  19.323  24.698  1.00  0.00    -0.374 OA
BRANCH   2   3
ATOM      3  C   UNL A   1      33.469  19.420  25.157  1.00  0.00     0.202 C 
BRANCH   3   4
ATOM      4  C   UNL A   1      32.461  19.982  24.151  1.00  0.00     0.261 C 
BRANCH   4   5
ATOM      5  O   UNL A   1      32.373  21.412  24.276  1.00  0.00    -0.460 OA
BRANCH   5   6
ATOM      6  C   UNL A   1      32.265  22.069  23.105  1.00  0.00     0.338 C 
ATOM      7  O   UNL A   1      32.153  21.560  22.000  1.00  0.00    -0.246 OA
BRANCH   6   8
ATOM      8  C   UNL A   1      32.190  23.527  23.331  1.00  0.00     0.087 C 
ATOM      9  C   UNL A   1      30.149  29.697  22.930  1.00  0.00     0.046 C 
ATOM     10  C   UNL A   1      30.378  28.225  23.167  1.00  0.00    -0.026 A 
ATOM     11  C   UNL A   1      29.297  27.358  23.423  1.00  0.00     0.045 A 
ATOM     12  C   UNL A   1      31.686  27.676  23.057  1.00  0.00    -0.004 A 
ATOM     13  Cl  UNL A   1      27.657  27.905  23.523  1.00  0.00    -0.084 Cl
ATOM     14  C   UNL A   1      29.500  25.987  23.569  1.00  0.00     0.032 A 
ATOM     15  C   UNL A   1      31.868  26.283  23.181  1.00  0.00     0.131 A 
ATOM     16  C   UNL A   1      32.905  28.535  22.827  1.00  0.00     0.049 C 
ATOM     17  C   UNL A   1      30.777  25.449  23.430  1.00  0.00     0.019 A 
ATOM     18  O   UNL A   1      33.131  25.783  22.955  1.00  0.00    -0.475 OA
ATOM     19  C   UNL A   1      30.944  24.011  23.410  1.00  0.00     0.027 C 
ATOM     20  C   UNL A   1      33.411  24.406  23.361  1.00  0.00     0.316 C 
BRANCH  20  21
ATOM     21  C   UNL A   1      34.180  24.444  24.700  1.00  0.00     0.430 C 
ATOM     22  F   UNL A   1      35.316  23.707  24.654  1.00  0.00    -0.167 F 
ATOM     23  F   UNL A   1      34.538  25.687  25.081  1.00  0.00    -0.167 F 
ATOM     24  F   UNL A   1      33.416  23.938  25.701  1.00  0.00    -0.167 F 
ENDBRANCH  20  21
ENDBRANCH   6   8
ENDBRANCH   5   6
ENDBRANCH   4   5
ENDBRANCH   3   4
ENDBRANCH   2   3
ENDBRANCH   1   2
BRANCH   1  25
ATOM     25  C   UNL A   1      37.201  20.163  24.900  1.00  0.00     0.261 C 
BRANCH  25  26
ATOM     26  O   UNL A   1      37.970  21.330  25.238  1.00  0.00    -0.460 OA
BRANCH  26  27
ATOM     27  C   UNL A   1      39.120  21.077  25.909  1.00  0.00     0.338 C 
ATOM     28  O   UNL A   1      39.759  20.034  25.891  1.00  0.00    -0.246 OA
BRANCH  27  29
ATOM     29  C   UNL A   1      39.640  22.326  26.504  1.00  0.00     0.060 A 
ATOM     30  C   UNL A   1      39.071  23.529  26.068  1.00  0.00     0.016 A 
ATOM     31  C   UNL A   1      40.678  22.333  27.439  1.00  0.00     0.016 A 
ATOM     32  C   UNL A   1      39.576  24.747  26.516  1.00  0.00     0.010 A 
ATOM     33  C   UNL A   1      41.192  23.559  27.881  1.00  0.00     0.010 A 
ATOM     34  C   UNL A   1      40.670  24.771  27.391  1.00  0.00    -0.014 A 
BRANCH  34  35
ATOM     35  C   UNL A   1      41.370  26.055  27.642  1.00  0.00     0.031 A 
ATOM     36  C   UNL A   1      40.665  27.118  28.443  1.00  0.00     0.074 A 
ATOM     37  C   UNL A   1      42.636  26.250  27.231  1.00  0.00     0.049 A 
ATOM     38  N   UNL A   1      41.067  28.319  28.764  1.00  0.00    -0.248 NA
ATOM     39  C   UNL A   1      39.327  26.775  28.954  1.00  0.00     0.031 C 
ATOM     40  C   UNL A   1      43.451  25.271  26.514  1.00  0.00     0.029 A 
ATOM     41  N   UNL A   1      43.462  27.339  27.366  1.00  0.00    -0.354 N 
ATOM     42  C   UNL A   1      40.038  28.875  29.516  1.00  0.00     0.074 A 
ATOM     43  C   UNL A   1      38.975  27.894  29.568  1.00  0.00     0.031 C 
ATOM     44  C   UNL A   1      44.665  25.801  26.282  1.00  0.00     0.029 A 
ATOM     45  C   UNL A   1      44.700  27.170  26.793  1.00  0.00     0.049 A 
ATOM     46  H   UNL A   1      43.192  28.164  27.831  1.00  0.00     0.167 HD
ATOM     47  C   UNL A   1      39.989  30.086  30.120  1.00  0.00     0.034 A 
ATOM     48  C   UNL A   1      45.736  28.027  26.678  1.00  0.00     0.034 A 
ATOM     49  C   UNL A   1      41.052  31.057  30.063  1.00  0.00     0.049 A 
ATOM     50  C   UNL A   1      45.613  29.415  27.259  1.00  0.00     0.074 A 
ATOM     51  C   UNL A   1      41.095  32.316  30.636  1.00  0.00     0.029 A 
ATOM     52  N   UNL A   1      42.255  30.884  29.394  1.00  0.00    -0.354 N 
ATOM     53  N   UNL A   1      44.618  29.943  27.932  1.00  0.00    -0.248 NA
ATOM     54  C   UNL A   1      46.753  30.321  27.062  1.00  0.00     0.031 C 
ATOM     55  C   UNL A   1      42.292  32.929  30.256  1.00  0.00     0.029 A 
ATOM     56  C   UNL A   1      43.033  32.024  29.512  1.00  0.00     0.049 A 
ATOM     57  H   UNL A   1      42.518  30.069  28.907  1.00  0.00     0.167 HD
ATOM     58  C   UNL A   1      45.023  31.234  28.261  1.00  0.00     0.074 A 
ATOM     59  C   UNL A   1      46.354  31.404  27.718  1.00  0.00     0.031 C 
ATOM     60  C   UNL A   1      44.354  32.189  28.956  1.00  0.00     0.034 A 
BRANCH  47  61
ATOM     61  C   UNL A   1      38.733  30.446  30.869  1.00  0.00     0.023 A 
ATOM     62  C   UNL A   1      37.679  31.137  30.249  1.00  0.00     0.031 A 
ATOM     63  C   UNL A   1      38.578  30.066  32.214  1.00  0.00     0.131 A 
ATOM     64  C   UNL A   1      36.527  31.455  30.983  1.00  0.00     0.055 A 
ATOM     65  C   UNL A   1      37.404  30.331  32.921  1.00  0.00     0.041 A 
ATOM     66  F   UNL A   1      39.564  29.423  32.860  1.00  0.00    -0.206 F 
ATOM     67  C   UNL A   1      36.372  31.036  32.307  1.00  0.00     0.022 A 
BRANCH  64  68
ATOM     68  S   UNL A   1      35.260  32.495  30.207  1.00  0.00     0.124 S 
ATOM     69  O   UNL A   1      34.769  31.619  29.147  1.00  0.00    -0.237 OA
ATOM     70  O   UNL A   1      34.336  32.743  31.309  1.00  0.00    -0.237 OA
ATOM     71  O   UNL A   1      36.009  33.662  29.747  1.00  0.00    -0.744 OA
ENDBRANCH  64  68
ENDBRANCH  47  61
BRANCH  48  72
ATOM     72  C   UNL A   1      46.972  27.610  25.960  1.00  0.00     0.023 A 
ATOM     73  C   UNL A   1      47.123  27.838  24.584  1.00  0.00     0.031 A 
ATOM     74  C   UNL A   1      48.019  26.964  26.643  1.00  0.00     0.131 A 
ATOM     75  C   UNL A   1      48.287  27.406  23.928  1.00  0.00     0.055 A 
ATOM     76  C   UNL A   1      49.192  26.573  25.995  1.00  0.00     0.041 A 
ATOM     77  F   UNL A   1      47.923  26.723  27.960  1.00  0.00    -0.206 F 
ATOM     78  C   UNL A   1      49.328  26.789  24.627  1.00  0.00     0.022 A 
BRANCH  75  79
ATOM     79  S   UNL A   1      48.412  27.634  22.133  1.00  0.00     0.124 S 
ATOM     80  O   UNL A   1      48.603  26.264  21.673  1.00  0.00    -0.237 OA
ATOM     81  O   UNL A   1      47.126  28.247  21.814  1.00  0.00    -0.237 OA
ATOM     82  O   UNL A   1      49.570  28.513  21.983  1.00  0.00    -0.744 OA
ENDBRANCH  75  79
ENDBRANCH  48  72
BRANCH  60  83
ATOM     83  C   UNL A   1      45.057  33.501  29.197  1.00  0.00     0.023 A 
ATOM     84  C   UNL A   1      44.862  34.608  28.355  1.00  0.00     0.031 A 
ATOM     85  C   UNL A   1      45.898  33.658  30.315  1.00  0.00     0.131 A 
ATOM     86  C   UNL A   1      45.524  35.815  28.625  1.00  0.00     0.055 A 
ATOM     87  C   UNL A   1      46.510  34.876  30.608  1.00  0.00     0.041 A 
ATOM     88  F   UNL A   1      46.115  32.634  31.155  1.00  0.00    -0.206 F 
ATOM     89  C   UNL A   1      46.331  35.962  29.755  1.00  0.00     0.022 A 
BRANCH  86  90
ATOM     90  S   UNL A   1      45.354  37.184  27.448  1.00  0.00     0.124 S 
ATOM     91  O   UNL A   1      44.018  36.954  26.907  1.00  0.00    -0.237 OA
ATOM     92  O   UNL A   1      45.501  38.356  28.304  1.00  0.00    -0.237 OA
ATOM     93  O   UNL A   1      46.449  36.966  26.505  1.00  0.00    -0.744 OA
ENDBRANCH  86  90
ENDBRANCH  60  83
ENDBRANCH  34  35
ENDBRANCH  27  29
ENDBRANCH  26  27
ENDBRANCH  25  26
ENDBRANCH   1  25
TORSDOF 18
ENDMDL
MODEL 2
REMARK VINA RESULT:     -11.9      0.647      7.435
REMARK SMILES Cc1c(Cl)cc2c(c1C)O[C@@H](C(F)(F)F)C(C(=O)OCCOCCOC(=O)c1ccc(-c3c4nc(c(-c5cc(S(=O)(=O)[O-])ccc5F)c5ccc([nH]5)c(-c5cc(S(=O)(=O)[O-])ccc5F)c5nc(c(-c6cc(S(=O)(=O)[O-])ccc6F)c6ccc3[nH]6)C=C5)C=C4)cc1)=C2
REMARK SMILES IDX 23 1 22 2 21 3 20 4 19 5 17 6 18 7 16 8 1 9 2 10 3 11 8 12
REMARK SMILES IDX 4 13 5 14 7 15 9 16 6 17 10 18 91 19 11 20 12 21 13 22 14 23
REMARK SMILES IDX 15 24 24 25 25 26 26 27 27 28 28 29 29 30 90 31 30 32 89 33
REMARK SMILES IDX 31 34 32 35 33 36 83 37 34 38 88 39 82 40 84 41 35 42 87 43
REMARK SMILES IDX 81 44 80 45 36 47 68 48 48 49 67 50 49 51 52 52 66 53 85 54
REMARK SMILES IDX 50 55 51 56 65 58 86 59 53 60 37 61 38 62 46 63 39 64 45 65
REMARK SMILES IDX 47 66 44 67 40 68 41 69 42 70 43 71 69 72 70 73 78 74 71 75
REMARK SMILES IDX 77 76 79 77 76 78 72 79 73 80 74 81 75 82 54 83 55 84 63 85
REMARK SMILES IDX 56 86 62 87 64 88 61 89 57 90 58 91 59 92 60 93
REMARK H PARENT 84 46 52 57
REMARK Flexibility Score: inf
ROOT
ATOM      1  C   UNL A   1      36.063  20.780  25.488  1.00  0.00     0.202 C 
ENDROOT
BRANCH   1   2
ATOM      2  O   UNL A   1      34.934  20.788  24.611  1.00  0.00    -0.374 OA
BRANCH   2   3
ATOM      3  C   UNL A   1      33.922  19.808  24.854  1.00  0.00     0.202 C 
BRANCH   3   4
ATOM      4  C   UNL A   1      32.504  20.189  24.421  1.00  0.00     0.261 C 
BRANCH   4   5
ATOM      5  O   UNL A   1      32.430  21.597  24.135  1.00  0.00    -0.460 OA
BRANCH   5   6
ATOM      6  C   UNL A   1      31.550  22.275  24.897  1.00  0.00     0.338 C 
ATOM      7  O   UNL A   1      30.832  21.802  25.764  1.00  0.00    -0.246 OA
BRANCH   6   8
ATOM      8  C   UNL A   1      31.636  23.724  24.625  1.00  0.00     0.087 C 
ATOM      9  C   UNL A   1      30.300  29.582  22.113  1.00  0.00     0.046 C 
ATOM     10  C   UNL A   1      30.360  28.258  22.833  1.00  0.00    -0.026 A 
ATOM     11  C   UNL A   1      29.187  27.640  23.310  1.00  0.00     0.045 A 
ATOM     12  C   UNL A   1      31.600  27.573  22.971  1.00  0.00    -0.004 A 
ATOM     13  Cl  UNL A   1      27.618  28.354  23.148  1.00  0.00    -0.084 Cl
ATOM     14  C   UNL A   1      29.235  26.383  23.911  1.00  0.00     0.032 A 
ATOM     15  C   UNL A   1      31.625  26.290  23.557  1.00  0.00     0.131 A 
ATOM     16  C   UNL A   1      32.910  28.177  22.527  1.00  0.00     0.049 C 
ATOM     17  C   UNL A   1      30.445  25.703  24.017  1.00  0.00     0.019 A 
ATOM     18  O   UNL A   1      32.826  25.618  23.568  1.00  0.00    -0.475 OA
ATOM     19  C   UNL A   1      30.452  24.332  24.481  1.00  0.00     0.027 C 
ATOM     20  C   UNL A   1      32.947  24.434  24.419  1.00  0.00     0.316 C 
BRANCH  20  21
ATOM     21  C   UNL A   1      33.703  24.838  25.704  1.00  0.00     0.430 C 
ATOM     22  F   UNL A   1      32.856  25.112  26.726  1.00  0.00    -0.167 F 
ATOM     23  F   UNL A   1      34.555  23.892  26.148  1.00  0.00    -0.167 F 
ATOM     24  F   UNL A   1      34.443  25.954  25.489  1.00  0.00    -0.167 F 
ENDBRANCH  20  21
ENDBRANCH   6   8
ENDBRANCH   5   6
ENDBRANCH   4   5
ENDBRANCH   3   4
ENDBRANCH   2   3
ENDBRANCH   1   2
BRANCH   1  25
ATOM     25  C   UNL A   1      37.414  20.354  24.893  1.00  0.00     0.261 C 
BRANCH  25  26
ATOM     26  O   UNL A   1      38.422  21.366  25.059  1.00  0.00    -0.460 OA
BRANCH  26  27
ATOM     27  C   UNL A   1      39.334  21.105  26.027  1.00  0.00     0.338 C 
ATOM     28  O   UNL A   1      39.859  20.027  26.262  1.00  0.00    -0.246 OA
BRANCH  27  29
ATOM     29  C   UNL A   1      39.795  22.371  26.636  1.00  0.00     0.060 A 
ATOM     30  C   UNL A   1      39.148  23.547  26.236  1.00  0.00     0.016 A 
ATOM     31  C   UNL A   1      40.852  22.421  27.547  1.00  0.00     0.016 A 
ATOM     32  C   UNL A   1      39.592  24.784  26.699  1.00  0.00     0.010 A 
ATOM     33  C   UNL A   1      41.305  23.665  28.003  1.00  0.00     0.010 A 
ATOM     34  C   UNL A   1      40.703  24.854  27.549  1.00  0.00    -0.014 A 
BRANCH  34  35
ATOM     35  C   UNL A   1      41.334  26.171  27.812  1.00  0.00     0.031 A 
ATOM     36  C   UNL A   1      42.696  26.449  27.231  1.00  0.00     0.074 A 
ATOM     37  C   UNL A   1      40.683  27.132  28.493  1.00  0.00     0.049 A 
ATOM     38  N   UNL A   1      43.447  27.511  27.349  1.00  0.00    -0.248 NA
ATOM     39  C   UNL A   1      43.285  25.384  26.402  1.00  0.00     0.031 C 
ATOM     40  C   UNL A   1      39.333  27.011  29.039  1.00  0.00     0.029 A 
ATOM     41  N   UNL A   1      41.070  28.405  28.832  1.00  0.00    -0.354 N 
ATOM     42  C   UNL A   1      44.595  27.249  26.609  1.00  0.00     0.074 A 
ATOM     43  C   UNL A   1      44.458  25.909  26.079  1.00  0.00     0.031 C 
ATOM     44  C   UNL A   1      39.000  28.170  29.637  1.00  0.00     0.029 A 
ATOM     45  C   UNL A   1      40.127  29.097  29.555  1.00  0.00     0.049 A 
ATOM     46  H   UNL A   1      41.942  28.787  28.581  1.00  0.00     0.167 HD
ATOM     47  C   UNL A   1      45.657  28.056  26.379  1.00  0.00     0.034 A 
ATOM     48  C   UNL A   1      40.174  30.328  30.103  1.00  0.00     0.034 A 
ATOM     49  C   UNL A   1      45.786  29.388  26.910  1.00  0.00     0.049 A 
ATOM     50  C   UNL A   1      41.418  31.165  29.931  1.00  0.00     0.074 A 
ATOM     51  C   UNL A   1      46.829  30.283  26.740  1.00  0.00     0.029 A 
ATOM     52  N   UNL A   1      44.848  30.020  27.715  1.00  0.00    -0.354 N 
ATOM     53  N   UNL A   1      42.513  30.888  29.263  1.00  0.00    -0.248 NA
ATOM     54  C   UNL A   1      41.433  32.479  30.590  1.00  0.00     0.031 C 
ATOM     55  C   UNL A   1      46.554  31.425  27.498  1.00  0.00     0.029 A 
ATOM     56  C   UNL A   1      45.303  31.277  28.077  1.00  0.00     0.049 A 
ATOM     57  H   UNL A   1      43.986  29.630  27.989  1.00  0.00     0.167 HD
ATOM     58  C   UNL A   1      43.336  32.004  29.400  1.00  0.00     0.074 A 
ATOM     59  C   UNL A   1      42.609  32.960  30.209  1.00  0.00     0.031 C 
ATOM     60  C   UNL A   1      44.577  32.218  28.895  1.00  0.00     0.034 A 
BRANCH  47  61
ATOM     61  C   UNL A   1      46.784  27.509  25.542  1.00  0.00     0.023 A 
ATOM     62  C   UNL A   1      46.985  27.925  24.216  1.00  0.00     0.031 A 
ATOM     63  C   UNL A   1      47.686  26.580  26.091  1.00  0.00     0.131 A 
ATOM     64  C   UNL A   1      48.045  27.388  23.470  1.00  0.00     0.055 A 
ATOM     65  C   UNL A   1      48.775  26.097  25.364  1.00  0.00     0.041 A 
ATOM     66  F   UNL A   1      47.526  26.134  27.347  1.00  0.00    -0.206 F 
ATOM     67  C   UNL A   1      48.956  26.495  24.043  1.00  0.00     0.022 A 
BRANCH  64  68
ATOM     68  S   UNL A   1      48.176  27.812  21.712  1.00  0.00     0.124 S 
ATOM     69  O   UNL A   1      46.840  28.333  21.435  1.00  0.00    -0.237 OA
ATOM     70  O   UNL A   1      49.258  28.790  21.702  1.00  0.00    -0.237 OA
ATOM     71  O   UNL A   1      48.485  26.535  21.073  1.00  0.00    -0.744 OA
ENDBRANCH  64  68
ENDBRANCH  47  61
BRANCH  48  72
ATOM     72  C   UNL A   1      39.018  30.839  30.890  1.00  0.00     0.023 A 
ATOM     73  C   UNL A   1      37.887  31.374  30.254  1.00  0.00     0.031 A 
ATOM     74  C   UNL A   1      39.034  30.811  32.297  1.00  0.00     0.131 A 
ATOM     75  C   UNL A   1      36.825  31.877  31.023  1.00  0.00     0.055 A 
ATOM     76  C   UNL A   1      37.959  31.275  33.056  1.00  0.00     0.041 A 
ATOM     77  F   UNL A   1      40.092  30.310  32.953  1.00  0.00    -0.206 F 
ATOM     78  C   UNL A   1      36.847  31.817  32.418  1.00  0.00     0.022 A 
BRANCH  75  79
ATOM     79  S   UNL A   1      35.420  32.644  30.172  1.00  0.00     0.124 S 
ATOM     80  O   UNL A   1      34.424  32.702  31.236  1.00  0.00    -0.237 OA
ATOM     81  O   UNL A   1      35.981  33.922  29.746  1.00  0.00    -0.237 OA
ATOM     82  O   UNL A   1      35.126  31.706  29.090  1.00  0.00    -0.744 OA
ENDBRANCH  75  79
ENDBRANCH  48  72
BRANCH  60  83
ATOM     83  C   UNL A   1      45.227  33.550  29.176  1.00  0.00     0.023 A 
ATOM     84  C   UNL A   1      44.981  34.674  28.371  1.00  0.00     0.031 A 
ATOM     85  C   UNL A   1      46.068  33.705  30.293  1.00  0.00     0.131 A 
ATOM     86  C   UNL A   1      45.594  35.898  28.677  1.00  0.00     0.055 A 
ATOM     87  C   UNL A   1      46.632  34.937  30.623  1.00  0.00     0.041 A 
ATOM     88  F   UNL A   1      46.334  32.663  31.098  1.00  0.00    -0.206 F 
ATOM     89  C   UNL A   1      46.402  36.042  29.808  1.00  0.00     0.022 A 
BRANCH  86  90
ATOM     90  S   UNL A   1      45.359  37.297  27.547  1.00  0.00     0.124 S 
ATOM     91  O   UNL A   1      44.053  37.001  26.967  1.00  0.00    -0.237 OA
ATOM     92  O   UNL A   1      45.411  38.443  28.449  1.00  0.00    -0.237 OA
ATOM     93  O   UNL A   1      46.487  37.186  26.623  1.00  0.00    -0.744 OA
ENDBRANCH  86  90
ENDBRANCH  60  83
ENDBRANCH  34  35
ENDBRANCH  27  29
ENDBRANCH  26  27
ENDBRANCH  25  26
ENDBRANCH   1  25
TORSDOF 18
ENDMDL
MODEL 3
REMARK VINA RESULT:     -11.8      1.606      2.093
REMARK SMILES Cc1c(Cl)cc2c(c1C)O[C@@H](C(F)(F)F)C(C(=O)OCCOCCOC(=O)c1ccc(-c3c4nc(c(-c5cc(S(=O)(=O)[O-])ccc5F)c5ccc([nH]5)c(-c5cc(S(=O)(=O)[O-])ccc5F)c5nc(c(-c6cc(S(=O)(=O)[O-])ccc6F)c6ccc3[nH]6)C=C5)C=C4)cc1)=C2
REMARK SMILES IDX 23 1 22 2 21 3 20 4 19 5 17 6 18 7 16 8 1 9 2 10 3 11 8 12
REMARK SMILES IDX 4 13 5 14 7 15 9 16 6 17 10 18 91 19 11 20 12 21 13 22 14 23
REMARK SMILES IDX 15 24 24 25 25 26 26 27 27 28 28 29 29 30 90 31 30 32 89 33
REMARK SMILES IDX 31 34 32 35 33 36 83 37 34 38 88 39 82 40 84 41 35 42 87 43
REMARK SMILES IDX 81 44 80 45 36 47 68 48 48 49 67 50 49 51 52 52 66 53 85 54
REMARK SMILES IDX 50 55 51 56 65 58 86 59 53 60 37 61 38 62 46 63 39 64 45 65
REMARK SMILES IDX 47 66 44 67 40 68 41 69 42 70 43 71 69 72 70 73 78 74 71 75
REMARK SMILES IDX 77 76 79 77 76 78 72 79 73 80 74 81 75 82 54 83 55 84 63 85
REMARK SMILES IDX 56 86 62 87 64 88 61 89 57 90 58 91 59 92 60 93
REMARK H PARENT 84 46 52 57
REMARK Flexibility Score: inf
ROOT
ATOM      1  C   UNL A   1      35.658  20.342  24.858  1.00  0.00     0.202 C 
ENDROOT
BRANCH   1   2
ATOM      2  O   UNL A   1      35.130  21.668  24.778  1.00  0.00    -0.374 OA
BRANCH   2   3
ATOM      3  C   UNL A   1      33.729  21.788  24.521  1.00  0.00     0.202 C 
BRANCH   3   4
ATOM      4  C   UNL A   1      33.344  22.579  23.269  1.00  0.00     0.261 C 
BRANCH   4   5
ATOM      5  O   UNL A   1      33.841  23.926  23.355  1.00  0.00    -0.460 OA
BRANCH   5   6
ATOM      6  C   UNL A   1      33.286  24.784  22.478  1.00  0.00     0.338 C 
ATOM      7  O   UNL A   1      33.262  24.658  21.263  1.00  0.00    -0.246 OA
BRANCH   6   8
ATOM      8  C   UNL A   1      32.592  25.878  23.187  1.00  0.00     0.087 C 
ATOM      9  C   UNL A   1      29.521  31.520  24.251  1.00  0.00     0.046 C 
ATOM     10  C   UNL A   1      29.992  30.140  23.867  1.00  0.00    -0.026 A 
ATOM     11  C   UNL A   1      29.421  29.459  22.773  1.00  0.00     0.045 A 
ATOM     12  C   UNL A   1      31.078  29.535  24.559  1.00  0.00    -0.004 A 
ATOM     13  Cl  UNL A   1      28.133  30.121  21.824  1.00  0.00    -0.084 Cl
ATOM     14  C   UNL A   1      29.905  28.215  22.373  1.00  0.00     0.032 A 
ATOM     15  C   UNL A   1      31.573  28.287  24.123  1.00  0.00     0.131 A 
ATOM     16  C   UNL A   1      31.721  30.172  25.766  1.00  0.00     0.049 C 
ATOM     17  C   UNL A   1      30.989  27.640  23.034  1.00  0.00     0.019 A 
ATOM     18  O   UNL A   1      32.695  27.794  24.749  1.00  0.00    -0.475 OA
ATOM     19  C   UNL A   1      31.589  26.437  22.499  1.00  0.00     0.027 C 
ATOM     20  C   UNL A   1      33.048  26.391  24.527  1.00  0.00     0.316 C 
BRANCH  20  21
ATOM     21  C   UNL A   1      32.584  25.576  25.753  1.00  0.00     0.430 C 
ATOM     22  F   UNL A   1      32.135  26.373  26.753  1.00  0.00    -0.167 F 
ATOM     23  F   UNL A   1      31.593  24.704  25.477  1.00  0.00    -0.167 F 
ATOM     24  F   UNL A   1      33.612  24.847  26.255  1.00  0.00    -0.167 F 
ENDBRANCH  20  21
ENDBRANCH   6   8
ENDBRANCH   5   6
ENDBRANCH   4   5
ENDBRANCH   3   4
ENDBRANCH   2   3
ENDBRANCH   1   2
BRANCH   1  25
ATOM     25  C   UNL A   1      37.182  20.199  24.990  1.00  0.00     0.261 C 
BRANCH  25  26
ATOM     26  O   UNL A   1      37.783  21.344  25.619  1.00  0.00    -0.460 OA
BRANCH  26  27
ATOM     27  C   UNL A   1      39.034  21.138  26.097  1.00  0.00     0.338 C 
ATOM     28  O   UNL A   1      39.708  20.127  25.963  1.00  0.00    -0.246 OA
BRANCH  27  29
ATOM     29  C   UNL A   1      39.585  22.405  26.624  1.00  0.00     0.060 A 
ATOM     30  C   UNL A   1      39.030  23.596  26.139  1.00  0.00     0.016 A 
ATOM     31  C   UNL A   1      40.638  22.438  27.541  1.00  0.00     0.016 A 
ATOM     32  C   UNL A   1      39.563  24.824  26.521  1.00  0.00     0.010 A 
ATOM     33  C   UNL A   1      41.180  23.673  27.916  1.00  0.00     0.010 A 
ATOM     34  C   UNL A   1      40.671  24.870  27.377  1.00  0.00    -0.014 A 
BRANCH  34  35
ATOM     35  C   UNL A   1      41.398  26.152  27.556  1.00  0.00     0.031 A 
ATOM     36  C   UNL A   1      40.750  27.242  28.369  1.00  0.00     0.074 A 
ATOM     37  C   UNL A   1      42.640  26.323  27.068  1.00  0.00     0.049 A 
ATOM     38  N   UNL A   1      41.182  28.445  28.636  1.00  0.00    -0.248 NA
ATOM     39  C   UNL A   1      39.440  26.927  28.963  1.00  0.00     0.031 C 
ATOM     40  C   UNL A   1      43.402  25.317  26.331  1.00  0.00     0.029 A 
ATOM     41  N   UNL A   1      43.483  27.405  27.129  1.00  0.00    -0.354 N 
ATOM     42  C   UNL A   1      40.203  29.032  29.431  1.00  0.00     0.074 A 
ATOM     43  C   UNL A   1      39.135  28.065  29.568  1.00  0.00     0.031 C 
ATOM     44  C   UNL A   1      44.607  25.827  26.017  1.00  0.00     0.029 A 
ATOM     45  C   UNL A   1      44.684  27.208  26.491  1.00  0.00     0.049 A 
ATOM     46  H   UNL A   1      43.249  28.244  27.588  1.00  0.00     0.167 HD
ATOM     47  C   UNL A   1      40.202  30.258  30.007  1.00  0.00     0.034 A 
ATOM     48  C   UNL A   1      45.721  28.049  26.296  1.00  0.00     0.034 A 
ATOM     49  C   UNL A   1      41.269  31.215  29.865  1.00  0.00     0.049 A 
ATOM     50  C   UNL A   1      45.646  29.452  26.848  1.00  0.00     0.074 A 
ATOM     51  C   UNL A   1      41.357  32.487  30.403  1.00  0.00     0.029 A 
ATOM     52  N   UNL A   1      42.430  31.011  29.133  1.00  0.00    -0.354 N 
ATOM     53  N   UNL A   1      44.696  30.008  27.563  1.00  0.00    -0.248 NA
ATOM     54  C   UNL A   1      46.781  30.340  26.564  1.00  0.00     0.031 C 
ATOM     55  C   UNL A   1      42.537  33.077  29.940  1.00  0.00     0.029 A 
ATOM     56  C   UNL A   1      43.225  32.145  29.178  1.00  0.00     0.049 A 
ATOM     57  H   UNL A   1      42.656  30.182  28.652  1.00  0.00     0.167 HD
ATOM     58  C   UNL A   1      45.132  31.302  27.836  1.00  0.00     0.074 A 
ATOM     59  C   UNL A   1      46.432  31.443  27.214  1.00  0.00     0.031 C 
ATOM     60  C   UNL A   1      44.513  32.281  28.544  1.00  0.00     0.034 A 
BRANCH  47  61
ATOM     61  C   UNL A   1      38.994  30.650  30.816  1.00  0.00     0.023 A 
ATOM     62  C   UNL A   1      37.871  31.247  30.220  1.00  0.00     0.031 A 
ATOM     63  C   UNL A   1      38.956  30.396  32.199  1.00  0.00     0.131 A 
ATOM     64  C   UNL A   1      36.767  31.600  31.011  1.00  0.00     0.055 A 
ATOM     65  C   UNL A   1      37.831  30.693  32.969  1.00  0.00     0.041 A 
ATOM     66  F   UNL A   1      40.011  29.847  32.821  1.00  0.00    -0.206 F 
ATOM     67  C   UNL A   1      36.730  31.305  32.377  1.00  0.00     0.022 A 
BRANCH  64  68
ATOM     68  S   UNL A   1      35.407  32.524  30.246  1.00  0.00     0.124 S 
ATOM     69  O   UNL A   1      34.429  32.558  31.330  1.00  0.00    -0.237 OA
ATOM     70  O   UNL A   1      36.036  33.796  29.912  1.00  0.00    -0.237 OA
ATOM     71  O   UNL A   1      35.031  31.695  29.102  1.00  0.00    -0.744 OA
ENDBRANCH  64  68
ENDBRANCH  47  61
BRANCH  48  72
ATOM     72  C   UNL A   1      46.910  27.601  25.520  1.00  0.00     0.023 A 
ATOM     73  C   UNL A   1      47.044  27.907  24.157  1.00  0.00     0.031 A 
ATOM     74  C   UNL A   1      47.928  26.846  26.131  1.00  0.00     0.131 A 
ATOM     75  C   UNL A   1      48.161  27.444  23.444  1.00  0.00     0.055 A 
ATOM     76  C   UNL A   1      49.056  26.423  25.428  1.00  0.00     0.041 A 
ATOM     77  F   UNL A   1      47.847  26.527  27.432  1.00  0.00    -0.206 F 
ATOM     78  C   UNL A   1      49.174  26.718  24.073  1.00  0.00     0.022 A 
BRANCH  75  79
ATOM     79  S   UNL A   1      48.259  27.779  21.664  1.00  0.00     0.124 S 
ATOM     80  O   UNL A   1      49.273  28.826  21.614  1.00  0.00    -0.237 OA
ATOM     81  O   UNL A   1      48.650  26.479  21.130  1.00  0.00    -0.237 OA
ATOM     82  O   UNL A   1      46.902  28.204  21.323  1.00  0.00    -0.744 OA
ENDBRANCH  75  79
ENDBRANCH  48  72
BRANCH  60  83
ATOM     83  C   UNL A   1      45.242  33.591  28.712  1.00  0.00     0.023 A 
ATOM     84  C   UNL A   1      46.127  33.809  29.781  1.00  0.00     0.031 A 
ATOM     85  C   UNL A   1      45.085  34.616  27.761  1.00  0.00     0.131 A 
ATOM     86  C   UNL A   1      46.797  35.037  29.891  1.00  0.00     0.055 A 
ATOM     87  C   UNL A   1      45.794  35.814  27.847  1.00  0.00     0.041 A 
ATOM     88  F   UNL A   1      44.254  34.457  26.718  1.00  0.00    -0.206 F 
ATOM     89  C   UNL A   1      46.651  36.032  28.922  1.00  0.00     0.022 A 
BRANCH  86  90
ATOM     90  S   UNL A   1      47.831  35.337  31.350  1.00  0.00     0.124 S 
ATOM     91  O   UNL A   1      47.487  34.203  32.203  1.00  0.00    -0.237 OA
ATOM     92  O   UNL A   1      49.178  35.327  30.790  1.00  0.00    -0.237 OA
ATOM     93  O   UNL A   1      47.374  36.638  31.836  1.00  0.00    -0.744 OA
ENDBRANCH  86  90
ENDBRANCH  60  83
ENDBRANCH  34  35
ENDBRANCH  27  29
ENDBRANCH  26  27
ENDBRANCH  25  26
ENDBRANCH   1  25
TORSDOF 18
ENDMDL
