MODEL 1
REMARK VINA RESULT:      -8.6      0.000      0.000
REMARK SMILES CCCCCCCNC(=O)Oc1cccc(-c2ccc([C@@H](C)C(=O)OCCOCCOC(=O)c3ccc(-c4c5nc(c(-c6cc(S(=O)(=O)[O-])ccc6F)c6ccc([nH]6)c(-c6cc(S(=O)(=O)[O-])ccc6F)c6nc(c(-c7cc(S(=O)(=O)[O-])ccc7F)c7ccc4[nH]7)C=C6)C=C5)cc3)cc2F)c1
REMARK SMILES IDX 23 1 24 2 21 3 22 4 20 5 17 6 18 7 98 8 19 9 97 10 99 11
REMARK SMILES IDX 16 12 12 13 13 14 100 15 14 16 15 17 11 18 9 19 8 20 10 22
REMARK SMILES IDX 7 23 6 24 5 25 4 26 3 27 2 28 1 29 25 30 26 31 27 32 28 33
REMARK SMILES IDX 29 34 30 35 31 36 32 37 33 38 34 39 35 40 96 41 36 42 95 43
REMARK SMILES IDX 37 44 38 45 39 46 89 47 40 48 94 49 88 50 90 51 41 52 93 53
REMARK SMILES IDX 87 54 86 55 42 57 74 58 54 59 73 60 55 61 58 62 72 63 91 64
REMARK SMILES IDX 56 65 57 66 71 68 92 69 59 70 43 71 44 72 52 73 45 74 51 75
REMARK SMILES IDX 53 76 50 77 46 78 47 79 48 80 49 81 75 82 76 83 84 84 77 85
REMARK SMILES IDX 83 86 85 87 82 88 78 89 79 90 80 91 81 92 60 93 61 94 69 95
REMARK SMILES IDX 62 96 68 97 70 98 67 99 63 100 64 101 65 102 66 103
REMARK H PARENT 8 21 90 56 58 67
REMARK Flexibility Score: inf
ROOT
ATOM      1  C   UNL A   1      33.346  22.262  24.909  1.00  0.00     0.313 C 
ATOM      2  O   UNL A   1      32.406  21.543  25.236  1.00  0.00    -0.252 OA
ENDROOT
BRANCH   1   3
ATOM      3  C   UNL A   1      33.182  23.361  23.870  1.00  0.00     0.126 C 
ATOM      4  C   UNL A   1      34.337  23.290  22.876  1.00  0.00     0.025 C 
BRANCH   3   5
ATOM      5  C   UNL A   1      32.941  24.786  24.359  1.00  0.00    -0.031 A 
ATOM      6  C   UNL A   1      32.727  27.453  25.361  1.00  0.00     0.018 A 
ATOM      7  C   UNL A   1      31.988  26.400  25.924  1.00  0.00     0.012 A 
ATOM      8  C   UNL A   1      33.537  27.147  24.261  1.00  0.00     0.131 A 
ATOM      9  C   UNL A   1      32.094  25.088  25.435  1.00  0.00     0.005 A 
ATOM     10  C   UNL A   1      33.645  25.845  23.766  1.00  0.00     0.044 A 
ATOM     11  F   UNL A   1      34.273  28.103  23.672  1.00  0.00    -0.206 F 
BRANCH   6  12
ATOM     12  C   UNL A   1      32.681  28.812  25.931  1.00  0.00    -0.012 A 
ATOM     13  C   UNL A   1      33.561  30.534  27.402  1.00  0.00     0.133 A 
ATOM     14  C   UNL A   1      32.531  31.404  27.052  1.00  0.00     0.047 A 
ATOM     15  C   UNL A   1      33.632  29.245  26.867  1.00  0.00     0.056 A 
ATOM     16  C   UNL A   1      31.577  30.989  26.128  1.00  0.00     0.004 A 
ATOM     17  C   UNL A   1      31.654  29.707  25.571  1.00  0.00     0.009 A 
BRANCH  13  18
ATOM     18  O   UNL A   1      34.458  30.969  28.388  1.00  0.00    -0.410 OA
BRANCH  18  19
ATOM     19  C   UNL A   1      35.519  31.752  27.965  1.00  0.00     0.412 C 
ATOM     20  N   UNL A   1      36.713  31.090  27.949  1.00  0.00    -0.321 N 
ATOM     21  H   UNL A   1      37.498  31.611  27.662  1.00  0.00     0.167 HD
ATOM     22  O   UNL A   1      35.456  32.935  27.626  1.00  0.00    -0.224 OA
BRANCH  20  23
ATOM     23  C   UNL A   1      36.952  29.707  28.308  1.00  0.00     0.119 C 
BRANCH  23  24
ATOM     24  C   UNL A   1      37.961  29.579  29.451  1.00  0.00     0.021 C 
BRANCH  24  25
ATOM     25  C   UNL A   1      38.526  28.167  29.657  1.00  0.00     0.002 C 
BRANCH  25  26
ATOM     26  C   UNL A   1      39.795  27.845  28.862  1.00  0.00     0.000 C 
BRANCH  26  27
ATOM     27  C   UNL A   1      40.250  28.935  27.886  1.00  0.00    -0.000 C 
BRANCH  27  28
ATOM     28  C   UNL A   1      40.680  28.437  26.503  1.00  0.00    -0.003 C 
ATOM     29  C   UNL A   1      40.786  26.923  26.412  1.00  0.00     0.004 C 
ENDBRANCH  27  28
ENDBRANCH  26  27
ENDBRANCH  25  26
ENDBRANCH  24  25
ENDBRANCH  23  24
ENDBRANCH  20  23
ENDBRANCH  18  19
ENDBRANCH  13  18
ENDBRANCH   6  12
ENDBRANCH   3   5
ENDBRANCH   1   3
BRANCH   1  30
ATOM     30  O   UNL A   1      34.608  22.149  25.394  1.00  0.00    -0.463 OA
BRANCH  30  31
ATOM     31  C   UNL A   1      35.125  20.811  25.501  1.00  0.00     0.261 C 
BRANCH  31  32
ATOM     32  C   UNL A   1      36.561  20.719  24.980  1.00  0.00     0.202 C 
BRANCH  32  33
ATOM     33  O   UNL A   1      37.507  21.618  25.558  1.00  0.00    -0.374 OA
BRANCH  33  34
ATOM     34  C   UNL A   1      38.835  21.135  25.763  1.00  0.00     0.202 C 
BRANCH  34  35
ATOM     35  C   UNL A   1      39.838  22.078  26.441  1.00  0.00     0.261 C 
BRANCH  35  36
ATOM     36  O   UNL A   1      40.935  21.381  27.058  1.00  0.00    -0.460 OA
BRANCH  36  37
ATOM     37  C   UNL A   1      41.973  21.120  26.223  1.00  0.00     0.338 C 
ATOM     38  O   UNL A   1      42.049  20.213  25.412  1.00  0.00    -0.246 OA
BRANCH  37  39
ATOM     39  C   UNL A   1      42.948  22.228  26.267  1.00  0.00     0.060 A 
ATOM     40  C   UNL A   1      43.855  22.240  27.333  1.00  0.00     0.016 A 
ATOM     41  C   UNL A   1      42.935  23.269  25.336  1.00  0.00     0.016 A 
ATOM     42  C   UNL A   1      44.722  23.317  27.503  1.00  0.00     0.010 A 
ATOM     43  C   UNL A   1      43.803  24.354  25.513  1.00  0.00     0.010 A 
ATOM     44  C   UNL A   1      44.678  24.400  26.616  1.00  0.00    -0.014 A 
BRANCH  44  45
ATOM     45  C   UNL A   1      45.448  25.630  26.931  1.00  0.00     0.031 A 
ATOM     46  C   UNL A   1      44.863  26.637  27.885  1.00  0.00     0.074 A 
ATOM     47  C   UNL A   1      46.675  25.824  26.413  1.00  0.00     0.049 A 
ATOM     48  N   UNL A   1      45.348  27.785  28.282  1.00  0.00    -0.248 NA
ATOM     49  C   UNL A   1      43.554  26.302  28.464  1.00  0.00     0.031 C 
ATOM     50  C   UNL A   1      47.370  24.896  25.522  1.00  0.00     0.029 A 
ATOM     51  N   UNL A   1      47.555  26.867  26.562  1.00  0.00    -0.354 N 
ATOM     52  C   UNL A   1      44.403  28.314  29.157  1.00  0.00     0.074 A 
ATOM     53  C   UNL A   1      43.301  27.375  29.198  1.00  0.00     0.031 C 
ATOM     54  C   UNL A   1      48.566  25.415  25.198  1.00  0.00     0.029 A 
ATOM     55  C   UNL A   1      48.706  26.729  25.822  1.00  0.00     0.049 A 
ATOM     56  H   UNL A   1      47.379  27.642  27.144  1.00  0.00     0.167 HD
ATOM     57  C   UNL A   1      44.454  29.470  29.864  1.00  0.00     0.034 A 
ATOM     58  C   UNL A   1      49.740  27.577  25.646  1.00  0.00     0.034 A 
ATOM     59  C   UNL A   1      45.556  30.400  29.803  1.00  0.00     0.049 A 
ATOM     60  C   UNL A   1      49.732  28.903  26.370  1.00  0.00     0.074 A 
ATOM     61  C   UNL A   1      45.718  31.591  30.491  1.00  0.00     0.029 A 
ATOM     62  N   UNL A   1      46.678  30.256  28.996  1.00  0.00    -0.354 N 
ATOM     63  N   UNL A   1      48.837  29.388  27.199  1.00  0.00    -0.248 NA
ATOM     64  C   UNL A   1      50.878  29.792  26.137  1.00  0.00     0.031 C 
ATOM     65  C   UNL A   1      46.894  32.202  30.042  1.00  0.00     0.029 A 
ATOM     66  C   UNL A   1      47.514  31.353  29.138  1.00  0.00     0.049 A 
ATOM     67  H   UNL A   1      46.854  29.486  28.409  1.00  0.00     0.167 HD
ATOM     68  C   UNL A   1      49.328  30.625  27.610  1.00  0.00     0.074 A 
ATOM     69  C   UNL A   1      50.605  30.803  26.948  1.00  0.00     0.031 C 
ATOM     70  C   UNL A   1      48.778  31.530  28.460  1.00  0.00     0.034 A 
BRANCH  57  71
ATOM     71  C   UNL A   1      43.256  29.817  30.716  1.00  0.00     0.023 A 
ATOM     72  C   UNL A   1      43.080  29.286  32.007  1.00  0.00     0.031 A 
ATOM     73  C   UNL A   1      42.260  30.678  30.219  1.00  0.00     0.131 A 
ATOM     74  C   UNL A   1      41.907  29.566  32.726  1.00  0.00     0.055 A 
ATOM     75  C   UNL A   1      41.133  31.015  30.971  1.00  0.00     0.041 A 
ATOM     76  F   UNL A   1      42.361  31.198  28.985  1.00  0.00    -0.206 F 
ATOM     77  C   UNL A   1      40.944  30.446  32.227  1.00  0.00     0.022 A 
BRANCH  74  78
ATOM     78  S   UNL A   1      41.590  28.653  34.261  1.00  0.00     0.124 S 
ATOM     79  O   UNL A   1      41.391  29.740  35.217  1.00  0.00    -0.237 OA
ATOM     80  O   UNL A   1      40.406  27.872  33.925  1.00  0.00    -0.237 OA
ATOM     81  O   UNL A   1      42.814  27.878  34.458  1.00  0.00    -0.744 OA
ENDBRANCH  74  78
ENDBRANCH  57  71
BRANCH  58  82
ATOM     82  C   UNL A   1      50.851  27.230  24.711  1.00  0.00     0.023 A 
ATOM     83  C   UNL A   1      50.760  27.500  23.337  1.00  0.00     0.031 A 
ATOM     84  C   UNL A   1      52.001  26.568  25.178  1.00  0.00     0.131 A 
ATOM     85  C   UNL A   1      51.779  27.070  22.472  1.00  0.00     0.055 A 
ATOM     86  C   UNL A   1      53.037  26.193  24.322  1.00  0.00     0.041 A 
ATOM     87  F   UNL A   1      52.138  26.281  26.483  1.00  0.00    -0.206 F 
ATOM     88  C   UNL A   1      52.923  26.432  22.957  1.00  0.00     0.022 A 
BRANCH  85  89
ATOM     89  S   UNL A   1      51.548  27.279  20.684  1.00  0.00     0.124 S 
ATOM     90  O   UNL A   1      52.176  26.071  20.161  1.00  0.00    -0.237 OA
ATOM     91  O   UNL A   1      50.095  27.348  20.574  1.00  0.00    -0.237 OA
ATOM     92  O   UNL A   1      52.254  28.526  20.394  1.00  0.00    -0.744 OA
ENDBRANCH  85  89
ENDBRANCH  58  82
BRANCH  70  93
ATOM     93  C   UNL A   1      49.580  32.777  28.754  1.00  0.00     0.023 A 
ATOM     94  C   UNL A   1      49.437  33.949  27.989  1.00  0.00     0.031 A 
ATOM     95  C   UNL A   1      50.510  32.787  29.809  1.00  0.00     0.131 A 
ATOM     96  C   UNL A   1      50.252  35.060  28.254  1.00  0.00     0.055 A 
ATOM     97  C   UNL A   1      51.272  33.918  30.108  1.00  0.00     0.041 A 
ATOM     98  F   UNL A   1      50.693  31.696  30.570  1.00  0.00    -0.206 F 
ATOM     99  C   UNL A   1      51.156  35.059  29.320  1.00  0.00     0.022 A 
BRANCH  96 100
ATOM    100  S   UNL A   1      50.187  36.478  27.124  1.00  0.00     0.124 S 
ATOM    101  O   UNL A   1      51.121  37.409  27.751  1.00  0.00    -0.237 OA
ATOM    102  O   UNL A   1      50.622  35.892  25.861  1.00  0.00    -0.237 OA
ATOM    103  O   UNL A   1      48.784  36.886  27.165  1.00  0.00    -0.744 OA
ENDBRANCH  96 100
ENDBRANCH  70  93
ENDBRANCH  44  45
ENDBRANCH  37  39
ENDBRANCH  36  37
ENDBRANCH  35  36
ENDBRANCH  34  35
ENDBRANCH  33  34
ENDBRANCH  32  33
ENDBRANCH  31  32
ENDBRANCH  30  31
ENDBRANCH   1  30
TORSDOF 27
ENDMDL
MODEL 2
REMARK VINA RESULT:      -8.6      5.059      8.518
REMARK SMILES CCCCCCCNC(=O)Oc1cccc(-c2ccc([C@@H](C)C(=O)OCCOCCOC(=O)c3ccc(-c4c5nc(c(-c6cc(S(=O)(=O)[O-])ccc6F)c6ccc([nH]6)c(-c6cc(S(=O)(=O)[O-])ccc6F)c6nc(c(-c7cc(S(=O)(=O)[O-])ccc7F)c7ccc4[nH]7)C=C6)C=C5)cc3)cc2F)c1
REMARK SMILES IDX 23 1 24 2 21 3 22 4 20 5 17 6 18 7 98 8 19 9 97 10 99 11
REMARK SMILES IDX 16 12 12 13 13 14 100 15 14 16 15 17 11 18 9 19 8 20 10 22
REMARK SMILES IDX 7 23 6 24 5 25 4 26 3 27 2 28 1 29 25 30 26 31 27 32 28 33
REMARK SMILES IDX 29 34 30 35 31 36 32 37 33 38 34 39 35 40 96 41 36 42 95 43
REMARK SMILES IDX 37 44 38 45 39 46 89 47 40 48 94 49 88 50 90 51 41 52 93 53
REMARK SMILES IDX 87 54 86 55 42 57 74 58 54 59 73 60 55 61 58 62 72 63 91 64
REMARK SMILES IDX 56 65 57 66 71 68 92 69 59 70 43 71 44 72 52 73 45 74 51 75
REMARK SMILES IDX 53 76 50 77 46 78 47 79 48 80 49 81 75 82 76 83 84 84 77 85
REMARK SMILES IDX 83 86 85 87 82 88 78 89 79 90 80 91 81 92 60 93 61 94 69 95
REMARK SMILES IDX 62 96 68 97 70 98 67 99 63 100 64 101 65 102 66 103
REMARK H PARENT 8 21 90 56 58 67
REMARK Flexibility Score: inf
ROOT
ATOM      1  C   UNL A   1      36.797  30.111  29.785  1.00  0.00     0.313 C 
ATOM      2  O   UNL A   1      36.264  29.573  30.752  1.00  0.00    -0.252 OA
ENDROOT
BRANCH   1   3
ATOM      3  C   UNL A   1      36.015  31.023  28.852  1.00  0.00     0.126 C 
ATOM      4  C   UNL A   1      35.358  32.133  29.667  1.00  0.00     0.025 C 
BRANCH   3   5
ATOM      5  C   UNL A   1      35.038  30.385  27.871  1.00  0.00    -0.031 A 
ATOM      6  C   UNL A   1      33.053  29.146  26.230  1.00  0.00     0.018 A 
ATOM      7  C   UNL A   1      34.306  28.546  26.439  1.00  0.00     0.012 A 
ATOM      8  C   UNL A   1      32.838  30.396  26.822  1.00  0.00     0.131 A 
ATOM      9  C   UNL A   1      35.281  29.152  27.248  1.00  0.00     0.005 A 
ATOM     10  C   UNL A   1      33.804  31.007  27.625  1.00  0.00     0.044 A 
ATOM     11  F   UNL A   1      31.664  31.029  26.665  1.00  0.00    -0.206 F 
BRANCH   6  12
ATOM     12  C   UNL A   1      32.000  28.469  25.453  1.00  0.00    -0.012 A 
ATOM     13  C   UNL A   1      30.413  26.654  25.148  1.00  0.00     0.133 A 
ATOM     14  C   UNL A   1      30.024  27.159  23.910  1.00  0.00     0.047 A 
ATOM     15  C   UNL A   1      31.402  27.284  25.908  1.00  0.00     0.056 A 
ATOM     16  C   UNL A   1      30.609  28.331  23.441  1.00  0.00     0.004 A 
ATOM     17  C   UNL A   1      31.585  28.980  24.207  1.00  0.00     0.009 A 
BRANCH  13  18
ATOM     18  O   UNL A   1      29.848  25.435  25.548  1.00  0.00    -0.410 OA
BRANCH  18  19
ATOM     19  C   UNL A   1      30.711  24.488  26.071  1.00  0.00     0.412 C 
ATOM     20  N   UNL A   1      31.234  23.647  25.131  1.00  0.00    -0.321 N 
ATOM     21  H   UNL A   1      31.849  22.951  25.459  1.00  0.00     0.167 HD
ATOM     22  O   UNL A   1      31.016  24.363  27.258  1.00  0.00    -0.224 OA
BRANCH  20  23
ATOM     23  C   UNL A   1      30.984  23.666  23.704  1.00  0.00     0.119 C 
BRANCH  23  24
ATOM     24  C   UNL A   1      31.696  22.520  22.984  1.00  0.00     0.021 C 
BRANCH  24  25
ATOM     25  C   UNL A   1      33.201  22.729  22.767  1.00  0.00     0.002 C 
BRANCH  25  26
ATOM     26  C   UNL A   1      33.665  24.189  22.754  1.00  0.00     0.000 C 
BRANCH  26  27
ATOM     27  C   UNL A   1      34.898  24.491  23.613  1.00  0.00    -0.000 C 
BRANCH  27  28
ATOM     28  C   UNL A   1      34.728  24.239  25.113  1.00  0.00    -0.003 C 
ATOM     29  C   UNL A   1      35.975  23.678  25.779  1.00  0.00     0.004 C 
ENDBRANCH  27  28
ENDBRANCH  26  27
ENDBRANCH  25  26
ENDBRANCH  24  25
ENDBRANCH  23  24
ENDBRANCH  20  23
ENDBRANCH  18  19
ENDBRANCH  13  18
ENDBRANCH   6  12
ENDBRANCH   3   5
ENDBRANCH   1   3
BRANCH   1  30
ATOM     30  O   UNL A   1      38.094  29.940  29.425  1.00  0.00    -0.463 OA
BRANCH  30  31
ATOM     31  C   UNL A   1      38.567  28.581  29.397  1.00  0.00     0.261 C 
BRANCH  31  32
ATOM     32  C   UNL A   1      39.177  28.226  28.040  1.00  0.00     0.202 C 
BRANCH  32  33
ATOM     33  O   UNL A   1      40.196  27.227  28.040  1.00  0.00    -0.374 OA
BRANCH  33  34
ATOM     34  C   UNL A   1      40.132  26.218  27.033  1.00  0.00     0.202 C 
BRANCH  34  35
ATOM     35  C   UNL A   1      41.225  26.216  25.957  1.00  0.00     0.261 C 
BRANCH  35  36
ATOM     36  O   UNL A   1      42.554  26.212  26.508  1.00  0.00    -0.460 OA
BRANCH  36  37
ATOM     37  C   UNL A   1      43.342  27.231  26.079  1.00  0.00     0.338 C 
ATOM     38  O   UNL A   1      43.883  27.329  24.991  1.00  0.00    -0.246 OA
BRANCH  37  39
ATOM     39  C   UNL A   1      43.295  28.348  27.044  1.00  0.00     0.060 A 
ATOM     40  C   UNL A   1      42.565  29.483  26.673  1.00  0.00     0.016 A 
ATOM     41  C   UNL A   1      44.003  28.323  28.247  1.00  0.00     0.016 A 
ATOM     42  C   UNL A   1      42.577  30.619  27.480  1.00  0.00     0.010 A 
ATOM     43  C   UNL A   1      44.020  29.468  29.054  1.00  0.00     0.010 A 
ATOM     44  C   UNL A   1      43.334  30.633  28.658  1.00  0.00    -0.014 A 
BRANCH  44  45
ATOM     45  C   UNL A   1      43.513  31.912  29.391  1.00  0.00     0.031 A 
ATOM     46  C   UNL A   1      42.668  32.185  30.606  1.00  0.00     0.074 A 
ATOM     47  C   UNL A   1      44.452  32.799  29.008  1.00  0.00     0.049 A 
ATOM     48  N   UNL A   1      42.641  33.240  31.380  1.00  0.00    -0.248 NA
ATOM     49  C   UNL A   1      41.727  31.125  30.997  1.00  0.00     0.031 C 
ATOM     50  C   UNL A   1      45.368  32.622  27.881  1.00  0.00     0.029 A 
ATOM     51  N   UNL A   1      44.790  34.024  29.526  1.00  0.00    -0.354 N 
ATOM     52  C   UNL A   1      41.678  32.974  32.349  1.00  0.00     0.074 A 
ATOM     53  C   UNL A   1      41.120  31.674  32.038  1.00  0.00     0.031 C 
ATOM     54  C   UNL A   1      46.159  33.704  27.789  1.00  0.00     0.029 A 
ATOM     55  C   UNL A   1      45.781  34.668  28.821  1.00  0.00     0.049 A 
ATOM     56  H   UNL A   1      44.364  34.407  30.327  1.00  0.00     0.167 HD
ATOM     57  C   UNL A   1      41.300  33.740  33.403  1.00  0.00     0.034 A 
ATOM     58  C   UNL A   1      46.301  35.903  28.972  1.00  0.00     0.034 A 
ATOM     59  C   UNL A   1      41.860  35.039  33.693  1.00  0.00     0.049 A 
ATOM     60  C   UNL A   1      45.798  36.777  30.097  1.00  0.00     0.074 A 
ATOM     61  C   UNL A   1      41.564  35.890  34.744  1.00  0.00     0.029 A 
ATOM     62  N   UNL A   1      42.818  35.684  32.921  1.00  0.00    -0.354 N 
ATOM     63  N   UNL A   1      44.893  36.512  31.010  1.00  0.00    -0.248 NA
ATOM     64  C   UNL A   1      46.393  38.116  30.211  1.00  0.00     0.031 C 
ATOM     65  C   UNL A   1      42.281  37.077  34.564  1.00  0.00     0.029 A 
ATOM     66  C   UNL A   1      43.093  36.937  33.450  1.00  0.00     0.049 A 
ATOM     67  H   UNL A   1      43.242  35.307  32.117  1.00  0.00     0.167 HD
ATOM     68  C   UNL A   1      44.833  37.639  31.826  1.00  0.00     0.074 A 
ATOM     69  C   UNL A   1      45.804  38.579  31.304  1.00  0.00     0.031 C 
ATOM     70  C   UNL A   1      44.052  37.875  32.911  1.00  0.00     0.034 A 
BRANCH  57  71
ATOM     71  C   UNL A   1      40.190  33.213  34.283  1.00  0.00     0.023 A 
ATOM     72  C   UNL A   1      38.838  33.508  34.033  1.00  0.00     0.031 A 
ATOM     73  C   UNL A   1      40.493  32.419  35.404  1.00  0.00     0.131 A 
ATOM     74  C   UNL A   1      37.849  33.071  34.928  1.00  0.00     0.055 A 
ATOM     75  C   UNL A   1      39.498  31.922  36.246  1.00  0.00     0.041 A 
ATOM     76  F   UNL A   1      41.768  32.123  35.706  1.00  0.00    -0.206 F 
ATOM     77  C   UNL A   1      38.167  32.260  36.020  1.00  0.00     0.022 A 
BRANCH  74  78
ATOM     78  S   UNL A   1      36.158  33.695  34.727  1.00  0.00     0.124 S 
ATOM     79  O   UNL A   1      35.537  32.626  33.950  1.00  0.00    -0.237 OA
ATOM     80  O   UNL A   1      35.705  33.829  36.106  1.00  0.00    -0.237 OA
ATOM     81  O   UNL A   1      36.340  34.954  34.006  1.00  0.00    -0.744 OA
ENDBRANCH  74  78
ENDBRANCH  57  71
BRANCH  58  82
ATOM     82  C   UNL A   1      47.323  36.415  28.012  1.00  0.00     0.023 A 
ATOM     83  C   UNL A   1      48.696  36.299  28.276  1.00  0.00     0.031 A 
ATOM     84  C   UNL A   1      46.932  37.081  26.836  1.00  0.00     0.131 A 
ATOM     85  C   UNL A   1      49.628  36.880  27.401  1.00  0.00     0.055 A 
ATOM     86  C   UNL A   1      47.863  37.608  25.940  1.00  0.00     0.041 A 
ATOM     87  F   UNL A   1      45.631  37.224  26.535  1.00  0.00    -0.206 F 
ATOM     88  C   UNL A   1      49.221  37.520  26.228  1.00  0.00     0.022 A 
BRANCH  85  89
ATOM     89  S   UNL A   1      51.382  36.864  27.863  1.00  0.00     0.124 S 
ATOM     90  O   UNL A   1      51.620  38.270  28.168  1.00  0.00    -0.237 OA
ATOM     91  O   UNL A   1      51.387  35.949  28.999  1.00  0.00    -0.237 OA
ATOM     92  O   UNL A   1      52.046  36.364  26.659  1.00  0.00    -0.744 OA
ENDBRANCH  85  89
ENDBRANCH  58  82
BRANCH  70  93
ATOM     93  C   UNL A   1      44.249  39.190  33.631  1.00  0.00     0.023 A 
ATOM     94  C   UNL A   1      43.436  40.308  33.370  1.00  0.00     0.031 A 
ATOM     95  C   UNL A   1      45.274  39.327  34.584  1.00  0.00     0.131 A 
ATOM     96  C   UNL A   1      43.700  41.528  34.011  1.00  0.00     0.055 A 
ATOM     97  C   UNL A   1      45.489  40.526  35.266  1.00  0.00     0.041 A 
ATOM     98  F   UNL A   1      46.084  38.295  34.871  1.00  0.00    -0.206 F 
ATOM     99  C   UNL A   1      44.710  41.640  34.971  1.00  0.00     0.022 A 
BRANCH  96 100
ATOM    100  S   UNL A   1      42.767  43.000  33.503  1.00  0.00     0.124 S 
ATOM    101  O   UNL A   1      41.930  42.472  32.429  1.00  0.00    -0.237 OA
ATOM    102  O   UNL A   1      42.071  43.368  34.730  1.00  0.00    -0.237 OA
ATOM    103  O   UNL A   1      43.807  43.934  33.076  1.00  0.00    -0.744 OA
ENDBRANCH  96 100
ENDBRANCH  70  93
ENDBRANCH  44  45
ENDBRANCH  37  39
ENDBRANCH  36  37
ENDBRANCH  35  36
ENDBRANCH  34  35
ENDBRANCH  33  34
ENDBRANCH  32  33
ENDBRANCH  31  32
ENDBRANCH  30  31
ENDBRANCH   1  30
TORSDOF 27
ENDMDL
MODEL 3
REMARK VINA RESULT:      -8.3      1.632      7.223
REMARK SMILES CCCCCCCNC(=O)Oc1cccc(-c2ccc([C@@H](C)C(=O)OCCOCCOC(=O)c3ccc(-c4c5nc(c(-c6cc(S(=O)(=O)[O-])ccc6F)c6ccc([nH]6)c(-c6cc(S(=O)(=O)[O-])ccc6F)c6nc(c(-c7cc(S(=O)(=O)[O-])ccc7F)c7ccc4[nH]7)C=C6)C=C5)cc3)cc2F)c1
REMARK SMILES IDX 23 1 24 2 21 3 22 4 20 5 17 6 18 7 98 8 19 9 97 10 99 11
REMARK SMILES IDX 16 12 12 13 13 14 100 15 14 16 15 17 11 18 9 19 8 20 10 22
REMARK SMILES IDX 7 23 6 24 5 25 4 26 3 27 2 28 1 29 25 30 26 31 27 32 28 33
REMARK SMILES IDX 29 34 30 35 31 36 32 37 33 38 34 39 35 40 96 41 36 42 95 43
REMARK SMILES IDX 37 44 38 45 39 46 89 47 40 48 94 49 88 50 90 51 41 52 93 53
REMARK SMILES IDX 87 54 86 55 42 57 74 58 54 59 73 60 55 61 58 62 72 63 91 64
REMARK SMILES IDX 56 65 57 66 71 68 92 69 59 70 43 71 44 72 52 73 45 74 51 75
REMARK SMILES IDX 53 76 50 77 46 78 47 79 48 80 49 81 75 82 76 83 84 84 77 85
REMARK SMILES IDX 83 86 85 87 82 88 78 89 79 90 80 91 81 92 60 93 61 94 69 95
REMARK SMILES IDX 62 96 68 97 70 98 67 99 63 100 64 101 65 102 66 103
REMARK H PARENT 8 21 90 56 58 67
REMARK Flexibility Score: inf
ROOT
ATOM      1  C   UNL A   1      34.354  22.213  24.752  1.00  0.00     0.313 C 
ATOM      2  O   UNL A   1      34.100  21.422  25.656  1.00  0.00    -0.252 OA
ENDROOT
BRANCH   1   3
ATOM      3  C   UNL A   1      33.274  23.089  24.135  1.00  0.00     0.126 C 
ATOM      4  C   UNL A   1      33.396  23.041  22.615  1.00  0.00     0.025 C 
BRANCH   3   5
ATOM      5  C   UNL A   1      33.123  24.517  24.648  1.00  0.00    -0.031 A 
ATOM      6  C   UNL A   1      33.092  27.201  25.629  1.00  0.00     0.018 A 
ATOM      7  C   UNL A   1      32.565  26.141  26.385  1.00  0.00     0.012 A 
ATOM      8  C   UNL A   1      33.591  26.892  24.358  1.00  0.00     0.131 A 
ATOM      9  C   UNL A   1      32.582  24.821  25.906  1.00  0.00     0.005 A 
ATOM     10  C   UNL A   1      33.608  25.582  23.872  1.00  0.00     0.044 A 
ATOM     11  F   UNL A   1      34.111  27.854  23.580  1.00  0.00    -0.206 F 
BRANCH   6  12
ATOM     12  C   UNL A   1      33.153  28.571  26.169  1.00  0.00    -0.012 A 
ATOM     13  C   UNL A   1      34.357  30.379  27.258  1.00  0.00     0.133 A 
ATOM     14  C   UNL A   1      33.220  31.183  27.253  1.00  0.00     0.047 A 
ATOM     15  C   UNL A   1      34.328  29.080  26.741  1.00  0.00     0.056 A 
ATOM     16  C   UNL A   1      32.045  30.692  26.693  1.00  0.00     0.004 A 
ATOM     17  C   UNL A   1      32.013  29.400  26.154  1.00  0.00     0.009 A 
BRANCH  13  18
ATOM     18  O   UNL A   1      35.498  30.889  27.894  1.00  0.00    -0.410 OA
BRANCH  18  19
ATOM     19  C   UNL A   1      35.347  31.308  29.204  1.00  0.00     0.412 C 
ATOM     20  N   UNL A   1      35.983  30.509  30.111  1.00  0.00    -0.321 N 
ATOM     21  H   UNL A   1      35.896  30.766  31.057  1.00  0.00     0.167 HD
ATOM     22  O   UNL A   1      34.712  32.295  29.580  1.00  0.00    -0.224 OA
BRANCH  20  23
ATOM     23  C   UNL A   1      36.771  29.326  29.832  1.00  0.00     0.119 C 
BRANCH  23  24
ATOM     24  C   UNL A   1      37.699  29.526  28.633  1.00  0.00     0.021 C 
BRANCH  24  25
ATOM     25  C   UNL A   1      38.955  28.643  28.635  1.00  0.00     0.002 C 
BRANCH  25  26
ATOM     26  C   UNL A   1      38.773  27.244  29.231  1.00  0.00     0.000 C 
BRANCH  26  27
ATOM     27  C   UNL A   1      39.794  26.198  28.770  1.00  0.00    -0.000 C 
BRANCH  27  28
ATOM     28  C   UNL A   1      39.321  25.275  27.643  1.00  0.00    -0.003 C 
ATOM     29  C   UNL A   1      40.290  25.202  26.473  1.00  0.00     0.004 C 
ENDBRANCH  27  28
ENDBRANCH  26  27
ENDBRANCH  25  26
ENDBRANCH  24  25
ENDBRANCH  23  24
ENDBRANCH  20  23
ENDBRANCH  18  19
ENDBRANCH  13  18
ENDBRANCH   6  12
ENDBRANCH   3   5
ENDBRANCH   1   3
BRANCH   1  30
ATOM     30  O   UNL A   1      35.579  22.376  24.191  1.00  0.00    -0.463 OA
BRANCH  30  31
ATOM     31  C   UNL A   1      36.624  22.817  25.077  1.00  0.00     0.261 C 
BRANCH  31  32
ATOM     32  C   UNL A   1      37.662  21.718  25.313  1.00  0.00     0.202 C 
BRANCH  32  33
ATOM     33  O   UNL A   1      38.756  22.047  26.170  1.00  0.00    -0.374 OA
BRANCH  33  34
ATOM     34  C   UNL A   1      39.901  21.195  26.135  1.00  0.00     0.202 C 
BRANCH  34  35
ATOM     35  C   UNL A   1      40.996  21.434  27.182  1.00  0.00     0.261 C 
BRANCH  35  36
ATOM     36  O   UNL A   1      42.073  20.484  27.093  1.00  0.00    -0.460 OA
BRANCH  36  37
ATOM     37  C   UNL A   1      42.854  20.624  25.992  1.00  0.00     0.338 C 
ATOM     38  O   UNL A   1      42.832  19.933  24.987  1.00  0.00    -0.246 OA
BRANCH  37  39
ATOM     39  C   UNL A   1      43.618  21.886  26.069  1.00  0.00     0.060 A 
ATOM     40  C   UNL A   1      44.605  21.976  27.057  1.00  0.00     0.016 A 
ATOM     41  C   UNL A   1      43.332  22.980  25.250  1.00  0.00     0.016 A 
ATOM     42  C   UNL A   1      45.280  23.177  27.265  1.00  0.00     0.010 A 
ATOM     43  C   UNL A   1      44.007  24.189  25.466  1.00  0.00     0.010 A 
ATOM     44  C   UNL A   1      44.961  24.303  26.496  1.00  0.00    -0.014 A 
BRANCH  44  45
ATOM     45  C   UNL A   1      45.527  25.623  26.871  1.00  0.00     0.031 A 
ATOM     46  C   UNL A   1      46.898  26.000  26.377  1.00  0.00     0.074 A 
ATOM     47  C   UNL A   1      44.810  26.497  27.602  1.00  0.00     0.049 A 
ATOM     48  N   UNL A   1      47.594  27.086  26.599  1.00  0.00    -0.248 NA
ATOM     49  C   UNL A   1      47.574  25.016  25.517  1.00  0.00     0.031 C 
ATOM     50  C   UNL A   1      43.451  26.269  28.092  1.00  0.00     0.029 A 
ATOM     51  N   UNL A   1      45.124  27.753  28.059  1.00  0.00    -0.354 N 
ATOM     52  C   UNL A   1      48.792  26.917  25.911  1.00  0.00     0.074 A 
ATOM     53  C   UNL A   1      48.739  25.606  25.297  1.00  0.00     0.031 C 
ATOM     54  C   UNL A   1      43.052  27.347  28.788  1.00  0.00     0.029 A 
ATOM     55  C   UNL A   1      44.138  28.323  28.830  1.00  0.00     0.049 A 
ATOM     56  H   UNL A   1      45.976  28.203  27.855  1.00  0.00     0.167 HD
ATOM     57  C   UNL A   1      49.834  27.778  25.797  1.00  0.00     0.034 A 
ATOM     58  C   UNL A   1      44.125  29.486  29.514  1.00  0.00     0.034 A 
ATOM     59  C   UNL A   1      49.873  29.077  26.425  1.00  0.00     0.049 A 
ATOM     60  C   UNL A   1      45.335  30.388  29.449  1.00  0.00     0.074 A 
ATOM     61  C   UNL A   1      50.871  30.035  26.359  1.00  0.00     0.029 A 
ATOM     62  N   UNL A   1      48.881  29.596  27.247  1.00  0.00    -0.354 N 
ATOM     63  N   UNL A   1      46.458  30.221  28.790  1.00  0.00    -0.248 NA
ATOM     64  C   UNL A   1      45.271  31.638  30.219  1.00  0.00     0.031 C 
ATOM     65  C   UNL A   1      50.519  31.095  27.202  1.00  0.00     0.029 A 
ATOM     66  C   UNL A   1      49.262  30.841  27.727  1.00  0.00     0.049 A 
ATOM     67  H   UNL A   1      48.032  29.146  27.459  1.00  0.00     0.167 HD
ATOM     68  C   UNL A   1      47.220  31.359  29.041  1.00  0.00     0.074 A 
ATOM     69  C   UNL A   1      46.422  32.210  29.900  1.00  0.00     0.031 C 
ATOM     70  C   UNL A   1      48.465  31.676  28.598  1.00  0.00     0.034 A 
BRANCH  57  71
ATOM     71  C   UNL A   1      51.037  27.312  25.010  1.00  0.00     0.023 A 
ATOM     72  C   UNL A   1      52.146  26.711  25.632  1.00  0.00     0.031 A 
ATOM     73  C   UNL A   1      51.083  27.494  23.616  1.00  0.00     0.131 A 
ATOM     74  C   UNL A   1      53.278  26.376  24.871  1.00  0.00     0.055 A 
ATOM     75  C   UNL A   1      52.179  27.087  22.855  1.00  0.00     0.041 A 
ATOM     76  F   UNL A   1      50.064  28.083  22.970  1.00  0.00    -0.206 F 
ATOM     77  C   UNL A   1      53.293  26.538  23.484  1.00  0.00     0.022 A 
BRANCH  74  78
ATOM     78  S   UNL A   1      54.785  25.858  25.738  1.00  0.00     0.124 S 
ATOM     79  O   UNL A   1      55.685  25.571  24.624  1.00  0.00    -0.237 OA
ATOM     80  O   UNL A   1      55.110  27.034  26.536  1.00  0.00    -0.237 OA
ATOM     81  O   UNL A   1      54.357  24.686  26.500  1.00  0.00    -0.744 OA
ENDBRANCH  74  78
ENDBRANCH  57  71
BRANCH  58  82
ATOM     82  C   UNL A   1      42.951  29.851  30.360  1.00  0.00     0.023 A 
ATOM     83  C   UNL A   1      42.847  29.420  31.691  1.00  0.00     0.031 A 
ATOM     84  C   UNL A   1      41.884  30.594  29.824  1.00  0.00     0.131 A 
ATOM     85  C   UNL A   1      41.684  29.697  32.427  1.00  0.00     0.055 A 
ATOM     86  C   UNL A   1      40.754  30.915  30.576  1.00  0.00     0.041 A 
ATOM     87  F   UNL A   1      41.928  31.029  28.553  1.00  0.00    -0.206 F 
ATOM     88  C   UNL A   1      40.643  30.453  31.883  1.00  0.00     0.022 A 
BRANCH  85  89
ATOM     89  S   UNL A   1      41.510  28.975  34.083  1.00  0.00     0.124 S 
ATOM     90  O   UNL A   1      40.130  29.313  34.410  1.00  0.00    -0.237 OA
ATOM     91  O   UNL A   1      41.784  27.565  33.829  1.00  0.00    -0.237 OA
ATOM     92  O   UNL A   1      42.527  29.675  34.866  1.00  0.00    -0.744 OA
ENDBRANCH  85  89
ENDBRANCH  58  82
BRANCH  70  93
ATOM     93  C   UNL A   1      49.020  33.021  29.004  1.00  0.00     0.023 A 
ATOM     94  C   UNL A   1      48.814  34.175  28.227  1.00  0.00     0.031 A 
ATOM     95  C   UNL A   1      49.777  33.147  30.184  1.00  0.00     0.131 A 
ATOM     96  C   UNL A   1      49.407  35.389  28.607  1.00  0.00     0.055 A 
ATOM     97  C   UNL A   1      50.309  34.371  30.589  1.00  0.00     0.041 A 
ATOM     98  F   UNL A   1      50.009  32.079  30.964  1.00  0.00    -0.206 F 
ATOM     99  C   UNL A   1      50.138  35.499  29.793  1.00  0.00     0.022 A 
BRANCH  96 100
ATOM    100  S   UNL A   1      49.293  36.806  27.478  1.00  0.00     0.124 S 
ATOM    101  O   UNL A   1      49.487  37.933  28.386  1.00  0.00    -0.237 OA
ATOM    102  O   UNL A   1      50.381  36.547  26.542  1.00  0.00    -0.237 OA
ATOM    103  O   UNL A   1      47.950  36.688  26.915  1.00  0.00    -0.744 OA
ENDBRANCH  96 100
ENDBRANCH  70  93
ENDBRANCH  44  45
ENDBRANCH  37  39
ENDBRANCH  36  37
ENDBRANCH  35  36
ENDBRANCH  34  35
ENDBRANCH  33  34
ENDBRANCH  32  33
ENDBRANCH  31  32
ENDBRANCH  30  31
ENDBRANCH   1  30
TORSDOF 27
ENDMDL
