MODEL 1
REMARK VINA RESULT:     -11.4      0.000      0.000
REMARK SMILES CS(=O)(=O)c1ccc(/C=C(/C(=O)OCCOCCOC(=O)c2ccc(-c3c4nc(c(-c5cc(S(=O)(=O)[O-])ccc5F)c5ccc([nH]5)c(-c5cc(S(=O)(=O)[O-])ccc5F)c5nc(c(-c6cc(S(=O)(=O)[O-])ccc6F)c6ccc3[nH]6)C=C5)C=C4)cc2)c2cccc(Br)c2)cc1
REMARK SMILES IDX 17 1 16 2 15 3 14 4 13 5 11 6 12 7 10 8 9 9 8 10 5 11 6 12
REMARK SMILES IDX 93 13 7 14 92 15 2 16 1 17 3 18 4 19 85 20 86 21 91 22 87 23
REMARK SMILES IDX 89 24 88 25 90 26 18 27 19 28 20 29 21 30 22 31 23 32 84 33
REMARK SMILES IDX 24 34 83 35 25 36 26 37 27 38 77 39 28 40 82 41 76 42 78 43
REMARK SMILES IDX 29 44 81 45 75 46 74 47 30 49 62 50 42 51 61 52 43 53 46 54
REMARK SMILES IDX 60 55 79 56 44 57 45 58 59 60 80 61 47 62 31 63 32 64 40 65
REMARK SMILES IDX 33 66 39 67 41 68 38 69 34 70 35 71 36 72 37 73 63 74 64 75
REMARK SMILES IDX 72 76 65 77 71 78 73 79 70 80 66 81 67 82 68 83 69 84 48 85
REMARK SMILES IDX 49 86 57 87 50 88 56 89 58 90 55 91 51 92 52 93 53 94 54 95
REMARK H PARENT 78 48 46 59
REMARK Flexibility Score: inf
ROOT
ATOM      1  C   UNL A   1      31.726  29.398  25.968  1.00  0.00     0.202 C 
ENDROOT
BRANCH   1   2
ATOM      2  O   UNL A   1      31.033  29.384  24.724  1.00  0.00    -0.374 OA
BRANCH   2   3
ATOM      3  C   UNL A   1      30.701  28.118  24.157  1.00  0.00     0.202 C 
BRANCH   3   4
ATOM      4  C   UNL A   1      31.177  26.858  24.886  1.00  0.00     0.261 C 
BRANCH   4   5
ATOM      5  O   UNL A   1      31.446  25.774  23.980  1.00  0.00    -0.460 OA
BRANCH   5   6
ATOM      6  C   UNL A   1      32.766  25.490  23.824  1.00  0.00     0.338 C 
ATOM      7  O   UNL A   1      33.641  26.302  23.554  1.00  0.00    -0.246 OA
BRANCH   6   8
ATOM      8  C   UNL A   1      33.086  24.058  24.142  1.00  0.00     0.067 C 
ATOM      9  C   UNL A   1      32.097  23.154  24.344  1.00  0.00     0.024 C 
BRANCH   9  10
ATOM     10  C   UNL A   1      32.227  21.675  24.394  1.00  0.00    -0.025 A 
ATOM     11  C   UNL A   1      33.016  18.986  24.196  1.00  0.00     0.067 A 
ATOM     12  C   UNL A   1      33.038  19.629  25.434  1.00  0.00     0.021 A 
ATOM     13  C   UNL A   1      32.473  19.627  23.084  1.00  0.00     0.021 A 
ATOM     14  C   UNL A   1      32.607  20.955  25.534  1.00  0.00     0.009 A 
ATOM     15  C   UNL A   1      32.078  20.968  23.189  1.00  0.00     0.009 A 
BRANCH  11  16
ATOM     16  S   UNL A   1      33.779  17.388  24.063  1.00  0.00     0.175 S 
ATOM     17  C   UNL A   1      32.978  16.341  25.241  1.00  0.00     0.163 C 
ATOM     18  O   UNL A   1      35.157  17.534  24.495  1.00  0.00    -0.224 OA
ATOM     19  O   UNL A   1      33.465  16.891  22.737  1.00  0.00    -0.224 OA
ENDBRANCH  11  16
ENDBRANCH   9  10
BRANCH   8  20
ATOM     20  C   UNL A   1      34.524  23.720  24.141  1.00  0.00    -0.010 A 
ATOM     21  C   UNL A   1      35.085  23.115  23.001  1.00  0.00     0.009 A 
ATOM     22  C   UNL A   1      35.342  24.011  25.235  1.00  0.00     0.024 A 
ATOM     23  C   UNL A   1      36.446  22.821  22.948  1.00  0.00     0.002 A 
ATOM     24  C   UNL A   1      36.707  23.728  25.168  1.00  0.00     0.018 A 
ATOM     25  C   UNL A   1      37.261  23.135  24.033  1.00  0.00     0.016 A 
ATOM     26  Br  UNL A   1      37.825  24.182  26.622  1.00  0.00    -0.051 Br
ENDBRANCH   8  20
ENDBRANCH   6   8
ENDBRANCH   5   6
ENDBRANCH   4   5
ENDBRANCH   3   4
ENDBRANCH   2   3
ENDBRANCH   1   2
BRANCH   1  27
ATOM     27  C   UNL A   1      32.599  30.607  26.322  1.00  0.00     0.261 C 
BRANCH  27  28
ATOM     28  O   UNL A   1      33.752  30.264  27.102  1.00  0.00    -0.460 OA
BRANCH  28  29
ATOM     29  C   UNL A   1      34.393  31.328  27.647  1.00  0.00     0.338 C 
ATOM     30  O   UNL A   1      33.901  32.405  27.954  1.00  0.00    -0.246 OA
BRANCH  29  31
ATOM     31  C   UNL A   1      35.764  30.936  28.013  1.00  0.00     0.060 A 
ATOM     32  C   UNL A   1      36.060  29.568  28.092  1.00  0.00     0.016 A 
ATOM     33  C   UNL A   1      36.727  31.896  28.325  1.00  0.00     0.016 A 
ATOM     34  C   UNL A   1      37.314  29.152  28.529  1.00  0.00     0.010 A 
ATOM     35  C   UNL A   1      37.978  31.477  28.776  1.00  0.00     0.010 A 
ATOM     36  C   UNL A   1      38.264  30.105  28.913  1.00  0.00    -0.014 A 
BRANCH  36  37
ATOM     37  C   UNL A   1      39.488  29.692  29.638  1.00  0.00     0.031 A 
ATOM     38  C   UNL A   1      40.319  28.585  29.050  1.00  0.00     0.074 A 
ATOM     39  C   UNL A   1      39.837  30.269  30.800  1.00  0.00     0.049 A 
ATOM     40  N   UNL A   1      41.325  27.934  29.570  1.00  0.00    -0.248 NA
ATOM     41  C   UNL A   1      39.949  28.147  27.695  1.00  0.00     0.031 C 
ATOM     42  C   UNL A   1      39.144  31.393  31.425  1.00  0.00     0.029 A 
ATOM     43  N   UNL A   1      40.855  29.972  31.671  1.00  0.00    -0.354 N 
ATOM     44  C   UNL A   1      41.697  26.993  28.617  1.00  0.00     0.074 A 
ATOM     45  C   UNL A   1      40.787  27.140  27.501  1.00  0.00     0.031 C 
ATOM     46  C   UNL A   1      39.743  31.675  32.595  1.00  0.00     0.029 A 
ATOM     47  C   UNL A   1      40.824  30.718  32.825  1.00  0.00     0.049 A 
ATOM     48  H   UNL A   1      41.539  29.289  31.488  1.00  0.00     0.167 HD
ATOM     49  C   UNL A   1      42.707  26.090  28.670  1.00  0.00     0.034 A 
ATOM     50  C   UNL A   1      41.558  30.610  33.952  1.00  0.00     0.034 A 
ATOM     51  C   UNL A   1      43.595  25.959  29.799  1.00  0.00     0.049 A 
ATOM     52  C   UNL A   1      42.618  29.534  34.031  1.00  0.00     0.074 A 
ATOM     53  C   UNL A   1      44.655  25.086  29.964  1.00  0.00     0.029 A 
ATOM     54  N   UNL A   1      43.519  26.716  30.962  1.00  0.00    -0.354 N 
ATOM     55  N   UNL A   1      42.952  28.634  33.134  1.00  0.00    -0.248 NA
ATOM     56  C   UNL A   1      43.402  29.463  35.272  1.00  0.00     0.031 C 
ATOM     57  C   UNL A   1      45.168  25.261  31.254  1.00  0.00     0.029 A 
ATOM     58  C   UNL A   1      44.493  26.309  31.859  1.00  0.00     0.049 A 
ATOM     59  H   UNL A   1      42.869  27.438  31.125  1.00  0.00     0.167 HD
ATOM     60  C   UNL A   1      44.016  27.923  33.685  1.00  0.00     0.074 A 
ATOM     61  C   UNL A   1      44.265  28.497  34.992  1.00  0.00     0.031 C 
ATOM     62  C   UNL A   1      44.732  26.899  33.156  1.00  0.00     0.034 A 
BRANCH  49  63
ATOM     63  C   UNL A   1      42.856  25.143  27.505  1.00  0.00     0.023 A 
ATOM     64  C   UNL A   1      42.120  23.949  27.419  1.00  0.00     0.031 A 
ATOM     65  C   UNL A   1      43.777  25.422  26.480  1.00  0.00     0.131 A 
ATOM     66  C   UNL A   1      42.371  23.046  26.375  1.00  0.00     0.055 A 
ATOM     67  C   UNL A   1      43.960  24.560  25.397  1.00  0.00     0.041 A 
ATOM     68  F   UNL A   1      44.530  26.533  26.521  1.00  0.00    -0.206 F 
ATOM     69  C   UNL A   1      43.265  23.356  25.348  1.00  0.00     0.022 A 
BRANCH  66  70
ATOM     70  S   UNL A   1      41.627  21.394  26.461  1.00  0.00     0.124 S 
ATOM     71  O   UNL A   1      42.318  20.703  25.375  1.00  0.00    -0.237 OA
ATOM     72  O   UNL A   1      41.968  20.964  27.811  1.00  0.00    -0.237 OA
ATOM     73  O   UNL A   1      40.207  21.644  26.225  1.00  0.00    -0.744 OA
ENDBRANCH  66  70
ENDBRANCH  49  63
BRANCH  50  74
ATOM     74  C   UNL A   1      41.294  31.505  35.115  1.00  0.00     0.023 A 
ATOM     75  C   UNL A   1      40.074  31.452  35.806  1.00  0.00     0.031 A 
ATOM     76  C   UNL A   1      42.238  32.469  35.517  1.00  0.00     0.131 A 
ATOM     77  C   UNL A   1      39.809  32.376  36.828  1.00  0.00     0.055 A 
ATOM     78  C   UNL A   1      41.992  33.346  36.575  1.00  0.00     0.041 A 
ATOM     79  F   UNL A   1      43.420  32.566  34.890  1.00  0.00    -0.206 F 
ATOM     80  C   UNL A   1      40.764  33.312  37.229  1.00  0.00     0.022 A 
BRANCH  77  81
ATOM     81  S   UNL A   1      38.151  32.401  37.564  1.00  0.00     0.124 S 
ATOM     82  O   UNL A   1      37.801  33.812  37.455  1.00  0.00    -0.237 OA
ATOM     83  O   UNL A   1      37.421  31.487  36.692  1.00  0.00    -0.237 OA
ATOM     84  O   UNL A   1      38.376  31.916  38.924  1.00  0.00    -0.744 OA
ENDBRANCH  77  81
ENDBRANCH  50  74
BRANCH  62  85
ATOM     85  C   UNL A   1      45.909  26.385  33.952  1.00  0.00     0.023 A 
ATOM     86  C   UNL A   1      45.798  25.308  34.847  1.00  0.00     0.031 A 
ATOM     87  C   UNL A   1      47.174  26.980  33.786  1.00  0.00     0.131 A 
ATOM     88  C   UNL A   1      46.922  24.887  35.575  1.00  0.00     0.055 A 
ATOM     89  C   UNL A   1      48.301  26.516  34.465  1.00  0.00     0.041 A 
ATOM     90  F   UNL A   1      47.338  28.014  32.945  1.00  0.00    -0.206 F 
ATOM     91  C   UNL A   1      48.176  25.471  35.374  1.00  0.00     0.022 A 
BRANCH  88  92
ATOM     92  S   UNL A   1      46.713  23.613  36.849  1.00  0.00     0.124 S 
ATOM     93  O   UNL A   1      46.731  24.404  38.075  1.00  0.00    -0.237 OA
ATOM     94  O   UNL A   1      45.427  23.022  36.492  1.00  0.00    -0.237 OA
ATOM     95  O   UNL A   1      47.870  22.741  36.657  1.00  0.00    -0.744 OA
ENDBRANCH  88  92
ENDBRANCH  62  85
ENDBRANCH  36  37
ENDBRANCH  29  31
ENDBRANCH  28  29
ENDBRANCH  27  28
ENDBRANCH   1  27
TORSDOF 20
ENDMDL
MODEL 2
REMARK VINA RESULT:     -11.3      4.370     11.463
REMARK SMILES CS(=O)(=O)c1ccc(/C=C(/C(=O)OCCOCCOC(=O)c2ccc(-c3c4nc(c(-c5cc(S(=O)(=O)[O-])ccc5F)c5ccc([nH]5)c(-c5cc(S(=O)(=O)[O-])ccc5F)c5nc(c(-c6cc(S(=O)(=O)[O-])ccc6F)c6ccc3[nH]6)C=C5)C=C4)cc2)c2cccc(Br)c2)cc1
REMARK SMILES IDX 17 1 16 2 15 3 14 4 13 5 11 6 12 7 10 8 9 9 8 10 5 11 6 12
REMARK SMILES IDX 93 13 7 14 92 15 2 16 1 17 3 18 4 19 85 20 86 21 91 22 87 23
REMARK SMILES IDX 89 24 88 25 90 26 18 27 19 28 20 29 21 30 22 31 23 32 84 33
REMARK SMILES IDX 24 34 83 35 25 36 26 37 27 38 77 39 28 40 82 41 76 42 78 43
REMARK SMILES IDX 29 44 81 45 75 46 74 47 30 49 62 50 42 51 61 52 43 53 46 54
REMARK SMILES IDX 60 55 79 56 44 57 45 58 59 60 80 61 47 62 31 63 32 64 40 65
REMARK SMILES IDX 33 66 39 67 41 68 38 69 34 70 35 71 36 72 37 73 63 74 64 75
REMARK SMILES IDX 72 76 65 77 71 78 73 79 70 80 66 81 67 82 68 83 69 84 48 85
REMARK SMILES IDX 49 86 57 87 50 88 56 89 58 90 55 91 51 92 52 93 53 94 54 95
REMARK H PARENT 78 48 46 59
REMARK Flexibility Score: inf
ROOT
ATOM      1  C   UNL A   1      34.908  33.523  28.980  1.00  0.00     0.202 C 
ENDROOT
BRANCH   1   2
ATOM      2  O   UNL A   1      36.164  33.760  28.353  1.00  0.00    -0.374 OA
BRANCH   2   3
ATOM      3  C   UNL A   1      37.333  33.221  28.969  1.00  0.00     0.202 C 
BRANCH   3   4
ATOM      4  C   UNL A   1      38.507  34.168  29.234  1.00  0.00     0.261 C 
BRANCH   4   5
ATOM      5  O   UNL A   1      38.449  34.752  30.547  1.00  0.00    -0.460 OA
BRANCH   5   6
ATOM      6  C   UNL A   1      39.311  34.203  31.442  1.00  0.00     0.338 C 
ATOM      7  O   UNL A   1      40.516  34.073  31.281  1.00  0.00    -0.246 OA
BRANCH   6   8
ATOM      8  C   UNL A   1      38.647  33.867  32.746  1.00  0.00     0.067 C 
ATOM      9  C   UNL A   1      39.378  33.701  33.875  1.00  0.00     0.024 C 
BRANCH   9  10
ATOM     10  C   UNL A   1      38.874  33.641  35.271  1.00  0.00    -0.025 A 
ATOM     11  C   UNL A   1      38.439  33.185  38.010  1.00  0.00     0.067 A 
ATOM     12  C   UNL A   1      38.814  34.453  37.566  1.00  0.00     0.021 A 
ATOM     13  C   UNL A   1      38.144  32.181  37.090  1.00  0.00     0.021 A 
ATOM     14  C   UNL A   1      38.991  34.684  36.198  1.00  0.00     0.009 A 
ATOM     15  C   UNL A   1      38.360  32.414  35.725  1.00  0.00     0.009 A 
BRANCH  11  16
ATOM     16  S   UNL A   1      38.445  32.868  39.757  1.00  0.00     0.175 S 
ATOM     17  C   UNL A   1      40.139  32.838  40.263  1.00  0.00     0.163 C 
ATOM     18  O   UNL A   1      37.922  31.528  39.951  1.00  0.00    -0.224 OA
ATOM     19  O   UNL A   1      37.811  34.012  40.385  1.00  0.00    -0.224 OA
ENDBRANCH  11  16
ENDBRANCH   9  10
BRANCH   8  20
ATOM     20  C   UNL A   1      37.171  33.810  32.704  1.00  0.00    -0.010 A 
ATOM     21  C   UNL A   1      36.539  32.573  32.486  1.00  0.00     0.009 A 
ATOM     22  C   UNL A   1      36.392  34.953  32.902  1.00  0.00     0.024 A 
ATOM     23  C   UNL A   1      35.149  32.474  32.483  1.00  0.00     0.002 A 
ATOM     24  C   UNL A   1      35.001  34.843  32.912  1.00  0.00     0.018 A 
ATOM     25  C   UNL A   1      34.377  33.612  32.703  1.00  0.00     0.016 A 
ATOM     26  Br  UNL A   1      33.948  36.376  33.245  1.00  0.00    -0.051 Br
ENDBRANCH   8  20
ENDBRANCH   6   8
ENDBRANCH   5   6
ENDBRANCH   4   5
ENDBRANCH   3   4
ENDBRANCH   2   3
ENDBRANCH   1   2
BRANCH   1  27
ATOM     27  C   UNL A   1      33.967  32.468  28.388  1.00  0.00     0.261 C 
BRANCH  27  28
ATOM     28  O   UNL A   1      34.526  31.776  27.264  1.00  0.00    -0.460 OA
BRANCH  28  29
ATOM     29  C   UNL A   1      34.611  30.433  27.423  1.00  0.00     0.338 C 
ATOM     30  O   UNL A   1      33.862  29.587  26.954  1.00  0.00    -0.246 OA
BRANCH  29  31
ATOM     31  C   UNL A   1      35.878  30.100  28.096  1.00  0.00     0.060 A 
ATOM     32  C   UNL A   1      37.052  30.104  27.330  1.00  0.00     0.016 A 
ATOM     33  C   UNL A   1      35.903  29.739  29.443  1.00  0.00     0.016 A 
ATOM     34  C   UNL A   1      38.256  29.702  27.901  1.00  0.00     0.010 A 
ATOM     35  C   UNL A   1      37.108  29.323  30.010  1.00  0.00     0.010 A 
ATOM     36  C   UNL A   1      38.280  29.270  29.232  1.00  0.00    -0.014 A 
BRANCH  36  37
ATOM     37  C   UNL A   1      39.474  28.580  29.773  1.00  0.00     0.031 A 
ATOM     38  C   UNL A   1      40.106  29.132  31.020  1.00  0.00     0.074 A 
ATOM     39  C   UNL A   1      39.996  27.506  29.156  1.00  0.00     0.049 A 
ATOM     40  N   UNL A   1      41.241  28.818  31.587  1.00  0.00    -0.248 NA
ATOM     41  C   UNL A   1      39.358  30.193  31.710  1.00  0.00     0.031 C 
ATOM     42  C   UNL A   1      39.428  26.847  27.982  1.00  0.00     0.029 A 
ATOM     43  N   UNL A   1      41.137  26.792  29.425  1.00  0.00    -0.354 N 
ATOM     44  C   UNL A   1      41.355  29.658  32.689  1.00  0.00     0.074 A 
ATOM     45  C   UNL A   1      40.189  30.515  32.690  1.00  0.00     0.031 C 
ATOM     46  C   UNL A   1      40.238  25.839  27.615  1.00  0.00     0.029 A 
ATOM     47  C   UNL A   1      41.406  25.817  28.494  1.00  0.00     0.049 A 
ATOM     48  H   UNL A   1      41.708  26.964  30.208  1.00  0.00     0.167 HD
ATOM     49  C   UNL A   1      42.345  29.707  33.614  1.00  0.00     0.034 A 
ATOM     50  C   UNL A   1      42.491  25.029  28.347  1.00  0.00     0.034 A 
ATOM     51  C   UNL A   1      43.502  28.847  33.585  1.00  0.00     0.049 A 
ATOM     52  C   UNL A   1      43.630  25.164  29.334  1.00  0.00     0.074 A 
ATOM     53  C   UNL A   1      44.565  28.802  34.469  1.00  0.00     0.029 A 
ATOM     54  N   UNL A   1      43.754  27.887  32.612  1.00  0.00    -0.354 N 
ATOM     55  N   UNL A   1      43.741  25.974  30.362  1.00  0.00    -0.248 NA
ATOM     56  C   UNL A   1      44.784  24.276  29.143  1.00  0.00     0.031 C 
ATOM     57  C   UNL A   1      45.494  27.873  33.989  1.00  0.00     0.029 A 
ATOM     58  C   UNL A   1      44.968  27.267  32.859  1.00  0.00     0.049 A 
ATOM     59  H   UNL A   1      43.156  27.676  31.858  1.00  0.00     0.167 HD
ATOM     60  C   UNL A   1      44.956  25.658  30.966  1.00  0.00     0.074 A 
ATOM     61  C   UNL A   1      45.540  24.587  30.185  1.00  0.00     0.031 C 
ATOM     62  C   UNL A   1      45.532  26.193  32.073  1.00  0.00     0.034 A 
BRANCH  49  63
ATOM     63  C   UNL A   1      42.243  30.763  34.687  1.00  0.00     0.023 A 
ATOM     64  C   UNL A   1      42.636  32.093  34.461  1.00  0.00     0.031 A 
ATOM     65  C   UNL A   1      41.775  30.425  35.969  1.00  0.00     0.131 A 
ATOM     66  C   UNL A   1      42.627  33.015  35.519  1.00  0.00     0.055 A 
ATOM     67  C   UNL A   1      41.686  31.368  36.995  1.00  0.00     0.041 A 
ATOM     68  F   UNL A   1      41.412  29.165  36.255  1.00  0.00    -0.206 F 
ATOM     69  C   UNL A   1      42.129  32.669  36.777  1.00  0.00     0.022 A 
BRANCH  66  70
ATOM     70  S   UNL A   1      43.420  34.627  35.270  1.00  0.00     0.124 S 
ATOM     71  O   UNL A   1      42.326  35.544  35.581  1.00  0.00    -0.237 OA
ATOM     72  O   UNL A   1      44.517  34.592  36.230  1.00  0.00    -0.237 OA
ATOM     73  O   UNL A   1      43.819  34.600  33.865  1.00  0.00    -0.744 OA
ENDBRANCH  66  70
ENDBRANCH  49  63
BRANCH  50  74
ATOM     74  C   UNL A   1      42.585  24.077  27.203  1.00  0.00     0.023 A 
ATOM     75  C   UNL A   1      41.997  22.806  27.270  1.00  0.00     0.031 A 
ATOM     76  C   UNL A   1      43.315  24.405  26.045  1.00  0.00     0.131 A 
ATOM     77  C   UNL A   1      42.189  21.890  26.224  1.00  0.00     0.055 A 
ATOM     78  C   UNL A   1      43.453  23.512  24.982  1.00  0.00     0.041 A 
ATOM     79  F   UNL A   1      43.901  25.607  25.928  1.00  0.00    -0.206 F 
ATOM     80  C   UNL A   1      42.899  22.239  25.073  1.00  0.00     0.022 A 
BRANCH  77  81
ATOM     81  S   UNL A   1      41.578  20.195  26.434  1.00  0.00     0.124 S 
ATOM     82  O   UNL A   1      42.375  19.471  25.450  1.00  0.00    -0.237 OA
ATOM     83  O   UNL A   1      41.891  19.933  27.835  1.00  0.00    -0.237 OA
ATOM     84  O   UNL A   1      40.155  20.307  26.125  1.00  0.00    -0.744 OA
ENDBRANCH  77  81
ENDBRANCH  50  74
BRANCH  62  85
ATOM     85  C   UNL A   1      46.821  25.574  32.558  1.00  0.00     0.023 A 
ATOM     86  C   UNL A   1      46.854  24.609  33.578  1.00  0.00     0.031 A 
ATOM     87  C   UNL A   1      48.041  25.948  31.961  1.00  0.00     0.131 A 
ATOM     88  C   UNL A   1      48.085  24.083  34.002  1.00  0.00     0.055 A 
ATOM     89  C   UNL A   1      49.254  25.376  32.344  1.00  0.00     0.041 A 
ATOM     90  F   UNL A   1      48.069  26.868  30.983  1.00  0.00    -0.206 F 
ATOM     91  C   UNL A   1      49.282  24.445  33.377  1.00  0.00     0.022 A 
BRANCH  88  92
ATOM     92  S   UNL A   1      48.114  22.972  35.435  1.00  0.00     0.124 S 
ATOM     93  O   UNL A   1      48.516  21.707  34.830  1.00  0.00    -0.237 OA
ATOM     94  O   UNL A   1      49.103  23.606  36.302  1.00  0.00    -0.237 OA
ATOM     95  O   UNL A   1      46.740  23.014  35.932  1.00  0.00    -0.744 OA
ENDBRANCH  88  92
ENDBRANCH  62  85
ENDBRANCH  36  37
ENDBRANCH  29  31
ENDBRANCH  28  29
ENDBRANCH  27  28
ENDBRANCH   1  27
TORSDOF 20
ENDMDL
MODEL 3
REMARK VINA RESULT:     -11.2      2.348      2.687
REMARK SMILES CS(=O)(=O)c1ccc(/C=C(/C(=O)OCCOCCOC(=O)c2ccc(-c3c4nc(c(-c5cc(S(=O)(=O)[O-])ccc5F)c5ccc([nH]5)c(-c5cc(S(=O)(=O)[O-])ccc5F)c5nc(c(-c6cc(S(=O)(=O)[O-])ccc6F)c6ccc3[nH]6)C=C5)C=C4)cc2)c2cccc(Br)c2)cc1
REMARK SMILES IDX 17 1 16 2 15 3 14 4 13 5 11 6 12 7 10 8 9 9 8 10 5 11 6 12
REMARK SMILES IDX 93 13 7 14 92 15 2 16 1 17 3 18 4 19 85 20 86 21 91 22 87 23
REMARK SMILES IDX 89 24 88 25 90 26 18 27 19 28 20 29 21 30 22 31 23 32 84 33
REMARK SMILES IDX 24 34 83 35 25 36 26 37 27 38 77 39 28 40 82 41 76 42 78 43
REMARK SMILES IDX 29 44 81 45 75 46 74 47 30 49 62 50 42 51 61 52 43 53 46 54
REMARK SMILES IDX 60 55 79 56 44 57 45 58 59 60 80 61 47 62 31 63 32 64 40 65
REMARK SMILES IDX 33 66 39 67 41 68 38 69 34 70 35 71 36 72 37 73 63 74 64 75
REMARK SMILES IDX 72 76 65 77 71 78 73 79 70 80 66 81 67 82 68 83 69 84 48 85
REMARK SMILES IDX 49 86 57 87 50 88 56 89 58 90 55 91 51 92 52 93 53 94 54 95
REMARK H PARENT 78 48 46 59
REMARK Flexibility Score: inf
ROOT
ATOM      1  C   UNL A   1      31.811  29.276  25.731  1.00  0.00     0.202 C 
ENDROOT
BRANCH   1   2
ATOM      2  O   UNL A   1      30.963  29.314  24.587  1.00  0.00    -0.374 OA
BRANCH   2   3
ATOM      3  C   UNL A   1      30.831  28.124  23.811  1.00  0.00     0.202 C 
BRANCH   3   4
ATOM      4  C   UNL A   1      31.457  26.838  24.357  1.00  0.00     0.261 C 
BRANCH   4   5
ATOM      5  O   UNL A   1      31.706  25.871  23.322  1.00  0.00    -0.460 OA
BRANCH   5   6
ATOM      6  C   UNL A   1      33.004  25.485  23.215  1.00  0.00     0.338 C 
ATOM      7  O   UNL A   1      33.932  26.201  22.866  1.00  0.00    -0.246 OA
BRANCH   6   8
ATOM      8  C   UNL A   1      33.226  24.081  23.699  1.00  0.00     0.067 C 
ATOM      9  C   UNL A   1      32.185  23.226  23.849  1.00  0.00     0.024 C 
BRANCH   9  10
ATOM     10  C   UNL A   1      32.252  21.755  24.047  1.00  0.00    -0.025 A 
ATOM     11  C   UNL A   1      32.917  19.026  24.107  1.00  0.00     0.067 A 
ATOM     12  C   UNL A   1      32.999  19.788  25.273  1.00  0.00     0.021 A 
ATOM     13  C   UNL A   1      32.375  19.576  22.947  1.00  0.00     0.021 A 
ATOM     14  C   UNL A   1      32.628  21.136  25.246  1.00  0.00     0.009 A 
ATOM     15  C   UNL A   1      32.042  20.937  22.923  1.00  0.00     0.009 A 
BRANCH  11  16
ATOM     16  S   UNL A   1      33.606  17.389  24.122  1.00  0.00     0.175 S 
ATOM     17  C   UNL A   1      32.726  16.477  25.355  1.00  0.00     0.163 C 
ATOM     18  O   UNL A   1      34.978  17.505  24.580  1.00  0.00    -0.224 OA
ATOM     19  O   UNL A   1      33.301  16.803  22.830  1.00  0.00    -0.224 OA
ENDBRANCH  11  16
ENDBRANCH   9  10
BRANCH   8  20
ATOM     20  C   UNL A   1      34.638  23.707  23.916  1.00  0.00    -0.010 A 
ATOM     21  C   UNL A   1      35.320  22.992  22.915  1.00  0.00     0.009 A 
ATOM     22  C   UNL A   1      35.317  24.070  25.082  1.00  0.00     0.024 A 
ATOM     23  C   UNL A   1      36.664  22.659  23.067  1.00  0.00     0.002 A 
ATOM     24  C   UNL A   1      36.668  23.746  25.220  1.00  0.00     0.018 A 
ATOM     25  C   UNL A   1      37.342  23.044  24.221  1.00  0.00     0.016 A 
ATOM     26  Br  UNL A   1      37.603  24.294  26.768  1.00  0.00    -0.051 Br
ENDBRANCH   8  20
ENDBRANCH   6   8
ENDBRANCH   5   6
ENDBRANCH   4   5
ENDBRANCH   3   4
ENDBRANCH   2   3
ENDBRANCH   1   2
BRANCH   1  27
ATOM     27  C   UNL A   1      32.151  30.584  26.452  1.00  0.00     0.261 C 
BRANCH  27  28
ATOM     28  O   UNL A   1      33.223  30.449  27.395  1.00  0.00    -0.460 OA
BRANCH  28  29
ATOM     29  C   UNL A   1      33.922  31.590  27.612  1.00  0.00     0.338 C 
ATOM     30  O   UNL A   1      33.497  32.736  27.550  1.00  0.00    -0.246 OA
BRANCH  29  31
ATOM     31  C   UNL A   1      35.254  31.254  28.139  1.00  0.00     0.060 A 
ATOM     32  C   UNL A   1      35.463  29.955  28.624  1.00  0.00     0.016 A 
ATOM     33  C   UNL A   1      36.264  32.214  28.206  1.00  0.00     0.016 A 
ATOM     34  C   UNL A   1      36.675  29.621  29.221  1.00  0.00     0.010 A 
ATOM     35  C   UNL A   1      37.474  31.881  28.817  1.00  0.00     0.010 A 
ATOM     36  C   UNL A   1      37.670  30.596  29.357  1.00  0.00    -0.014 A 
BRANCH  36  37
ATOM     37  C   UNL A   1      38.844  30.350  30.227  1.00  0.00     0.031 A 
ATOM     38  C   UNL A   1      39.906  29.407  29.734  1.00  0.00     0.074 A 
ATOM     39  C   UNL A   1      38.949  30.932  31.434  1.00  0.00     0.049 A 
ATOM     40  N   UNL A   1      40.928  28.900  30.369  1.00  0.00    -0.248 NA
ATOM     41  C   UNL A   1      39.782  28.967  28.336  1.00  0.00     0.031 C 
ATOM     42  C   UNL A   1      38.015  31.912  31.983  1.00  0.00     0.029 A 
ATOM     43  N   UNL A   1      39.884  30.763  32.424  1.00  0.00    -0.354 N 
ATOM     44  C   UNL A   1      41.560  28.063  29.456  1.00  0.00     0.074 A 
ATOM     45  C   UNL A   1      40.785  28.108  28.235  1.00  0.00     0.031 C 
ATOM     46  C   UNL A   1      38.411  32.240  33.225  1.00  0.00     0.029 A 
ATOM     47  C   UNL A   1      39.592  31.454  33.576  1.00  0.00     0.049 A 
ATOM     48  H   UNL A   1      40.685  30.201  32.320  1.00  0.00     0.167 HD
ATOM     49  C   UNL A   1      42.685  27.326  29.625  1.00  0.00     0.034 A 
ATOM     50  C   UNL A   1      40.188  31.419  34.787  1.00  0.00     0.034 A 
ATOM     51  C   UNL A   1      43.435  27.292  30.857  1.00  0.00     0.049 A 
ATOM     52  C   UNL A   1      41.385  30.518  34.985  1.00  0.00     0.074 A 
ATOM     53  C   UNL A   1      44.591  26.588  31.143  1.00  0.00     0.029 A 
ATOM     54  N   UNL A   1      43.096  27.986  32.012  1.00  0.00    -0.354 N 
ATOM     55  N   UNL A   1      41.967  29.713  34.124  1.00  0.00    -0.248 NA
ATOM     56  C   UNL A   1      42.009  30.524  36.315  1.00  0.00     0.031 C 
ATOM     57  C   UNL A   1      44.904  26.793  32.491  1.00  0.00     0.029 A 
ATOM     58  C   UNL A   1      44.002  27.702  33.021  1.00  0.00     0.049 A 
ATOM     59  H   UNL A   1      42.325  28.592  32.101  1.00  0.00     0.167 HD
ATOM     60  C   UNL A   1      43.052  29.155  34.796  1.00  0.00     0.074 A 
ATOM     61  C   UNL A   1      43.042  29.713  36.133  1.00  0.00     0.031 C 
ATOM     62  C   UNL A   1      43.981  28.274  34.347  1.00  0.00     0.034 A 
BRANCH  49  63
ATOM     63  C   UNL A   1      43.127  26.456  28.473  1.00  0.00     0.023 A 
ATOM     64  C   UNL A   1      44.231  26.790  27.671  1.00  0.00     0.031 A 
ATOM     65  C   UNL A   1      42.409  25.291  28.151  1.00  0.00     0.131 A 
ATOM     66  C   UNL A   1      44.539  26.012  26.545  1.00  0.00     0.055 A 
ATOM     67  C   UNL A   1      42.774  24.472  27.081  1.00  0.00     0.041 A 
ATOM     68  F   UNL A   1      41.328  24.935  28.863  1.00  0.00    -0.206 F 
ATOM     69  C   UNL A   1      43.836  24.840  26.261  1.00  0.00     0.022 A 
BRANCH  66  70
ATOM     70  S   UNL A   1      45.773  26.637  25.371  1.00  0.00     0.124 S 
ATOM     71  O   UNL A   1      46.007  25.460  24.536  1.00  0.00    -0.237 OA
ATOM     72  O   UNL A   1      45.069  27.743  24.733  1.00  0.00    -0.237 OA
ATOM     73  O   UNL A   1      46.896  27.018  26.224  1.00  0.00    -0.744 OA
ENDBRANCH  66  70
ENDBRANCH  49  63
BRANCH  50  74
ATOM     74  C   UNL A   1      39.642  32.220  35.921  1.00  0.00     0.023 A 
ATOM     75  C   UNL A   1      38.811  31.633  36.887  1.00  0.00     0.031 A 
ATOM     76  C   UNL A   1      39.898  33.600  36.023  1.00  0.00     0.131 A 
ATOM     77  C   UNL A   1      38.226  32.430  37.883  1.00  0.00     0.055 A 
ATOM     78  C   UNL A   1      39.361  34.376  37.051  1.00  0.00     0.041 A 
ATOM     79  F   UNL A   1      40.683  34.215  35.124  1.00  0.00    -0.206 F 
ATOM     80  C   UNL A   1      38.506  33.794  37.982  1.00  0.00     0.022 A 
BRANCH  77  81
ATOM     81  S   UNL A   1      37.007  31.671  38.993  1.00  0.00     0.124 S 
ATOM     82  O   UNL A   1      35.848  32.533  38.791  1.00  0.00    -0.237 OA
ATOM     83  O   UNL A   1      36.907  30.320  38.453  1.00  0.00    -0.237 OA
ATOM     84  O   UNL A   1      37.639  31.771  40.307  1.00  0.00    -0.744 OA
ENDBRANCH  77  81
ENDBRANCH  50  74
BRANCH  62  85
ATOM     85  C   UNL A   1      45.115  27.920  35.280  1.00  0.00     0.023 A 
ATOM     86  C   UNL A   1      46.300  28.672  35.343  1.00  0.00     0.031 A 
ATOM     87  C   UNL A   1      44.988  26.813  36.141  1.00  0.00     0.131 A 
ATOM     88  C   UNL A   1      47.328  28.284  36.215  1.00  0.00     0.055 A 
ATOM     89  C   UNL A   1      45.989  26.468  37.050  1.00  0.00     0.041 A 
ATOM     90  F   UNL A   1      43.879  26.057  36.122  1.00  0.00    -0.206 F 
ATOM     91  C   UNL A   1      47.171  27.199  37.083  1.00  0.00     0.022 A 
BRANCH  88  92
ATOM     92  S   UNL A   1      48.911  29.167  36.150  1.00  0.00     0.124 S 
ATOM     93  O   UNL A   1      48.553  30.379  35.422  1.00  0.00    -0.237 OA
ATOM     94  O   UNL A   1      49.229  29.343  37.564  1.00  0.00    -0.237 OA
ATOM     95  O   UNL A   1      49.789  28.247  35.428  1.00  0.00    -0.744 OA
ENDBRANCH  88  92
ENDBRANCH  62  85
ENDBRANCH  36  37
ENDBRANCH  29  31
ENDBRANCH  28  29
ENDBRANCH  27  28
ENDBRANCH   1  27
TORSDOF 20
ENDMDL
