MODEL 1
REMARK VINA RESULT:     -11.1      0.000      0.000
REMARK SMILES O=C(OCCOCCOC(=O)c1cc(S(=O)(=O)Nc2cccc(Cl)c2)ccc1O)c1ccc(-c2c3nc(c(-c4cc(S(=O)(=O)[O-])ccc4F)c4ccc([nH]4)c(-c4cc(S(=O)(=O)[O-])ccc4F)c4nc(c(-c5cc(S(=O)(=O)[O-])ccc5F)c5ccc2[nH]5)C=C4)C=C3)cc1
REMARK SMILES IDX 6 1 5 2 4 3 3 4 2 5 1 6 30 7 31 8 92 9 32 10 91 11 33 12
REMARK SMILES IDX 34 13 35 14 85 15 36 16 90 17 84 18 86 19 37 20 89 21 83 22
REMARK SMILES IDX 82 23 38 25 70 26 50 27 69 28 51 29 54 30 68 31 87 32 52 33
REMARK SMILES IDX 53 34 67 36 88 37 55 38 39 39 40 40 48 41 41 42 47 43 49 44
REMARK SMILES IDX 46 45 42 46 43 47 44 48 45 49 71 50 72 51 80 52 73 53 79 54
REMARK SMILES IDX 81 55 78 56 74 57 75 58 76 59 77 60 56 61 57 62 65 63 58 64
REMARK SMILES IDX 64 65 66 66 63 67 59 68 60 69 61 70 62 71 7 72 8 73 9 74
REMARK SMILES IDX 10 75 11 76 12 77 13 78 28 79 14 80 27 81 26 82 29 83 15 85
REMARK SMILES IDX 16 86 17 87 18 88 19 90 20 91 25 92 21 93 23 94 22 95 24 96
REMARK H PARENT 86 24 54 35 29 84 18 89
REMARK Flexibility Score: inf
ROOT
ATOM      1  O   UNL A   1      35.509  22.805  24.965  1.00  0.00    -0.374 OA
ENDROOT
BRANCH   1   2
ATOM      2  C   UNL A   1      36.765  22.290  24.518  1.00  0.00     0.202 C 
BRANCH   2   3
ATOM      3  C   UNL A   1      37.344  21.154  25.367  1.00  0.00     0.261 C 
BRANCH   3   4
ATOM      4  O   UNL A   1      38.782  21.216  25.357  1.00  0.00    -0.460 OA
BRANCH   4   5
ATOM      5  C   UNL A   1      39.627  21.401  26.397  1.00  0.00     0.338 C 
ATOM      6  O   UNL A   1      40.080  20.408  26.965  1.00  0.00    -0.246 OA
BRANCH   5   7
ATOM      7  C   UNL A   1      40.038  22.747  26.905  1.00  0.00     0.060 A 
ATOM      8  C   UNL A   1      39.433  23.952  26.545  1.00  0.00     0.016 A 
ATOM      9  C   UNL A   1      41.052  22.785  27.878  1.00  0.00     0.016 A 
ATOM     10  C   UNL A   1      39.875  25.164  27.054  1.00  0.00     0.010 A 
ATOM     11  C   UNL A   1      41.470  23.999  28.436  1.00  0.00     0.010 A 
ATOM     12  C   UNL A   1      40.898  25.198  27.997  1.00  0.00    -0.014 A 
BRANCH  12  13
ATOM     13  C   UNL A   1      41.415  26.521  28.393  1.00  0.00     0.031 A 
ATOM     14  C   UNL A   1      42.805  26.894  27.971  1.00  0.00     0.074 A 
ATOM     15  C   UNL A   1      40.584  27.412  28.964  1.00  0.00     0.049 A 
ATOM     16  N   UNL A   1      43.453  28.013  28.147  1.00  0.00    -0.248 NA
ATOM     17  C   UNL A   1      43.558  25.866  27.236  1.00  0.00     0.031 C 
ATOM     18  C   UNL A   1      39.180  27.156  29.296  1.00  0.00     0.029 A 
ATOM     19  N   UNL A   1      40.776  28.720  29.319  1.00  0.00    -0.354 N 
ATOM     20  C   UNL A   1      44.698  27.821  27.557  1.00  0.00     0.074 A 
ATOM     21  C   UNL A   1      44.718  26.470  27.039  1.00  0.00     0.031 C 
ATOM     22  C   UNL A   1      38.627  28.285  29.768  1.00  0.00     0.029 A 
ATOM     23  C   UNL A   1      39.650  29.325  29.830  1.00  0.00     0.049 A 
ATOM     24  H   UNL A   1      41.638  29.185  29.219  1.00  0.00     0.167 HD
ATOM     25  C   UNL A   1      45.726  28.698  27.464  1.00  0.00     0.034 A 
ATOM     26  C   UNL A   1      39.479  30.573  30.306  1.00  0.00     0.034 A 
ATOM     27  C   UNL A   1      45.671  30.028  28.016  1.00  0.00     0.049 A 
ATOM     28  C   UNL A   1      40.668  31.500  30.275  1.00  0.00     0.074 A 
ATOM     29  C   UNL A   1      46.667  30.985  28.083  1.00  0.00     0.029 A 
ATOM     30  N   UNL A   1      44.541  30.588  28.606  1.00  0.00    -0.354 N 
ATOM     31  N   UNL A   1      41.871  31.284  29.787  1.00  0.00    -0.248 NA
ATOM     32  C   UNL A   1      40.483  32.833  30.856  1.00  0.00     0.031 C 
ATOM     33  C   UNL A   1      46.156  32.099  28.763  1.00  0.00     0.029 A 
ATOM     34  C   UNL A   1      44.820  31.867  29.058  1.00  0.00     0.049 A 
ATOM     35  H   UNL A   1      43.669  30.138  28.690  1.00  0.00     0.167 HD
ATOM     36  C   UNL A   1      42.581  32.462  29.989  1.00  0.00     0.074 A 
ATOM     37  C   UNL A   1      41.661  33.392  30.618  1.00  0.00     0.031 C 
ATOM     38  C   UNL A   1      43.872  32.757  29.690  1.00  0.00     0.034 A 
BRANCH  25  39
ATOM     39  C   UNL A   1      47.002  28.180  26.843  1.00  0.00     0.023 A 
ATOM     40  C   UNL A   1      47.245  28.263  25.459  1.00  0.00     0.031 A 
ATOM     41  C   UNL A   1      47.935  27.487  27.634  1.00  0.00     0.131 A 
ATOM     42  C   UNL A   1      48.341  27.586  24.900  1.00  0.00     0.055 A 
ATOM     43  C   UNL A   1      49.067  26.885  27.082  1.00  0.00     0.041 A 
ATOM     44  F   UNL A   1      47.740  27.346  28.955  1.00  0.00    -0.206 F 
ATOM     45  C   UNL A   1      49.266  26.915  25.705  1.00  0.00     0.022 A 
BRANCH  42  46
ATOM     46  S   UNL A   1      48.449  27.442  23.093  1.00  0.00     0.124 S 
ATOM     47  O   UNL A   1      48.425  25.993  22.910  1.00  0.00    -0.237 OA
ATOM     48  O   UNL A   1      47.261  28.162  22.648  1.00  0.00    -0.237 OA
ATOM     49  O   UNL A   1      49.723  28.082  22.772  1.00  0.00    -0.744 OA
ENDBRANCH  42  46
ENDBRANCH  25  39
BRANCH  26  50
ATOM     50  C   UNL A   1      38.174  30.998  30.894  1.00  0.00     0.023 A 
ATOM     51  C   UNL A   1      37.203  31.667  30.130  1.00  0.00     0.031 A 
ATOM     52  C   UNL A   1      37.895  30.781  32.258  1.00  0.00     0.131 A 
ATOM     53  C   UNL A   1      36.023  32.128  30.740  1.00  0.00     0.055 A 
ATOM     54  C   UNL A   1      36.697  31.190  32.846  1.00  0.00     0.041 A 
ATOM     55  F   UNL A   1      38.787  30.154  33.042  1.00  0.00    -0.206 F 
ATOM     56  C   UNL A   1      35.758  31.881  32.089  1.00  0.00     0.022 A 
BRANCH  53  57
ATOM     57  S   UNL A   1      34.873  33.140  29.768  1.00  0.00     0.124 S 
ATOM     58  O   UNL A   1      35.785  34.006  29.030  1.00  0.00    -0.237 OA
ATOM     59  O   UNL A   1      34.169  32.132  28.984  1.00  0.00    -0.237 OA
ATOM     60  O   UNL A   1      34.065  33.811  30.786  1.00  0.00    -0.744 OA
ENDBRANCH  53  57
ENDBRANCH  26  50
BRANCH  38  61
ATOM     61  C   UNL A   1      44.332  34.156  30.012  1.00  0.00     0.023 A 
ATOM     62  C   UNL A   1      44.258  35.190  29.064  1.00  0.00     0.031 A 
ATOM     63  C   UNL A   1      44.871  34.446  31.277  1.00  0.00     0.131 A 
ATOM     64  C   UNL A   1      44.772  36.456  29.376  1.00  0.00     0.055 A 
ATOM     65  C   UNL A   1      45.328  35.723  31.601  1.00  0.00     0.041 A 
ATOM     66  F   UNL A   1      44.963  33.490  32.217  1.00  0.00    -0.206 F 
ATOM     67  C   UNL A   1      45.294  36.732  30.643  1.00  0.00     0.022 A 
BRANCH  64  68
ATOM     68  S   UNL A   1      44.842  37.710  28.069  1.00  0.00     0.124 S 
ATOM     69  O   UNL A   1      43.475  38.222  28.064  1.00  0.00    -0.237 OA
ATOM     70  O   UNL A   1      45.864  38.625  28.568  1.00  0.00    -0.237 OA
ATOM     71  O   UNL A   1      45.222  36.946  26.881  1.00  0.00    -0.744 OA
ENDBRANCH  64  68
ENDBRANCH  38  61
ENDBRANCH  12  13
ENDBRANCH   5   7
ENDBRANCH   4   5
ENDBRANCH   3   4
ENDBRANCH   2   3
ENDBRANCH   1   2
BRANCH   1  72
ATOM     72  C   UNL A   1      35.276  22.743  26.377  1.00  0.00     0.202 C 
BRANCH  72  73
ATOM     73  C   UNL A   1      33.853  22.237  26.632  1.00  0.00     0.261 C 
BRANCH  73  74
ATOM     74  O   UNL A   1      33.229  22.042  25.354  1.00  0.00    -0.460 OA
BRANCH  74  75
ATOM     75  C   UNL A   1      31.884  22.218  25.298  1.00  0.00     0.342 C 
ATOM     76  O   UNL A   1      31.014  21.397  25.532  1.00  0.00    -0.246 OA
BRANCH  75  77
ATOM     77  C   UNL A   1      31.654  23.681  25.229  1.00  0.00     0.103 A 
ATOM     78  C   UNL A   1      32.215  24.367  24.140  1.00  0.00     0.041 A 
ATOM     79  C   UNL A   1      30.723  24.320  26.056  1.00  0.00     0.130 A 
ATOM     80  C   UNL A   1      31.719  25.630  23.801  1.00  0.00     0.088 A 
ATOM     81  C   UNL A   1      30.222  25.570  25.706  1.00  0.00     0.048 A 
ATOM     82  C   UNL A   1      30.669  26.188  24.538  1.00  0.00     0.026 A 
BRANCH  79  83
ATOM     83  O   UNL A   1      30.286  23.713  27.199  1.00  0.00    -0.507 OA
ATOM     84  H   UNL A   1      30.856  23.141  27.673  1.00  0.00     0.293 HD
ENDBRANCH  79  83
BRANCH  80  85
ATOM     85  S   UNL A   1      32.294  26.429  22.318  1.00  0.00     0.261 S 
ATOM     86  O   UNL A   1      33.625  25.944  22.034  1.00  0.00    -0.201 OA
ATOM     87  O   UNL A   1      31.227  26.285  21.350  1.00  0.00    -0.201 OA
BRANCH  85  88
ATOM     88  N   UNL A   1      32.444  28.109  22.584  1.00  0.00    -0.280 N 
ATOM     89  H   UNL A   1      32.273  28.742  21.849  1.00  0.00     0.180 HD
BRANCH  88  90
ATOM     90  C   UNL A   1      32.821  28.594  23.872  1.00  0.00     0.050 A 
ATOM     91  C   UNL A   1      33.860  27.968  24.561  1.00  0.00     0.027 A 
ATOM     92  C   UNL A   1      32.103  29.634  24.469  1.00  0.00     0.047 A 
ATOM     93  C   UNL A   1      34.160  28.349  25.868  1.00  0.00     0.004 A 
ATOM     94  C   UNL A   1      32.416  30.016  25.774  1.00  0.00     0.043 A 
ATOM     95  C   UNL A   1      33.432  29.372  26.479  1.00  0.00     0.020 A 
ATOM     96  Cl  UNL A   1      31.514  31.269  26.536  1.00  0.00    -0.084 Cl
ENDBRANCH  88  90
ENDBRANCH  85  88
ENDBRANCH  80  85
ENDBRANCH  75  77
ENDBRANCH  74  75
ENDBRANCH  73  74
ENDBRANCH  72  73
ENDBRANCH   1  72
TORSDOF 21
ENDMDL
MODEL 2
REMARK VINA RESULT:     -11.1      5.198      7.922
REMARK SMILES O=C(OCCOCCOC(=O)c1cc(S(=O)(=O)Nc2cccc(Cl)c2)ccc1O)c1ccc(-c2c3nc(c(-c4cc(S(=O)(=O)[O-])ccc4F)c4ccc([nH]4)c(-c4cc(S(=O)(=O)[O-])ccc4F)c4nc(c(-c5cc(S(=O)(=O)[O-])ccc5F)c5ccc2[nH]5)C=C4)C=C3)cc1
REMARK SMILES IDX 6 1 5 2 4 3 3 4 2 5 1 6 30 7 31 8 92 9 32 10 91 11 33 12
REMARK SMILES IDX 34 13 35 14 85 15 36 16 90 17 84 18 86 19 37 20 89 21 83 22
REMARK SMILES IDX 82 23 38 25 70 26 50 27 69 28 51 29 54 30 68 31 87 32 52 33
REMARK SMILES IDX 53 34 67 36 88 37 55 38 39 39 40 40 48 41 41 42 47 43 49 44
REMARK SMILES IDX 46 45 42 46 43 47 44 48 45 49 71 50 72 51 80 52 73 53 79 54
REMARK SMILES IDX 81 55 78 56 74 57 75 58 76 59 77 60 56 61 57 62 65 63 58 64
REMARK SMILES IDX 64 65 66 66 63 67 59 68 60 69 61 70 62 71 7 72 8 73 9 74
REMARK SMILES IDX 10 75 11 76 12 77 13 78 28 79 14 80 27 81 26 82 29 83 15 85
REMARK SMILES IDX 16 86 17 87 18 88 19 90 20 91 25 92 21 93 23 94 22 95 24 96
REMARK H PARENT 86 24 54 35 29 84 18 89
REMARK Flexibility Score: inf
ROOT
ATOM      1  O   UNL A   1      31.012  28.554  24.397  1.00  0.00    -0.374 OA
ENDROOT
BRANCH   1   2
ATOM      2  C   UNL A   1      30.865  29.971  24.290  1.00  0.00     0.202 C 
BRANCH   2   3
ATOM      3  C   UNL A   1      31.059  30.748  25.596  1.00  0.00     0.261 C 
BRANCH   3   4
ATOM      4  O   UNL A   1      32.431  30.661  26.021  1.00  0.00    -0.460 OA
BRANCH   4   5
ATOM      5  C   UNL A   1      33.083  31.418  26.934  1.00  0.00     0.338 C 
ATOM      6  O   UNL A   1      32.640  32.538  27.187  1.00  0.00    -0.246 OA
BRANCH   5   7
ATOM      7  C   UNL A   1      34.321  30.977  27.648  1.00  0.00     0.060 A 
ATOM      8  C   UNL A   1      34.657  29.648  27.910  1.00  0.00     0.016 A 
ATOM      9  C   UNL A   1      35.248  31.972  28.003  1.00  0.00     0.016 A 
ATOM     10  C   UNL A   1      35.822  29.316  28.585  1.00  0.00     0.010 A 
ATOM     11  C   UNL A   1      36.451  31.642  28.639  1.00  0.00     0.010 A 
ATOM     12  C   UNL A   1      36.724  30.308  28.959  1.00  0.00    -0.014 A 
BRANCH  12  13
ATOM     13  C   UNL A   1      37.871  29.907  29.794  1.00  0.00     0.031 A 
ATOM     14  C   UNL A   1      38.938  29.058  29.172  1.00  0.00     0.074 A 
ATOM     15  C   UNL A   1      38.018  30.444  31.019  1.00  0.00     0.049 A 
ATOM     16  N   UNL A   1      40.062  28.631  29.681  1.00  0.00    -0.248 NA
ATOM     17  C   UNL A   1      38.711  28.648  27.777  1.00  0.00     0.031 C 
ATOM     18  C   UNL A   1      37.073  31.375  31.644  1.00  0.00     0.029 A 
ATOM     19  N   UNL A   1      39.028  30.331  31.936  1.00  0.00    -0.354 N 
ATOM     20  C   UNL A   1      40.671  27.889  28.674  1.00  0.00     0.074 A 
ATOM     21  C   UNL A   1      39.781  27.908  27.535  1.00  0.00     0.031 C 
ATOM     22  C   UNL A   1      37.572  31.780  32.823  1.00  0.00     0.029 A 
ATOM     23  C   UNL A   1      38.836  31.092  33.066  1.00  0.00     0.049 A 
ATOM     24  H   UNL A   1      39.817  29.759  31.799  1.00  0.00     0.167 HD
ATOM     25  C   UNL A   1      41.865  27.251  28.709  1.00  0.00     0.034 A 
ATOM     26  C   UNL A   1      39.595  31.202  34.174  1.00  0.00     0.034 A 
ATOM     27  C   UNL A   1      42.711  27.239  29.876  1.00  0.00     0.049 A 
ATOM     28  C   UNL A   1      40.876  30.406  34.223  1.00  0.00     0.074 A 
ATOM     29  C   UNL A   1      43.895  26.556  30.087  1.00  0.00     0.029 A 
ATOM     30  N   UNL A   1      42.451  27.952  31.043  1.00  0.00    -0.354 N 
ATOM     31  N   UNL A   1      41.408  29.640  33.295  1.00  0.00    -0.248 NA
ATOM     32  C   UNL A   1      41.656  30.486  35.461  1.00  0.00     0.031 C 
ATOM     33  C   UNL A   1      44.318  26.811  31.398  1.00  0.00     0.029 A 
ATOM     34  C   UNL A   1      43.438  27.710  31.984  1.00  0.00     0.049 A 
ATOM     35  H   UNL A   1      41.676  28.544  31.180  1.00  0.00     0.167 HD
ATOM     36  C   UNL A   1      42.596  29.159  33.834  1.00  0.00     0.074 A 
ATOM     37  C   UNL A   1      42.712  29.745  35.156  1.00  0.00     0.031 C 
ATOM     38  C   UNL A   1      43.510  28.310  33.297  1.00  0.00     0.034 A 
BRANCH  25  39
ATOM     39  C   UNL A   1      42.235  26.441  27.489  1.00  0.00     0.023 A 
ATOM     40  C   UNL A   1      41.853  25.094  27.343  1.00  0.00     0.031 A 
ATOM     41  C   UNL A   1      43.085  26.993  26.514  1.00  0.00     0.131 A 
ATOM     42  C   UNL A   1      42.392  24.323  26.301  1.00  0.00     0.055 A 
ATOM     43  C   UNL A   1      43.552  26.242  25.433  1.00  0.00     0.041 A 
ATOM     44  F   UNL A   1      43.510  28.262  26.617  1.00  0.00    -0.206 F 
ATOM     45  C   UNL A   1      43.223  24.894  25.333  1.00  0.00     0.022 A 
BRANCH  42  46
ATOM     46  S   UNL A   1      42.139  22.526  26.324  1.00  0.00     0.124 S 
ATOM     47  O   UNL A   1      42.670  22.169  27.638  1.00  0.00    -0.237 OA
ATOM     48  O   UNL A   1      40.694  22.407  26.165  1.00  0.00    -0.237 OA
ATOM     49  O   UNL A   1      42.932  22.051  25.191  1.00  0.00    -0.744 OA
ENDBRANCH  42  46
ENDBRANCH  25  39
BRANCH  26  50
ATOM     50  C   UNL A   1      39.150  32.036  35.330  1.00  0.00     0.023 A 
ATOM     51  C   UNL A   1      38.522  31.468  36.451  1.00  0.00     0.031 A 
ATOM     52  C   UNL A   1      39.303  33.436  35.307  1.00  0.00     0.131 A 
ATOM     53  C   UNL A   1      38.039  32.296  37.481  1.00  0.00     0.055 A 
ATOM     54  C   UNL A   1      38.873  34.248  36.357  1.00  0.00     0.041 A 
ATOM     55  F   UNL A   1      39.888  34.038  34.258  1.00  0.00    -0.206 F 
ATOM     56  C   UNL A   1      38.224  33.680  37.447  1.00  0.00     0.022 A 
BRANCH  53  57
ATOM     57  S   UNL A   1      37.080  31.548  38.827  1.00  0.00     0.124 S 
ATOM     58  O   UNL A   1      37.977  31.718  39.964  1.00  0.00    -0.237 OA
ATOM     59  O   UNL A   1      35.874  32.367  38.833  1.00  0.00    -0.237 OA
ATOM     60  O   UNL A   1      36.891  30.167  38.385  1.00  0.00    -0.744 OA
ENDBRANCH  53  57
ENDBRANCH  26  50
BRANCH  38  61
ATOM     61  C   UNL A   1      44.722  28.010  34.139  1.00  0.00     0.023 A 
ATOM     62  C   UNL A   1      44.789  26.865  34.951  1.00  0.00     0.031 A 
ATOM     63  C   UNL A   1      45.814  28.896  34.143  1.00  0.00     0.131 A 
ATOM     64  C   UNL A   1      45.899  26.666  35.782  1.00  0.00     0.055 A 
ATOM     65  C   UNL A   1      46.941  28.662  34.930  1.00  0.00     0.041 A 
ATOM     66  F   UNL A   1      45.798  30.004  33.384  1.00  0.00    -0.206 F 
ATOM     67  C   UNL A   1      46.982  27.550  35.766  1.00  0.00     0.022 A 
BRANCH  64  68
ATOM     68  S   UNL A   1      45.865  25.288  36.960  1.00  0.00     0.124 S 
ATOM     69  O   UNL A   1      45.999  24.132  36.080  1.00  0.00    -0.237 OA
ATOM     70  O   UNL A   1      47.014  25.578  37.812  1.00  0.00    -0.237 OA
ATOM     71  O   UNL A   1      44.563  25.426  37.610  1.00  0.00    -0.744 OA
ENDBRANCH  64  68
ENDBRANCH  38  61
ENDBRANCH  12  13
ENDBRANCH   5   7
ENDBRANCH   4   5
ENDBRANCH   3   4
ENDBRANCH   2   3
ENDBRANCH   1   2
BRANCH   1  72
ATOM     72  C   UNL A   1      30.206  27.774  23.506  1.00  0.00     0.202 C 
BRANCH  72  73
ATOM     73  C   UNL A   1      29.889  26.428  24.161  1.00  0.00     0.261 C 
BRANCH  73  74
ATOM     74  O   UNL A   1      30.100  26.574  25.574  1.00  0.00    -0.460 OA
BRANCH  74  75
ATOM     75  C   UNL A   1      30.424  25.450  26.263  1.00  0.00     0.342 C 
ATOM     76  O   UNL A   1      29.668  24.603  26.706  1.00  0.00    -0.246 OA
BRANCH  75  77
ATOM     77  C   UNL A   1      31.884  25.259  26.091  1.00  0.00     0.103 A 
ATOM     78  C   UNL A   1      32.315  24.013  25.609  1.00  0.00     0.041 A 
ATOM     79  C   UNL A   1      32.780  26.332  26.160  1.00  0.00     0.130 A 
ATOM     80  C   UNL A   1      33.595  23.901  25.056  1.00  0.00     0.088 A 
ATOM     81  C   UNL A   1      34.047  26.220  25.593  1.00  0.00     0.048 A 
ATOM     82  C   UNL A   1      34.422  25.026  24.978  1.00  0.00     0.026 A 
BRANCH  79  83
ATOM     83  O   UNL A   1      32.411  27.502  26.762  1.00  0.00    -0.507 OA
ATOM     84  H   UNL A   1      31.568  27.576  27.162  1.00  0.00     0.293 HD
ENDBRANCH  79  83
BRANCH  80  85
ATOM     85  S   UNL A   1      34.084  22.376  24.279  1.00  0.00     0.261 S 
ATOM     86  O   UNL A   1      33.874  22.510  22.855  1.00  0.00    -0.201 OA
ATOM     87  O   UNL A   1      35.393  22.060  24.812  1.00  0.00    -0.201 OA
BRANCH  85  88
ATOM     88  N   UNL A   1      33.064  21.108  24.795  1.00  0.00    -0.280 N 
ATOM     89  H   UNL A   1      32.406  21.264  25.510  1.00  0.00     0.180 HD
BRANCH  88  90
ATOM     90  C   UNL A   1      33.169  19.820  24.189  1.00  0.00     0.050 A 
ATOM     91  C   UNL A   1      32.372  19.518  23.083  1.00  0.00     0.027 A 
ATOM     92  C   UNL A   1      34.002  18.846  24.746  1.00  0.00     0.047 A 
ATOM     93  C   UNL A   1      32.372  18.228  22.555  1.00  0.00     0.004 A 
ATOM     94  C   UNL A   1      34.003  17.560  24.205  1.00  0.00     0.043 A 
ATOM     95  C   UNL A   1      33.185  17.244  23.121  1.00  0.00     0.020 A 
ATOM     96  Cl  UNL A   1      34.995  16.340  24.906  1.00  0.00    -0.084 Cl
ENDBRANCH  88  90
ENDBRANCH  85  88
ENDBRANCH  80  85
ENDBRANCH  75  77
ENDBRANCH  74  75
ENDBRANCH  73  74
ENDBRANCH  72  73
ENDBRANCH   1  72
TORSDOF 21
ENDMDL
MODEL 3
REMARK VINA RESULT:     -11.1      1.181      7.488
REMARK SMILES O=C(OCCOCCOC(=O)c1cc(S(=O)(=O)Nc2cccc(Cl)c2)ccc1O)c1ccc(-c2c3nc(c(-c4cc(S(=O)(=O)[O-])ccc4F)c4ccc([nH]4)c(-c4cc(S(=O)(=O)[O-])ccc4F)c4nc(c(-c5cc(S(=O)(=O)[O-])ccc5F)c5ccc2[nH]5)C=C4)C=C3)cc1
REMARK SMILES IDX 6 1 5 2 4 3 3 4 2 5 1 6 30 7 31 8 92 9 32 10 91 11 33 12
REMARK SMILES IDX 34 13 35 14 85 15 36 16 90 17 84 18 86 19 37 20 89 21 83 22
REMARK SMILES IDX 82 23 38 25 70 26 50 27 69 28 51 29 54 30 68 31 87 32 52 33
REMARK SMILES IDX 53 34 67 36 88 37 55 38 39 39 40 40 48 41 41 42 47 43 49 44
REMARK SMILES IDX 46 45 42 46 43 47 44 48 45 49 71 50 72 51 80 52 73 53 79 54
REMARK SMILES IDX 81 55 78 56 74 57 75 58 76 59 77 60 56 61 57 62 65 63 58 64
REMARK SMILES IDX 64 65 66 66 63 67 59 68 60 69 61 70 62 71 7 72 8 73 9 74
REMARK SMILES IDX 10 75 11 76 12 77 13 78 28 79 14 80 27 81 26 82 29 83 15 85
REMARK SMILES IDX 16 86 17 87 18 88 19 90 20 91 25 92 21 93 23 94 22 95 24 96
REMARK H PARENT 86 24 54 35 29 84 18 89
REMARK Flexibility Score: inf
ROOT
ATOM      1  O   UNL A   1      36.130  22.028  24.682  1.00  0.00    -0.374 OA
ENDROOT
BRANCH   1   2
ATOM      2  C   UNL A   1      36.106  20.604  24.790  1.00  0.00     0.202 C 
BRANCH   2   3
ATOM      3  C   UNL A   1      37.481  19.928  24.812  1.00  0.00     0.261 C 
BRANCH   3   4
ATOM      4  O   UNL A   1      38.159  20.231  26.045  1.00  0.00    -0.460 OA
BRANCH   4   5
ATOM      5  C   UNL A   1      39.461  20.542  26.239  1.00  0.00     0.338 C 
ATOM      6  O   UNL A   1      40.292  19.637  26.183  1.00  0.00    -0.246 OA
BRANCH   5   7
ATOM      7  C   UNL A   1      39.951  21.926  26.528  1.00  0.00     0.060 A 
ATOM      8  C   UNL A   1      39.393  23.093  26.006  1.00  0.00     0.016 A 
ATOM      9  C   UNL A   1      40.995  22.056  27.460  1.00  0.00     0.016 A 
ATOM     10  C   UNL A   1      39.907  24.343  26.315  1.00  0.00     0.010 A 
ATOM     11  C   UNL A   1      41.487  23.317  27.819  1.00  0.00     0.010 A 
ATOM     12  C   UNL A   1      40.959  24.465  27.218  1.00  0.00    -0.014 A 
BRANCH  12  13
ATOM     13  C   UNL A   1      41.551  25.803  27.398  1.00  0.00     0.031 A 
ATOM     14  C   UNL A   1      40.841  26.779  28.288  1.00  0.00     0.074 A 
ATOM     15  C   UNL A   1      42.779  26.055  26.908  1.00  0.00     0.049 A 
ATOM     16  N   UNL A   1      41.192  27.984  28.646  1.00  0.00    -0.248 NA
ATOM     17  C   UNL A   1      39.567  26.323  28.865  1.00  0.00     0.031 C 
ATOM     18  C   UNL A   1      43.582  25.106  26.130  1.00  0.00     0.029 A 
ATOM     19  N   UNL A   1      43.588  27.153  27.029  1.00  0.00    -0.354 N 
ATOM     20  C   UNL A   1      40.176  28.438  29.479  1.00  0.00     0.074 A 
ATOM     21  C   UNL A   1      39.187  27.386  29.555  1.00  0.00     0.031 C 
ATOM     22  C   UNL A   1      44.784  25.649  25.881  1.00  0.00     0.029 A 
ATOM     23  C   UNL A   1      44.815  27.004  26.424  1.00  0.00     0.049 A 
ATOM     24  H   UNL A   1      43.317  27.972  27.503  1.00  0.00     0.167 HD
ATOM     25  C   UNL A   1      40.084  29.630  30.117  1.00  0.00     0.034 A 
ATOM     26  C   UNL A   1      45.836  27.876  26.314  1.00  0.00     0.034 A 
ATOM     27  C   UNL A   1      41.084  30.660  29.995  1.00  0.00     0.049 A 
ATOM     28  C   UNL A   1      45.669  29.230  26.956  1.00  0.00     0.074 A 
ATOM     29  C   UNL A   1      41.076  31.947  30.502  1.00  0.00     0.029 A 
ATOM     30  N   UNL A   1      42.284  30.514  29.303  1.00  0.00    -0.354 N 
ATOM     31  N   UNL A   1      44.666  29.684  27.677  1.00  0.00    -0.248 NA
ATOM     32  C   UNL A   1      46.762  30.189  26.771  1.00  0.00     0.031 C 
ATOM     33  C   UNL A   1      42.241  32.593  30.069  1.00  0.00     0.029 A 
ATOM     34  C   UNL A   1      43.013  31.690  29.352  1.00  0.00     0.049 A 
ATOM     35  H   UNL A   1      42.572  29.691  28.846  1.00  0.00     0.167 HD
ATOM     36  C   UNL A   1      45.018  30.978  28.046  1.00  0.00     0.074 A 
ATOM     37  C   UNL A   1      46.336  31.218  27.489  1.00  0.00     0.031 C 
ATOM     38  C   UNL A   1      44.322  31.890  28.773  1.00  0.00     0.034 A 
BRANCH  25  39
ATOM     39  C   UNL A   1      38.813  29.887  30.890  1.00  0.00     0.023 A 
ATOM     40  C   UNL A   1      37.772  30.680  30.372  1.00  0.00     0.031 A 
ATOM     41  C   UNL A   1      38.693  29.429  32.214  1.00  0.00     0.131 A 
ATOM     42  C   UNL A   1      36.706  31.064  31.202  1.00  0.00     0.055 A 
ATOM     43  C   UNL A   1      37.590  29.747  33.008  1.00  0.00     0.041 A 
ATOM     44  F   UNL A   1      39.669  28.696  32.774  1.00  0.00    -0.206 F 
ATOM     45  C   UNL A   1      36.597  30.585  32.510  1.00  0.00     0.022 A 
BRANCH  42  46
ATOM     46  S   UNL A   1      35.555  32.338  30.610  1.00  0.00     0.124 S 
ATOM     47  O   UNL A   1      36.358  33.551  30.753  1.00  0.00    -0.237 OA
ATOM     48  O   UNL A   1      35.283  31.908  29.244  1.00  0.00    -0.237 OA
ATOM     49  O   UNL A   1      34.425  32.237  31.532  1.00  0.00    -0.744 OA
ENDBRANCH  42  46
ENDBRANCH  25  39
BRANCH  26  50
ATOM     50  C   UNL A   1      47.062  27.528  25.534  1.00  0.00     0.023 A 
ATOM     51  C   UNL A   1      47.196  27.872  24.179  1.00  0.00     0.031 A 
ATOM     52  C   UNL A   1      48.108  26.795  26.128  1.00  0.00     0.131 A 
ATOM     53  C   UNL A   1      48.326  27.451  23.455  1.00  0.00     0.055 A 
ATOM     54  C   UNL A   1      49.254  26.429  25.421  1.00  0.00     0.041 A 
ATOM     55  F   UNL A   1      48.034  26.430  27.419  1.00  0.00    -0.206 F 
ATOM     56  C   UNL A   1      49.362  26.745  24.072  1.00  0.00     0.022 A 
BRANCH  53  57
ATOM     57  S   UNL A   1      48.386  27.759  21.668  1.00  0.00     0.124 S 
ATOM     58  O   UNL A   1      49.427  28.776  21.574  1.00  0.00    -0.237 OA
ATOM     59  O   UNL A   1      48.726  26.441  21.144  1.00  0.00    -0.237 OA
ATOM     60  O   UNL A   1      47.035  28.222  21.357  1.00  0.00    -0.744 OA
ENDBRANCH  53  57
ENDBRANCH  26  50
BRANCH  38  61
ATOM     61  C   UNL A   1      45.007  33.207  29.027  1.00  0.00     0.023 A 
ATOM     62  C   UNL A   1      44.944  34.260  28.098  1.00  0.00     0.031 A 
ATOM     63  C   UNL A   1      45.750  33.399  30.205  1.00  0.00     0.131 A 
ATOM     64  C   UNL A   1      45.664  35.438  28.334  1.00  0.00     0.055 A 
ATOM     65  C   UNL A   1      46.417  34.597  30.461  1.00  0.00     0.041 A 
ATOM     66  F   UNL A   1      45.839  32.424  31.124  1.00  0.00    -0.206 F 
ATOM     67  C   UNL A   1      46.388  35.619  29.515  1.00  0.00     0.022 A 
BRANCH  64  68
ATOM     68  S   UNL A   1      45.723  36.695  27.028  1.00  0.00     0.124 S 
ATOM     69  O   UNL A   1      46.159  35.916  25.874  1.00  0.00    -0.237 OA
ATOM     70  O   UNL A   1      44.344  37.172  26.993  1.00  0.00    -0.237 OA
ATOM     71  O   UNL A   1      46.699  37.662  27.528  1.00  0.00    -0.744 OA
ENDBRANCH  64  68
ENDBRANCH  38  61
ENDBRANCH  12  13
ENDBRANCH   5   7
ENDBRANCH   4   5
ENDBRANCH   3   4
ENDBRANCH   2   3
ENDBRANCH   1   2
BRANCH   1  72
ATOM     72  C   UNL A   1      35.635  22.749  25.817  1.00  0.00     0.202 C 
BRANCH  72  73
ATOM     73  C   UNL A   1      34.693  21.845  26.617  1.00  0.00     0.261 C 
BRANCH  73  74
ATOM     74  O   UNL A   1      33.416  22.498  26.677  1.00  0.00    -0.460 OA
BRANCH  74  75
ATOM     75  C   UNL A   1      32.715  22.577  25.518  1.00  0.00     0.342 C 
ATOM     76  O   UNL A   1      32.422  21.668  24.760  1.00  0.00    -0.246 OA
BRANCH  75  77
ATOM     77  C   UNL A   1      32.075  23.915  25.504  1.00  0.00     0.103 A 
ATOM     78  C   UNL A   1      32.455  24.795  24.479  1.00  0.00     0.041 A 
ATOM     79  C   UNL A   1      30.969  24.211  26.308  1.00  0.00     0.130 A 
ATOM     80  C   UNL A   1      31.629  25.882  24.171  1.00  0.00     0.088 A 
ATOM     81  C   UNL A   1      30.142  25.283  25.988  1.00  0.00     0.048 A 
ATOM     82  C   UNL A   1      30.436  26.071  24.876  1.00  0.00     0.026 A 
BRANCH  79  83
ATOM     83  O   UNL A   1      30.682  23.437  27.397  1.00  0.00    -0.507 OA
ATOM     84  H   UNL A   1      30.166  22.662  27.298  1.00  0.00     0.293 HD
ENDBRANCH  79  83
BRANCH  80  85
ATOM     85  S   UNL A   1      32.006  26.897  22.759  1.00  0.00     0.261 S 
ATOM     86  O   UNL A   1      32.621  26.060  21.755  1.00  0.00    -0.201 OA
ATOM     87  O   UNL A   1      30.796  27.640  22.470  1.00  0.00    -0.201 OA
BRANCH  85  88
ATOM     88  N   UNL A   1      33.170  28.072  23.181  1.00  0.00    -0.280 N 
ATOM     89  H   UNL A   1      33.831  28.373  22.517  1.00  0.00     0.180 HD
BRANCH  88  90
ATOM     90  C   UNL A   1      33.185  28.616  24.501  1.00  0.00     0.050 A 
ATOM     91  C   UNL A   1      33.932  27.980  25.494  1.00  0.00     0.027 A 
ATOM     92  C   UNL A   1      32.397  29.727  24.812  1.00  0.00     0.047 A 
ATOM     93  C   UNL A   1      33.861  28.426  26.813  1.00  0.00     0.004 A 
ATOM     94  C   UNL A   1      32.339  30.172  26.133  1.00  0.00     0.043 A 
ATOM     95  C   UNL A   1      33.057  29.520  27.136  1.00  0.00     0.020 A 
ATOM     96  Cl  UNL A   1      31.341  31.515  26.539  1.00  0.00    -0.084 Cl
ENDBRANCH  88  90
ENDBRANCH  85  88
ENDBRANCH  80  85
ENDBRANCH  75  77
ENDBRANCH  74  75
ENDBRANCH  73  74
ENDBRANCH  72  73
ENDBRANCH   1  72
TORSDOF 21
ENDMDL
