MODEL 1
REMARK VINA RESULT:     -10.9      0.000      0.000
REMARK SMILES C=CC[C@@]1(C(=O)OCCOCCOC(=O)c2ccc(-c3c4nc(c(-c5cc(S(=O)(=O)[O-])ccc5F)c5ccc([nH]5)c(-c5cc(S(=O)(=O)[O-])ccc5F)c5nc(c(-c6cc(S(=O)(=O)[O-])ccc6F)c6ccc3[nH]6)C=C5)C=C4)cc2)CCCN(C(=O)c2ccc3c(c2)OCO3)C1
REMARK SMILES IDX 11 1 10 2 9 3 8 4 7 5 5 6 6 7 4 8 79 9 94 10 80 11 82 12
REMARK SMILES IDX 81 13 3 14 2 15 1 16 83 17 84 18 85 19 86 20 90 21 87 22
REMARK SMILES IDX 89 23 88 24 91 25 93 26 92 27 12 28 13 29 14 30 15 31 16 32
REMARK SMILES IDX 17 33 78 34 18 35 77 36 19 37 20 38 21 39 71 40 22 41 76 42
REMARK SMILES IDX 70 43 72 44 23 45 75 46 69 47 68 48 24 50 56 51 36 52 55 53
REMARK SMILES IDX 37 54 40 55 54 56 73 57 38 58 39 59 53 61 74 62 41 63 25 64
REMARK SMILES IDX 26 65 34 66 27 67 33 68 35 69 32 70 28 71 29 72 30 73 31 74
REMARK SMILES IDX 57 75 58 76 66 77 59 78 65 79 67 80 64 81 60 82 61 83 62 84
REMARK SMILES IDX 63 85 42 86 43 87 51 88 44 89 50 90 52 91 49 92 45 93 46 94
REMARK SMILES IDX 47 95 48 96
REMARK H PARENT 72 49 40 60
REMARK Flexibility Score: inf
ROOT
ATOM      1  C   UNL A   1      37.810  20.344  24.991  1.00  0.00     0.202 C 
ENDROOT
BRANCH   1   2
ATOM      2  O   UNL A   1      37.150  21.362  25.740  1.00  0.00    -0.374 OA
BRANCH   2   3
ATOM      3  C   UNL A   1      36.626  22.441  24.962  1.00  0.00     0.202 C 
BRANCH   3   4
ATOM      4  C   UNL A   1      36.613  23.790  25.688  1.00  0.00     0.261 C 
BRANCH   4   5
ATOM      5  O   UNL A   1      35.494  24.612  25.271  1.00  0.00    -0.463 OA
BRANCH   5   6
ATOM      6  C   UNL A   1      34.254  24.136  25.550  1.00  0.00     0.314 C 
ATOM      7  O   UNL A   1      33.911  23.802  26.679  1.00  0.00    -0.252 OA
BRANCH   6   8
ATOM      8  C   UNL A   1      33.338  23.996  24.303  1.00  0.00     0.089 C 
ATOM      9  C   UNL A   1      33.923  24.828  23.113  1.00  0.00     0.023 C 
ATOM     10  C   UNL A   1      31.888  24.438  24.616  1.00  0.00     0.138 C 
ATOM     11  C   UNL A   1      33.554  26.316  23.078  1.00  0.00     0.023 C 
ATOM     12  N   UNL A   1      31.717  25.881  24.548  1.00  0.00    -0.337 N 
ATOM     13  C   UNL A   1      32.061  26.494  23.277  1.00  0.00     0.120 C 
BRANCH   8  14
ATOM     14  C   UNL A   1      33.274  22.448  23.983  1.00  0.00     0.047 C 
BRANCH  14  15
ATOM     15  C   UNL A   1      31.991  21.921  23.398  1.00  0.00    -0.034 C 
ATOM     16  C   UNL A   1      31.946  21.237  22.247  1.00  0.00     0.004 C 
ENDBRANCH  14  15
ENDBRANCH   8  14
BRANCH  12  17
ATOM     17  C   UNL A   1      31.436  26.580  25.706  1.00  0.00     0.254 C 
ATOM     18  O   UNL A   1      30.585  26.223  26.511  1.00  0.00    -0.269 OA
BRANCH  17  19
ATOM     19  C   UNL A   1      32.161  27.828  25.955  1.00  0.00     0.043 A 
ATOM     20  C   UNL A   1      31.533  29.075  25.771  1.00  0.00     0.018 A 
ATOM     21  C   UNL A   1      33.441  27.711  26.494  1.00  0.00     0.064 A 
ATOM     22  C   UNL A   1      32.173  30.231  26.214  1.00  0.00     0.051 A 
ATOM     23  C   UNL A   1      34.044  28.873  26.904  1.00  0.00     0.166 A 
ATOM     24  C   UNL A   1      33.424  30.095  26.780  1.00  0.00     0.165 A 
ATOM     25  O   UNL A   1      35.269  28.964  27.484  1.00  0.00    -0.454 OA
ATOM     26  O   UNL A   1      34.184  31.106  27.272  1.00  0.00    -0.454 OA
ATOM     27  C   UNL A   1      35.319  30.378  27.781  1.00  0.00     0.468 C 
ENDBRANCH  17  19
ENDBRANCH  12  17
ENDBRANCH   6   8
ENDBRANCH   5   6
ENDBRANCH   4   5
ENDBRANCH   3   4
ENDBRANCH   2   3
ENDBRANCH   1   2
BRANCH   1  28
ATOM     28  C   UNL A   1      39.194  19.900  25.519  1.00  0.00     0.261 C 
BRANCH  28  29
ATOM     29  O   UNL A   1      40.091  20.971  25.876  1.00  0.00    -0.460 OA
BRANCH  29  30
ATOM     30  C   UNL A   1      40.557  20.993  27.144  1.00  0.00     0.338 C 
ATOM     31  O   UNL A   1      40.842  20.022  27.824  1.00  0.00    -0.246 OA
BRANCH  30  32
ATOM     32  C   UNL A   1      40.843  22.396  27.560  1.00  0.00     0.060 A 
ATOM     33  C   UNL A   1      40.192  23.429  26.875  1.00  0.00     0.016 A 
ATOM     34  C   UNL A   1      41.742  22.723  28.578  1.00  0.00     0.016 A 
ATOM     35  C   UNL A   1      40.457  24.777  27.172  1.00  0.00     0.010 A 
ATOM     36  C   UNL A   1      41.992  24.075  28.883  1.00  0.00     0.010 A 
ATOM     37  C   UNL A   1      41.373  25.129  28.173  1.00  0.00    -0.014 A 
BRANCH  37  38
ATOM     38  C   UNL A   1      41.773  26.563  28.406  1.00  0.00     0.031 A 
ATOM     39  C   UNL A   1      43.183  27.005  28.080  1.00  0.00     0.074 A 
ATOM     40  C   UNL A   1      40.929  27.491  28.915  1.00  0.00     0.049 A 
ATOM     41  N   UNL A   1      43.747  28.180  28.234  1.00  0.00    -0.248 NA
ATOM     42  C   UNL A   1      44.073  25.988  27.506  1.00  0.00     0.031 C 
ATOM     43  C   UNL A   1      39.525  27.276  29.249  1.00  0.00     0.029 A 
ATOM     44  N   UNL A   1      41.148  28.805  29.277  1.00  0.00    -0.354 N 
ATOM     45  C   UNL A   1      45.044  28.045  27.752  1.00  0.00     0.074 A 
ATOM     46  C   UNL A   1      45.216  26.646  27.421  1.00  0.00     0.031 C 
ATOM     47  C   UNL A   1      39.036  28.375  29.853  1.00  0.00     0.029 A 
ATOM     48  C   UNL A   1      40.080  29.394  29.919  1.00  0.00     0.049 A 
ATOM     49  H   UNL A   1      41.991  29.279  29.093  1.00  0.00     0.167 HD
ATOM     50  C   UNL A   1      45.991  28.997  27.539  1.00  0.00     0.034 A 
ATOM     51  C   UNL A   1      39.939  30.609  30.493  1.00  0.00     0.034 A 
ATOM     52  C   UNL A   1      45.831  30.393  27.857  1.00  0.00     0.049 A 
ATOM     53  C   UNL A   1      41.043  31.632  30.368  1.00  0.00     0.074 A 
ATOM     54  C   UNL A   1      46.705  31.439  27.605  1.00  0.00     0.029 A 
ATOM     55  N   UNL A   1      44.740  30.944  28.514  1.00  0.00    -0.354 N 
ATOM     56  N   UNL A   1      42.225  31.509  29.813  1.00  0.00    -0.248 NA
ATOM     57  C   UNL A   1      40.768  32.978  30.896  1.00  0.00     0.031 C 
ATOM     58  C   UNL A   1      46.182  32.601  28.183  1.00  0.00     0.029 A 
ATOM     59  C   UNL A   1      44.941  32.302  28.720  1.00  0.00     0.049 A 
ATOM     60  H   UNL A   1      43.939  30.444  28.794  1.00  0.00     0.167 HD
ATOM     61  C   UNL A   1      42.800  32.779  29.858  1.00  0.00     0.074 A 
ATOM     62  C   UNL A   1      41.846  33.647  30.512  1.00  0.00     0.031 C 
ATOM     63  C   UNL A   1      44.000  33.185  29.370  1.00  0.00     0.034 A 
BRANCH  50  64
ATOM     64  C   UNL A   1      47.293  28.534  26.927  1.00  0.00     0.023 A 
ATOM     65  C   UNL A   1      47.418  28.341  25.538  1.00  0.00     0.031 A 
ATOM     66  C   UNL A   1      48.399  28.222  27.735  1.00  0.00     0.131 A 
ATOM     67  C   UNL A   1      48.569  27.738  25.017  1.00  0.00     0.055 A 
ATOM     68  C   UNL A   1      49.584  27.719  27.196  1.00  0.00     0.041 A 
ATOM     69  F   UNL A   1      48.337  28.374  29.068  1.00  0.00    -0.206 F 
ATOM     70  C   UNL A   1      49.666  27.450  25.832  1.00  0.00     0.022 A 
BRANCH  67  71
ATOM     71  S   UNL A   1      48.529  27.155  23.300  1.00  0.00     0.124 S 
ATOM     72  O   UNL A   1      48.151  25.755  23.475  1.00  0.00    -0.237 OA
ATOM     73  O   UNL A   1      47.521  28.019  22.697  1.00  0.00    -0.237 OA
ATOM     74  O   UNL A   1      49.897  27.370  22.834  1.00  0.00    -0.744 OA
ENDBRANCH  67  71
ENDBRANCH  50  64
BRANCH  51  75
ATOM     75  C   UNL A   1      38.693  30.955  31.241  1.00  0.00     0.023 A 
ATOM     76  C   UNL A   1      37.703  31.775  30.677  1.00  0.00     0.031 A 
ATOM     77  C   UNL A   1      38.515  30.525  32.568  1.00  0.00     0.131 A 
ATOM     78  C   UNL A   1      36.605  32.183  31.452  1.00  0.00     0.055 A 
ATOM     79  C   UNL A   1      37.399  30.898  33.322  1.00  0.00     0.041 A 
ATOM     80  F   UNL A   1      39.433  29.741  33.157  1.00  0.00    -0.206 F 
ATOM     81  C   UNL A   1      36.442  31.742  32.768  1.00  0.00     0.022 A 
BRANCH  78  82
ATOM     82  S   UNL A   1      35.425  33.364  30.741  1.00  0.00     0.124 S 
ATOM     83  O   UNL A   1      36.183  33.898  29.614  1.00  0.00    -0.237 OA
ATOM     84  O   UNL A   1      34.298  32.499  30.405  1.00  0.00    -0.237 OA
ATOM     85  O   UNL A   1      35.183  34.303  31.833  1.00  0.00    -0.744 OA
ENDBRANCH  78  82
ENDBRANCH  51  75
BRANCH  63  86
ATOM     86  C   UNL A   1      44.333  34.658  29.453  1.00  0.00     0.023 A 
ATOM     87  C   UNL A   1      43.854  35.591  28.518  1.00  0.00     0.031 A 
ATOM     88  C   UNL A   1      45.143  35.136  30.501  1.00  0.00     0.131 A 
ATOM     89  C   UNL A   1      44.228  36.942  28.620  1.00  0.00     0.055 A 
ATOM     90  C   UNL A   1      45.458  36.490  30.634  1.00  0.00     0.041 A 
ATOM     91  F   UNL A   1      45.637  34.292  31.422  1.00  0.00    -0.206 F 
ATOM     92  C   UNL A   1      45.009  37.400  29.683  1.00  0.00     0.022 A 
BRANCH  89  93
ATOM     93  S   UNL A   1      43.750  38.084  27.293  1.00  0.00     0.124 S 
ATOM     94  O   UNL A   1      45.019  38.295  26.604  1.00  0.00    -0.237 OA
ATOM     95  O   UNL A   1      42.749  37.313  26.563  1.00  0.00    -0.237 OA
ATOM     96  O   UNL A   1      43.232  39.247  28.010  1.00  0.00    -0.744 OA
ENDBRANCH  89  93
ENDBRANCH  63  86
ENDBRANCH  37  38
ENDBRANCH  30  32
ENDBRANCH  29  30
ENDBRANCH  28  29
ENDBRANCH   1  28
TORSDOF 21
ENDMDL
MODEL 2
REMARK VINA RESULT:     -10.9      5.158     10.396
REMARK SMILES C=CC[C@@]1(C(=O)OCCOCCOC(=O)c2ccc(-c3c4nc(c(-c5cc(S(=O)(=O)[O-])ccc5F)c5ccc([nH]5)c(-c5cc(S(=O)(=O)[O-])ccc5F)c5nc(c(-c6cc(S(=O)(=O)[O-])ccc6F)c6ccc3[nH]6)C=C5)C=C4)cc2)CCCN(C(=O)c2ccc3c(c2)OCO3)C1
REMARK SMILES IDX 11 1 10 2 9 3 8 4 7 5 5 6 6 7 4 8 79 9 94 10 80 11 82 12
REMARK SMILES IDX 81 13 3 14 2 15 1 16 83 17 84 18 85 19 86 20 90 21 87 22
REMARK SMILES IDX 89 23 88 24 91 25 93 26 92 27 12 28 13 29 14 30 15 31 16 32
REMARK SMILES IDX 17 33 78 34 18 35 77 36 19 37 20 38 21 39 71 40 22 41 76 42
REMARK SMILES IDX 70 43 72 44 23 45 75 46 69 47 68 48 24 50 56 51 36 52 55 53
REMARK SMILES IDX 37 54 40 55 54 56 73 57 38 58 39 59 53 61 74 62 41 63 25 64
REMARK SMILES IDX 26 65 34 66 27 67 33 68 35 69 32 70 28 71 29 72 30 73 31 74
REMARK SMILES IDX 57 75 58 76 66 77 59 78 65 79 67 80 64 81 60 82 61 83 62 84
REMARK SMILES IDX 63 85 42 86 43 87 51 88 44 89 50 90 52 91 49 92 45 93 46 94
REMARK SMILES IDX 47 95 48 96
REMARK H PARENT 72 49 40 60
REMARK Flexibility Score: inf
ROOT
ATOM      1  C   UNL A   1      31.581  32.301  26.830  1.00  0.00     0.202 C 
ENDROOT
BRANCH   1   2
ATOM      2  O   UNL A   1      31.741  30.897  27.022  1.00  0.00    -0.374 OA
BRANCH   2   3
ATOM      3  C   UNL A   1      33.086  30.423  26.919  1.00  0.00     0.202 C 
BRANCH   3   4
ATOM      4  C   UNL A   1      33.361  29.580  25.670  1.00  0.00     0.261 C 
BRANCH   4   5
ATOM      5  O   UNL A   1      32.235  29.592  24.757  1.00  0.00    -0.463 OA
BRANCH   5   6
ATOM      6  C   UNL A   1      32.350  28.826  23.642  1.00  0.00     0.314 C 
ATOM      7  O   UNL A   1      33.407  28.698  23.032  1.00  0.00    -0.252 OA
BRANCH   6   8
ATOM      8  C   UNL A   1      31.013  28.185  23.178  1.00  0.00     0.089 C 
ATOM      9  C   UNL A   1      30.295  27.507  24.392  1.00  0.00     0.023 C 
ATOM     10  C   UNL A   1      31.243  27.162  22.040  1.00  0.00     0.138 C 
ATOM     11  C   UNL A   1      30.735  26.076  24.729  1.00  0.00     0.023 C 
ATOM     12  N   UNL A   1      31.666  25.861  22.535  1.00  0.00    -0.337 N 
ATOM     13  C   UNL A   1      30.760  25.224  23.474  1.00  0.00     0.120 C 
BRANCH   8  14
ATOM     14  C   UNL A   1      30.160  29.363  22.554  1.00  0.00     0.047 C 
BRANCH  14  15
ATOM     15  C   UNL A   1      28.689  29.387  22.874  1.00  0.00    -0.034 C 
ATOM     16  C   UNL A   1      27.773  29.889  22.035  1.00  0.00     0.004 C 
ENDBRANCH  14  15
ENDBRANCH   8  14
BRANCH  12  17
ATOM     17  C   UNL A   1      32.942  25.414  22.247  1.00  0.00     0.254 C 
ATOM     18  O   UNL A   1      33.461  25.544  21.147  1.00  0.00    -0.269 OA
BRANCH  17  19
ATOM     19  C   UNL A   1      33.683  24.714  23.297  1.00  0.00     0.043 A 
ATOM     20  C   UNL A   1      34.274  25.425  24.361  1.00  0.00     0.018 A 
ATOM     21  C   UNL A   1      33.665  23.320  23.254  1.00  0.00     0.064 A 
ATOM     22  C   UNL A   1      34.788  24.721  25.447  1.00  0.00     0.051 A 
ATOM     23  C   UNL A   1      34.194  22.664  24.335  1.00  0.00     0.166 A 
ATOM     24  C   UNL A   1      34.728  23.344  25.407  1.00  0.00     0.165 A 
ATOM     25  O   UNL A   1      34.237  21.316  24.497  1.00  0.00    -0.454 OA
ATOM     26  O   UNL A   1      35.169  22.502  26.376  1.00  0.00    -0.454 OA
ATOM     27  C   UNL A   1      34.791  21.224  25.828  1.00  0.00     0.468 C 
ENDBRANCH  17  19
ENDBRANCH  12  17
ENDBRANCH   6   8
ENDBRANCH   5   6
ENDBRANCH   4   5
ENDBRANCH   3   4
ENDBRANCH   2   3
ENDBRANCH   1   2
BRANCH   1  28
ATOM     28  C   UNL A   1      32.721  33.196  27.370  1.00  0.00     0.261 C 
BRANCH  28  29
ATOM     29  O   UNL A   1      32.327  34.164  28.364  1.00  0.00    -0.460 OA
BRANCH  29  30
ATOM     30  C   UNL A   1      33.219  35.128  28.679  1.00  0.00     0.338 C 
ATOM     31  O   UNL A   1      33.069  36.328  28.524  1.00  0.00    -0.246 OA
BRANCH  30  32
ATOM     32  C   UNL A   1      34.375  34.536  29.413  1.00  0.00     0.060 A 
ATOM     33  C   UNL A   1      35.641  34.624  28.822  1.00  0.00     0.016 A 
ATOM     34  C   UNL A   1      34.246  33.881  30.639  1.00  0.00     0.016 A 
ATOM     35  C   UNL A   1      36.766  34.037  29.426  1.00  0.00     0.010 A 
ATOM     36  C   UNL A   1      35.380  33.309  31.249  1.00  0.00     0.010 A 
ATOM     37  C   UNL A   1      36.657  33.355  30.646  1.00  0.00    -0.014 A 
BRANCH  37  38
ATOM     38  C   UNL A   1      37.822  32.601  31.233  1.00  0.00     0.031 A 
ATOM     39  C   UNL A   1      38.549  33.172  32.432  1.00  0.00     0.074 A 
ATOM     40  C   UNL A   1      38.272  31.429  30.730  1.00  0.00     0.049 A 
ATOM     41  N   UNL A   1      39.595  32.707  33.074  1.00  0.00    -0.248 NA
ATOM     42  C   UNL A   1      38.028  34.432  32.976  1.00  0.00     0.031 C 
ATOM     43  C   UNL A   1      37.682  30.696  29.614  1.00  0.00     0.029 A 
ATOM     44  N   UNL A   1      39.366  30.660  31.076  1.00  0.00    -0.354 N 
ATOM     45  C   UNL A   1      39.836  33.605  34.108  1.00  0.00     0.074 A 
ATOM     46  C   UNL A   1      38.906  34.700  33.927  1.00  0.00     0.031 C 
ATOM     47  C   UNL A   1      38.467  29.648  29.303  1.00  0.00     0.029 A 
ATOM     48  C   UNL A   1      39.601  29.604  30.222  1.00  0.00     0.049 A 
ATOM     49  H   UNL A   1      39.927  30.849  31.863  1.00  0.00     0.167 HD
ATOM     50  C   UNL A   1      40.700  33.508  35.152  1.00  0.00     0.034 A 
ATOM     51  C   UNL A   1      40.602  28.698  30.172  1.00  0.00     0.034 A 
ATOM     52  C   UNL A   1      41.626  32.421  35.350  1.00  0.00     0.049 A 
ATOM     53  C   UNL A   1      41.642  28.667  31.267  1.00  0.00     0.074 A 
ATOM     54  C   UNL A   1      42.482  32.203  36.417  1.00  0.00     0.029 A 
ATOM     55  N   UNL A   1      41.838  31.381  34.457  1.00  0.00    -0.354 N 
ATOM     56  N   UNL A   1      41.784  29.468  32.296  1.00  0.00    -0.248 NA
ATOM     57  C   UNL A   1      42.621  27.568  31.226  1.00  0.00     0.031 C 
ATOM     58  C   UNL A   1      43.268  31.081  36.130  1.00  0.00     0.029 A 
ATOM     59  C   UNL A   1      42.844  30.546  34.925  1.00  0.00     0.049 A 
ATOM     60  H   UNL A   1      41.346  31.252  33.613  1.00  0.00     0.167 HD
ATOM     61  C   UNL A   1      42.818  28.926  33.059  1.00  0.00     0.074 A 
ATOM     62  C   UNL A   1      43.276  27.743  32.365  1.00  0.00     0.031 C 
ATOM     63  C   UNL A   1      43.315  29.361  34.246  1.00  0.00     0.034 A 
BRANCH  50  64
ATOM     64  C   UNL A   1      40.671  34.631  36.163  1.00  0.00     0.023 A 
ATOM     65  C   UNL A   1      41.742  35.538  36.277  1.00  0.00     0.031 A 
ATOM     66  C   UNL A   1      39.602  34.763  37.064  1.00  0.00     0.131 A 
ATOM     67  C   UNL A   1      41.777  36.450  37.339  1.00  0.00     0.055 A 
ATOM     68  C   UNL A   1      39.594  35.745  38.057  1.00  0.00     0.041 A 
ATOM     69  F   UNL A   1      38.557  33.922  37.014  1.00  0.00    -0.206 F 
ATOM     70  C   UNL A   1      40.697  36.581  38.215  1.00  0.00     0.022 A 
BRANCH  67  71
ATOM     71  S   UNL A   1      43.334  37.318  37.673  1.00  0.00     0.124 S 
ATOM     72  O   UNL A   1      42.962  38.161  38.807  1.00  0.00    -0.237 OA
ATOM     73  O   UNL A   1      44.250  36.221  37.965  1.00  0.00    -0.237 OA
ATOM     74  O   UNL A   1      43.597  38.039  36.430  1.00  0.00    -0.744 OA
ENDBRANCH  67  71
ENDBRANCH  50  64
BRANCH  51  75
ATOM     75  C   UNL A   1      40.681  27.716  29.049  1.00  0.00     0.023 A 
ATOM     76  C   UNL A   1      41.588  27.885  27.990  1.00  0.00     0.031 A 
ATOM     77  C   UNL A   1      39.790  26.631  28.987  1.00  0.00     0.131 A 
ATOM     78  C   UNL A   1      41.549  27.013  26.889  1.00  0.00     0.055 A 
ATOM     79  C   UNL A   1      39.784  25.741  27.910  1.00  0.00     0.041 A 
ATOM     80  F   UNL A   1      38.900  26.425  29.971  1.00  0.00    -0.206 F 
ATOM     81  C   UNL A   1      40.659  25.937  26.846  1.00  0.00     0.022 A 
BRANCH  78  82
ATOM     82  S   UNL A   1      42.631  27.351  25.472  1.00  0.00     0.124 S 
ATOM     83  O   UNL A   1      43.913  27.588  26.126  1.00  0.00    -0.237 OA
ATOM     84  O   UNL A   1      42.519  26.114  24.706  1.00  0.00    -0.237 OA
ATOM     85  O   UNL A   1      42.020  28.523  24.849  1.00  0.00    -0.744 OA
ENDBRANCH  78  82
ENDBRANCH  51  75
BRANCH  63  86
ATOM     86  C   UNL A   1      44.370  28.515  34.922  1.00  0.00     0.023 A 
ATOM     87  C   UNL A   1      44.048  27.511  35.851  1.00  0.00     0.031 A 
ATOM     88  C   UNL A   1      45.730  28.715  34.618  1.00  0.00     0.131 A 
ATOM     89  C   UNL A   1      45.071  26.782  36.479  1.00  0.00     0.055 A 
ATOM     90  C   UNL A   1      46.739  27.942  35.197  1.00  0.00     0.041 A 
ATOM     91  F   UNL A   1      46.102  29.663  33.742  1.00  0.00    -0.206 F 
ATOM     92  C   UNL A   1      46.412  26.977  36.143  1.00  0.00     0.022 A 
BRANCH  89  93
ATOM     93  S   UNL A   1      44.632  25.629  37.811  1.00  0.00     0.124 S 
ATOM     94  O   UNL A   1      43.848  26.478  38.701  1.00  0.00    -0.237 OA
ATOM     95  O   UNL A   1      43.888  24.596  37.097  1.00  0.00    -0.237 OA
ATOM     96  O   UNL A   1      45.927  25.204  38.339  1.00  0.00    -0.744 OA
ENDBRANCH  89  93
ENDBRANCH  63  86
ENDBRANCH  37  38
ENDBRANCH  30  32
ENDBRANCH  29  30
ENDBRANCH  28  29
ENDBRANCH   1  28
TORSDOF 21
ENDMDL
MODEL 3
REMARK VINA RESULT:     -10.8      4.764      9.970
REMARK SMILES C=CC[C@@]1(C(=O)OCCOCCOC(=O)c2ccc(-c3c4nc(c(-c5cc(S(=O)(=O)[O-])ccc5F)c5ccc([nH]5)c(-c5cc(S(=O)(=O)[O-])ccc5F)c5nc(c(-c6cc(S(=O)(=O)[O-])ccc6F)c6ccc3[nH]6)C=C5)C=C4)cc2)CCCN(C(=O)c2ccc3c(c2)OCO3)C1
REMARK SMILES IDX 11 1 10 2 9 3 8 4 7 5 5 6 6 7 4 8 79 9 94 10 80 11 82 12
REMARK SMILES IDX 81 13 3 14 2 15 1 16 83 17 84 18 85 19 86 20 90 21 87 22
REMARK SMILES IDX 89 23 88 24 91 25 93 26 92 27 12 28 13 29 14 30 15 31 16 32
REMARK SMILES IDX 17 33 78 34 18 35 77 36 19 37 20 38 21 39 71 40 22 41 76 42
REMARK SMILES IDX 70 43 72 44 23 45 75 46 69 47 68 48 24 50 56 51 36 52 55 53
REMARK SMILES IDX 37 54 40 55 54 56 73 57 38 58 39 59 53 61 74 62 41 63 25 64
REMARK SMILES IDX 26 65 34 66 27 67 33 68 35 69 32 70 28 71 29 72 30 73 31 74
REMARK SMILES IDX 57 75 58 76 66 77 59 78 65 79 67 80 64 81 60 82 61 83 62 84
REMARK SMILES IDX 63 85 42 86 43 87 51 88 44 89 50 90 52 91 49 92 45 93 46 94
REMARK SMILES IDX 47 95 48 96
REMARK H PARENT 72 49 40 60
REMARK Flexibility Score: inf
ROOT
ATOM      1  C   UNL A   1      33.676  28.579  26.029  1.00  0.00     0.202 C 
ENDROOT
BRANCH   1   2
ATOM      2  O   UNL A   1      34.481  28.358  24.873  1.00  0.00    -0.374 OA
BRANCH   2   3
ATOM      3  C   UNL A   1      33.756  28.222  23.649  1.00  0.00     0.202 C 
BRANCH   3   4
ATOM      4  C   UNL A   1      33.743  26.800  23.080  1.00  0.00     0.261 C 
BRANCH   4   5
ATOM      5  O   UNL A   1      34.028  25.812  24.102  1.00  0.00    -0.463 OA
BRANCH   5   6
ATOM      6  C   UNL A   1      33.984  24.511  23.718  1.00  0.00     0.314 C 
ATOM      7  O   UNL A   1      33.475  24.149  22.662  1.00  0.00    -0.252 OA
BRANCH   6   8
ATOM      8  C   UNL A   1      34.578  23.525  24.761  1.00  0.00     0.089 C 
ATOM      9  C   UNL A   1      34.453  22.054  24.240  1.00  0.00     0.023 C 
ATOM     10  C   UNL A   1      33.886  23.676  26.137  1.00  0.00     0.138 C 
ATOM     11  C   UNL A   1      33.115  21.351  24.503  1.00  0.00     0.023 C 
ATOM     12  N   UNL A   1      32.625  22.954  26.211  1.00  0.00    -0.337 N 
ATOM     13  C   UNL A   1      32.704  21.527  25.953  1.00  0.00     0.120 C 
BRANCH   8  14
ATOM     14  C   UNL A   1      36.084  23.966  24.967  1.00  0.00     0.047 C 
BRANCH  14  15
ATOM     15  C   UNL A   1      36.999  22.981  25.643  1.00  0.00    -0.034 C 
ATOM     16  C   UNL A   1      38.202  23.323  26.124  1.00  0.00     0.004 C 
ENDBRANCH  14  15
ENDBRANCH   8  14
BRANCH  12  17
ATOM     17  C   UNL A   1      31.448  23.668  26.324  1.00  0.00     0.254 C 
ATOM     18  O   UNL A   1      30.656  23.506  27.244  1.00  0.00    -0.269 OA
BRANCH  17  19
ATOM     19  C   UNL A   1      31.115  24.627  25.270  1.00  0.00     0.043 A 
ATOM     20  C   UNL A   1      30.656  24.187  24.012  1.00  0.00     0.018 A 
ATOM     21  C   UNL A   1      31.157  25.977  25.616  1.00  0.00     0.064 A 
ATOM     22  C   UNL A   1      30.151  25.119  23.109  1.00  0.00     0.051 A 
ATOM     23  C   UNL A   1      30.664  26.864  24.693  1.00  0.00     0.166 A 
ATOM     24  C   UNL A   1      30.164  26.448  23.480  1.00  0.00     0.165 A 
ATOM     25  O   UNL A   1      30.586  28.210  24.857  1.00  0.00    -0.454 OA
ATOM     26  O   UNL A   1      29.705  27.484  22.734  1.00  0.00    -0.454 OA
ATOM     27  C   UNL A   1      29.908  28.588  23.637  1.00  0.00     0.468 C 
ENDBRANCH  17  19
ENDBRANCH  12  17
ENDBRANCH   6   8
ENDBRANCH   5   6
ENDBRANCH   4   5
ENDBRANCH   3   4
ENDBRANCH   2   3
ENDBRANCH   1   2
BRANCH   1  28
ATOM     28  C   UNL A   1      33.150  30.021  26.226  1.00  0.00     0.261 C 
BRANCH  28  29
ATOM     29  O   UNL A   1      33.404  30.598  27.524  1.00  0.00    -0.460 OA
BRANCH  29  30
ATOM     30  C   UNL A   1      34.474  31.415  27.640  1.00  0.00     0.338 C 
ATOM     31  O   UNL A   1      34.465  32.631  27.551  1.00  0.00    -0.246 OA
BRANCH  30  32
ATOM     32  C   UNL A   1      35.671  30.634  28.066  1.00  0.00     0.060 A 
ATOM     33  C   UNL A   1      35.620  29.981  29.304  1.00  0.00     0.016 A 
ATOM     34  C   UNL A   1      36.837  30.547  27.304  1.00  0.00     0.016 A 
ATOM     35  C   UNL A   1      36.732  29.276  29.798  1.00  0.00     0.010 A 
ATOM     36  C   UNL A   1      37.943  29.824  27.796  1.00  0.00     0.010 A 
ATOM     37  C   UNL A   1      37.921  29.195  29.061  1.00  0.00    -0.014 A 
BRANCH  37  38
ATOM     38  C   UNL A   1      39.163  28.565  29.637  1.00  0.00     0.031 A 
ATOM     39  C   UNL A   1      39.814  29.184  30.855  1.00  0.00     0.074 A 
ATOM     40  C   UNL A   1      39.747  27.466  29.106  1.00  0.00     0.049 A 
ATOM     41  N   UNL A   1      40.904  28.826  31.491  1.00  0.00    -0.248 NA
ATOM     42  C   UNL A   1      39.149  30.361  31.427  1.00  0.00     0.031 C 
ATOM     43  C   UNL A   1      39.251  26.700  27.967  1.00  0.00     0.029 A 
ATOM     44  N   UNL A   1      40.921  26.820  29.439  1.00  0.00    -0.354 N 
ATOM     45  C   UNL A   1      41.036  29.717  32.551  1.00  0.00     0.074 A 
ATOM     46  C   UNL A   1      39.986  30.702  32.392  1.00  0.00     0.031 C 
ATOM     47  C   UNL A   1      40.152  25.758  27.635  1.00  0.00     0.029 A 
ATOM     48  C   UNL A   1      41.281  25.821  28.560  1.00  0.00     0.049 A 
ATOM     49  H   UNL A   1      41.454  27.051  30.235  1.00  0.00     0.167 HD
ATOM     50  C   UNL A   1      41.902  29.693  33.598  1.00  0.00     0.034 A 
ATOM     51  C   UNL A   1      42.380  25.039  28.494  1.00  0.00     0.034 A 
ATOM     52  C   UNL A   1      42.946  28.716  33.773  1.00  0.00     0.049 A 
ATOM     53  C   UNL A   1      43.412  25.098  29.594  1.00  0.00     0.074 A 
ATOM     54  C   UNL A   1      43.818  28.569  34.840  1.00  0.00     0.029 A 
ATOM     55  N   UNL A   1      43.281  27.731  32.855  1.00  0.00    -0.354 N 
ATOM     56  N   UNL A   1      43.457  25.883  30.644  1.00  0.00    -0.248 NA
ATOM     57  C   UNL A   1      44.512  24.122  29.531  1.00  0.00     0.031 C 
ATOM     58  C   UNL A   1      44.729  27.554  34.530  1.00  0.00     0.029 A 
ATOM     59  C   UNL A   1      44.375  27.006  33.308  1.00  0.00     0.049 A 
ATOM     60  H   UNL A   1      42.810  27.569  32.005  1.00  0.00     0.167 HD
ATOM     61  C   UNL A   1      44.543  25.444  31.401  1.00  0.00     0.074 A 
ATOM     62  C   UNL A   1      45.137  24.341  30.679  1.00  0.00     0.031 C 
ATOM     63  C   UNL A   1      44.982  25.901  32.602  1.00  0.00     0.034 A 
BRANCH  50  64
ATOM     64  C   UNL A   1      41.739  30.778  34.638  1.00  0.00     0.023 A 
ATOM     65  C   UNL A   1      40.612  30.817  35.481  1.00  0.00     0.031 A 
ATOM     66  C   UNL A   1      42.678  31.817  34.749  1.00  0.00     0.131 A 
ATOM     67  C   UNL A   1      40.393  31.929  36.304  1.00  0.00     0.055 A 
ATOM     68  C   UNL A   1      42.506  32.870  35.649  1.00  0.00     0.041 A 
ATOM     69  F   UNL A   1      43.768  31.841  33.965  1.00  0.00    -0.206 F 
ATOM     70  C   UNL A   1      41.346  32.944  36.416  1.00  0.00     0.022 A 
BRANCH  67  71
ATOM     71  S   UNL A   1      38.759  32.121  37.068  1.00  0.00     0.124 S 
ATOM     72  O   UNL A   1      39.113  32.311  38.473  1.00  0.00    -0.237 OA
ATOM     73  O   UNL A   1      38.225  33.290  36.380  1.00  0.00    -0.237 OA
ATOM     74  O   UNL A   1      38.091  30.857  36.766  1.00  0.00    -0.744 OA
ENDBRANCH  67  71
ENDBRANCH  50  64
BRANCH  51  75
ATOM     75  C   UNL A   1      42.577  24.103  27.346  1.00  0.00     0.023 A 
ATOM     76  C   UNL A   1      42.025  22.812  27.349  1.00  0.00     0.031 A 
ATOM     77  C   UNL A   1      43.390  24.470  26.259  1.00  0.00     0.131 A 
ATOM     78  C   UNL A   1      42.334  21.915  26.313  1.00  0.00     0.055 A 
ATOM     79  C   UNL A   1      43.660  23.589  25.208  1.00  0.00     0.041 A 
ATOM     80  F   UNL A   1      43.944  25.691  26.207  1.00  0.00    -0.206 F 
ATOM     81  C   UNL A   1      43.141  22.298  25.238  1.00  0.00     0.022 A 
BRANCH  78  82
ATOM     82  S   UNL A   1      41.728  20.209  26.427  1.00  0.00     0.124 S 
ATOM     83  O   UNL A   1      40.283  20.404  26.395  1.00  0.00    -0.237 OA
ATOM     84  O   UNL A   1      42.321  19.598  25.242  1.00  0.00    -0.237 OA
ATOM     85  O   UNL A   1      42.267  19.740  27.702  1.00  0.00    -0.744 OA
ENDBRANCH  78  82
ENDBRANCH  51  75
BRANCH  63  86
ATOM     86  C   UNL A   1      46.125  25.165  33.262  1.00  0.00     0.023 A 
ATOM     87  C   UNL A   1      45.919  24.071  34.120  1.00  0.00     0.031 A 
ATOM     88  C   UNL A   1      47.453  25.566  33.018  1.00  0.00     0.131 A 
ATOM     89  C   UNL A   1      47.016  23.448  34.739  1.00  0.00     0.055 A 
ATOM     90  C   UNL A   1      48.542  24.902  33.585  1.00  0.00     0.041 A 
ATOM     91  F   UNL A   1      47.714  26.608  32.213  1.00  0.00    -0.206 F 
ATOM     92  C   UNL A   1      48.326  23.844  34.461  1.00  0.00     0.022 A 
BRANCH  89  93
ATOM     93  S   UNL A   1      46.705  22.165  35.985  1.00  0.00     0.124 S 
ATOM     94  O   UNL A   1      45.260  21.991  35.885  1.00  0.00    -0.237 OA
ATOM     95  O   UNL A   1      47.516  21.054  35.498  1.00  0.00    -0.237 OA
ATOM     96  O   UNL A   1      47.173  22.773  37.229  1.00  0.00    -0.744 OA
ENDBRANCH  89  93
ENDBRANCH  63  86
ENDBRANCH  37  38
ENDBRANCH  30  32
ENDBRANCH  29  30
ENDBRANCH  28  29
ENDBRANCH   1  28
TORSDOF 21
ENDMDL
