MODEL 1
REMARK VINA RESULT:     -10.2      0.000      0.000
REMARK SMILES C[C@@H](C(=O)OCCOCCOC(=O)c1ccc(-c2c3nc(c(-c4cc(S(=O)(=O)[O-])ccc4F)c4ccc([nH]4)c(-c4cc(S(=O)(=O)[O-])ccc4F)c4nc(c(-c5cc(S(=O)(=O)[O-])ccc5F)c5ccc2[nH]5)C=C4)C=C3)cc1)N1C(=O)/C(=C\c2ccc(OCc3ccccc3Cl)cc2)SC1=S
REMARK SMILES IDX 7 1 6 2 5 3 3 4 4 5 2 6 1 7 77 8 78 9 98 10 79 11 80 12
REMARK SMILES IDX 97 13 99 14 81 15 82 16 83 17 96 18 84 19 95 20 85 21 86 22
REMARK SMILES IDX 87 23 88 24 89 25 93 26 90 27 92 28 94 29 91 30 8 31 9 32
REMARK SMILES IDX 10 33 11 34 12 35 13 36 14 37 15 38 76 39 16 40 75 41 17 42
REMARK SMILES IDX 18 43 19 44 69 45 20 46 74 47 68 48 70 49 21 50 73 51 67 52
REMARK SMILES IDX 66 53 22 55 54 56 34 57 53 58 35 59 38 60 52 61 71 62 36 63
REMARK SMILES IDX 37 64 51 66 72 67 39 68 23 69 24 70 32 71 25 72 31 73 33 74
REMARK SMILES IDX 30 75 26 76 27 77 28 78 29 79 55 80 56 81 64 82 57 83 63 84
REMARK SMILES IDX 65 85 62 86 58 87 59 88 60 89 61 90 40 91 41 92 49 93 42 94
REMARK SMILES IDX 48 95 50 96 47 97 43 98 44 99 45 100 46 101
REMARK H PARENT 70 54 38 65
REMARK Flexibility Score: inf
ROOT
ATOM      1  C   UNL A   1      36.981  22.952  24.150  1.00  0.00     0.202 C 
ENDROOT
BRANCH   1   2
ATOM      2  C   UNL A   1      35.828  23.775  24.745  1.00  0.00     0.261 C 
BRANCH   2   3
ATOM      3  O   UNL A   1      35.737  23.529  26.155  1.00  0.00    -0.462 OA
BRANCH   3   4
ATOM      4  C   UNL A   1      34.817  22.616  26.570  1.00  0.00     0.329 C 
ATOM      5  O   UNL A   1      35.077  21.514  27.036  1.00  0.00    -0.250 OA
BRANCH   4   6
ATOM      6  C   UNL A   1      33.399  23.211  26.510  1.00  0.00     0.199 C 
ATOM      7  C   UNL A   1      32.498  22.648  27.633  1.00  0.00     0.044 C 
BRANCH   6   8
ATOM      8  N   UNL A   1      32.693  23.278  25.187  1.00  0.00    -0.279 N 
ATOM      9  C   UNL A   1      32.315  24.547  24.755  1.00  0.00     0.266 C 
ATOM     10  C   UNL A   1      32.342  22.244  24.336  1.00  0.00     0.149 C 
ATOM     11  O   UNL A   1      32.568  25.586  25.348  1.00  0.00    -0.268 OA
ATOM     12  C   UNL A   1      31.547  24.489  23.475  1.00  0.00     0.081 C 
ATOM     13  S   UNL A   1      31.394  22.856  22.979  1.00  0.00    -0.054 SA
ATOM     14  S   UNL A   1      32.678  20.616  24.368  1.00  0.00    -0.052 S 
ATOM     15  C   UNL A   1      31.008  25.493  22.766  1.00  0.00     0.029 C 
BRANCH  15  16
ATOM     16  C   UNL A   1      31.066  26.906  23.138  1.00  0.00    -0.024 A 
ATOM     17  C   UNL A   1      30.030  27.460  23.893  1.00  0.00     0.012 A 
ATOM     18  C   UNL A   1      32.173  27.692  22.806  1.00  0.00     0.012 A 
ATOM     19  C   UNL A   1      30.165  28.744  24.416  1.00  0.00     0.047 A 
ATOM     20  C   UNL A   1      32.311  28.975  23.337  1.00  0.00     0.047 A 
ATOM     21  C   UNL A   1      31.339  29.474  24.202  1.00  0.00     0.119 A 
BRANCH  21  22
ATOM     22  O   UNL A   1      31.456  30.588  24.982  1.00  0.00    -0.489 OA
BRANCH  22  23
ATOM     23  C   UNL A   1      31.637  30.432  26.397  1.00  0.00     0.267 C 
BRANCH  23  24
ATOM     24  C   UNL A   1      33.037  30.088  26.893  1.00  0.00     0.008 A 
ATOM     25  C   UNL A   1      33.599  28.808  26.732  1.00  0.00     0.009 A 
ATOM     26  C   UNL A   1      33.864  31.081  27.453  1.00  0.00     0.047 A 
ATOM     27  C   UNL A   1      34.921  28.533  27.096  1.00  0.00     0.001 A 
ATOM     28  C   UNL A   1      35.184  30.800  27.835  1.00  0.00     0.021 A 
ATOM     29  Cl  UNL A   1      33.317  32.707  27.685  1.00  0.00    -0.084 Cl
ATOM     30  C   UNL A   1      35.715  29.528  27.649  1.00  0.00     0.002 A 
ENDBRANCH  23  24
ENDBRANCH  22  23
ENDBRANCH  21  22
ENDBRANCH  15  16
ENDBRANCH   6   8
ENDBRANCH   4   6
ENDBRANCH   3   4
ENDBRANCH   2   3
ENDBRANCH   1   2
BRANCH   1  31
ATOM     31  O   UNL A   1      36.741  21.559  23.931  1.00  0.00    -0.374 OA
BRANCH  31  32
ATOM     32  C   UNL A   1      37.423  20.619  24.758  1.00  0.00     0.202 C 
BRANCH  32  33
ATOM     33  C   UNL A   1      38.371  21.165  25.831  1.00  0.00     0.261 C 
BRANCH  33  34
ATOM     34  O   UNL A   1      39.737  20.770  25.626  1.00  0.00    -0.460 OA
BRANCH  34  35
ATOM     35  C   UNL A   1      40.474  20.724  26.762  1.00  0.00     0.338 C 
ATOM     36  O   UNL A   1      40.959  19.728  27.282  1.00  0.00    -0.246 OA
BRANCH  35  37
ATOM     37  C   UNL A   1      40.789  22.086  27.225  1.00  0.00     0.060 A 
ATOM     38  C   UNL A   1      40.418  23.148  26.393  1.00  0.00     0.016 A 
ATOM     39  C   UNL A   1      41.514  22.317  28.396  1.00  0.00     0.016 A 
ATOM     40  C   UNL A   1      40.814  24.446  26.701  1.00  0.00     0.010 A 
ATOM     41  C   UNL A   1      41.919  23.623  28.700  1.00  0.00     0.010 A 
ATOM     42  C   UNL A   1      41.602  24.687  27.836  1.00  0.00    -0.014 A 
BRANCH  42  43
ATOM     43  C   UNL A   1      42.215  26.025  28.021  1.00  0.00     0.031 A 
ATOM     44  C   UNL A   1      41.452  27.076  28.781  1.00  0.00     0.074 A 
ATOM     45  C   UNL A   1      43.452  26.284  27.560  1.00  0.00     0.049 A 
ATOM     46  N   UNL A   1      41.777  28.316  29.038  1.00  0.00    -0.248 NA
ATOM     47  C   UNL A   1      40.146  26.669  29.322  1.00  0.00     0.031 C 
ATOM     48  C   UNL A   1      44.306  25.326  26.857  1.00  0.00     0.029 A 
ATOM     49  N   UNL A   1      44.205  27.430  27.613  1.00  0.00    -0.354 N 
ATOM     50  C   UNL A   1      40.716  28.842  29.770  1.00  0.00     0.074 A 
ATOM     51  C   UNL A   1      39.722  27.795  29.879  1.00  0.00     0.031 C 
ATOM     52  C   UNL A   1      45.463  25.930  26.536  1.00  0.00     0.029 A 
ATOM     53  C   UNL A   1      45.417  27.324  26.973  1.00  0.00     0.049 A 
ATOM     54  H   UNL A   1      43.904  28.251  28.067  1.00  0.00     0.167 HD
ATOM     55  C   UNL A   1      40.589  30.080  30.309  1.00  0.00     0.034 A 
ATOM     56  C   UNL A   1      46.367  28.253  26.744  1.00  0.00     0.034 A 
ATOM     57  C   UNL A   1      41.585  31.116  30.180  1.00  0.00     0.049 A 
ATOM     58  C   UNL A   1      46.163  29.653  27.274  1.00  0.00     0.074 A 
ATOM     59  C   UNL A   1      41.562  32.402  30.689  1.00  0.00     0.029 A 
ATOM     60  N   UNL A   1      42.779  30.988  29.481  1.00  0.00    -0.354 N 
ATOM     61  N   UNL A   1      45.156  30.138  27.965  1.00  0.00    -0.248 NA
ATOM     62  C   UNL A   1      47.226  30.628  27.000  1.00  0.00     0.031 C 
ATOM     63  C   UNL A   1      42.705  33.074  30.239  1.00  0.00     0.029 A 
ATOM     64  C   UNL A   1      43.483  32.183  29.518  1.00  0.00     0.049 A 
ATOM     65  H   UNL A   1      43.082  30.169  29.028  1.00  0.00     0.167 HD
ATOM     66  C   UNL A   1      45.484  31.465  28.234  1.00  0.00     0.074 A 
ATOM     67  C   UNL A   1      46.785  31.697  27.644  1.00  0.00     0.031 C 
ATOM     68  C   UNL A   1      44.777  32.405  28.914  1.00  0.00     0.034 A 
BRANCH  55  69
ATOM     69  C   UNL A   1      39.303  30.391  31.037  1.00  0.00     0.023 A 
ATOM     70  C   UNL A   1      38.361  31.299  30.523  1.00  0.00     0.031 A 
ATOM     71  C   UNL A   1      39.028  29.789  32.278  1.00  0.00     0.131 A 
ATOM     72  C   UNL A   1      37.224  31.629  31.278  1.00  0.00     0.055 A 
ATOM     73  C   UNL A   1      37.856  30.062  32.986  1.00  0.00     0.041 A 
ATOM     74  F   UNL A   1      39.901  28.931  32.829  1.00  0.00    -0.206 F 
ATOM     75  C   UNL A   1      36.952  30.998  32.493  1.00  0.00     0.022 A 
BRANCH  72  76
ATOM     76  S   UNL A   1      36.175  32.998  30.714  1.00  0.00     0.124 S 
ATOM     77  O   UNL A   1      36.469  34.024  31.712  1.00  0.00    -0.237 OA
ATOM     78  O   UNL A   1      36.682  33.251  29.370  1.00  0.00    -0.237 OA
ATOM     79  O   UNL A   1      34.824  32.445  30.778  1.00  0.00    -0.744 OA
ENDBRANCH  72  76
ENDBRANCH  55  69
BRANCH  56  80
ATOM     80  C   UNL A   1      47.576  27.916  25.939  1.00  0.00     0.023 A 
ATOM     81  C   UNL A   1      47.584  28.048  24.542  1.00  0.00     0.031 A 
ATOM     82  C   UNL A   1      48.728  27.395  26.557  1.00  0.00     0.131 A 
ATOM     83  C   UNL A   1      48.699  27.620  23.805  1.00  0.00     0.055 A 
ATOM     84  C   UNL A   1      49.856  27.022  25.824  1.00  0.00     0.041 A 
ATOM     85  F   UNL A   1      48.775  27.243  27.890  1.00  0.00    -0.206 F 
ATOM     86  C   UNL A   1      49.840  27.121  24.437  1.00  0.00     0.022 A 
BRANCH  83  87
ATOM     87  S   UNL A   1      48.601  27.636  21.993  1.00  0.00     0.124 S 
ATOM     88  O   UNL A   1      47.252  28.146  21.774  1.00  0.00    -0.237 OA
ATOM     89  O   UNL A   1      49.694  28.535  21.639  1.00  0.00    -0.237 OA
ATOM     90  O   UNL A   1      48.806  26.235  21.629  1.00  0.00    -0.744 OA
ENDBRANCH  83  87
ENDBRANCH  56  80
BRANCH  68  91
ATOM     91  C   UNL A   1      45.425  33.757  29.094  1.00  0.00     0.023 A 
ATOM     92  C   UNL A   1      45.466  34.705  28.056  1.00  0.00     0.031 A 
ATOM     93  C   UNL A   1      46.017  34.098  30.324  1.00  0.00     0.131 A 
ATOM     94  C   UNL A   1      46.136  35.923  28.249  1.00  0.00     0.055 A 
ATOM     95  C   UNL A   1      46.627  35.336  30.529  1.00  0.00     0.041 A 
ATOM     96  F   UNL A   1      46.008  33.231  31.349  1.00  0.00    -0.206 F 
ATOM     97  C   UNL A   1      46.701  36.251  29.484  1.00  0.00     0.022 A 
BRANCH  94  98
ATOM     98  S   UNL A   1      46.341  37.039  26.832  1.00  0.00     0.124 S 
ATOM     99  O   UNL A   1      45.181  37.914  26.965  1.00  0.00    -0.237 OA
ATOM    100  O   UNL A   1      47.637  37.652  27.105  1.00  0.00    -0.237 OA
ATOM    101  O   UNL A   1      46.312  36.140  25.680  1.00  0.00    -0.744 OA
ENDBRANCH  94  98
ENDBRANCH  68  91
ENDBRANCH  42  43
ENDBRANCH  35  37
ENDBRANCH  34  35
ENDBRANCH  33  34
ENDBRANCH  32  33
ENDBRANCH  31  32
ENDBRANCH   1  31
TORSDOF 22
ENDMDL
MODEL 2
REMARK VINA RESULT:      -9.4      1.834      2.136
REMARK SMILES C[C@@H](C(=O)OCCOCCOC(=O)c1ccc(-c2c3nc(c(-c4cc(S(=O)(=O)[O-])ccc4F)c4ccc([nH]4)c(-c4cc(S(=O)(=O)[O-])ccc4F)c4nc(c(-c5cc(S(=O)(=O)[O-])ccc5F)c5ccc2[nH]5)C=C4)C=C3)cc1)N1C(=O)/C(=C\c2ccc(OCc3ccccc3Cl)cc2)SC1=S
REMARK SMILES IDX 7 1 6 2 5 3 3 4 4 5 2 6 1 7 77 8 78 9 98 10 79 11 80 12
REMARK SMILES IDX 97 13 99 14 81 15 82 16 83 17 96 18 84 19 95 20 85 21 86 22
REMARK SMILES IDX 87 23 88 24 89 25 93 26 90 27 92 28 94 29 91 30 8 31 9 32
REMARK SMILES IDX 10 33 11 34 12 35 13 36 14 37 15 38 76 39 16 40 75 41 17 42
REMARK SMILES IDX 18 43 19 44 69 45 20 46 74 47 68 48 70 49 21 50 73 51 67 52
REMARK SMILES IDX 66 53 22 55 54 56 34 57 53 58 35 59 38 60 52 61 71 62 36 63
REMARK SMILES IDX 37 64 51 66 72 67 39 68 23 69 24 70 32 71 25 72 31 73 33 74
REMARK SMILES IDX 30 75 26 76 27 77 28 78 29 79 55 80 56 81 64 82 57 83 63 84
REMARK SMILES IDX 65 85 62 86 58 87 59 88 60 89 61 90 40 91 41 92 49 93 42 94
REMARK SMILES IDX 48 95 50 96 47 97 43 98 44 99 45 100 46 101
REMARK H PARENT 70 54 38 65
REMARK Flexibility Score: inf
ROOT
ATOM      1  C   UNL A   1      37.267  23.063  24.459  1.00  0.00     0.202 C 
ENDROOT
BRANCH   1   2
ATOM      2  C   UNL A   1      35.932  23.655  24.938  1.00  0.00     0.261 C 
BRANCH   2   3
ATOM      3  O   UNL A   1      35.723  23.320  26.317  1.00  0.00    -0.462 OA
BRANCH   3   4
ATOM      4  C   UNL A   1      34.722  22.442  26.600  1.00  0.00     0.329 C 
ATOM      5  O   UNL A   1      34.881  21.293  26.991  1.00  0.00    -0.250 OA
BRANCH   4   6
ATOM      6  C   UNL A   1      33.351  23.135  26.502  1.00  0.00     0.199 C 
ATOM      7  C   UNL A   1      32.365  22.597  27.564  1.00  0.00     0.044 C 
BRANCH   6   8
ATOM      8  N   UNL A   1      32.711  23.295  25.154  1.00  0.00    -0.279 N 
ATOM      9  C   UNL A   1      32.394  24.596  24.774  1.00  0.00     0.266 C 
ATOM     10  C   UNL A   1      32.369  22.319  24.233  1.00  0.00     0.149 C 
ATOM     11  O   UNL A   1      32.651  25.594  25.433  1.00  0.00    -0.268 OA
ATOM     12  C   UNL A   1      31.686  24.631  23.459  1.00  0.00     0.081 C 
ATOM     13  S   UNL A   1      31.506  23.033  22.869  1.00  0.00    -0.054 SA
ATOM     14  S   UNL A   1      32.652  20.681  24.193  1.00  0.00    -0.052 S 
ATOM     15  C   UNL A   1      31.212  25.689  22.781  1.00  0.00     0.029 C 
BRANCH  15  16
ATOM     16  C   UNL A   1      31.296  27.077  23.231  1.00  0.00    -0.024 A 
ATOM     17  C   UNL A   1      30.257  27.616  23.992  1.00  0.00     0.012 A 
ATOM     18  C   UNL A   1      32.431  27.851  22.968  1.00  0.00     0.012 A 
ATOM     19  C   UNL A   1      30.412  28.867  24.588  1.00  0.00     0.047 A 
ATOM     20  C   UNL A   1      32.588  29.100  23.571  1.00  0.00     0.047 A 
ATOM     21  C   UNL A   1      31.608  29.576  24.440  1.00  0.00     0.119 A 
BRANCH  21  22
ATOM     22  O   UNL A   1      31.735  30.643  25.282  1.00  0.00    -0.489 OA
BRANCH  22  23
ATOM     23  C   UNL A   1      31.943  30.405  26.682  1.00  0.00     0.267 C 
BRANCH  23  24
ATOM     24  C   UNL A   1      33.382  30.393  27.186  1.00  0.00     0.008 A 
ATOM     25  C   UNL A   1      34.195  29.248  27.114  1.00  0.00     0.009 A 
ATOM     26  C   UNL A   1      33.985  31.574  27.662  1.00  0.00     0.047 A 
ATOM     27  C   UNL A   1      35.543  29.278  27.483  1.00  0.00     0.001 A 
ATOM     28  C   UNL A   1      35.332  31.599  28.049  1.00  0.00     0.021 A 
ATOM     29  Cl  UNL A   1      33.114  33.066  27.779  1.00  0.00    -0.084 Cl
ATOM     30  C   UNL A   1      36.114  30.452  27.952  1.00  0.00     0.002 A 
ENDBRANCH  23  24
ENDBRANCH  22  23
ENDBRANCH  21  22
ENDBRANCH  15  16
ENDBRANCH   6   8
ENDBRANCH   4   6
ENDBRANCH   3   4
ENDBRANCH   2   3
ENDBRANCH   1   2
BRANCH   1  31
ATOM     31  O   UNL A   1      37.337  21.641  24.325  1.00  0.00    -0.374 OA
BRANCH  31  32
ATOM     32  C   UNL A   1      37.901  20.890  25.398  1.00  0.00     0.202 C 
BRANCH  32  33
ATOM     33  C   UNL A   1      39.047  21.526  26.192  1.00  0.00     0.261 C 
BRANCH  33  34
ATOM     34  O   UNL A   1      40.330  20.966  25.870  1.00  0.00    -0.460 OA
BRANCH  34  35
ATOM     35  C   UNL A   1      41.201  20.947  26.909  1.00  0.00     0.338 C 
ATOM     36  O   UNL A   1      41.716  19.961  27.417  1.00  0.00    -0.246 OA
BRANCH  35  37
ATOM     37  C   UNL A   1      41.610  22.318  27.259  1.00  0.00     0.060 A 
ATOM     38  C   UNL A   1      41.703  23.247  26.216  1.00  0.00     0.016 A 
ATOM     39  C   UNL A   1      41.988  22.665  28.558  1.00  0.00     0.016 A 
ATOM     40  C   UNL A   1      42.223  24.515  26.456  1.00  0.00     0.010 A 
ATOM     41  C   UNL A   1      42.518  23.939  28.796  1.00  0.00     0.010 A 
ATOM     42  C   UNL A   1      42.671  24.856  27.739  1.00  0.00    -0.014 A 
BRANCH  42  43
ATOM     43  C   UNL A   1      43.439  26.112  27.928  1.00  0.00     0.031 A 
ATOM     44  C   UNL A   1      42.802  27.246  28.685  1.00  0.00     0.074 A 
ATOM     45  C   UNL A   1      44.699  26.222  27.474  1.00  0.00     0.049 A 
ATOM     46  N   UNL A   1      43.270  28.439  28.944  1.00  0.00    -0.248 NA
ATOM     47  C   UNL A   1      41.454  26.997  29.220  1.00  0.00     0.031 C 
ATOM     48  C   UNL A   1      45.438  25.169  26.775  1.00  0.00     0.029 A 
ATOM     49  N   UNL A   1      45.583  27.270  27.531  1.00  0.00    -0.354 N 
ATOM     50  C   UNL A   1      42.276  29.087  29.671  1.00  0.00     0.074 A 
ATOM     51  C   UNL A   1      41.164  28.165  29.775  1.00  0.00     0.031 C 
ATOM     52  C   UNL A   1      46.660  25.632  26.460  1.00  0.00     0.029 A 
ATOM     53  C   UNL A   1      46.778  27.021  26.898  1.00  0.00     0.049 A 
ATOM     54  H   UNL A   1      45.380  28.121  27.984  1.00  0.00     0.167 HD
ATOM     55  C   UNL A   1      42.294  30.331  30.210  1.00  0.00     0.034 A 
ATOM     56  C   UNL A   1      47.832  27.831  26.674  1.00  0.00     0.034 A 
ATOM     57  C   UNL A   1      43.407  31.242  30.087  1.00  0.00     0.049 A 
ATOM     58  C   UNL A   1      47.793  29.245  27.203  1.00  0.00     0.074 A 
ATOM     59  C   UNL A   1      43.535  32.522  30.597  1.00  0.00     0.029 A 
ATOM     60  N   UNL A   1      44.581  30.973  29.394  1.00  0.00    -0.354 N 
ATOM     61  N   UNL A   1      46.848  29.846  27.889  1.00  0.00    -0.248 NA
ATOM     62  C   UNL A   1      48.967  30.087  26.935  1.00  0.00     0.031 C 
ATOM     63  C   UNL A   1      44.751  33.053  30.153  1.00  0.00     0.029 A 
ATOM     64  C   UNL A   1      45.422  32.075  29.435  1.00  0.00     0.049 A 
ATOM     65  H   UNL A   1      44.787  30.124  28.942  1.00  0.00     0.167 HD
ATOM     66  C   UNL A   1      47.330  31.125  28.161  1.00  0.00     0.074 A 
ATOM     67  C   UNL A   1      48.652  31.201  27.578  1.00  0.00     0.031 C 
ATOM     68  C   UNL A   1      46.736  32.142  28.837  1.00  0.00     0.034 A 
BRANCH  55  69
ATOM     69  C   UNL A   1      41.051  30.793  30.932  1.00  0.00     0.023 A 
ATOM     70  C   UNL A   1      40.121  31.658  30.329  1.00  0.00     0.031 A 
ATOM     71  C   UNL A   1      40.805  30.381  32.254  1.00  0.00     0.131 A 
ATOM     72  C   UNL A   1      39.028  32.136  31.069  1.00  0.00     0.055 A 
ATOM     73  C   UNL A   1      39.673  30.798  32.957  1.00  0.00     0.041 A 
ATOM     74  F   UNL A   1      41.668  29.574  32.890  1.00  0.00    -0.206 F 
ATOM     75  C   UNL A   1      38.783  31.692  32.370  1.00  0.00     0.022 A 
BRANCH  72  76
ATOM     76  S   UNL A   1      38.007  33.456  30.355  1.00  0.00     0.124 S 
ATOM     77  O   UNL A   1      38.321  33.336  28.934  1.00  0.00    -0.237 OA
ATOM     78  O   UNL A   1      36.659  33.058  30.748  1.00  0.00    -0.237 OA
ATOM     79  O   UNL A   1      38.511  34.667  30.998  1.00  0.00    -0.744 OA
ENDBRANCH  72  76
ENDBRANCH  55  69
BRANCH  56  80
ATOM     80  C   UNL A   1      48.997  27.352  25.874  1.00  0.00     0.023 A 
ATOM     81  C   UNL A   1      50.135  26.812  26.493  1.00  0.00     0.031 A 
ATOM     82  C   UNL A   1      49.010  27.485  24.473  1.00  0.00     0.131 A 
ATOM     83  C   UNL A   1      51.256  26.471  25.719  1.00  0.00     0.055 A 
ATOM     84  C   UNL A   1      50.105  27.092  23.703  1.00  0.00     0.041 A 
ATOM     85  F   UNL A   1      47.949  27.998  23.829  1.00  0.00    -0.206 F 
ATOM     86  C   UNL A   1      51.244  26.594  24.329  1.00  0.00     0.022 A 
BRANCH  83  87
ATOM     87  S   UNL A   1      52.772  25.949  26.570  1.00  0.00     0.124 S 
ATOM     88  O   UNL A   1      52.418  26.170  27.968  1.00  0.00    -0.237 OA
ATOM     89  O   UNL A   1      52.891  24.557  26.149  1.00  0.00    -0.237 OA
ATOM     90  O   UNL A   1      53.789  26.850  26.033  1.00  0.00    -0.744 OA
ENDBRANCH  83  87
ENDBRANCH  56  80
BRANCH  68  91
ATOM     91  C   UNL A   1      47.539  33.407  29.021  1.00  0.00     0.023 A 
ATOM     92  C   UNL A   1      47.463  34.475  28.109  1.00  0.00     0.031 A 
ATOM     93  C   UNL A   1      48.401  33.543  30.126  1.00  0.00     0.131 A 
ATOM     94  C   UNL A   1      48.276  35.605  28.287  1.00  0.00     0.055 A 
ATOM     95  C   UNL A   1      49.161  34.695  30.330  1.00  0.00     0.041 A 
ATOM     96  F   UNL A   1      48.515  32.554  31.028  1.00  0.00    -0.206 F 
ATOM     97  C   UNL A   1      49.111  35.729  29.400  1.00  0.00     0.022 A 
BRANCH  94  98
ATOM     98  S   UNL A   1      48.299  36.875  26.991  1.00  0.00     0.124 S 
ATOM     99  O   UNL A   1      47.025  37.552  27.207  1.00  0.00    -0.237 OA
ATOM    100  O   UNL A   1      49.493  37.642  27.328  1.00  0.00    -0.237 OA
ATOM    101  O   UNL A   1      48.388  36.102  25.753  1.00  0.00    -0.744 OA
ENDBRANCH  94  98
ENDBRANCH  68  91
ENDBRANCH  42  43
ENDBRANCH  35  37
ENDBRANCH  34  35
ENDBRANCH  33  34
ENDBRANCH  32  33
ENDBRANCH  31  32
ENDBRANCH   1  31
TORSDOF 22
ENDMDL
MODEL 3
REMARK VINA RESULT:      -9.4      4.486     10.738
REMARK SMILES C[C@@H](C(=O)OCCOCCOC(=O)c1ccc(-c2c3nc(c(-c4cc(S(=O)(=O)[O-])ccc4F)c4ccc([nH]4)c(-c4cc(S(=O)(=O)[O-])ccc4F)c4nc(c(-c5cc(S(=O)(=O)[O-])ccc5F)c5ccc2[nH]5)C=C4)C=C3)cc1)N1C(=O)/C(=C\c2ccc(OCc3ccccc3Cl)cc2)SC1=S
REMARK SMILES IDX 7 1 6 2 5 3 3 4 4 5 2 6 1 7 77 8 78 9 98 10 79 11 80 12
REMARK SMILES IDX 97 13 99 14 81 15 82 16 83 17 96 18 84 19 95 20 85 21 86 22
REMARK SMILES IDX 87 23 88 24 89 25 93 26 90 27 92 28 94 29 91 30 8 31 9 32
REMARK SMILES IDX 10 33 11 34 12 35 13 36 14 37 15 38 76 39 16 40 75 41 17 42
REMARK SMILES IDX 18 43 19 44 69 45 20 46 74 47 68 48 70 49 21 50 73 51 67 52
REMARK SMILES IDX 66 53 22 55 54 56 34 57 53 58 35 59 38 60 52 61 71 62 36 63
REMARK SMILES IDX 37 64 51 66 72 67 39 68 23 69 24 70 32 71 25 72 31 73 33 74
REMARK SMILES IDX 30 75 26 76 27 77 28 78 29 79 55 80 56 81 64 82 57 83 63 84
REMARK SMILES IDX 65 85 62 86 58 87 59 88 60 89 61 90 40 91 41 92 49 93 42 94
REMARK SMILES IDX 48 95 50 96 47 97 43 98 44 99 45 100 46 101
REMARK H PARENT 70 54 38 65
REMARK Flexibility Score: inf
ROOT
ATOM      1  C   UNL A   1      34.395  34.512  32.985  1.00  0.00     0.202 C 
ENDROOT
BRANCH   1   2
ATOM      2  C   UNL A   1      34.387  33.061  32.479  1.00  0.00     0.261 C 
BRANCH   2   3
ATOM      3  O   UNL A   1      34.513  33.047  31.050  1.00  0.00    -0.462 OA
BRANCH   3   4
ATOM      4  C   UNL A   1      35.274  32.061  30.502  1.00  0.00     0.329 C 
ATOM      5  O   UNL A   1      35.751  31.114  31.115  1.00  0.00    -0.250 OA
BRANCH   4   6
ATOM      6  C   UNL A   1      35.335  32.213  28.972  1.00  0.00     0.199 C 
ATOM      7  C   UNL A   1      36.307  33.338  28.551  1.00  0.00     0.044 C 
BRANCH   6   8
ATOM      8  N   UNL A   1      34.053  32.241  28.191  1.00  0.00    -0.279 N 
ATOM      9  C   UNL A   1      33.689  31.053  27.564  1.00  0.00     0.266 C 
ATOM     10  C   UNL A   1      33.183  33.298  27.988  1.00  0.00     0.149 C 
ATOM     11  O   UNL A   1      34.307  30.001  27.656  1.00  0.00    -0.268 OA
ATOM     12  C   UNL A   1      32.448  31.216  26.748  1.00  0.00     0.081 C 
ATOM     13  S   UNL A   1      31.899  32.835  26.869  1.00  0.00    -0.054 SA
ATOM     14  S   UNL A   1      33.136  34.837  28.618  1.00  0.00    -0.052 S 
ATOM     15  C   UNL A   1      31.806  30.309  25.995  1.00  0.00     0.029 C 
BRANCH  15  16
ATOM     16  C   UNL A   1      32.227  28.922  25.814  1.00  0.00    -0.024 A 
ATOM     17  C   UNL A   1      33.188  28.616  24.848  1.00  0.00     0.012 A 
ATOM     18  C   UNL A   1      31.731  27.906  26.638  1.00  0.00     0.012 A 
ATOM     19  C   UNL A   1      33.738  27.336  24.799  1.00  0.00     0.047 A 
ATOM     20  C   UNL A   1      32.288  26.627  26.593  1.00  0.00     0.047 A 
ATOM     21  C   UNL A   1      33.342  26.362  25.721  1.00  0.00     0.119 A 
BRANCH  21  22
ATOM     22  O   UNL A   1      34.139  25.254  25.742  1.00  0.00    -0.489 OA
BRANCH  22  23
ATOM     23  C   UNL A   1      34.530  24.652  24.498  1.00  0.00     0.267 C 
BRANCH  23  24
ATOM     24  C   UNL A   1      33.824  23.364  24.089  1.00  0.00     0.008 A 
ATOM     25  C   UNL A   1      34.200  22.106  24.594  1.00  0.00     0.009 A 
ATOM     26  C   UNL A   1      32.692  23.402  23.250  1.00  0.00     0.047 A 
ATOM     27  C   UNL A   1      33.480  20.947  24.292  1.00  0.00     0.001 A 
ATOM     28  C   UNL A   1      31.982  22.236  22.934  1.00  0.00     0.021 A 
ATOM     29  Cl  UNL A   1      32.097  24.883  22.579  1.00  0.00    -0.084 Cl
ATOM     30  C   UNL A   1      32.371  21.009  23.461  1.00  0.00     0.002 A 
ENDBRANCH  23  24
ENDBRANCH  22  23
ENDBRANCH  21  22
ENDBRANCH  15  16
ENDBRANCH   6   8
ENDBRANCH   4   6
ENDBRANCH   3   4
ENDBRANCH   2   3
ENDBRANCH   1   2
BRANCH   1  31
ATOM     31  O   UNL A   1      35.387  34.859  33.956  1.00  0.00    -0.374 OA
BRANCH  31  32
ATOM     32  C   UNL A   1      36.666  34.235  33.865  1.00  0.00     0.202 C 
BRANCH  32  33
ATOM     33  C   UNL A   1      37.685  34.829  32.885  1.00  0.00     0.261 C 
BRANCH  33  34
ATOM     34  O   UNL A   1      37.769  34.096  31.653  1.00  0.00    -0.460 OA
BRANCH  34  35
ATOM     35  C   UNL A   1      38.788  33.203  31.611  1.00  0.00     0.338 C 
ATOM     36  O   UNL A   1      38.708  31.990  31.758  1.00  0.00    -0.246 OA
BRANCH  35  37
ATOM     37  C   UNL A   1      40.031  33.862  31.177  1.00  0.00     0.060 A 
ATOM     38  C   UNL A   1      40.090  34.312  29.853  1.00  0.00     0.016 A 
ATOM     39  C   UNL A   1      41.147  33.953  32.012  1.00  0.00     0.016 A 
ATOM     40  C   UNL A   1      41.284  34.811  29.339  1.00  0.00     0.010 A 
ATOM     41  C   UNL A   1      42.349  34.447  31.490  1.00  0.00     0.010 A 
ATOM     42  C   UNL A   1      42.432  34.844  30.142  1.00  0.00    -0.014 A 
BRANCH  42  43
ATOM     43  C   UNL A   1      43.743  35.147  29.519  1.00  0.00     0.031 A 
ATOM     44  C   UNL A   1      44.597  34.008  29.030  1.00  0.00     0.074 A 
ATOM     45  C   UNL A   1      44.146  36.419  29.348  1.00  0.00     0.049 A 
ATOM     46  N   UNL A   1      45.785  34.034  28.483  1.00  0.00    -0.248 NA
ATOM     47  C   UNL A   1      44.031  32.658  29.180  1.00  0.00     0.031 C 
ATOM     48  C   UNL A   1      43.378  37.604  29.733  1.00  0.00     0.029 A 
ATOM     49  N   UNL A   1      45.301  36.927  28.808  1.00  0.00    -0.354 N 
ATOM     50  C   UNL A   1      46.112  32.706  28.224  1.00  0.00     0.074 A 
ATOM     51  C   UNL A   1      45.012  31.900  28.712  1.00  0.00     0.031 C 
ATOM     52  C   UNL A   1      44.090  38.701  29.425  1.00  0.00     0.029 A 
ATOM     53  C   UNL A   1      45.376  38.299  28.859  1.00  0.00     0.049 A 
ATOM     54  H   UNL A   1      46.008  36.362  28.421  1.00  0.00     0.167 HD
ATOM     55  C   UNL A   1      47.223  32.208  27.626  1.00  0.00     0.034 A 
ATOM     56  C   UNL A   1      46.380  39.131  28.514  1.00  0.00     0.034 A 
ATOM     57  C   UNL A   1      48.315  33.026  27.156  1.00  0.00     0.049 A 
ATOM     58  C   UNL A   1      47.647  38.547  27.935  1.00  0.00     0.074 A 
ATOM     59  C   UNL A   1      49.484  32.628  26.532  1.00  0.00     0.029 A 
ATOM     60  N   UNL A   1      48.379  34.409  27.271  1.00  0.00    -0.354 N 
ATOM     61  N   UNL A   1      47.944  37.290  27.695  1.00  0.00    -0.248 NA
ATOM     62  C   UNL A   1      48.709  39.495  27.573  1.00  0.00     0.031 C 
ATOM     63  C   UNL A   1      50.285  33.758  26.335  1.00  0.00     0.029 A 
ATOM     64  C   UNL A   1      49.582  34.874  26.760  1.00  0.00     0.049 A 
ATOM     65  H   UNL A   1      47.674  34.976  27.656  1.00  0.00     0.167 HD
ATOM     66  C   UNL A   1      49.215  37.303  27.123  1.00  0.00     0.074 A 
ATOM     67  C   UNL A   1      49.618  38.691  27.043  1.00  0.00     0.031 C 
ATOM     68  C   UNL A   1      49.977  36.263  26.697  1.00  0.00     0.034 A 
BRANCH  55  69
ATOM     69  C   UNL A   1      47.328  30.707  27.500  1.00  0.00     0.023 A 
ATOM     70  C   UNL A   1      47.011  30.039  26.304  1.00  0.00     0.031 A 
ATOM     71  C   UNL A   1      47.728  29.930  28.601  1.00  0.00     0.131 A 
ATOM     72  C   UNL A   1      47.033  28.636  26.259  1.00  0.00     0.055 A 
ATOM     73  C   UNL A   1      47.824  28.539  28.526  1.00  0.00     0.041 A 
ATOM     74  F   UNL A   1      48.021  30.509  29.775  1.00  0.00    -0.206 F 
ATOM     75  C   UNL A   1      47.462  27.882  27.353  1.00  0.00     0.022 A 
BRANCH  72  76
ATOM     76  S   UNL A   1      46.358  27.803  24.794  1.00  0.00     0.124 S 
ATOM     77  O   UNL A   1      44.939  27.723  25.128  1.00  0.00    -0.237 OA
ATOM     78  O   UNL A   1      46.711  28.723  23.718  1.00  0.00    -0.237 OA
ATOM     79  O   UNL A   1      47.060  26.522  24.774  1.00  0.00    -0.744 OA
ENDBRANCH  72  76
ENDBRANCH  55  69
BRANCH  56  80
ATOM     80  C   UNL A   1      46.258  40.600  28.746  1.00  0.00     0.023 A 
ATOM     81  C   UNL A   1      46.101  41.497  27.679  1.00  0.00     0.031 A 
ATOM     82  C   UNL A   1      46.358  41.132  30.045  1.00  0.00     0.131 A 
ATOM     83  C   UNL A   1      46.098  42.880  27.923  1.00  0.00     0.055 A 
ATOM     84  C   UNL A   1      46.298  42.505  30.288  1.00  0.00     0.041 A 
ATOM     85  F   UNL A   1      46.512  40.320  31.103  1.00  0.00    -0.206 F 
ATOM     86  C   UNL A   1      46.182  43.389  29.220  1.00  0.00     0.022 A 
BRANCH  83  87
ATOM     87  S   UNL A   1      46.078  44.012  26.504  1.00  0.00     0.124 S 
ATOM     88  O   UNL A   1      46.460  45.274  27.127  1.00  0.00    -0.237 OA
ATOM     89  O   UNL A   1      47.066  43.405  25.620  1.00  0.00    -0.237 OA
ATOM     90  O   UNL A   1      44.696  43.941  26.034  1.00  0.00    -0.744 OA
ENDBRANCH  83  87
ENDBRANCH  56  80
BRANCH  68  91
ATOM     91  C   UNL A   1      51.305  36.598  26.061  1.00  0.00     0.023 A 
ATOM     92  C   UNL A   1      52.464  36.807  26.828  1.00  0.00     0.031 A 
ATOM     93  C   UNL A   1      51.408  36.716  24.662  1.00  0.00     0.131 A 
ATOM     94  C   UNL A   1      53.661  37.179  26.198  1.00  0.00     0.055 A 
ATOM     95  C   UNL A   1      52.617  37.026  24.037  1.00  0.00     0.041 A 
ATOM     96  F   UNL A   1      50.333  36.528  23.880  1.00  0.00    -0.206 F 
ATOM     97  C   UNL A   1      53.749  37.272  24.807  1.00  0.00     0.022 A 
BRANCH  94  98
ATOM     98  S   UNL A   1      55.085  37.632  27.228  1.00  0.00     0.124 S 
ATOM     99  O   UNL A   1      56.147  36.810  26.658  1.00  0.00    -0.237 OA
ATOM    100  O   UNL A   1      55.195  39.068  26.994  1.00  0.00    -0.237 OA
ATOM    101  O   UNL A   1      54.666  37.255  28.578  1.00  0.00    -0.744 OA
ENDBRANCH  94  98
ENDBRANCH  68  91
ENDBRANCH  42  43
ENDBRANCH  35  37
ENDBRANCH  34  35
ENDBRANCH  33  34
ENDBRANCH  32  33
ENDBRANCH  31  32
ENDBRANCH   1  31
TORSDOF 22
ENDMDL
