MODEL 1
REMARK VINA RESULT:      -9.9      0.000      0.000
REMARK SMILES CCCc1nnc(SCC(=O)OCCOCCOC(=O)c2ccc(-c3c4nc(c(-c5cc(S(=O)(=O)[O-])ccc5F)c5ccc([nH]5)c(-c5cc(S(=O)(=O)[O-])ccc5F)c5nc(c(-c6cc(S(=O)(=O)[O-])ccc6F)c6ccc3[nH]6)C=C5)C=C4)cc2)n1C[C@H]1CCCO1
REMARK SMILES IDX 14 1 13 2 12 3 10 4 11 5 9 6 8 7 7 8 4 9 5 10 84 11 6 12
REMARK SMILES IDX 3 13 2 14 1 15 85 16 86 17 87 18 90 19 88 20 89 21 15 22
REMARK SMILES IDX 16 23 17 24 18 25 19 26 20 27 21 28 22 29 83 30 23 31 82 32
REMARK SMILES IDX 24 33 25 34 26 35 76 36 27 37 81 38 75 39 77 40 28 41 80 42
REMARK SMILES IDX 74 43 73 44 29 46 61 47 41 48 60 49 42 50 45 51 59 52 78 53
REMARK SMILES IDX 43 54 44 55 58 57 79 58 46 59 30 60 31 61 39 62 32 63 38 64
REMARK SMILES IDX 40 65 37 66 33 67 34 68 35 69 36 70 62 71 63 72 71 73 64 74
REMARK SMILES IDX 70 75 72 76 69 77 65 78 66 79 67 80 68 81 47 82 48 83 56 84
REMARK SMILES IDX 49 85 55 86 57 87 54 88 50 89 51 90 52 91 53 92
REMARK H PARENT 77 45 45 56
REMARK Flexibility Score: inf
ROOT
ATOM      1  C   UNL A   1      36.437  23.151  25.720  1.00  0.00     0.202 C 
ENDROOT
BRANCH   1   2
ATOM      2  C   UNL A   1      35.706  22.053  24.936  1.00  0.00     0.261 C 
BRANCH   2   3
ATOM      3  O   UNL A   1      35.084  21.020  25.750  1.00  0.00    -0.463 OA
BRANCH   3   4
ATOM      4  C   UNL A   1      34.054  21.430  26.537  1.00  0.00     0.316 C 
ATOM      5  O   UNL A   1      34.107  21.432  27.767  1.00  0.00    -0.251 OA
BRANCH   4   6
ATOM      6  C   UNL A   1      32.767  21.808  25.830  1.00  0.00     0.200 C 
BRANCH   6   7
ATOM      7  S   UNL A   1      31.738  23.081  26.511  1.00  0.00    -0.074 SA
BRANCH   7   8
ATOM      8  C   UNL A   1      32.154  24.691  26.028  1.00  0.00     0.191 A 
ATOM      9  C   UNL A   1      32.237  26.854  26.380  1.00  0.00     0.133 A 
ATOM     10  N   UNL A   1      33.465  26.429  26.143  1.00  0.00    -0.134 NA
ATOM     11  N   UNL A   1      31.381  25.825  26.016  1.00  0.00    -0.303 N 
ATOM     12  N   UNL A   1      33.412  25.070  25.947  1.00  0.00    -0.123 NA
BRANCH   9  13
ATOM     13  C   UNL A   1      31.931  28.054  27.237  1.00  0.00     0.077 C 
BRANCH  13  14
ATOM     14  C   UNL A   1      32.870  29.250  27.217  1.00  0.00     0.005 C 
ATOM     15  C   UNL A   1      32.773  30.111  25.966  1.00  0.00     0.004 C 
ENDBRANCH  13  14
ENDBRANCH   9  13
BRANCH  11  16
ATOM     16  C   UNL A   1      29.989  25.946  25.694  1.00  0.00     0.158 C 
BRANCH  16  17
ATOM     17  C   UNL A   1      29.659  25.842  24.198  1.00  0.00     0.138 C 
ATOM     18  C   UNL A   1      28.498  26.694  23.709  1.00  0.00     0.036 C 
ATOM     19  O   UNL A   1      30.797  26.328  23.459  1.00  0.00    -0.376 OA
ATOM     20  C   UNL A   1      29.124  28.022  23.351  1.00  0.00     0.031 C 
ATOM     21  C   UNL A   1      30.589  27.709  23.135  1.00  0.00     0.160 C 
ENDBRANCH  16  17
ENDBRANCH  11  16
ENDBRANCH   7   8
ENDBRANCH   6   7
ENDBRANCH   4   6
ENDBRANCH   3   4
ENDBRANCH   2   3
ENDBRANCH   1   2
BRANCH   1  22
ATOM     22  O   UNL A   1      37.867  23.120  25.716  1.00  0.00    -0.374 OA
BRANCH  22  23
ATOM     23  C   UNL A   1      38.503  21.854  25.680  1.00  0.00     0.202 C 
BRANCH  23  24
ATOM     24  C   UNL A   1      39.741  21.686  26.540  1.00  0.00     0.261 C 
BRANCH  24  25
ATOM     25  O   UNL A   1      39.924  22.752  27.442  1.00  0.00    -0.460 OA
BRANCH  25  26
ATOM     26  C   UNL A   1      41.195  22.930  27.837  1.00  0.00     0.338 C 
ATOM     27  O   UNL A   1      41.953  22.072  28.292  1.00  0.00    -0.246 OA
BRANCH  26  28
ATOM     28  C   UNL A   1      41.487  24.356  27.775  1.00  0.00     0.060 A 
ATOM     29  C   UNL A   1      42.520  24.815  28.581  1.00  0.00     0.016 A 
ATOM     30  C   UNL A   1      40.543  25.223  27.208  1.00  0.00     0.016 A 
ATOM     31  C   UNL A   1      42.442  26.110  29.027  1.00  0.00     0.010 A 
ATOM     32  C   UNL A   1      40.437  26.501  27.677  1.00  0.00     0.010 A 
ATOM     33  C   UNL A   1      41.343  26.891  28.647  1.00  0.00    -0.014 A 
BRANCH  33  34
ATOM     34  C   UNL A   1      41.259  28.228  29.166  1.00  0.00     0.031 A 
ATOM     35  C   UNL A   1      42.349  29.061  28.623  1.00  0.00     0.074 A 
ATOM     36  C   UNL A   1      40.254  28.646  29.949  1.00  0.00     0.049 A 
ATOM     37  N   UNL A   1      43.448  29.385  29.216  1.00  0.00    -0.248 NA
ATOM     38  C   UNL A   1      42.360  29.293  27.167  1.00  0.00     0.031 C 
ATOM     39  C   UNL A   1      39.003  27.971  30.292  1.00  0.00     0.029 A 
ATOM     40  N   UNL A   1      40.126  29.849  30.554  1.00  0.00    -0.354 N 
ATOM     41  C   UNL A   1      44.165  30.100  28.269  1.00  0.00     0.074 A 
ATOM     42  C   UNL A   1      43.600  29.748  26.999  1.00  0.00     0.031 C 
ATOM     43  C   UNL A   1      38.156  28.867  30.855  1.00  0.00     0.029 A 
ATOM     44  C   UNL A   1      38.853  30.133  31.025  1.00  0.00     0.049 A 
ATOM     45  H   UNL A   1      40.879  30.475  30.653  1.00  0.00     0.167 HD
ATOM     46  C   UNL A   1      44.938  31.154  28.639  1.00  0.00     0.034 A 
ATOM     47  C   UNL A   1      38.415  31.358  31.424  1.00  0.00     0.034 A 
ATOM     48  C   UNL A   1      45.219  31.105  30.061  1.00  0.00     0.049 A 
ATOM     49  C   UNL A   1      39.636  32.153  31.748  1.00  0.00     0.074 A 
ATOM     50  C   UNL A   1      45.848  30.188  30.884  1.00  0.00     0.029 A 
ATOM     51  N   UNL A   1      44.451  31.888  30.899  1.00  0.00    -0.354 N 
ATOM     52  N   UNL A   1      40.447  31.843  32.726  1.00  0.00    -0.248 NA
ATOM     53  C   UNL A   1      40.242  32.945  30.683  1.00  0.00     0.031 C 
ATOM     54  C   UNL A   1      45.057  30.152  32.071  1.00  0.00     0.029 A 
ATOM     55  C   UNL A   1      44.041  31.104  31.953  1.00  0.00     0.049 A 
ATOM     56  H   UNL A   1      44.235  32.839  30.765  1.00  0.00     0.167 HD
ATOM     57  C   UNL A   1      41.727  32.020  32.215  1.00  0.00     0.074 A 
ATOM     58  C   UNL A   1      41.536  32.783  30.982  1.00  0.00     0.031 C 
ATOM     59  C   UNL A   1      42.786  31.279  32.669  1.00  0.00     0.034 A 
BRANCH  46  60
ATOM     60  C   UNL A   1      45.080  32.415  27.815  1.00  0.00     0.023 A 
ATOM     61  C   UNL A   1      46.321  32.621  27.191  1.00  0.00     0.031 A 
ATOM     62  C   UNL A   1      44.207  33.533  27.823  1.00  0.00     0.131 A 
ATOM     63  C   UNL A   1      46.691  33.892  26.723  1.00  0.00     0.055 A 
ATOM     64  C   UNL A   1      44.557  34.778  27.301  1.00  0.00     0.041 A 
ATOM     65  F   UNL A   1      43.004  33.528  28.403  1.00  0.00    -0.206 F 
ATOM     66  C   UNL A   1      45.819  34.976  26.779  1.00  0.00     0.022 A 
BRANCH  63  67
ATOM     67  S   UNL A   1      48.403  34.142  26.204  1.00  0.00     0.124 S 
ATOM     68  O   UNL A   1      48.878  35.092  27.203  1.00  0.00    -0.237 OA
ATOM     69  O   UNL A   1      48.940  32.788  26.292  1.00  0.00    -0.237 OA
ATOM     70  O   UNL A   1      48.270  34.673  24.849  1.00  0.00    -0.744 OA
ENDBRANCH  63  67
ENDBRANCH  46  60
BRANCH  47  71
ATOM     71  C   UNL A   1      37.080  31.953  31.118  1.00  0.00     0.023 A 
ATOM     72  C   UNL A   1      36.243  32.529  32.098  1.00  0.00     0.031 A 
ATOM     73  C   UNL A   1      36.700  32.156  29.770  1.00  0.00     0.131 A 
ATOM     74  C   UNL A   1      35.087  33.255  31.713  1.00  0.00     0.055 A 
ATOM     75  C   UNL A   1      35.557  32.865  29.397  1.00  0.00     0.041 A 
ATOM     76  F   UNL A   1      37.479  31.742  28.758  1.00  0.00    -0.206 F 
ATOM     77  C   UNL A   1      34.746  33.425  30.369  1.00  0.00     0.022 A 
BRANCH  74  78
ATOM     78  S   UNL A   1      34.032  34.062  32.964  1.00  0.00     0.124 S 
ATOM     79  O   UNL A   1      34.984  34.371  34.024  1.00  0.00    -0.237 OA
ATOM     80  O   UNL A   1      33.488  35.199  32.229  1.00  0.00    -0.237 OA
ATOM     81  O   UNL A   1      33.049  33.031  33.304  1.00  0.00    -0.744 OA
ENDBRANCH  74  78
ENDBRANCH  47  71
BRANCH  59  82
ATOM     82  C   UNL A   1      42.578  30.418  33.907  1.00  0.00     0.023 A 
ATOM     83  C   UNL A   1      42.441  29.008  33.903  1.00  0.00     0.031 A 
ATOM     84  C   UNL A   1      42.663  31.056  35.156  1.00  0.00     0.131 A 
ATOM     85  C   UNL A   1      42.387  28.298  35.121  1.00  0.00     0.055 A 
ATOM     86  C   UNL A   1      42.633  30.348  36.357  1.00  0.00     0.041 A 
ATOM     87  F   UNL A   1      42.824  32.387  35.229  1.00  0.00    -0.206 F 
ATOM     88  C   UNL A   1      42.490  28.966  36.345  1.00  0.00     0.022 A 
BRANCH  85  89
ATOM     89  S   UNL A   1      42.179  26.485  35.143  1.00  0.00     0.124 S 
ATOM     90  O   UNL A   1      40.750  26.306  34.911  1.00  0.00    -0.237 OA
ATOM     91  O   UNL A   1      43.064  26.050  34.066  1.00  0.00    -0.237 OA
ATOM     92  O   UNL A   1      42.628  26.105  36.485  1.00  0.00    -0.744 OA
ENDBRANCH  85  89
ENDBRANCH  59  82
ENDBRANCH  33  34
ENDBRANCH  26  28
ENDBRANCH  25  26
ENDBRANCH  24  25
ENDBRANCH  23  24
ENDBRANCH  22  23
ENDBRANCH   1  22
TORSDOF 23
ENDMDL
MODEL 2
REMARK VINA RESULT:      -9.9      3.657      8.624
REMARK SMILES CCCc1nnc(SCC(=O)OCCOCCOC(=O)c2ccc(-c3c4nc(c(-c5cc(S(=O)(=O)[O-])ccc5F)c5ccc([nH]5)c(-c5cc(S(=O)(=O)[O-])ccc5F)c5nc(c(-c6cc(S(=O)(=O)[O-])ccc6F)c6ccc3[nH]6)C=C5)C=C4)cc2)n1C[C@H]1CCCO1
REMARK SMILES IDX 14 1 13 2 12 3 10 4 11 5 9 6 8 7 7 8 4 9 5 10 84 11 6 12
REMARK SMILES IDX 3 13 2 14 1 15 85 16 86 17 87 18 90 19 88 20 89 21 15 22
REMARK SMILES IDX 16 23 17 24 18 25 19 26 20 27 21 28 22 29 83 30 23 31 82 32
REMARK SMILES IDX 24 33 25 34 26 35 76 36 27 37 81 38 75 39 77 40 28 41 80 42
REMARK SMILES IDX 74 43 73 44 29 46 61 47 41 48 60 49 42 50 45 51 59 52 78 53
REMARK SMILES IDX 43 54 44 55 58 57 79 58 46 59 30 60 31 61 39 62 32 63 38 64
REMARK SMILES IDX 40 65 37 66 33 67 34 68 35 69 36 70 62 71 63 72 71 73 64 74
REMARK SMILES IDX 70 75 72 76 69 77 65 78 66 79 67 80 68 81 47 82 48 83 56 84
REMARK SMILES IDX 49 85 55 86 57 87 54 88 50 89 51 90 52 91 53 92
REMARK H PARENT 77 45 45 56
REMARK Flexibility Score: inf
ROOT
ATOM      1  C   UNL A   1      33.356  28.994  26.054  1.00  0.00     0.202 C 
ENDROOT
BRANCH   1   2
ATOM      2  C   UNL A   1      32.069  28.530  25.359  1.00  0.00     0.261 C 
BRANCH   2   3
ATOM      3  O   UNL A   1      32.187  27.296  24.598  1.00  0.00    -0.463 OA
BRANCH   3   4
ATOM      4  C   UNL A   1      31.167  26.410  24.750  1.00  0.00     0.316 C 
ATOM      5  O   UNL A   1      30.379  26.447  25.695  1.00  0.00    -0.251 OA
BRANCH   4   6
ATOM      6  C   UNL A   1      31.087  25.284  23.737  1.00  0.00     0.200 C 
BRANCH   6   7
ATOM      7  S   UNL A   1      32.570  24.706  22.955  1.00  0.00    -0.074 SA
BRANCH   7   8
ATOM      8  C   UNL A   1      33.781  24.110  24.041  1.00  0.00     0.191 A 
ATOM      9  C   UNL A   1      35.590  22.945  24.468  1.00  0.00     0.133 A 
ATOM     10  N   UNL A   1      35.797  24.188  24.863  1.00  0.00    -0.134 NA
ATOM     11  N   UNL A   1      34.228  22.826  24.227  1.00  0.00    -0.303 N 
ATOM     12  N   UNL A   1      34.671  24.920  24.572  1.00  0.00    -0.123 NA
BRANCH   9  13
ATOM     13  C   UNL A   1      36.694  22.029  24.012  1.00  0.00     0.077 C 
BRANCH  13  14
ATOM     14  C   UNL A   1      37.407  21.150  25.029  1.00  0.00     0.005 C 
ATOM     15  C   UNL A   1      38.597  21.809  25.712  1.00  0.00     0.004 C 
ENDBRANCH  13  14
ENDBRANCH   9  13
BRANCH  11  16
ATOM     16  C   UNL A   1      33.471  21.609  24.192  1.00  0.00     0.158 C 
BRANCH  16  17
ATOM     17  C   UNL A   1      32.954  21.128  25.555  1.00  0.00     0.138 C 
ATOM     18  C   UNL A   1      33.256  22.031  26.740  1.00  0.00     0.036 C 
ATOM     19  O   UNL A   1      31.514  21.088  25.492  1.00  0.00    -0.376 OA
ATOM     20  C   UNL A   1      32.099  23.004  26.784  1.00  0.00     0.031 C 
ATOM     21  C   UNL A   1      30.988  22.311  26.025  1.00  0.00     0.160 C 
ENDBRANCH  16  17
ENDBRANCH  11  16
ENDBRANCH   7   8
ENDBRANCH   6   7
ENDBRANCH   4   6
ENDBRANCH   3   4
ENDBRANCH   2   3
ENDBRANCH   1   2
BRANCH   1  22
ATOM     22  O   UNL A   1      33.503  30.396  26.297  1.00  0.00    -0.374 OA
BRANCH  22  23
ATOM     23  C   UNL A   1      33.828  30.811  27.612  1.00  0.00     0.202 C 
BRANCH  23  24
ATOM     24  C   UNL A   1      35.304  30.930  27.946  1.00  0.00     0.261 C 
BRANCH  24  25
ATOM     25  O   UNL A   1      35.872  29.705  28.344  1.00  0.00    -0.460 OA
BRANCH  25  26
ATOM     26  C   UNL A   1      36.901  29.823  29.197  1.00  0.00     0.338 C 
ATOM     27  O   UNL A   1      36.983  30.599  30.151  1.00  0.00    -0.246 OA
BRANCH  26  28
ATOM     28  C   UNL A   1      37.982  28.974  28.715  1.00  0.00     0.060 A 
ATOM     29  C   UNL A   1      38.529  28.084  29.629  1.00  0.00     0.016 A 
ATOM     30  C   UNL A   1      38.634  29.307  27.520  1.00  0.00     0.016 A 
ATOM     31  C   UNL A   1      39.847  27.741  29.463  1.00  0.00     0.010 A 
ATOM     32  C   UNL A   1      39.955  29.002  27.366  1.00  0.00     0.010 A 
ATOM     33  C   UNL A   1      40.559  28.294  28.391  1.00  0.00    -0.014 A 
BRANCH  33  34
ATOM     34  C   UNL A   1      41.950  27.958  28.264  1.00  0.00     0.031 A 
ATOM     35  C   UNL A   1      42.106  26.655  27.592  1.00  0.00     0.074 A 
ATOM     36  C   UNL A   1      42.938  28.789  28.627  1.00  0.00     0.049 A 
ATOM     37  N   UNL A   1      42.348  25.517  28.150  1.00  0.00    -0.248 NA
ATOM     38  C   UNL A   1      41.635  26.553  26.198  1.00  0.00     0.031 C 
ATOM     39  C   UNL A   1      42.868  30.193  29.029  1.00  0.00     0.029 A 
ATOM     40  N   UNL A   1      44.267  28.538  28.628  1.00  0.00    -0.354 N 
ATOM     41  C   UNL A   1      42.322  24.599  27.110  1.00  0.00     0.074 A 
ATOM     42  C   UNL A   1      41.601  25.232  26.044  1.00  0.00     0.031 C 
ATOM     43  C   UNL A   1      44.117  30.721  29.014  1.00  0.00     0.029 A 
ATOM     44  C   UNL A   1      45.073  29.661  28.729  1.00  0.00     0.049 A 
ATOM     45  H   UNL A   1      44.634  27.627  28.563  1.00  0.00     0.167 HD
ATOM     46  C   UNL A   1      43.171  23.537  27.106  1.00  0.00     0.034 A 
ATOM     47  C   UNL A   1      46.413  29.695  28.490  1.00  0.00     0.034 A 
ATOM     48  C   UNL A   1      43.700  23.304  28.435  1.00  0.00     0.049 A 
ATOM     49  C   UNL A   1      46.897  28.290  28.625  1.00  0.00     0.074 A 
ATOM     50  C   UNL A   1      43.127  23.006  29.658  1.00  0.00     0.029 A 
ATOM     51  N   UNL A   1      44.957  23.795  28.726  1.00  0.00    -0.354 N 
ATOM     52  N   UNL A   1      46.856  27.630  29.753  1.00  0.00    -0.248 NA
ATOM     53  C   UNL A   1      46.913  27.452  27.431  1.00  0.00     0.031 C 
ATOM     54  C   UNL A   1      43.856  23.782  30.608  1.00  0.00     0.029 A 
ATOM     55  C   UNL A   1      44.888  24.444  29.938  1.00  0.00     0.049 A 
ATOM     56  H   UNL A   1      45.760  23.698  28.165  1.00  0.00     0.167 HD
ATOM     57  C   UNL A   1      46.420  26.353  29.421  1.00  0.00     0.074 A 
ATOM     58  C   UNL A   1      46.556  26.279  27.966  1.00  0.00     0.031 C 
ATOM     59  C   UNL A   1      45.709  25.588  30.306  1.00  0.00     0.034 A 
BRANCH  46  60
ATOM     60  C   UNL A   1      43.822  22.995  25.853  1.00  0.00     0.023 A 
ATOM     61  C   UNL A   1      43.761  21.605  25.665  1.00  0.00     0.031 A 
ATOM     62  C   UNL A   1      44.712  23.689  24.995  1.00  0.00     0.131 A 
ATOM     63  C   UNL A   1      44.624  20.960  24.764  1.00  0.00     0.055 A 
ATOM     64  C   UNL A   1      45.524  23.048  24.057  1.00  0.00     0.041 A 
ATOM     65  F   UNL A   1      44.924  25.006  25.057  1.00  0.00    -0.206 F 
ATOM     66  C   UNL A   1      45.510  21.672  23.962  1.00  0.00     0.022 A 
BRANCH  63  67
ATOM     67  S   UNL A   1      44.690  19.155  24.793  1.00  0.00     0.124 S 
ATOM     68  O   UNL A   1      45.932  18.917  25.518  1.00  0.00    -0.237 OA
ATOM     69  O   UNL A   1      43.457  18.825  25.500  1.00  0.00    -0.237 OA
ATOM     70  O   UNL A   1      44.713  18.796  23.378  1.00  0.00    -0.744 OA
ENDBRANCH  63  67
ENDBRANCH  46  60
BRANCH  47  71
ATOM     71  C   UNL A   1      47.144  30.770  27.757  1.00  0.00     0.023 A 
ATOM     72  C   UNL A   1      46.507  31.889  27.178  1.00  0.00     0.031 A 
ATOM     73  C   UNL A   1      48.559  30.811  27.810  1.00  0.00     0.131 A 
ATOM     74  C   UNL A   1      47.276  32.970  26.677  1.00  0.00     0.055 A 
ATOM     75  C   UNL A   1      49.311  31.875  27.308  1.00  0.00     0.041 A 
ATOM     76  F   UNL A   1      49.260  29.851  28.431  1.00  0.00    -0.206 F 
ATOM     77  C   UNL A   1      48.671  32.965  26.744  1.00  0.00     0.022 A 
BRANCH  74  78
ATOM     78  S   UNL A   1      46.464  34.452  25.987  1.00  0.00     0.124 S 
ATOM     79  O   UNL A   1      45.529  33.878  25.026  1.00  0.00    -0.237 OA
ATOM     80  O   UNL A   1      45.879  35.069  27.172  1.00  0.00    -0.237 OA
ATOM     81  O   UNL A   1      47.570  35.204  25.391  1.00  0.00    -0.744 OA
ENDBRANCH  74  78
ENDBRANCH  47  71
BRANCH  59  82
ATOM     82  C   UNL A   1      45.602  26.072  31.745  1.00  0.00     0.023 A 
ATOM     83  C   UNL A   1      44.422  26.570  32.351  1.00  0.00     0.031 A 
ATOM     84  C   UNL A   1      46.723  25.884  32.572  1.00  0.00     0.131 A 
ATOM     85  C   UNL A   1      44.404  26.865  33.731  1.00  0.00     0.055 A 
ATOM     86  C   UNL A   1      46.694  26.155  33.939  1.00  0.00     0.041 A 
ATOM     87  F   UNL A   1      47.863  25.386  32.066  1.00  0.00    -0.206 F 
ATOM     88  C   UNL A   1      45.536  26.651  34.523  1.00  0.00     0.022 A 
BRANCH  85  89
ATOM     89  S   UNL A   1      42.907  27.539  34.527  1.00  0.00     0.124 S 
ATOM     90  O   UNL A   1      42.269  28.301  33.459  1.00  0.00    -0.237 OA
ATOM     91  O   UNL A   1      42.208  26.333  34.961  1.00  0.00    -0.237 OA
ATOM     92  O   UNL A   1      43.439  28.356  35.620  1.00  0.00    -0.744 OA
ENDBRANCH  85  89
ENDBRANCH  59  82
ENDBRANCH  33  34
ENDBRANCH  26  28
ENDBRANCH  25  26
ENDBRANCH  24  25
ENDBRANCH  23  24
ENDBRANCH  22  23
ENDBRANCH   1  22
TORSDOF 23
ENDMDL
MODEL 3
REMARK VINA RESULT:      -9.8      3.351      9.580
REMARK SMILES CCCc1nnc(SCC(=O)OCCOCCOC(=O)c2ccc(-c3c4nc(c(-c5cc(S(=O)(=O)[O-])ccc5F)c5ccc([nH]5)c(-c5cc(S(=O)(=O)[O-])ccc5F)c5nc(c(-c6cc(S(=O)(=O)[O-])ccc6F)c6ccc3[nH]6)C=C5)C=C4)cc2)n1C[C@H]1CCCO1
REMARK SMILES IDX 14 1 13 2 12 3 10 4 11 5 9 6 8 7 7 8 4 9 5 10 84 11 6 12
REMARK SMILES IDX 3 13 2 14 1 15 85 16 86 17 87 18 90 19 88 20 89 21 15 22
REMARK SMILES IDX 16 23 17 24 18 25 19 26 20 27 21 28 22 29 83 30 23 31 82 32
REMARK SMILES IDX 24 33 25 34 26 35 76 36 27 37 81 38 75 39 77 40 28 41 80 42
REMARK SMILES IDX 74 43 73 44 29 46 61 47 41 48 60 49 42 50 45 51 59 52 78 53
REMARK SMILES IDX 43 54 44 55 58 57 79 58 46 59 30 60 31 61 39 62 32 63 38 64
REMARK SMILES IDX 40 65 37 66 33 67 34 68 35 69 36 70 62 71 63 72 71 73 64 74
REMARK SMILES IDX 70 75 72 76 69 77 65 78 66 79 67 80 68 81 47 82 48 83 56 84
REMARK SMILES IDX 49 85 55 86 57 87 54 88 50 89 51 90 52 91 53 92
REMARK H PARENT 77 45 45 56
REMARK Flexibility Score: inf
ROOT
ATOM      1  C   UNL A   1      33.348  29.297  27.266  1.00  0.00     0.202 C 
ENDROOT
BRANCH   1   2
ATOM      2  C   UNL A   1      32.623  29.599  25.946  1.00  0.00     0.261 C 
BRANCH   2   3
ATOM      3  O   UNL A   1      31.370  28.885  25.751  1.00  0.00    -0.463 OA
BRANCH   3   4
ATOM      4  C   UNL A   1      31.457  27.528  25.757  1.00  0.00     0.316 C 
ATOM      5  O   UNL A   1      31.195  26.842  26.745  1.00  0.00    -0.251 OA
BRANCH   4   6
ATOM      6  C   UNL A   1      31.993  26.876  24.498  1.00  0.00     0.200 C 
BRANCH   6   7
ATOM      7  S   UNL A   1      33.725  26.517  24.369  1.00  0.00    -0.074 SA
BRANCH   7   8
ATOM      8  C   UNL A   1      34.100  24.982  23.660  1.00  0.00     0.191 A 
ATOM      9  C   UNL A   1      34.000  22.791  23.628  1.00  0.00     0.133 A 
ATOM     10  N   UNL A   1      33.519  23.241  22.484  1.00  0.00    -0.134 NA
ATOM     11  N   UNL A   1      34.637  23.861  24.241  1.00  0.00    -0.303 N 
ATOM     12  N   UNL A   1      33.560  24.614  22.517  1.00  0.00    -0.123 NA
BRANCH   9  13
ATOM     13  C   UNL A   1      33.566  21.491  24.251  1.00  0.00     0.077 C 
BRANCH  13  14
ATOM     14  C   UNL A   1      32.092  21.253  24.540  1.00  0.00     0.005 C 
ATOM     15  C   UNL A   1      31.449  22.286  25.453  1.00  0.00     0.004 C 
ENDBRANCH  13  14
ENDBRANCH   9  13
BRANCH  11  16
ATOM     16  C   UNL A   1      35.644  23.786  25.259  1.00  0.00     0.158 C 
BRANCH  16  17
ATOM     17  C   UNL A   1      37.079  23.619  24.740  1.00  0.00     0.138 C 
ATOM     18  C   UNL A   1      38.162  23.490  25.799  1.00  0.00     0.036 C 
ATOM     19  O   UNL A   1      37.143  22.380  24.007  1.00  0.00    -0.376 OA
ATOM     20  C   UNL A   1      38.231  22.010  26.096  1.00  0.00     0.031 C 
ATOM     21  C   UNL A   1      37.624  21.347  24.878  1.00  0.00     0.160 C 
ENDBRANCH  16  17
ENDBRANCH  11  16
ENDBRANCH   7   8
ENDBRANCH   6   7
ENDBRANCH   4   6
ENDBRANCH   3   4
ENDBRANCH   2   3
ENDBRANCH   1   2
BRANCH   1  22
ATOM     22  O   UNL A   1      34.433  30.154  27.629  1.00  0.00    -0.374 OA
BRANCH  22  23
ATOM     23  C   UNL A   1      34.178  31.545  27.719  1.00  0.00     0.202 C 
BRANCH  23  24
ATOM     24  C   UNL A   1      34.476  32.210  29.050  1.00  0.00     0.261 C 
BRANCH  24  25
ATOM     25  O   UNL A   1      35.855  32.401  29.265  1.00  0.00    -0.460 OA
BRANCH  25  26
ATOM     26  C   UNL A   1      36.374  31.639  30.240  1.00  0.00     0.338 C 
ATOM     27  O   UNL A   1      36.019  31.608  31.420  1.00  0.00    -0.246 OA
BRANCH  26  28
ATOM     28  C   UNL A   1      37.537  30.950  29.699  1.00  0.00     0.060 A 
ATOM     29  C   UNL A   1      37.366  29.617  29.351  1.00  0.00     0.016 A 
ATOM     30  C   UNL A   1      38.808  31.517  29.867  1.00  0.00     0.016 A 
ATOM     31  C   UNL A   1      38.462  28.798  29.435  1.00  0.00     0.010 A 
ATOM     32  C   UNL A   1      39.897  30.703  29.989  1.00  0.00     0.010 A 
ATOM     33  C   UNL A   1      39.682  29.343  29.856  1.00  0.00    -0.014 A 
BRANCH  33  34
ATOM     34  C   UNL A   1      40.806  28.456  29.981  1.00  0.00     0.031 A 
ATOM     35  C   UNL A   1      41.197  28.317  31.397  1.00  0.00     0.074 A 
ATOM     36  C   UNL A   1      41.328  27.788  28.942  1.00  0.00     0.049 A 
ATOM     37  N   UNL A   1      42.175  28.909  31.993  1.00  0.00    -0.248 NA
ATOM     38  C   UNL A   1      40.215  27.705  32.311  1.00  0.00     0.031 C 
ATOM     39  C   UNL A   1      40.822  27.653  27.577  1.00  0.00     0.029 A 
ATOM     40  N   UNL A   1      42.428  27.001  28.938  1.00  0.00    -0.354 N 
ATOM     41  C   UNL A   1      42.074  28.513  33.319  1.00  0.00     0.074 A 
ATOM     42  C   UNL A   1      40.728  28.051  33.490  1.00  0.00     0.031 C 
ATOM     43  C   UNL A   1      41.494  26.655  26.952  1.00  0.00     0.029 A 
ATOM     44  C   UNL A   1      42.553  26.178  27.829  1.00  0.00     0.049 A 
ATOM     45  H   UNL A   1      43.090  27.012  29.667  1.00  0.00     0.167 HD
ATOM     46  C   UNL A   1      43.191  28.299  34.062  1.00  0.00     0.034 A 
ATOM     47  C   UNL A   1      43.412  25.128  27.718  1.00  0.00     0.034 A 
ATOM     48  C   UNL A   1      44.340  28.937  33.449  1.00  0.00     0.049 A 
ATOM     49  C   UNL A   1      44.487  25.360  28.728  1.00  0.00     0.074 A 
ATOM     50  C   UNL A   1      44.651  30.245  33.122  1.00  0.00     0.029 A 
ATOM     51  N   UNL A   1      45.184  28.155  32.687  1.00  0.00    -0.354 N 
ATOM     52  N   UNL A   1      45.314  26.371  28.666  1.00  0.00    -0.248 NA
ATOM     53  C   UNL A   1      44.304  24.804  30.064  1.00  0.00     0.031 C 
ATOM     54  C   UNL A   1      45.294  30.165  31.850  1.00  0.00     0.029 A 
ATOM     55  C   UNL A   1      45.424  28.817  31.505  1.00  0.00     0.049 A 
ATOM     56  H   UNL A   1      45.549  27.278  32.945  1.00  0.00     0.167 HD
ATOM     57  C   UNL A   1      45.420  26.843  29.968  1.00  0.00     0.074 A 
ATOM     58  C   UNL A   1      44.845  25.784  30.798  1.00  0.00     0.031 C 
ATOM     59  C   UNL A   1      45.680  28.161  30.232  1.00  0.00     0.034 A 
BRANCH  46  60
ATOM     60  C   UNL A   1      43.314  27.193  35.086  1.00  0.00     0.023 A 
ATOM     61  C   UNL A   1      43.688  27.577  36.384  1.00  0.00     0.031 A 
ATOM     62  C   UNL A   1      43.358  25.800  34.825  1.00  0.00     0.131 A 
ATOM     63  C   UNL A   1      44.184  26.636  37.300  1.00  0.00     0.055 A 
ATOM     64  C   UNL A   1      43.794  24.861  35.761  1.00  0.00     0.041 A 
ATOM     65  F   UNL A   1      43.071  25.260  33.637  1.00  0.00    -0.206 F 
ATOM     66  C   UNL A   1      44.246  25.279  36.996  1.00  0.00     0.022 A 
BRANCH  63  67
ATOM     67  S   UNL A   1      44.916  27.247  38.835  1.00  0.00     0.124 S 
ATOM     68  O   UNL A   1      44.812  28.690  38.657  1.00  0.00    -0.237 OA
ATOM     69  O   UNL A   1      44.037  26.655  39.838  1.00  0.00    -0.237 OA
ATOM     70  O   UNL A   1      46.273  26.708  38.799  1.00  0.00    -0.744 OA
ENDBRANCH  63  67
ENDBRANCH  46  60
BRANCH  47  71
ATOM     71  C   UNL A   1      43.097  23.800  27.114  1.00  0.00     0.023 A 
ATOM     72  C   UNL A   1      44.004  23.078  26.308  1.00  0.00     0.031 A 
ATOM     73  C   UNL A   1      41.931  23.108  27.521  1.00  0.00     0.131 A 
ATOM     74  C   UNL A   1      43.720  21.739  25.937  1.00  0.00     0.055 A 
ATOM     75  C   UNL A   1      41.653  21.792  27.146  1.00  0.00     0.041 A 
ATOM     76  F   UNL A   1      41.054  23.663  28.373  1.00  0.00    -0.206 F 
ATOM     77  C   UNL A   1      42.552  21.098  26.356  1.00  0.00     0.022 A 
BRANCH  74  78
ATOM     78  S   UNL A   1      44.912  20.771  24.951  1.00  0.00     0.124 S 
ATOM     79  O   UNL A   1      46.193  21.321  25.381  1.00  0.00    -0.237 OA
ATOM     80  O   UNL A   1      44.623  19.402  25.364  1.00  0.00    -0.237 OA
ATOM     81  O   UNL A   1      44.547  21.080  23.567  1.00  0.00    -0.744 OA
ENDBRANCH  74  78
ENDBRANCH  47  71
BRANCH  59  82
ATOM     82  C   UNL A   1      46.079  29.058  29.068  1.00  0.00     0.023 A 
ATOM     83  C   UNL A   1      45.204  29.932  28.377  1.00  0.00     0.031 A 
ATOM     84  C   UNL A   1      47.446  29.122  28.745  1.00  0.00     0.131 A 
ATOM     85  C   UNL A   1      45.711  30.816  27.401  1.00  0.00     0.055 A 
ATOM     86  C   UNL A   1      47.946  30.014  27.796  1.00  0.00     0.041 A 
ATOM     87  F   UNL A   1      48.332  28.342  29.384  1.00  0.00    -0.206 F 
ATOM     88  C   UNL A   1      47.080  30.862  27.117  1.00  0.00     0.022 A 
BRANCH  85  89
ATOM     89  S   UNL A   1      44.600  31.928  26.474  1.00  0.00     0.124 S 
ATOM     90  O   UNL A   1      43.532  31.043  26.026  1.00  0.00    -0.237 OA
ATOM     91  O   UNL A   1      44.232  32.921  27.480  1.00  0.00    -0.237 OA
ATOM     92  O   UNL A   1      45.452  32.445  25.399  1.00  0.00    -0.744 OA
ENDBRANCH  85  89
ENDBRANCH  59  82
ENDBRANCH  33  34
ENDBRANCH  26  28
ENDBRANCH  25  26
ENDBRANCH  24  25
ENDBRANCH  23  24
ENDBRANCH  22  23
ENDBRANCH   1  22
TORSDOF 23
ENDMDL
