MODEL 1
REMARK VINA RESULT:     -10.3      0.000      0.000
REMARK SMILES C[C@@H]1C[N@@H+](CC(C)(C)C(=O)OCCOCCOC(=O)c2ccc(-c3c4nc(c(-c5cc(S(=O)(=O)[O-])ccc5F)c5ccc([nH]5)c(-c5cc(S(=O)(=O)[O-])ccc5F)c5nc(c(-c6cc(S(=O)(=O)[O-])ccc6F)c6ccc3[nH]6)C=C5)C=C4)cc2)CC[C@@H]1[NH3+]
REMARK SMILES IDX 14 1 13 2 12 3 11 4 9 5 10 6 6 7 7 8 8 9 5 10 4 11 1 12 2 13
REMARK SMILES IDX 3 14 85 15 84 16 83 17 86 19 15 23 16 24 17 25 18 26 19 27
REMARK SMILES IDX 20 28 21 29 82 30 22 31 81 32 23 33 24 34 25 35 75 36 26 37
REMARK SMILES IDX 80 38 74 39 76 40 27 41 79 42 73 43 72 44 28 46 60 47 40 48
REMARK SMILES IDX 59 49 41 50 44 51 58 52 77 53 42 54 43 55 57 57 78 58 45 59
REMARK SMILES IDX 29 60 30 61 38 62 31 63 37 64 39 65 36 66 32 67 33 68 34 69
REMARK SMILES IDX 35 70 61 71 62 72 70 73 63 74 69 75 71 76 68 77 64 78 65 79
REMARK SMILES IDX 66 80 67 81 46 82 47 83 55 84 48 85 54 86 56 87 53 88 49 89
REMARK SMILES IDX 50 90 51 91 52 92
REMARK H PARENT 4 18 86 20 86 21 86 22 76 45 44 56
REMARK Flexibility Score: inf
ROOT
ATOM      1  O   UNL A   1      32.338  29.815  26.542  1.00  0.00    -0.374 OA
ENDROOT
BRANCH   1   2
ATOM      2  C   UNL A   1      31.575  28.822  27.218  1.00  0.00     0.202 C 
BRANCH   2   3
ATOM      3  C   UNL A   1      31.920  27.310  27.210  1.00  0.00     0.261 C 
BRANCH   3   4
ATOM      4  O   UNL A   1      31.363  26.507  26.155  1.00  0.00    -0.463 OA
BRANCH   4   5
ATOM      5  C   UNL A   1      32.307  25.656  25.680  1.00  0.00     0.317 C 
ATOM      6  O   UNL A   1      33.484  25.892  25.895  1.00  0.00    -0.251 OA
BRANCH   5   7
ATOM      7  C   UNL A   1      31.788  24.426  24.928  1.00  0.00     0.111 C 
ATOM      8  C   UNL A   1      30.688  24.867  23.957  1.00  0.00     0.029 C 
ATOM      9  C   UNL A   1      31.132  23.456  25.948  1.00  0.00     0.029 C 
BRANCH   7  10
ATOM     10  C   UNL A   1      32.968  23.623  24.215  1.00  0.00     0.280 C 
BRANCH  10  11
ATOM     11  N   UNL A   1      34.226  23.102  24.838  1.00  0.00    -0.333 N 
ATOM     12  C   UNL A   1      37.134  23.832  26.053  1.00  0.00     0.020 C 
ATOM     13  C   UNL A   1      36.796  23.191  24.712  1.00  0.00     0.099 C 
ATOM     14  C   UNL A   1      35.431  23.625  24.185  1.00  0.00     0.271 C 
ATOM     15  C   UNL A   1      36.786  21.655  24.662  1.00  0.00     0.194 C 
ATOM     16  C   UNL A   1      35.622  21.113  25.501  1.00  0.00     0.126 C 
ATOM     17  C   UNL A   1      34.274  21.646  24.982  1.00  0.00     0.268 C 
ATOM     18  H   UNL A   1      34.209  23.465  25.791  1.00  0.00     0.348 HD
BRANCH  15  19
ATOM     19  N   UNL A   1      38.074  21.068  25.026  1.00  0.00    -0.355 N 
ATOM     20  H   UNL A   1      38.756  21.265  24.293  1.00  0.00     0.344 HD
ATOM     21  H   UNL A   1      37.971  20.059  25.131  1.00  0.00     0.344 HD
ATOM     22  H   UNL A   1      38.394  21.471  25.906  1.00  0.00     0.344 HD
ENDBRANCH  15  19
ENDBRANCH  10  11
ENDBRANCH   7  10
ENDBRANCH   5   7
ENDBRANCH   4   5
ENDBRANCH   3   4
ENDBRANCH   2   3
ENDBRANCH   1   2
BRANCH   1  23
ATOM     23  C   UNL A   1      31.783  31.078  26.202  1.00  0.00     0.202 C 
BRANCH  23  24
ATOM     24  C   UNL A   1      31.670  32.196  27.240  1.00  0.00     0.261 C 
BRANCH  24  25
ATOM     25  O   UNL A   1      32.628  33.243  27.045  1.00  0.00    -0.460 OA
BRANCH  25  26
ATOM     26  C   UNL A   1      33.266  33.600  28.189  1.00  0.00     0.338 C 
ATOM     27  O   UNL A   1      32.798  34.225  29.124  1.00  0.00    -0.246 OA
BRANCH  26  28
ATOM     28  C   UNL A   1      34.562  32.906  28.274  1.00  0.00     0.060 A 
ATOM     29  C   UNL A   1      34.533  31.565  28.682  1.00  0.00     0.016 A 
ATOM     30  C   UNL A   1      35.770  33.565  28.053  1.00  0.00     0.016 A 
ATOM     31  C   UNL A   1      35.716  30.896  28.947  1.00  0.00     0.010 A 
ATOM     32  C   UNL A   1      36.962  32.899  28.347  1.00  0.00     0.010 A 
ATOM     33  C   UNL A   1      36.928  31.586  28.851  1.00  0.00    -0.014 A 
BRANCH  33  34
ATOM     34  C   UNL A   1      38.097  31.001  29.547  1.00  0.00     0.031 A 
ATOM     35  C   UNL A   1      38.328  31.387  30.983  1.00  0.00     0.074 A 
ATOM     36  C   UNL A   1      38.842  30.055  28.954  1.00  0.00     0.049 A 
ATOM     37  N   UNL A   1      39.242  30.973  31.819  1.00  0.00    -0.248 NA
ATOM     38  C   UNL A   1      37.396  32.376  31.552  1.00  0.00     0.031 C 
ATOM     39  C   UNL A   1      38.648  29.558  27.592  1.00  0.00     0.029 A 
ATOM     40  N   UNL A   1      39.902  29.332  29.431  1.00  0.00    -0.354 N 
ATOM     41  C   UNL A   1      38.997  31.650  33.010  1.00  0.00     0.074 A 
ATOM     42  C   UNL A   1      37.881  32.537  32.772  1.00  0.00     0.031 C 
ATOM     43  C   UNL A   1      39.559  28.601  27.345  1.00  0.00     0.029 A 
ATOM     44  C   UNL A   1      40.420  28.447  28.516  1.00  0.00     0.049 A 
ATOM     45  H   UNL A   1      40.260  29.435  30.342  1.00  0.00     0.167 HD
ATOM     46  C   UNL A   1      39.638  31.527  34.199  1.00  0.00     0.034 A 
ATOM     47  C   UNL A   1      41.481  27.621  28.615  1.00  0.00     0.034 A 
ATOM     48  C   UNL A   1      40.755  30.639  34.409  1.00  0.00     0.049 A 
ATOM     49  C   UNL A   1      42.236  27.572  29.921  1.00  0.00     0.074 A 
ATOM     50  C   UNL A   1      41.491  30.436  35.562  1.00  0.00     0.029 A 
ATOM     51  N   UNL A   1      41.301  29.808  33.438  1.00  0.00    -0.354 N 
ATOM     52  N   UNL A   1      42.006  28.223  31.039  1.00  0.00    -0.248 NA
ATOM     53  C   UNL A   1      43.385  26.660  29.981  1.00  0.00     0.031 C 
ATOM     54  C   UNL A   1      42.529  29.545  35.267  1.00  0.00     0.029 A 
ATOM     55  C   UNL A   1      42.386  29.117  33.957  1.00  0.00     0.049 A 
ATOM     56  H   UNL A   1      40.967  29.723  32.515  1.00  0.00     0.167 HD
ATOM     57  C   UNL A   1      42.963  27.771  31.946  1.00  0.00     0.074 A 
ATOM     58  C   UNL A   1      43.751  26.776  31.248  1.00  0.00     0.031 C 
ATOM     59  C   UNL A   1      43.171  28.140  33.238  1.00  0.00     0.034 A 
BRANCH  46  60
ATOM     60  C   UNL A   1      39.179  32.419  35.329  1.00  0.00     0.023 A 
ATOM     61  C   UNL A   1      39.636  33.742  35.469  1.00  0.00     0.031 A 
ATOM     62  C   UNL A   1      38.300  31.922  36.309  1.00  0.00     0.131 A 
ATOM     63  C   UNL A   1      39.274  34.493  36.598  1.00  0.00     0.055 A 
ATOM     64  C   UNL A   1      37.876  32.704  37.384  1.00  0.00     0.041 A 
ATOM     65  F   UNL A   1      37.854  30.657  36.247  1.00  0.00    -0.206 F 
ATOM     66  C   UNL A   1      38.374  33.993  37.541  1.00  0.00     0.022 A 
BRANCH  63  67
ATOM     67  S   UNL A   1      40.114  36.074  36.897  1.00  0.00     0.124 S 
ATOM     68  O   UNL A   1      39.404  36.566  38.075  1.00  0.00    -0.237 OA
ATOM     69  O   UNL A   1      41.496  35.661  37.109  1.00  0.00    -0.237 OA
ATOM     70  O   UNL A   1      39.869  36.829  35.670  1.00  0.00    -0.744 OA
ENDBRANCH  63  67
ENDBRANCH  46  60
BRANCH  47  71
ATOM     71  C   UNL A   1      41.913  26.800  27.447  1.00  0.00     0.023 A 
ATOM     72  C   UNL A   1      41.610  25.432  27.365  1.00  0.00     0.031 A 
ATOM     73  C   UNL A   1      42.697  27.363  26.424  1.00  0.00     0.131 A 
ATOM     74  C   UNL A   1      42.133  24.663  26.315  1.00  0.00     0.055 A 
ATOM     75  C   UNL A   1      43.164  26.606  25.349  1.00  0.00     0.041 A 
ATOM     76  F   UNL A   1      43.020  28.666  26.453  1.00  0.00    -0.206 F 
ATOM     77  C   UNL A   1      42.895  25.243  25.299  1.00  0.00     0.022 A 
BRANCH  74  78
ATOM     78  S   UNL A   1      41.888  22.865  26.351  1.00  0.00     0.124 S 
ATOM     79  O   UNL A   1      42.608  22.493  27.563  1.00  0.00    -0.237 OA
ATOM     80  O   UNL A   1      40.434  22.761  26.409  1.00  0.00    -0.237 OA
ATOM     81  O   UNL A   1      42.493  22.415  25.100  1.00  0.00    -0.744 OA
ENDBRANCH  74  78
ENDBRANCH  47  71
BRANCH  59  82
ATOM     82  C   UNL A   1      44.272  27.419  33.982  1.00  0.00     0.023 A 
ATOM     83  C   UNL A   1      44.060  26.167  34.588  1.00  0.00     0.031 A 
ATOM     84  C   UNL A   1      45.539  28.012  34.123  1.00  0.00     0.131 A 
ATOM     85  C   UNL A   1      45.067  25.593  35.377  1.00  0.00     0.055 A 
ATOM     86  C   UNL A   1      46.564  27.396  34.841  1.00  0.00     0.041 A 
ATOM     87  F   UNL A   1      45.802  29.206  33.568  1.00  0.00    -0.206 F 
ATOM     88  C   UNL A   1      46.324  26.189  35.492  1.00  0.00     0.022 A 
BRANCH  85  89
ATOM     89  S   UNL A   1      44.661  24.129  36.368  1.00  0.00     0.124 S 
ATOM     90  O   UNL A   1      44.320  24.721  37.657  1.00  0.00    -0.237 OA
ATOM     91  O   UNL A   1      43.551  23.545  35.620  1.00  0.00    -0.237 OA
ATOM     92  O   UNL A   1      45.898  23.350  36.351  1.00  0.00    -0.744 OA
ENDBRANCH  85  89
ENDBRANCH  59  82
ENDBRANCH  33  34
ENDBRANCH  26  28
ENDBRANCH  25  26
ENDBRANCH  24  25
ENDBRANCH  23  24
ENDBRANCH   1  23
TORSDOF 20
ENDMDL
MODEL 2
REMARK VINA RESULT:     -10.3      5.035      8.499
REMARK SMILES C[C@@H]1C[N@@H+](CC(C)(C)C(=O)OCCOCCOC(=O)c2ccc(-c3c4nc(c(-c5cc(S(=O)(=O)[O-])ccc5F)c5ccc([nH]5)c(-c5cc(S(=O)(=O)[O-])ccc5F)c5nc(c(-c6cc(S(=O)(=O)[O-])ccc6F)c6ccc3[nH]6)C=C5)C=C4)cc2)CC[C@@H]1[NH3+]
REMARK SMILES IDX 14 1 13 2 12 3 11 4 9 5 10 6 6 7 7 8 8 9 5 10 4 11 1 12 2 13
REMARK SMILES IDX 3 14 85 15 84 16 83 17 86 19 15 23 16 24 17 25 18 26 19 27
REMARK SMILES IDX 20 28 21 29 82 30 22 31 81 32 23 33 24 34 25 35 75 36 26 37
REMARK SMILES IDX 80 38 74 39 76 40 27 41 79 42 73 43 72 44 28 46 60 47 40 48
REMARK SMILES IDX 59 49 41 50 44 51 58 52 77 53 42 54 43 55 57 57 78 58 45 59
REMARK SMILES IDX 29 60 30 61 38 62 31 63 37 64 39 65 36 66 32 67 33 68 34 69
REMARK SMILES IDX 35 70 61 71 62 72 70 73 63 74 69 75 71 76 68 77 64 78 65 79
REMARK SMILES IDX 66 80 67 81 46 82 47 83 55 84 48 85 54 86 56 87 53 88 49 89
REMARK SMILES IDX 50 90 51 91 52 92
REMARK H PARENT 4 18 86 20 86 21 86 22 76 45 44 56
REMARK Flexibility Score: inf
ROOT
ATOM      1  O   UNL A   1      35.339  22.437  24.661  1.00  0.00    -0.374 OA
ENDROOT
BRANCH   1   2
ATOM      2  C   UNL A   1      34.131  22.897  24.068  1.00  0.00     0.202 C 
BRANCH   2   3
ATOM      3  C   UNL A   1      33.774  24.396  23.881  1.00  0.00     0.261 C 
BRANCH   3   4
ATOM      4  O   UNL A   1      32.775  24.954  24.752  1.00  0.00    -0.463 OA
BRANCH   4   5
ATOM      5  C   UNL A   1      31.747  25.445  24.013  1.00  0.00     0.317 C 
ATOM      6  O   UNL A   1      31.535  24.980  22.906  1.00  0.00    -0.251 OA
BRANCH   5   7
ATOM      7  C   UNL A   1      30.907  26.542  24.674  1.00  0.00     0.111 C 
ATOM      8  C   UNL A   1      31.835  27.681  25.111  1.00  0.00     0.029 C 
ATOM      9  C   UNL A   1      30.255  25.967  25.962  1.00  0.00     0.029 C 
BRANCH   7  10
ATOM     10  C   UNL A   1      29.717  27.030  23.730  1.00  0.00     0.280 C 
BRANCH  10  11
ATOM     11  N   UNL A   1      29.410  28.430  23.297  1.00  0.00    -0.333 N 
ATOM     12  C   UNL A   1      27.544  31.038  23.731  1.00  0.00     0.020 C 
ATOM     13  C   UNL A   1      27.506  30.017  22.599  1.00  0.00     0.099 C 
ATOM     14  C   UNL A   1      27.980  28.635  23.042  1.00  0.00     0.271 C 
ATOM     15  C   UNL A   1      28.326  30.348  21.341  1.00  0.00     0.194 C 
ATOM     16  C   UNL A   1      29.823  30.307  21.668  1.00  0.00     0.126 C 
ATOM     17  C   UNL A   1      30.235  28.917  22.190  1.00  0.00     0.268 C 
ATOM     18  H   UNL A   1      29.666  29.008  24.097  1.00  0.00     0.348 HD
BRANCH  15  19
ATOM     19  N   UNL A   1      27.913  31.600  20.710  1.00  0.00    -0.355 N 
ATOM     20  H   UNL A   1      27.250  31.400  19.961  1.00  0.00     0.344 HD
ATOM     21  H   UNL A   1      28.731  32.071  20.323  1.00  0.00     0.344 HD
ATOM     22  H   UNL A   1      27.471  32.201  21.405  1.00  0.00     0.344 HD
ENDBRANCH  15  19
ENDBRANCH  10  11
ENDBRANCH   7  10
ENDBRANCH   5   7
ENDBRANCH   4   5
ENDBRANCH   3   4
ENDBRANCH   2   3
ENDBRANCH   1   2
BRANCH   1  23
ATOM     23  C   UNL A   1      35.721  21.069  24.607  1.00  0.00     0.202 C 
BRANCH  23  24
ATOM     24  C   UNL A   1      36.963  20.567  25.345  1.00  0.00     0.261 C 
BRANCH  24  25
ATOM     25  O   UNL A   1      38.126  21.365  25.095  1.00  0.00    -0.460 OA
BRANCH  25  26
ATOM     26  C   UNL A   1      39.159  21.075  25.927  1.00  0.00     0.338 C 
ATOM     27  O   UNL A   1      39.803  20.042  25.963  1.00  0.00    -0.246 OA
BRANCH  26  28
ATOM     28  C   UNL A   1      39.583  22.294  26.637  1.00  0.00     0.060 A 
ATOM     29  C   UNL A   1      38.929  23.484  26.293  1.00  0.00     0.016 A 
ATOM     30  C   UNL A   1      40.645  22.291  27.541  1.00  0.00     0.016 A 
ATOM     31  C   UNL A   1      39.382  24.694  26.792  1.00  0.00     0.010 A 
ATOM     32  C   UNL A   1      41.120  23.513  28.023  1.00  0.00     0.010 A 
ATOM     33  C   UNL A   1      40.525  24.715  27.599  1.00  0.00    -0.014 A 
BRANCH  33  34
ATOM     34  C   UNL A   1      41.226  26.011  27.745  1.00  0.00     0.031 A 
ATOM     35  C   UNL A   1      40.533  27.104  28.513  1.00  0.00     0.074 A 
ATOM     36  C   UNL A   1      42.492  26.154  27.322  1.00  0.00     0.049 A 
ATOM     37  N   UNL A   1      40.958  28.300  28.823  1.00  0.00    -0.248 NA
ATOM     38  C   UNL A   1      39.175  26.803  28.998  1.00  0.00     0.031 C 
ATOM     39  C   UNL A   1      43.275  25.126  26.638  1.00  0.00     0.029 A 
ATOM     40  N   UNL A   1      43.347  27.219  27.425  1.00  0.00    -0.354 N 
ATOM     41  C   UNL A   1      39.921  28.894  29.537  1.00  0.00     0.074 A 
ATOM     42  C   UNL A   1      38.830  27.946  29.569  1.00  0.00     0.031 C 
ATOM     43  C   UNL A   1      44.503  25.611  26.387  1.00  0.00     0.029 A 
ATOM     44  C   UNL A   1      44.579  26.992  26.860  1.00  0.00     0.049 A 
ATOM     45  H   UNL A   1      43.103  28.066  27.862  1.00  0.00     0.167 HD
ATOM     46  C   UNL A   1      39.891  30.116  30.125  1.00  0.00     0.034 A 
ATOM     47  C   UNL A   1      45.636  27.816  26.728  1.00  0.00     0.034 A 
ATOM     48  C   UNL A   1      40.991  31.048  30.072  1.00  0.00     0.049 A 
ATOM     49  C   UNL A   1      45.543  29.206  27.311  1.00  0.00     0.074 A 
ATOM     50  C   UNL A   1      41.074  32.315  30.618  1.00  0.00     0.029 A 
ATOM     51  N   UNL A   1      42.199  30.812  29.427  1.00  0.00    -0.354 N 
ATOM     52  N   UNL A   1      44.555  29.764  27.974  1.00  0.00    -0.248 NA
ATOM     53  C   UNL A   1      46.718  30.069  27.141  1.00  0.00     0.031 C 
ATOM     54  C   UNL A   1      42.299  32.875  30.237  1.00  0.00     0.029 A 
ATOM     55  C   UNL A   1      43.020  31.924  29.534  1.00  0.00     0.049 A 
ATOM     56  H   UNL A   1      42.438  29.978  28.962  1.00  0.00     0.167 HD
ATOM     57  C   UNL A   1      45.007  31.034  28.330  1.00  0.00     0.074 A 
ATOM     58  C   UNL A   1      46.362  31.143  27.829  1.00  0.00     0.031 C 
ATOM     59  C   UNL A   1      44.365  32.020  29.011  1.00  0.00     0.034 A 
BRANCH  46  60
ATOM     60  C   UNL A   1      38.609  30.521  30.814  1.00  0.00     0.023 A 
ATOM     61  C   UNL A   1      37.553  31.141  30.122  1.00  0.00     0.031 A 
ATOM     62  C   UNL A   1      38.459  30.324  32.199  1.00  0.00     0.131 A 
ATOM     63  C   UNL A   1      36.431  31.606  30.826  1.00  0.00     0.055 A 
ATOM     64  C   UNL A   1      37.303  30.711  32.878  1.00  0.00     0.041 A 
ATOM     65  F   UNL A   1      39.445  29.767  32.920  1.00  0.00    -0.206 F 
ATOM     66  C   UNL A   1      36.286  31.370  32.194  1.00  0.00     0.022 A 
BRANCH  63  67
ATOM     67  S   UNL A   1      35.235  32.659  29.957  1.00  0.00     0.124 S 
ATOM     68  O   UNL A   1      34.716  31.741  28.946  1.00  0.00    -0.237 OA
ATOM     69  O   UNL A   1      34.309  33.028  31.021  1.00  0.00    -0.237 OA
ATOM     70  O   UNL A   1      36.054  33.750  29.435  1.00  0.00    -0.744 OA
ENDBRANCH  63  67
ENDBRANCH  46  60
BRANCH  47  71
ATOM     71  C   UNL A   1      46.857  27.372  25.995  1.00  0.00     0.023 A 
ATOM     72  C   UNL A   1      47.113  27.796  24.681  1.00  0.00     0.031 A 
ATOM     73  C   UNL A   1      47.754  26.460  26.579  1.00  0.00     0.131 A 
ATOM     74  C   UNL A   1      48.205  27.266  23.977  1.00  0.00     0.055 A 
ATOM     75  C   UNL A   1      48.873  25.983  25.895  1.00  0.00     0.041 A 
ATOM     76  F   UNL A   1      47.556  26.019  27.832  1.00  0.00    -0.206 F 
ATOM     77  C   UNL A   1      49.095  26.375  24.580  1.00  0.00     0.022 A 
BRANCH  74  78
ATOM     78  S   UNL A   1      48.388  27.682  22.221  1.00  0.00     0.124 S 
ATOM     79  O   UNL A   1      48.399  26.361  21.603  1.00  0.00    -0.237 OA
ATOM     80  O   UNL A   1      47.202  28.495  21.978  1.00  0.00    -0.237 OA
ATOM     81  O   UNL A   1      49.657  28.406  22.175  1.00  0.00    -0.744 OA
ENDBRANCH  74  78
ENDBRANCH  47  71
BRANCH  59  82
ATOM     82  C   UNL A   1      45.152  33.280  29.288  1.00  0.00     0.023 A 
ATOM     83  C   UNL A   1      45.141  34.370  28.399  1.00  0.00     0.031 A 
ATOM     84  C   UNL A   1      45.957  33.376  30.437  1.00  0.00     0.131 A 
ATOM     85  C   UNL A   1      45.985  35.467  28.628  1.00  0.00     0.055 A 
ATOM     86  C   UNL A   1      46.732  34.505  30.701  1.00  0.00     0.041 A 
ATOM     87  F   UNL A   1      46.010  32.368  31.323  1.00  0.00    -0.206 F 
ATOM     88  C   UNL A   1      46.765  35.551  29.783  1.00  0.00     0.022 A 
BRANCH  85  89
ATOM     89  S   UNL A   1      46.155  36.715  27.323  1.00  0.00     0.124 S 
ATOM     90  O   UNL A   1      44.874  37.409  27.399  1.00  0.00    -0.237 OA
ATOM     91  O   UNL A   1      47.319  37.474  27.769  1.00  0.00    -0.237 OA
ATOM     92  O   UNL A   1      46.360  35.920  26.113  1.00  0.00    -0.744 OA
ENDBRANCH  85  89
ENDBRANCH  59  82
ENDBRANCH  33  34
ENDBRANCH  26  28
ENDBRANCH  25  26
ENDBRANCH  24  25
ENDBRANCH  23  24
ENDBRANCH   1  23
TORSDOF 20
ENDMDL
MODEL 3
REMARK VINA RESULT:     -10.3      1.825      7.932
REMARK SMILES C[C@@H]1C[N@@H+](CC(C)(C)C(=O)OCCOCCOC(=O)c2ccc(-c3c4nc(c(-c5cc(S(=O)(=O)[O-])ccc5F)c5ccc([nH]5)c(-c5cc(S(=O)(=O)[O-])ccc5F)c5nc(c(-c6cc(S(=O)(=O)[O-])ccc6F)c6ccc3[nH]6)C=C5)C=C4)cc2)CC[C@@H]1[NH3+]
REMARK SMILES IDX 14 1 13 2 12 3 11 4 9 5 10 6 6 7 7 8 8 9 5 10 4 11 1 12 2 13
REMARK SMILES IDX 3 14 85 15 84 16 83 17 86 19 15 23 16 24 17 25 18 26 19 27
REMARK SMILES IDX 20 28 21 29 82 30 22 31 81 32 23 33 24 34 25 35 75 36 26 37
REMARK SMILES IDX 80 38 74 39 76 40 27 41 79 42 73 43 72 44 28 46 60 47 40 48
REMARK SMILES IDX 59 49 41 50 44 51 58 52 77 53 42 54 43 55 57 57 78 58 45 59
REMARK SMILES IDX 29 60 30 61 38 62 31 63 37 64 39 65 36 66 32 67 33 68 34 69
REMARK SMILES IDX 35 70 61 71 62 72 70 73 63 74 69 75 71 76 68 77 64 78 65 79
REMARK SMILES IDX 66 80 67 81 46 82 47 83 55 84 48 85 54 86 56 87 53 88 49 89
REMARK SMILES IDX 50 90 51 91 52 92
REMARK H PARENT 4 18 86 20 86 21 86 22 76 45 44 56
REMARK Flexibility Score: inf
ROOT
ATOM      1  O   UNL A   1      32.621  29.698  24.349  1.00  0.00    -0.374 OA
ENDROOT
BRANCH   1   2
ATOM      2  C   UNL A   1      33.473  28.596  24.063  1.00  0.00     0.202 C 
BRANCH   2   3
ATOM      3  C   UNL A   1      33.144  27.492  23.023  1.00  0.00     0.261 C 
BRANCH   3   4
ATOM      4  O   UNL A   1      33.914  26.279  23.076  1.00  0.00    -0.463 OA
BRANCH   4   5
ATOM      5  C   UNL A   1      33.325  25.330  22.306  1.00  0.00     0.317 C 
ATOM      6  O   UNL A   1      33.342  25.452  21.093  1.00  0.00    -0.251 OA
BRANCH   5   7
ATOM      7  C   UNL A   1      32.708  24.144  23.053  1.00  0.00     0.111 C 
ATOM      8  C   UNL A   1      33.010  22.858  22.277  1.00  0.00     0.029 C 
ATOM      9  C   UNL A   1      31.164  24.312  23.073  1.00  0.00     0.029 C 
BRANCH   7  10
ATOM     10  C   UNL A   1      33.188  24.084  24.574  1.00  0.00     0.280 C 
BRANCH  10  11
ATOM     11  N   UNL A   1      34.430  23.448  25.116  1.00  0.00    -0.333 N 
ATOM     12  C   UNL A   1      37.526  23.867  25.958  1.00  0.00     0.020 C 
ATOM     13  C   UNL A   1      36.960  23.169  24.727  1.00  0.00     0.099 C 
ATOM     14  C   UNL A   1      35.611  23.741  24.298  1.00  0.00     0.271 C 
ATOM     15  C   UNL A   1      36.746  21.650  24.830  1.00  0.00     0.194 C 
ATOM     16  C   UNL A   1      35.624  21.347  25.831  1.00  0.00     0.126 C 
ATOM     17  C   UNL A   1      34.305  22.016  25.398  1.00  0.00     0.268 C 
ATOM     18  H   UNL A   1      34.567  23.888  26.026  1.00  0.00     0.348 HD
BRANCH  15  19
ATOM     19  N   UNL A   1      37.980  20.923  25.120  1.00  0.00    -0.355 N 
ATOM     20  H   UNL A   1      38.154  20.240  24.381  1.00  0.00     0.344 HD
ATOM     21  H   UNL A   1      37.889  20.440  26.013  1.00  0.00     0.344 HD
ATOM     22  H   UNL A   1      38.759  21.580  25.165  1.00  0.00     0.344 HD
ENDBRANCH  15  19
ENDBRANCH  10  11
ENDBRANCH   7  10
ENDBRANCH   5   7
ENDBRANCH   4   5
ENDBRANCH   3   4
ENDBRANCH   2   3
ENDBRANCH   1   2
BRANCH   1  23
ATOM     23  C   UNL A   1      31.785  29.715  25.498  1.00  0.00     0.202 C 
BRANCH  23  24
ATOM     24  C   UNL A   1      31.785  30.909  26.455  1.00  0.00     0.261 C 
BRANCH  24  25
ATOM     25  O   UNL A   1      32.753  30.790  27.503  1.00  0.00    -0.460 OA
BRANCH  25  26
ATOM     26  C   UNL A   1      33.568  31.871  27.600  1.00  0.00     0.338 C 
ATOM     27  O   UNL A   1      33.231  33.040  27.663  1.00  0.00    -0.246 OA
BRANCH  26  28
ATOM     28  C   UNL A   1      34.946  31.432  27.880  1.00  0.00     0.060 A 
ATOM     29  C   UNL A   1      35.145  30.056  28.059  1.00  0.00     0.016 A 
ATOM     30  C   UNL A   1      35.990  32.340  28.053  1.00  0.00     0.016 A 
ATOM     31  C   UNL A   1      36.374  29.585  28.488  1.00  0.00     0.010 A 
ATOM     32  C   UNL A   1      37.221  31.867  28.513  1.00  0.00     0.010 A 
ATOM     33  C   UNL A   1      37.391  30.497  28.788  1.00  0.00    -0.014 A 
BRANCH  33  34
ATOM     34  C   UNL A   1      38.502  30.018  29.640  1.00  0.00     0.031 A 
ATOM     35  C   UNL A   1      39.451  29.006  29.058  1.00  0.00     0.074 A 
ATOM     36  C   UNL A   1      38.729  30.572  30.842  1.00  0.00     0.049 A 
ATOM     37  N   UNL A   1      40.525  28.475  29.580  1.00  0.00    -0.248 NA
ATOM     38  C   UNL A   1      39.144  28.528  27.698  1.00  0.00     0.031 C 
ATOM     39  C   UNL A   1      37.911  31.616  31.458  1.00  0.00     0.029 A 
ATOM     40  N   UNL A   1      39.729  30.345  31.749  1.00  0.00    -0.354 N 
ATOM     41  C   UNL A   1      41.021  27.603  28.616  1.00  0.00     0.074 A 
ATOM     42  C   UNL A   1      40.103  27.638  27.499  1.00  0.00     0.031 C 
ATOM     43  C   UNL A   1      38.449  31.944  32.645  1.00  0.00     0.029 A 
ATOM     44  C   UNL A   1      39.624  31.110  32.886  1.00  0.00     0.049 A 
ATOM     45  H   UNL A   1      40.454  29.695  31.602  1.00  0.00     0.167 HD
ATOM     46  C   UNL A   1      42.150  26.854  28.655  1.00  0.00     0.034 A 
ATOM     47  C   UNL A   1      40.386  31.117  33.998  1.00  0.00     0.034 A 
ATOM     48  C   UNL A   1      43.047  26.830  29.785  1.00  0.00     0.049 A 
ATOM     49  C   UNL A   1      41.586  30.204  34.054  1.00  0.00     0.074 A 
ATOM     50  C   UNL A   1      44.213  26.105  29.946  1.00  0.00     0.029 A 
ATOM     51  N   UNL A   1      42.871  27.564  30.951  1.00  0.00    -0.354 N 
ATOM     52  N   UNL A   1      42.042  29.373  33.143  1.00  0.00    -0.248 NA
ATOM     53  C   UNL A   1      42.384  30.244  35.286  1.00  0.00     0.031 C 
ATOM     54  C   UNL A   1      44.698  26.339  31.237  1.00  0.00     0.029 A 
ATOM     55  C   UNL A   1      43.889  27.282  31.850  1.00  0.00     0.049 A 
ATOM     56  H   UNL A   1      42.131  28.193  31.117  1.00  0.00     0.167 HD
ATOM     57  C   UNL A   1      43.202  28.818  33.681  1.00  0.00     0.074 A 
ATOM     58  C   UNL A   1      43.384  29.431  34.982  1.00  0.00     0.031 C 
ATOM     59  C   UNL A   1      44.044  27.892  33.151  1.00  0.00     0.034 A 
BRANCH  46  60
ATOM     60  C   UNL A   1      42.431  25.962  27.468  1.00  0.00     0.023 A 
ATOM     61  C   UNL A   1      41.961  24.638  27.401  1.00  0.00     0.031 A 
ATOM     62  C   UNL A   1      43.222  26.431  26.404  1.00  0.00     0.131 A 
ATOM     63  C   UNL A   1      42.345  23.810  26.334  1.00  0.00     0.055 A 
ATOM     64  C   UNL A   1      43.529  25.629  25.303  1.00  0.00     0.041 A 
ATOM     65  F   UNL A   1      43.727  27.675  26.425  1.00  0.00    -0.206 F 
ATOM     66  C   UNL A   1      43.102  24.306  25.271  1.00  0.00     0.022 A 
BRANCH  63  67
ATOM     67  S   UNL A   1      41.971  22.037  26.431  1.00  0.00     0.124 S 
ATOM     68  O   UNL A   1      40.524  22.031  26.233  1.00  0.00    -0.237 OA
ATOM     69  O   UNL A   1      42.768  21.487  25.341  1.00  0.00    -0.237 OA
ATOM     70  O   UNL A   1      42.410  21.667  27.774  1.00  0.00    -0.744 OA
ENDBRANCH  63  67
ENDBRANCH  46  60
BRANCH  47  71
ATOM     71  C   UNL A   1      40.028  31.987  35.155  1.00  0.00     0.023 A 
ATOM     72  C   UNL A   1      39.169  31.535  36.169  1.00  0.00     0.031 A 
ATOM     73  C   UNL A   1      40.492  33.313  35.228  1.00  0.00     0.131 A 
ATOM     74  C   UNL A   1      38.757  32.417  37.180  1.00  0.00     0.055 A 
ATOM     75  C   UNL A   1      40.128  34.167  36.269  1.00  0.00     0.041 A 
ATOM     76  F   UNL A   1      41.314  33.799  34.284  1.00  0.00    -0.206 F 
ATOM     77  C   UNL A   1      39.242  33.724  37.245  1.00  0.00     0.022 A 
BRANCH  74  78
ATOM     78  S   UNL A   1      37.493  31.858  38.355  1.00  0.00     0.124 S 
ATOM     79  O   UNL A   1      38.184  32.015  39.630  1.00  0.00    -0.237 OA
ATOM     80  O   UNL A   1      36.404  32.792  38.094  1.00  0.00    -0.237 OA
ATOM     81  O   UNL A   1      37.239  30.478  37.947  1.00  0.00    -0.744 OA
ENDBRANCH  74  78
ENDBRANCH  47  71
BRANCH  59  82
ATOM     82  C   UNL A   1      45.260  27.528  33.972  1.00  0.00     0.023 A 
ATOM     83  C   UNL A   1      45.240  26.469  34.897  1.00  0.00     0.031 A 
ATOM     84  C   UNL A   1      46.445  28.278  33.855  1.00  0.00     0.131 A 
ATOM     85  C   UNL A   1      46.347  26.247  35.729  1.00  0.00     0.055 A 
ATOM     86  C   UNL A   1      47.571  28.000  34.629  1.00  0.00     0.041 A 
ATOM     87  F   UNL A   1      46.525  29.302  32.990  1.00  0.00    -0.206 F 
ATOM     88  C   UNL A   1      47.520  26.992  35.588  1.00  0.00     0.022 A 
BRANCH  85  89
ATOM     89  S   UNL A   1      46.180  25.066  37.095  1.00  0.00     0.124 S 
ATOM     90  O   UNL A   1      44.800  24.617  36.940  1.00  0.00    -0.237 OA
ATOM     91  O   UNL A   1      47.210  24.081  36.783  1.00  0.00    -0.237 OA
ATOM     92  O   UNL A   1      46.438  25.878  38.283  1.00  0.00    -0.744 OA
ENDBRANCH  85  89
ENDBRANCH  59  82
ENDBRANCH  33  34
ENDBRANCH  26  28
ENDBRANCH  25  26
ENDBRANCH  24  25
ENDBRANCH  23  24
ENDBRANCH   1  23
TORSDOF 20
ENDMDL
