MODEL 1
REMARK VINA RESULT:     -11.8      0.000      0.000
REMARK SMILES Cc1c(C(=O)NC(=S)Nc2ccccc2C(=O)OCCOCCOC(=O)c2ccc(-c3c4nc(c(-c5cc(S(=O)(=O)[O-])ccc5F)c5ccc([nH]5)c(-c5cc(S(=O)(=O)[O-])ccc5F)c5nc(c(-c6cc(S(=O)(=O)[O-])ccc6F)c6ccc3[nH]6)C=C5)C=C4)cc2)cccc1[N+](=O)[O-]
REMARK SMILES IDX 20 1 19 2 18 3 16 4 17 5 15 6 10 7 11 8 12 9 14 10 13 11
REMARK SMILES IDX 9 12 7 14 8 15 6 16 4 17 5 18 3 20 1 21 2 22 93 23 90 24
REMARK SMILES IDX 92 25 91 26 94 27 95 28 96 29 21 30 22 31 23 32 24 33 25 34
REMARK SMILES IDX 26 35 27 36 28 37 89 38 29 39 88 40 30 41 31 42 32 43 82 44
REMARK SMILES IDX 33 45 87 46 81 47 83 48 34 49 86 50 80 51 79 52 35 54 67 55
REMARK SMILES IDX 47 56 66 57 48 58 51 59 65 60 84 61 49 62 50 63 64 65 85 66
REMARK SMILES IDX 52 67 36 68 37 69 45 70 38 71 44 72 46 73 43 74 39 75 40 76
REMARK SMILES IDX 41 77 42 78 68 79 69 80 77 81 70 82 76 83 78 84 75 85 71 86
REMARK SMILES IDX 72 87 73 88 74 89 53 90 54 91 62 92 55 93 61 94 63 95 60 96
REMARK SMILES IDX 56 97 57 98 58 99 59 100
REMARK H PARENT 9 13 6 19 83 53 51 64
REMARK Flexibility Score: inf
ROOT
ATOM      1  C   UNL A   1      34.387  32.127  27.608  1.00  0.00     0.202 C 
ENDROOT
BRANCH   1   2
ATOM      2  C   UNL A   1      33.923  30.740  27.934  1.00  0.00     0.261 C 
BRANCH   2   3
ATOM      3  O   UNL A   1      32.698  30.291  27.314  1.00  0.00    -0.460 OA
BRANCH   3   4
ATOM      4  C   UNL A   1      32.462  28.967  26.980  1.00  0.00     0.340 C 
ATOM      5  O   UNL A   1      31.787  28.189  27.629  1.00  0.00    -0.246 OA
BRANCH   4   6
ATOM      6  C   UNL A   1      32.589  28.812  25.505  1.00  0.00     0.083 A 
ATOM      7  C   UNL A   1      33.202  27.268  24.865  1.00  0.00     0.055 A 
ATOM      8  C   UNL A   1      32.544  26.532  23.325  1.00  0.00     0.027 A 
ATOM      9  C   UNL A   1      30.886  27.202  22.754  1.00  0.00     0.002 A 
ATOM     10  C   UNL A   1      31.331  29.651  24.882  1.00  0.00     0.018 A 
ATOM     11  C   UNL A   1      30.371  28.922  23.701  1.00  0.00     0.001 A 
BRANCH   7  12
ATOM     12  N   UNL A   1      33.219  26.335  25.998  1.00  0.00    -0.332 N 
ATOM     13  H   UNL A   1      33.348  26.757  26.879  1.00  0.00     0.169 HD
BRANCH  12  14
ATOM     14  C   UNL A   1      33.082  24.933  26.029  1.00  0.00     0.177 C 
ATOM     15  S   UNL A   1      31.612  24.325  26.595  1.00  0.00    -0.040 S 
BRANCH  14  16
ATOM     16  N   UNL A   1      34.141  23.934  25.748  1.00  0.00    -0.299 N 
ATOM     17  C   UNL A   1      34.722  22.589  25.142  1.00  0.00     0.257 C 
ATOM     18  O   UNL A   1      35.931  22.382  25.177  1.00  0.00    -0.269 OA
ATOM     19  H   UNL A   1      34.929  24.328  26.187  1.00  0.00     0.172 HD
BRANCH  17  20
ATOM     20  C   UNL A   1      33.792  21.662  24.376  1.00  0.00     0.049 A 
ATOM     21  C   UNL A   1      33.263  20.945  26.510  1.00  0.00     0.053 C 
ATOM     22  C   UNL A   1      34.262  20.204  25.016  1.00  0.00     0.039 A 
ATOM     23  C   UNL A   1      33.878  18.379  24.157  1.00  0.00     0.273 A 
ATOM     24  C   UNL A   1      32.558  21.589  23.157  1.00  0.00     0.014 A 
ATOM     25  C   UNL A   1      32.607  18.431  22.831  1.00  0.00     0.086 A 
ATOM     26  C   UNL A   1      31.950  20.052  22.413  1.00  0.00     0.008 A 
BRANCH  23  27
ATOM     27  N   UNL A   1      33.999  16.900  24.573  1.00  0.00     0.063 N 
ATOM     28  O   UNL A   1      33.668  16.644  25.744  1.00  0.00    -0.258 OA
ATOM     29  O   UNL A   1      34.365  16.051  23.753  1.00  0.00    -0.258 OA
ENDBRANCH  23  27
ENDBRANCH  17  20
ENDBRANCH  14  16
ENDBRANCH  12  14
ENDBRANCH   7  12
ENDBRANCH   4   6
ENDBRANCH   3   4
ENDBRANCH   2   3
ENDBRANCH   1   2
BRANCH   1  30
ATOM     30  O   UNL A   1      33.364  32.935  28.093  1.00  0.00    -0.374 OA
BRANCH  30  31
ATOM     31  C   UNL A   1      33.642  34.299  28.142  1.00  0.00     0.202 C 
BRANCH  31  32
ATOM     32  C   UNL A   1      33.392  34.661  29.580  1.00  0.00     0.261 C 
BRANCH  32  33
ATOM     33  O   UNL A   1      34.637  34.632  30.360  1.00  0.00    -0.460 OA
BRANCH  33  34
ATOM     34  C   UNL A   1      34.808  33.669  31.335  1.00  0.00     0.338 C 
ATOM     35  O   UNL A   1      34.323  33.750  32.454  1.00  0.00    -0.246 OA
BRANCH  34  36
ATOM     36  C   UNL A   1      35.625  32.474  30.881  1.00  0.00     0.060 A 
ATOM     37  C   UNL A   1      35.750  31.321  31.688  1.00  0.00     0.016 A 
ATOM     38  C   UNL A   1      36.571  32.682  29.901  1.00  0.00     0.016 A 
ATOM     39  C   UNL A   1      36.949  30.564  31.702  1.00  0.00     0.010 A 
ATOM     40  C   UNL A   1      37.813  32.103  30.117  1.00  0.00     0.010 A 
ATOM     41  C   UNL A   1      38.054  31.049  31.022  1.00  0.00    -0.014 A 
BRANCH  41  42
ATOM     42  C   UNL A   1      39.466  30.562  31.101  1.00  0.00     0.031 A 
ATOM     43  C   UNL A   1      39.708  29.351  30.251  1.00  0.00     0.074 A 
ATOM     44  C   UNL A   1      40.504  31.197  31.748  1.00  0.00     0.049 A 
ATOM     45  N   UNL A   1      40.548  28.424  30.541  1.00  0.00    -0.248 NA
ATOM     46  C   UNL A   1      38.915  28.973  29.065  1.00  0.00     0.031 C 
ATOM     47  C   UNL A   1      41.968  31.029  31.624  1.00  0.00     0.029 A 
ATOM     48  N   UNL A   1      40.450  32.208  32.714  1.00  0.00    -0.354 N 
ATOM     49  C   UNL A   1      40.675  27.631  29.413  1.00  0.00     0.074 A 
ATOM     50  C   UNL A   1      39.492  27.847  28.658  1.00  0.00     0.031 C 
ATOM     51  C   UNL A   1      42.608  31.658  32.640  1.00  0.00     0.029 A 
ATOM     52  C   UNL A   1      41.599  32.231  33.507  1.00  0.00     0.049 A 
ATOM     53  H   UNL A   1      39.691  32.827  32.823  1.00  0.00     0.167 HD
ATOM     54  C   UNL A   1      41.877  27.061  29.142  1.00  0.00     0.034 A 
ATOM     55  C   UNL A   1      41.418  32.136  34.851  1.00  0.00     0.034 A 
ATOM     56  C   UNL A   1      42.817  27.432  30.205  1.00  0.00     0.049 A 
ATOM     57  C   UNL A   1      41.795  30.702  35.147  1.00  0.00     0.074 A 
ATOM     58  C   UNL A   1      43.867  28.331  30.277  1.00  0.00     0.029 A 
ATOM     59  N   UNL A   1      42.468  27.140  31.517  1.00  0.00    -0.354 N 
ATOM     60  N   UNL A   1      41.807  29.766  34.226  1.00  0.00    -0.248 NA
ATOM     61  C   UNL A   1      42.415  30.273  36.391  1.00  0.00     0.031 C 
ATOM     62  C   UNL A   1      44.094  28.612  31.664  1.00  0.00     0.029 A 
ATOM     63  C   UNL A   1      43.177  27.898  32.424  1.00  0.00     0.049 A 
ATOM     64  H   UNL A   1      41.792  26.471  31.770  1.00  0.00     0.167 HD
ATOM     65  C   UNL A   1      42.575  28.726  34.646  1.00  0.00     0.074 A 
ATOM     66  C   UNL A   1      42.889  29.069  36.030  1.00  0.00     0.031 C 
ATOM     67  C   UNL A   1      42.955  27.680  33.850  1.00  0.00     0.034 A 
BRANCH  54  68
ATOM     68  C   UNL A   1      42.302  26.386  27.850  1.00  0.00     0.023 A 
ATOM     69  C   UNL A   1      41.990  25.019  27.714  1.00  0.00     0.031 A 
ATOM     70  C   UNL A   1      42.981  26.943  26.742  1.00  0.00     0.131 A 
ATOM     71  C   UNL A   1      42.343  24.280  26.571  1.00  0.00     0.055 A 
ATOM     72  C   UNL A   1      43.336  26.208  25.599  1.00  0.00     0.041 A 
ATOM     73  F   UNL A   1      43.338  28.227  26.668  1.00  0.00    -0.206 F 
ATOM     74  C   UNL A   1      43.016  24.867  25.506  1.00  0.00     0.022 A 
BRANCH  71  75
ATOM     75  S   UNL A   1      41.885  22.532  26.500  1.00  0.00     0.124 S 
ATOM     76  O   UNL A   1      42.473  22.012  27.729  1.00  0.00    -0.237 OA
ATOM     77  O   UNL A   1      40.430  22.596  26.452  1.00  0.00    -0.237 OA
ATOM     78  O   UNL A   1      42.521  22.067  25.267  1.00  0.00    -0.744 OA
ENDBRANCH  71  75
ENDBRANCH  54  68
BRANCH  55  79
ATOM     79  C   UNL A   1      40.197  32.961  35.229  1.00  0.00     0.023 A 
ATOM     80  C   UNL A   1      39.185  32.283  35.978  1.00  0.00     0.031 A 
ATOM     81  C   UNL A   1      40.296  34.350  35.421  1.00  0.00     0.131 A 
ATOM     82  C   UNL A   1      38.455  32.950  36.989  1.00  0.00     0.055 A 
ATOM     83  C   UNL A   1      39.534  35.010  36.402  1.00  0.00     0.041 A 
ATOM     84  F   UNL A   1      41.274  35.047  34.824  1.00  0.00    -0.206 F 
ATOM     85  C   UNL A   1      38.636  34.312  37.211  1.00  0.00     0.022 A 
BRANCH  82  86
ATOM     86  S   UNL A   1      37.546  31.963  38.238  1.00  0.00     0.124 S 
ATOM     87  O   UNL A   1      36.284  32.683  38.350  1.00  0.00    -0.237 OA
ATOM     88  O   UNL A   1      37.484  30.647  37.602  1.00  0.00    -0.237 OA
ATOM     89  O   UNL A   1      38.408  32.013  39.415  1.00  0.00    -0.744 OA
ENDBRANCH  82  86
ENDBRANCH  55  79
BRANCH  67  90
ATOM     90  C   UNL A   1      43.170  26.303  34.418  1.00  0.00     0.023 A 
ATOM     91  C   UNL A   1      44.448  25.754  34.488  1.00  0.00     0.031 A 
ATOM     92  C   UNL A   1      42.143  25.536  35.017  1.00  0.00     0.131 A 
ATOM     93  C   UNL A   1      44.655  24.450  34.928  1.00  0.00     0.055 A 
ATOM     94  C   UNL A   1      42.377  24.293  35.605  1.00  0.00     0.041 A 
ATOM     95  F   UNL A   1      40.872  25.951  35.084  1.00  0.00    -0.206 F 
ATOM     96  C   UNL A   1      43.634  23.718  35.520  1.00  0.00     0.022 A 
BRANCH  93  97
ATOM     97  S   UNL A   1      46.263  23.729  34.556  1.00  0.00     0.124 S 
ATOM     98  O   UNL A   1      46.851  23.617  35.889  1.00  0.00    -0.237 OA
ATOM     99  O   UNL A   1      45.903  22.463  33.922  1.00  0.00    -0.237 OA
ATOM    100  O   UNL A   1      46.884  24.716  33.679  1.00  0.00    -0.744 OA
ENDBRANCH  93  97
ENDBRANCH  67  90
ENDBRANCH  41  42
ENDBRANCH  34  36
ENDBRANCH  33  34
ENDBRANCH  32  33
ENDBRANCH  31  32
ENDBRANCH  30  31
ENDBRANCH   1  30
TORSDOF 22
ENDMDL
MODEL 2
REMARK VINA RESULT:     -11.6      1.522      2.144
REMARK SMILES Cc1c(C(=O)NC(=S)Nc2ccccc2C(=O)OCCOCCOC(=O)c2ccc(-c3c4nc(c(-c5cc(S(=O)(=O)[O-])ccc5F)c5ccc([nH]5)c(-c5cc(S(=O)(=O)[O-])ccc5F)c5nc(c(-c6cc(S(=O)(=O)[O-])ccc6F)c6ccc3[nH]6)C=C5)C=C4)cc2)cccc1[N+](=O)[O-]
REMARK SMILES IDX 20 1 19 2 18 3 16 4 17 5 15 6 10 7 11 8 12 9 14 10 13 11
REMARK SMILES IDX 9 12 7 14 8 15 6 16 4 17 5 18 3 20 1 21 2 22 93 23 90 24
REMARK SMILES IDX 92 25 91 26 94 27 95 28 96 29 21 30 22 31 23 32 24 33 25 34
REMARK SMILES IDX 26 35 27 36 28 37 89 38 29 39 88 40 30 41 31 42 32 43 82 44
REMARK SMILES IDX 33 45 87 46 81 47 83 48 34 49 86 50 80 51 79 52 35 54 67 55
REMARK SMILES IDX 47 56 66 57 48 58 51 59 65 60 84 61 49 62 50 63 64 65 85 66
REMARK SMILES IDX 52 67 36 68 37 69 45 70 38 71 44 72 46 73 43 74 39 75 40 76
REMARK SMILES IDX 41 77 42 78 68 79 69 80 77 81 70 82 76 83 78 84 75 85 71 86
REMARK SMILES IDX 72 87 73 88 74 89 53 90 54 91 62 92 55 93 61 94 63 95 60 96
REMARK SMILES IDX 56 97 57 98 58 99 59 100
REMARK H PARENT 9 13 6 19 83 53 51 64
REMARK Flexibility Score: inf
ROOT
ATOM      1  C   UNL A   1      33.102  30.429  26.585  1.00  0.00     0.202 C 
ENDROOT
BRANCH   1   2
ATOM      2  C   UNL A   1      33.295  29.335  25.579  1.00  0.00     0.261 C 
BRANCH   2   3
ATOM      3  O   UNL A   1      32.345  29.264  24.492  1.00  0.00    -0.460 OA
BRANCH   3   4
ATOM      4  C   UNL A   1      32.622  28.639  23.288  1.00  0.00     0.340 C 
ATOM      5  O   UNL A   1      33.701  28.170  22.972  1.00  0.00    -0.246 OA
BRANCH   4   6
ATOM      6  C   UNL A   1      31.361  28.075  22.734  1.00  0.00     0.083 A 
ATOM      7  C   UNL A   1      30.699  26.596  23.469  1.00  0.00     0.055 A 
ATOM      8  C   UNL A   1      28.899  26.340  23.672  1.00  0.00     0.027 A 
ATOM      9  C   UNL A   1      27.845  27.888  23.547  1.00  0.00     0.002 A 
ATOM     10  C   UNL A   1      30.476  29.377  22.289  1.00  0.00     0.018 A 
ATOM     11  C   UNL A   1      28.858  29.462  22.761  1.00  0.00     0.001 A 
BRANCH   7  12
ATOM     12  N   UNL A   1      31.464  26.377  24.703  1.00  0.00    -0.332 N 
ATOM     13  H   UNL A   1      31.485  27.146  25.318  1.00  0.00     0.169 HD
BRANCH  12  14
ATOM     14  C   UNL A   1      32.173  25.243  25.148  1.00  0.00     0.177 C 
ATOM     15  S   UNL A   1      33.840  25.421  25.353  1.00  0.00    -0.040 S 
BRANCH  14  16
ATOM     16  N   UNL A   1      31.633  23.873  25.320  1.00  0.00    -0.299 N 
ATOM     17  C   UNL A   1      31.723  22.291  25.376  1.00  0.00     0.257 C 
ATOM     18  O   UNL A   1      30.751  21.643  25.752  1.00  0.00    -0.269 OA
ATOM     19  H   UNL A   1      30.680  24.039  25.502  1.00  0.00     0.172 HD
BRANCH  17  20
ATOM     20  C   UNL A   1      33.063  21.618  25.129  1.00  0.00     0.049 A 
ATOM     21  C   UNL A   1      32.192  21.375  23.000  1.00  0.00     0.053 C 
ATOM     22  C   UNL A   1      32.539  20.177  24.491  1.00  0.00     0.039 A 
ATOM     23  C   UNL A   1      33.681  18.475  24.369  1.00  0.00     0.273 A 
ATOM     24  C   UNL A   1      34.783  21.788  25.296  1.00  0.00     0.014 A 
ATOM     25  C   UNL A   1      35.477  18.762  24.632  1.00  0.00     0.086 A 
ATOM     26  C   UNL A   1      35.970  20.443  25.040  1.00  0.00     0.008 A 
BRANCH  23  27
ATOM     27  N   UNL A   1      33.565  17.098  23.688  1.00  0.00     0.063 N 
ATOM     28  O   UNL A   1      33.061  16.198  24.382  1.00  0.00    -0.258 OA
ATOM     29  O   UNL A   1      33.925  16.952  22.515  1.00  0.00    -0.258 OA
ENDBRANCH  23  27
ENDBRANCH  17  20
ENDBRANCH  14  16
ENDBRANCH  12  14
ENDBRANCH   7  12
ENDBRANCH   4   6
ENDBRANCH   3   4
ENDBRANCH   2   3
ENDBRANCH   1   2
BRANCH   1  30
ATOM     30  O   UNL A   1      34.123  30.212  27.503  1.00  0.00    -0.374 OA
BRANCH  30  31
ATOM     31  C   UNL A   1      34.968  31.295  27.737  1.00  0.00     0.202 C 
BRANCH  31  32
ATOM     32  C   UNL A   1      34.157  32.191  28.632  1.00  0.00     0.261 C 
BRANCH  32  33
ATOM     33  O   UNL A   1      35.020  33.107  29.390  1.00  0.00    -0.460 OA
BRANCH  33  34
ATOM     34  C   UNL A   1      35.060  33.020  30.768  1.00  0.00     0.338 C 
ATOM     35  O   UNL A   1      34.072  32.822  31.459  1.00  0.00    -0.246 OA
BRANCH  34  36
ATOM     36  C   UNL A   1      36.454  33.156  31.351  1.00  0.00     0.060 A 
ATOM     37  C   UNL A   1      37.479  33.832  30.651  1.00  0.00     0.016 A 
ATOM     38  C   UNL A   1      36.823  32.272  32.340  1.00  0.00     0.016 A 
ATOM     39  C   UNL A   1      38.829  33.410  30.742  1.00  0.00     0.010 A 
ATOM     40  C   UNL A   1      38.084  31.708  32.217  1.00  0.00     0.010 A 
ATOM     41  C   UNL A   1      39.117  32.233  31.415  1.00  0.00    -0.014 A 
BRANCH  41  42
ATOM     42  C   UNL A   1      40.407  31.476  31.426  1.00  0.00     0.031 A 
ATOM     43  C   UNL A   1      40.391  30.293  30.505  1.00  0.00     0.074 A 
ATOM     44  C   UNL A   1      41.561  31.858  32.077  1.00  0.00     0.049 A 
ATOM     45  N   UNL A   1      41.039  29.205  30.720  1.00  0.00    -0.248 NA
ATOM     46  C   UNL A   1      39.518  30.147  29.325  1.00  0.00     0.031 C 
ATOM     47  C   UNL A   1      42.961  31.415  31.901  1.00  0.00     0.029 A 
ATOM     48  N   UNL A   1      41.723  32.801  33.097  1.00  0.00    -0.354 N 
ATOM     49  C   UNL A   1      40.988  28.470  29.548  1.00  0.00     0.074 A 
ATOM     50  C   UNL A   1      39.856  28.957  28.840  1.00  0.00     0.031 C 
ATOM     51  C   UNL A   1      43.730  31.846  32.930  1.00  0.00     0.029 A 
ATOM     52  C   UNL A   1      42.869  32.553  33.857  1.00  0.00     0.049 A 
ATOM     53  H   UNL A   1      41.103  33.548  33.261  1.00  0.00     0.167 HD
ATOM     54  C   UNL A   1      42.049  27.694  29.212  1.00  0.00     0.034 A 
ATOM     55  C   UNL A   1      42.697  32.416  35.198  1.00  0.00     0.034 A 
ATOM     56  C   UNL A   1      43.063  27.811  30.266  1.00  0.00     0.049 A 
ATOM     57  C   UNL A   1      42.790  30.921  35.405  1.00  0.00     0.074 A 
ATOM     58  C   UNL A   1      44.269  28.482  30.356  1.00  0.00     0.029 A 
ATOM     59  N   UNL A   1      42.687  27.516  31.570  1.00  0.00    -0.354 N 
ATOM     60  N   UNL A   1      42.602  30.057  34.435  1.00  0.00    -0.248 NA
ATOM     61  C   UNL A   1      43.337  30.308  36.606  1.00  0.00     0.031 C 
ATOM     62  C   UNL A   1      44.572  28.632  31.748  1.00  0.00     0.029 A 
ATOM     63  C   UNL A   1      43.547  28.067  32.495  1.00  0.00     0.049 A 
ATOM     64  H   UNL A   1      41.897  26.978  31.805  1.00  0.00     0.167 HD
ATOM     65  C   UNL A   1      43.158  28.865  34.775  1.00  0.00     0.074 A 
ATOM     66  C   UNL A   1      43.558  29.057  36.166  1.00  0.00     0.031 C 
ATOM     67  C   UNL A   1      43.312  27.813  33.913  1.00  0.00     0.034 A 
BRANCH  54  68
ATOM     68  C   UNL A   1      42.310  27.025  27.874  1.00  0.00     0.023 A 
ATOM     69  C   UNL A   1      42.404  25.620  27.872  1.00  0.00     0.031 A 
ATOM     70  C   UNL A   1      42.477  27.624  26.603  1.00  0.00     0.131 A 
ATOM     71  C   UNL A   1      42.658  24.888  26.698  1.00  0.00     0.055 A 
ATOM     72  C   UNL A   1      42.730  26.896  25.430  1.00  0.00     0.041 A 
ATOM     73  F   UNL A   1      42.394  28.939  26.394  1.00  0.00    -0.206 F 
ATOM     74  C   UNL A   1      42.820  25.517  25.470  1.00  0.00     0.022 A 
BRANCH  71  75
ATOM     75  S   UNL A   1      42.751  23.085  26.811  1.00  0.00     0.124 S 
ATOM     76  O   UNL A   1      42.526  22.681  25.427  1.00  0.00    -0.237 OA
ATOM     77  O   UNL A   1      44.094  22.878  27.338  1.00  0.00    -0.237 OA
ATOM     78  O   UNL A   1      41.668  22.748  27.735  1.00  0.00    -0.744 OA
ENDBRANCH  71  75
ENDBRANCH  54  68
BRANCH  55  79
ATOM     79  C   UNL A   1      41.669  33.440  35.655  1.00  0.00     0.023 A 
ATOM     80  C   UNL A   1      40.313  32.988  35.718  1.00  0.00     0.031 A 
ATOM     81  C   UNL A   1      42.025  34.479  36.531  1.00  0.00     0.131 A 
ATOM     82  C   UNL A   1      39.440  33.438  36.736  1.00  0.00     0.055 A 
ATOM     83  C   UNL A   1      41.133  34.948  37.514  1.00  0.00     0.041 A 
ATOM     84  F   UNL A   1      43.296  34.902  36.598  1.00  0.00    -0.206 F 
ATOM     85  C   UNL A   1      39.852  34.410  37.643  1.00  0.00     0.022 A 
BRANCH  82  86
ATOM     86  S   UNL A   1      37.909  32.492  37.086  1.00  0.00     0.124 S 
ATOM     87  O   UNL A   1      38.412  31.139  37.278  1.00  0.00    -0.237 OA
ATOM     88  O   UNL A   1      37.399  33.167  38.279  1.00  0.00    -0.237 OA
ATOM     89  O   UNL A   1      37.093  32.699  35.893  1.00  0.00    -0.744 OA
ENDBRANCH  82  86
ENDBRANCH  55  79
BRANCH  67  90
ATOM     90  C   UNL A   1      43.262  26.390  34.399  1.00  0.00     0.023 A 
ATOM     91  C   UNL A   1      44.430  25.642  34.532  1.00  0.00     0.031 A 
ATOM     92  C   UNL A   1      42.081  25.762  34.860  1.00  0.00     0.131 A 
ATOM     93  C   UNL A   1      44.395  24.299  34.896  1.00  0.00     0.055 A 
ATOM     94  C   UNL A   1      42.069  24.467  35.378  1.00  0.00     0.041 A 
ATOM     95  F   UNL A   1      40.887  26.369  34.856  1.00  0.00    -0.206 F 
ATOM     96  C   UNL A   1      43.226  23.706  35.352  1.00  0.00     0.022 A 
BRANCH  93  97
ATOM     97  S   UNL A   1      45.901  23.355  34.602  1.00  0.00     0.124 S 
ATOM     98  O   UNL A   1      46.715  24.320  33.866  1.00  0.00    -0.237 OA
ATOM     99  O   UNL A   1      46.356  23.057  35.958  1.00  0.00    -0.237 OA
ATOM    100  O   UNL A   1      45.438  22.207  33.829  1.00  0.00    -0.744 OA
ENDBRANCH  93  97
ENDBRANCH  67  90
ENDBRANCH  41  42
ENDBRANCH  34  36
ENDBRANCH  33  34
ENDBRANCH  32  33
ENDBRANCH  31  32
ENDBRANCH  30  31
ENDBRANCH   1  30
TORSDOF 22
ENDMDL
MODEL 3
REMARK VINA RESULT:     -11.4      3.975      5.065
REMARK SMILES Cc1c(C(=O)NC(=S)Nc2ccccc2C(=O)OCCOCCOC(=O)c2ccc(-c3c4nc(c(-c5cc(S(=O)(=O)[O-])ccc5F)c5ccc([nH]5)c(-c5cc(S(=O)(=O)[O-])ccc5F)c5nc(c(-c6cc(S(=O)(=O)[O-])ccc6F)c6ccc3[nH]6)C=C5)C=C4)cc2)cccc1[N+](=O)[O-]
REMARK SMILES IDX 20 1 19 2 18 3 16 4 17 5 15 6 10 7 11 8 12 9 14 10 13 11
REMARK SMILES IDX 9 12 7 14 8 15 6 16 4 17 5 18 3 20 1 21 2 22 93 23 90 24
REMARK SMILES IDX 92 25 91 26 94 27 95 28 96 29 21 30 22 31 23 32 24 33 25 34
REMARK SMILES IDX 26 35 27 36 28 37 89 38 29 39 88 40 30 41 31 42 32 43 82 44
REMARK SMILES IDX 33 45 87 46 81 47 83 48 34 49 86 50 80 51 79 52 35 54 67 55
REMARK SMILES IDX 47 56 66 57 48 58 51 59 65 60 84 61 49 62 50 63 64 65 85 66
REMARK SMILES IDX 52 67 36 68 37 69 45 70 38 71 44 72 46 73 43 74 39 75 40 76
REMARK SMILES IDX 41 77 42 78 68 79 69 80 77 81 70 82 76 83 78 84 75 85 71 86
REMARK SMILES IDX 72 87 73 88 74 89 53 90 54 91 62 92 55 93 61 94 63 95 60 96
REMARK SMILES IDX 56 97 57 98 58 99 59 100
REMARK H PARENT 9 13 6 19 83 53 51 64
REMARK Flexibility Score: inf
ROOT
ATOM      1  C   UNL A   1      32.012  30.950  26.801  1.00  0.00     0.202 C 
ENDROOT
BRANCH   1   2
ATOM      2  C   UNL A   1      32.530  29.971  25.791  1.00  0.00     0.261 C 
BRANCH   2   3
ATOM      3  O   UNL A   1      31.693  29.700  24.645  1.00  0.00    -0.460 OA
BRANCH   3   4
ATOM      4  C   UNL A   1      32.093  28.893  23.593  1.00  0.00     0.340 C 
ATOM      5  O   UNL A   1      33.178  28.347  23.499  1.00  0.00    -0.246 OA
BRANCH   4   6
ATOM      6  C   UNL A   1      30.887  28.293  22.960  1.00  0.00     0.083 A 
ATOM      7  C   UNL A   1      30.045  26.977  23.813  1.00  0.00     0.055 A 
ATOM      8  C   UNL A   1      28.223  26.823  23.795  1.00  0.00     0.027 A 
ATOM      9  C   UNL A   1      27.288  28.368  23.282  1.00  0.00     0.002 A 
ATOM     10  C   UNL A   1      30.148  29.537  22.196  1.00  0.00     0.018 A 
ATOM     11  C   UNL A   1      28.488  29.755  22.413  1.00  0.00     0.001 A 
BRANCH   7  12
ATOM     12  N   UNL A   1      30.623  26.933  25.163  1.00  0.00    -0.332 N 
ATOM     13  H   UNL A   1      30.553  27.775  25.670  1.00  0.00     0.169 HD
BRANCH  12  14
ATOM     14  C   UNL A   1      31.261  25.880  25.848  1.00  0.00     0.177 C 
ATOM     15  S   UNL A   1      32.697  26.257  26.654  1.00  0.00    -0.040 S 
BRANCH  14  16
ATOM     16  N   UNL A   1      30.881  24.448  25.821  1.00  0.00    -0.299 N 
ATOM     17  C   UNL A   1      31.155  22.892  25.685  1.00  0.00     0.257 C 
ATOM     18  O   UNL A   1      30.253  22.095  25.926  1.00  0.00    -0.269 OA
ATOM     19  H   UNL A   1      29.908  24.481  25.970  1.00  0.00     0.172 HD
BRANCH  17  20
ATOM     20  C   UNL A   1      32.574  22.411  25.428  1.00  0.00     0.049 A 
ATOM     21  C   UNL A   1      31.757  22.140  23.281  1.00  0.00     0.053 C 
ATOM     22  C   UNL A   1      32.249  20.940  24.730  1.00  0.00     0.039 A 
ATOM     23  C   UNL A   1      33.607  19.410  24.556  1.00  0.00     0.273 A 
ATOM     24  C   UNL A   1      34.255  22.800  25.621  1.00  0.00     0.014 A 
ATOM     25  C   UNL A   1      35.347  19.920  24.851  1.00  0.00     0.086 A 
ATOM     26  C   UNL A   1      35.611  21.634  25.329  1.00  0.00     0.008 A 
BRANCH  23  27
ATOM     27  N   UNL A   1      33.678  18.057  23.823  1.00  0.00     0.063 N 
ATOM     28  O   UNL A   1      32.662  17.743  23.176  1.00  0.00    -0.258 OA
ATOM     29  O   UNL A   1      34.710  17.379  23.866  1.00  0.00    -0.258 OA
ENDBRANCH  23  27
ENDBRANCH  17  20
ENDBRANCH  14  16
ENDBRANCH  12  14
ENDBRANCH   7  12
ENDBRANCH   4   6
ENDBRANCH   3   4
ENDBRANCH   2   3
ENDBRANCH   1   2
BRANCH   1  30
ATOM     30  O   UNL A   1      33.168  31.488  27.356  1.00  0.00    -0.374 OA
BRANCH  30  31
ATOM     31  C   UNL A   1      34.250  30.617  27.463  1.00  0.00     0.202 C 
BRANCH  31  32
ATOM     32  C   UNL A   1      35.328  31.465  28.080  1.00  0.00     0.261 C 
BRANCH  32  33
ATOM     33  O   UNL A   1      35.625  31.032  29.452  1.00  0.00    -0.460 OA
BRANCH  33  34
ATOM     34  C   UNL A   1      36.561  30.039  29.666  1.00  0.00     0.338 C 
ATOM     35  O   UNL A   1      36.374  29.086  30.407  1.00  0.00    -0.246 OA
BRANCH  34  36
ATOM     36  C   UNL A   1      37.838  30.218  28.866  1.00  0.00     0.060 A 
ATOM     37  C   UNL A   1      37.981  29.655  27.578  1.00  0.00     0.016 A 
ATOM     38  C   UNL A   1      38.983  30.553  29.555  1.00  0.00     0.016 A 
ATOM     39  C   UNL A   1      39.235  29.174  27.124  1.00  0.00     0.010 A 
ATOM     40  C   UNL A   1      40.129  29.849  29.215  1.00  0.00     0.010 A 
ATOM     41  C   UNL A   1      40.296  29.129  28.016  1.00  0.00    -0.014 A 
BRANCH  41  42
ATOM     42  C   UNL A   1      41.613  28.443  27.839  1.00  0.00     0.031 A 
ATOM     43  C   UNL A   1      41.516  26.955  27.993  1.00  0.00     0.074 A 
ATOM     44  C   UNL A   1      42.787  29.043  27.436  1.00  0.00     0.049 A 
ATOM     45  N   UNL A   1      42.456  26.217  28.463  1.00  0.00    -0.248 NA
ATOM     46  C   UNL A   1      40.292  26.158  27.784  1.00  0.00     0.031 C 
ATOM     47  C   UNL A   1      44.035  28.460  26.898  1.00  0.00     0.029 A 
ATOM     48  N   UNL A   1      43.117  30.402  27.416  1.00  0.00    -0.354 N 
ATOM     49  C   UNL A   1      42.101  24.904  28.208  1.00  0.00     0.074 A 
ATOM     50  C   UNL A   1      40.690  24.915  28.038  1.00  0.00     0.031 C 
ATOM     51  C   UNL A   1      45.028  29.382  26.891  1.00  0.00     0.029 A 
ATOM     52  C   UNL A   1      44.498  30.603  27.466  1.00  0.00     0.049 A 
ATOM     53  H   UNL A   1      42.455  31.130  27.373  1.00  0.00     0.167 HD
ATOM     54  C   UNL A   1      43.076  23.999  27.941  1.00  0.00     0.034 A 
ATOM     55  C   UNL A   1      44.967  31.395  28.467  1.00  0.00     0.034 A 
ATOM     56  C   UNL A   1      44.374  24.678  28.018  1.00  0.00     0.049 A 
ATOM     57  C   UNL A   1      45.534  30.401  29.455  1.00  0.00     0.074 A 
ATOM     58  C   UNL A   1      45.274  25.123  27.066  1.00  0.00     0.029 A 
ATOM     59  N   UNL A   1      44.692  25.347  29.192  1.00  0.00    -0.354 N 
ATOM     60  N   UNL A   1      45.182  29.136  29.471  1.00  0.00    -0.248 NA
ATOM     61  C   UNL A   1      46.687  30.674  30.298  1.00  0.00     0.031 C 
ATOM     62  C   UNL A   1      46.097  26.117  27.688  1.00  0.00     0.029 A 
ATOM     63  C   UNL A   1      45.687  26.282  29.004  1.00  0.00     0.049 A 
ATOM     64  H   UNL A   1      44.257  25.175  30.059  1.00  0.00     0.167 HD
ATOM     65  C   UNL A   1      46.126  28.411  30.128  1.00  0.00     0.074 A 
ATOM     66  C   UNL A   1      47.021  29.427  30.674  1.00  0.00     0.031 C 
ATOM     67  C   UNL A   1      46.165  27.043  30.154  1.00  0.00     0.034 A 
BRANCH  54  68
ATOM     68  C   UNL A   1      42.900  22.596  27.386  1.00  0.00     0.023 A 
ATOM     69  C   UNL A   1      43.796  22.194  26.377  1.00  0.00     0.031 A 
ATOM     70  C   UNL A   1      41.945  21.617  27.745  1.00  0.00     0.131 A 
ATOM     71  C   UNL A   1      43.725  20.925  25.775  1.00  0.00     0.055 A 
ATOM     72  C   UNL A   1      41.871  20.349  27.145  1.00  0.00     0.041 A 
ATOM     73  F   UNL A   1      41.030  21.796  28.699  1.00  0.00    -0.206 F 
ATOM     74  C   UNL A   1      42.766  19.994  26.154  1.00  0.00     0.022 A 
BRANCH  71  75
ATOM     75  S   UNL A   1      44.932  20.511  24.493  1.00  0.00     0.124 S 
ATOM     76  O   UNL A   1      44.854  21.673  23.613  1.00  0.00    -0.237 OA
ATOM     77  O   UNL A   1      46.160  20.360  25.263  1.00  0.00    -0.237 OA
ATOM     78  O   UNL A   1      44.407  19.270  23.923  1.00  0.00    -0.744 OA
ENDBRANCH  71  75
ENDBRANCH  54  68
BRANCH  55  79
ATOM     79  C   UNL A   1      44.006  32.562  28.642  1.00  0.00     0.023 A 
ATOM     80  C   UNL A   1      43.426  32.711  29.940  1.00  0.00     0.031 A 
ATOM     81  C   UNL A   1      44.147  33.733  27.878  1.00  0.00     0.131 A 
ATOM     82  C   UNL A   1      43.183  33.992  30.489  1.00  0.00     0.055 A 
ATOM     83  C   UNL A   1      43.863  35.000  28.421  1.00  0.00     0.041 A 
ATOM     84  F   UNL A   1      44.761  33.694  26.687  1.00  0.00    -0.206 F 
ATOM     85  C   UNL A   1      43.412  35.139  29.734  1.00  0.00     0.022 A 
BRANCH  82  86
ATOM     86  S   UNL A   1      42.916  34.159  32.295  1.00  0.00     0.124 S 
ATOM     87  O   UNL A   1      41.508  34.524  32.372  1.00  0.00    -0.237 OA
ATOM     88  O   UNL A   1      43.265  32.823  32.780  1.00  0.00    -0.237 OA
ATOM     89  O   UNL A   1      43.861  35.199  32.691  1.00  0.00    -0.744 OA
ENDBRANCH  82  86
ENDBRANCH  55  79
BRANCH  67  90
ATOM     90  C   UNL A   1      46.711  26.300  31.343  1.00  0.00     0.023 A 
ATOM     91  C   UNL A   1      48.080  26.079  31.476  1.00  0.00     0.031 A 
ATOM     92  C   UNL A   1      45.918  25.888  32.440  1.00  0.00     0.131 A 
ATOM     93  C   UNL A   1      48.594  25.319  32.523  1.00  0.00     0.055 A 
ATOM     94  C   UNL A   1      46.454  25.267  33.567  1.00  0.00     0.041 A 
ATOM     95  F   UNL A   1      44.593  26.083  32.491  1.00  0.00    -0.206 F 
ATOM     96  C   UNL A   1      47.798  24.933  33.592  1.00  0.00     0.022 A 
BRANCH  93  97
ATOM     97  S   UNL A   1      50.293  24.749  32.334  1.00  0.00     0.124 S 
ATOM     98  O   UNL A   1      50.194  23.368  32.800  1.00  0.00    -0.237 OA
ATOM     99  O   UNL A   1      50.523  24.912  30.901  1.00  0.00    -0.237 OA
ATOM    100  O   UNL A   1      51.051  25.648  33.198  1.00  0.00    -0.744 OA
ENDBRANCH  93  97
ENDBRANCH  67  90
ENDBRANCH  41  42
ENDBRANCH  34  36
ENDBRANCH  33  34
ENDBRANCH  32  33
ENDBRANCH  31  32
ENDBRANCH  30  31
ENDBRANCH   1  30
TORSDOF 22
ENDMDL
