MODEL 1
REMARK VINA RESULT:     -10.5      0.000      0.000
REMARK SMILES C[C@H]1CCCC/C1=C\C(=O)OCCOCCOC(=O)c1ccc(-c2c3nc(c(-c4cc(S(=O)(=O)[O-])ccc4F)c4ccc([nH]4)c(-c4cc(S(=O)(=O)[O-])ccc4F)c4nc(c(-c5cc(S(=O)(=O)[O-])ccc5F)c5ccc2[nH]5)C=C4)C=C3)cc1
REMARK SMILES IDX 15 1 14 2 13 3 12 4 11 5 9 6 10 7 8 8 1 9 2 10 3 11 7 12
REMARK SMILES IDX 4 13 6 14 5 15 16 16 17 17 18 18 19 19 20 20 21 21 82 22
REMARK SMILES IDX 22 23 81 24 23 25 24 26 25 27 75 28 26 29 80 30 74 31 76 32
REMARK SMILES IDX 27 33 79 34 73 35 72 36 28 38 60 39 40 40 59 41 41 42 44 43
REMARK SMILES IDX 58 44 77 45 42 46 43 47 57 49 78 50 45 51 29 52 30 53 38 54
REMARK SMILES IDX 31 55 37 56 39 57 36 58 32 59 33 60 34 61 35 62 61 63 62 64
REMARK SMILES IDX 70 65 63 66 69 67 71 68 68 69 64 70 65 71 66 72 67 73 46 74
REMARK SMILES IDX 47 75 55 76 48 77 54 78 56 79 53 80 49 81 50 82 51 83 52 84
REMARK H PARENT 76 37 44 48
REMARK Flexibility Score: inf
ROOT
ATOM      1  C   UNL A   1      31.420  30.865  26.482  1.00  0.00     0.202 C 
ENDROOT
BRANCH   1   2
ATOM      2  O   UNL A   1      32.568  30.457  25.739  1.00  0.00    -0.374 OA
BRANCH   2   3
ATOM      3  C   UNL A   1      33.198  29.236  26.139  1.00  0.00     0.202 C 
BRANCH   3   4
ATOM      4  C   UNL A   1      33.632  28.330  24.986  1.00  0.00     0.261 C 
BRANCH   4   5
ATOM      5  O   UNL A   1      33.463  29.022  23.736  1.00  0.00    -0.460 OA
BRANCH   5   6
ATOM      6  C   UNL A   1      32.635  28.448  22.842  1.00  0.00     0.330 C 
ATOM      7  O   UNL A   1      32.838  27.409  22.226  1.00  0.00    -0.247 OA
BRANCH   6   8
ATOM      8  C   UNL A   1      31.311  29.115  22.782  1.00  0.00     0.093 C 
ATOM      9  C   UNL A   1      29.038  30.893  22.140  1.00  0.00     0.012 C 
ATOM     10  C   UNL A   1      28.878  29.720  23.121  1.00  0.00     0.012 C 
ATOM     11  C   UNL A   1      27.611  28.938  22.718  1.00  0.00     0.008 C 
ATOM     12  C   UNL A   1      30.096  28.794  23.280  1.00  0.00    -0.060 C 
ATOM     13  C   UNL A   1      27.347  27.748  23.633  1.00  0.00     0.001 C 
ATOM     14  C   UNL A   1      29.807  27.566  24.127  1.00  0.00     0.031 C 
ATOM     15  C   UNL A   1      28.554  26.821  23.663  1.00  0.00     0.004 C 
ENDBRANCH   6   8
ENDBRANCH   5   6
ENDBRANCH   4   5
ENDBRANCH   3   4
ENDBRANCH   2   3
ENDBRANCH   1   2
BRANCH   1  16
ATOM     16  C   UNL A   1      31.411  32.322  26.959  1.00  0.00     0.261 C 
BRANCH  16  17
ATOM     17  O   UNL A   1      32.670  32.981  26.734  1.00  0.00    -0.460 OA
BRANCH  17  18
ATOM     18  C   UNL A   1      33.240  33.492  27.852  1.00  0.00     0.338 C 
ATOM     19  O   UNL A   1      32.725  34.273  28.642  1.00  0.00    -0.246 OA
BRANCH  18  20
ATOM     20  C   UNL A   1      34.543  32.851  28.110  1.00  0.00     0.060 A 
ATOM     21  C   UNL A   1      34.532  31.494  28.454  1.00  0.00     0.016 A 
ATOM     22  C   UNL A   1      35.743  33.568  28.105  1.00  0.00     0.016 A 
ATOM     23  C   UNL A   1      35.706  30.865  28.861  1.00  0.00     0.010 A 
ATOM     24  C   UNL A   1      36.923  32.935  28.517  1.00  0.00     0.010 A 
ATOM     25  C   UNL A   1      36.902  31.593  28.939  1.00  0.00    -0.014 A 
BRANCH  25  26
ATOM     26  C   UNL A   1      38.068  30.983  29.630  1.00  0.00     0.031 A 
ATOM     27  C   UNL A   1      38.329  31.345  31.070  1.00  0.00     0.074 A 
ATOM     28  C   UNL A   1      38.833  30.064  29.014  1.00  0.00     0.049 A 
ATOM     29  N   UNL A   1      39.266  30.919  31.878  1.00  0.00    -0.248 NA
ATOM     30  C   UNL A   1      37.407  32.317  31.675  1.00  0.00     0.031 C 
ATOM     31  C   UNL A   1      38.651  29.598  27.639  1.00  0.00     0.029 A 
ATOM     32  N   UNL A   1      39.913  29.351  29.469  1.00  0.00    -0.354 N 
ATOM     33  C   UNL A   1      39.038  31.559  33.092  1.00  0.00     0.074 A 
ATOM     34  C   UNL A   1      37.911  32.445  32.893  1.00  0.00     0.031 C 
ATOM     35  C   UNL A   1      39.589  28.676  27.363  1.00  0.00     0.029 A 
ATOM     36  C   UNL A   1      40.455  28.506  28.529  1.00  0.00     0.049 A 
ATOM     37  H   UNL A   1      40.268  29.436  30.384  1.00  0.00     0.167 HD
ATOM     38  C   UNL A   1      39.695  31.409  34.271  1.00  0.00     0.034 A 
ATOM     39  C   UNL A   1      41.534  27.699  28.598  1.00  0.00     0.034 A 
ATOM     40  C   UNL A   1      40.832  30.540  34.453  1.00  0.00     0.049 A 
ATOM     41  C   UNL A   1      42.302  27.612  29.898  1.00  0.00     0.074 A 
ATOM     42  C   UNL A   1      41.592  30.337  35.592  1.00  0.00     0.029 A 
ATOM     43  N   UNL A   1      41.377  29.728  33.465  1.00  0.00    -0.354 N 
ATOM     44  N   UNL A   1      42.077  28.229  31.036  1.00  0.00    -0.248 NA
ATOM     45  C   UNL A   1      43.456  26.705  29.924  1.00  0.00     0.031 C 
ATOM     46  C   UNL A   1      42.628  29.449  35.279  1.00  0.00     0.029 A 
ATOM     47  C   UNL A   1      42.472  29.038  33.965  1.00  0.00     0.049 A 
ATOM     48  H   UNL A   1      41.035  29.654  32.545  1.00  0.00     0.167 HD
ATOM     49  C   UNL A   1      43.040  27.749  31.923  1.00  0.00     0.074 A 
ATOM     50  C   UNL A   1      43.830  26.781  31.191  1.00  0.00     0.031 C 
ATOM     51  C   UNL A   1      43.252  28.075  33.224  1.00  0.00     0.034 A 
BRANCH  38  52
ATOM     52  C   UNL A   1      39.214  32.240  35.437  1.00  0.00     0.023 A 
ATOM     53  C   UNL A   1      39.639  33.569  35.618  1.00  0.00     0.031 A 
ATOM     54  C   UNL A   1      38.348  31.691  36.398  1.00  0.00     0.131 A 
ATOM     55  C   UNL A   1      39.255  34.277  36.766  1.00  0.00     0.055 A 
ATOM     56  C   UNL A   1      37.906  32.427  37.498  1.00  0.00     0.041 A 
ATOM     57  F   UNL A   1      37.927  30.420  36.292  1.00  0.00    -0.206 F 
ATOM     58  C   UNL A   1      38.371  33.724  37.695  1.00  0.00     0.022 A 
BRANCH  55  59
ATOM     59  S   UNL A   1      40.038  35.879  37.101  1.00  0.00     0.124 S 
ATOM     60  O   UNL A   1      39.698  36.630  35.895  1.00  0.00    -0.237 OA
ATOM     61  O   UNL A   1      39.375  36.305  38.328  1.00  0.00    -0.237 OA
ATOM     62  O   UNL A   1      41.455  35.546  37.240  1.00  0.00    -0.744 OA
ENDBRANCH  55  59
ENDBRANCH  38  52
BRANCH  39  63
ATOM     63  C   UNL A   1      41.984  26.922  27.405  1.00  0.00     0.023 A 
ATOM     64  C   UNL A   1      41.733  25.545  27.294  1.00  0.00     0.031 A 
ATOM     65  C   UNL A   1      42.753  27.534  26.399  1.00  0.00     0.131 A 
ATOM     66  C   UNL A   1      42.300  24.813  26.239  1.00  0.00     0.055 A 
ATOM     67  C   UNL A   1      43.264  26.813  25.318  1.00  0.00     0.041 A 
ATOM     68  F   UNL A   1      43.025  28.848  26.455  1.00  0.00    -0.206 F 
ATOM     69  C   UNL A   1      43.054  25.440  25.244  1.00  0.00     0.022 A 
BRANCH  66  70
ATOM     70  S   UNL A   1      42.138  23.006  26.250  1.00  0.00     0.124 S 
ATOM     71  O   UNL A   1      42.704  22.650  24.954  1.00  0.00    -0.237 OA
ATOM     72  O   UNL A   1      42.930  22.641  27.420  1.00  0.00    -0.237 OA
ATOM     73  O   UNL A   1      40.698  22.794  26.383  1.00  0.00    -0.744 OA
ENDBRANCH  66  70
ENDBRANCH  39  63
BRANCH  51  74
ATOM     74  C   UNL A   1      44.347  27.326  33.949  1.00  0.00     0.023 A 
ATOM     75  C   UNL A   1      44.175  26.001  34.391  1.00  0.00     0.031 A 
ATOM     76  C   UNL A   1      45.567  27.963  34.236  1.00  0.00     0.131 A 
ATOM     77  C   UNL A   1      45.174  25.385  35.160  1.00  0.00     0.055 A 
ATOM     78  C   UNL A   1      46.584  27.321  34.944  1.00  0.00     0.041 A 
ATOM     79  F   UNL A   1      45.789  29.227  33.839  1.00  0.00    -0.206 F 
ATOM     80  C   UNL A   1      46.383  26.031  35.427  1.00  0.00     0.022 A 
BRANCH  77  81
ATOM     81  S   UNL A   1      44.822  23.772  35.913  1.00  0.00     0.124 S 
ATOM     82  O   UNL A   1      43.363  23.747  35.911  1.00  0.00    -0.237 OA
ATOM     83  O   UNL A   1      45.475  22.849  34.989  1.00  0.00    -0.237 OA
ATOM     84  O   UNL A   1      45.440  23.867  37.233  1.00  0.00    -0.744 OA
ENDBRANCH  77  81
ENDBRANCH  51  74
ENDBRANCH  25  26
ENDBRANCH  18  20
ENDBRANCH  17  18
ENDBRANCH  16  17
ENDBRANCH   1  16
TORSDOF 17
ENDMDL
MODEL 2
REMARK VINA RESULT:     -10.4      2.229      3.172
REMARK SMILES C[C@H]1CCCC/C1=C\C(=O)OCCOCCOC(=O)c1ccc(-c2c3nc(c(-c4cc(S(=O)(=O)[O-])ccc4F)c4ccc([nH]4)c(-c4cc(S(=O)(=O)[O-])ccc4F)c4nc(c(-c5cc(S(=O)(=O)[O-])ccc5F)c5ccc2[nH]5)C=C4)C=C3)cc1
REMARK SMILES IDX 15 1 14 2 13 3 12 4 11 5 9 6 10 7 8 8 1 9 2 10 3 11 7 12
REMARK SMILES IDX 4 13 6 14 5 15 16 16 17 17 18 18 19 19 20 20 21 21 82 22
REMARK SMILES IDX 22 23 81 24 23 25 24 26 25 27 75 28 26 29 80 30 74 31 76 32
REMARK SMILES IDX 27 33 79 34 73 35 72 36 28 38 60 39 40 40 59 41 41 42 44 43
REMARK SMILES IDX 58 44 77 45 42 46 43 47 57 49 78 50 45 51 29 52 30 53 38 54
REMARK SMILES IDX 31 55 37 56 39 57 36 58 32 59 33 60 34 61 35 62 61 63 62 64
REMARK SMILES IDX 70 65 63 66 69 67 71 68 68 69 64 70 65 71 66 72 67 73 46 74
REMARK SMILES IDX 47 75 55 76 48 77 54 78 56 79 53 80 49 81 50 82 51 83 52 84
REMARK H PARENT 76 37 44 48
REMARK Flexibility Score: inf
ROOT
ATOM      1  C   UNL A   1      31.492  31.120  26.166  1.00  0.00     0.202 C 
ENDROOT
BRANCH   1   2
ATOM      2  O   UNL A   1      32.718  30.422  25.946  1.00  0.00    -0.374 OA
BRANCH   2   3
ATOM      3  C   UNL A   1      32.623  29.109  25.385  1.00  0.00     0.202 C 
BRANCH   3   4
ATOM      4  C   UNL A   1      31.523  28.232  25.985  1.00  0.00     0.261 C 
BRANCH   4   5
ATOM      5  O   UNL A   1      32.104  27.038  26.539  1.00  0.00    -0.460 OA
BRANCH   5   6
ATOM      6  C   UNL A   1      31.892  25.897  25.854  1.00  0.00     0.330 C 
ATOM      7  O   UNL A   1      31.155  25.756  24.887  1.00  0.00    -0.247 OA
BRANCH   6   8
ATOM      8  C   UNL A   1      32.801  24.803  26.278  1.00  0.00     0.093 C 
ATOM      9  C   UNL A   1      34.032  22.477  27.624  1.00  0.00     0.012 C 
ATOM     10  C   UNL A   1      34.731  23.176  26.446  1.00  0.00     0.012 C 
ATOM     11  C   UNL A   1      35.181  22.087  25.451  1.00  0.00     0.008 C 
ATOM     12  C   UNL A   1      33.936  24.295  25.750  1.00  0.00    -0.060 C 
ATOM     13  C   UNL A   1      35.897  22.668  24.238  1.00  0.00     0.001 C 
ATOM     14  C   UNL A   1      34.615  24.817  24.495  1.00  0.00     0.031 C 
ATOM     15  C   UNL A   1      35.015  23.693  23.538  1.00  0.00     0.004 C 
ENDBRANCH   6   8
ENDBRANCH   5   6
ENDBRANCH   4   5
ENDBRANCH   3   4
ENDBRANCH   2   3
ENDBRANCH   1   2
BRANCH   1  16
ATOM     16  C   UNL A   1      31.554  32.295  27.148  1.00  0.00     0.261 C 
BRANCH  16  17
ATOM     17  O   UNL A   1      32.729  33.105  26.961  1.00  0.00    -0.460 OA
BRANCH  17  18
ATOM     18  C   UNL A   1      33.299  33.535  28.112  1.00  0.00     0.338 C 
ATOM     19  O   UNL A   1      32.785  34.262  28.953  1.00  0.00    -0.246 OA
BRANCH  18  20
ATOM     20  C   UNL A   1      34.599  32.872  28.328  1.00  0.00     0.060 A 
ATOM     21  C   UNL A   1      34.578  31.510  28.650  1.00  0.00     0.016 A 
ATOM     22  C   UNL A   1      35.809  33.574  28.306  1.00  0.00     0.016 A 
ATOM     23  C   UNL A   1      35.753  30.859  29.017  1.00  0.00     0.010 A 
ATOM     24  C   UNL A   1      36.989  32.918  28.677  1.00  0.00     0.010 A 
ATOM     25  C   UNL A   1      36.960  31.569  29.078  1.00  0.00    -0.014 A 
BRANCH  25  26
ATOM     26  C   UNL A   1      38.134  30.932  29.730  1.00  0.00     0.031 A 
ATOM     27  C   UNL A   1      38.452  31.289  31.159  1.00  0.00     0.074 A 
ATOM     28  C   UNL A   1      38.855  29.995  29.090  1.00  0.00     0.049 A 
ATOM     29  N   UNL A   1      39.406  30.842  31.936  1.00  0.00    -0.248 NA
ATOM     30  C   UNL A   1      37.575  32.284  31.794  1.00  0.00     0.031 C 
ATOM     31  C   UNL A   1      38.616  29.532  27.723  1.00  0.00     0.029 A 
ATOM     32  N   UNL A   1      39.933  29.256  29.510  1.00  0.00    -0.354 N 
ATOM     33  C   UNL A   1      39.235  31.489  33.156  1.00  0.00     0.074 A 
ATOM     34  C   UNL A   1      38.123  32.401  32.994  1.00  0.00     0.031 C 
ATOM     35  C   UNL A   1      39.522  28.588  27.418  1.00  0.00     0.029 A 
ATOM     36  C   UNL A   1      40.423  28.397  28.554  1.00  0.00     0.049 A 
ATOM     37  H   UNL A   1      40.321  29.334  30.412  1.00  0.00     0.167 HD
ATOM     38  C   UNL A   1      39.927  31.325  34.312  1.00  0.00     0.034 A 
ATOM     39  C   UNL A   1      41.483  27.565  28.588  1.00  0.00     0.034 A 
ATOM     40  C   UNL A   1      41.048  30.429  34.457  1.00  0.00     0.049 A 
ATOM     41  C   UNL A   1      42.292  27.461  29.861  1.00  0.00     0.074 A 
ATOM     42  C   UNL A   1      41.842  30.208  35.570  1.00  0.00     0.029 A 
ATOM     43  N   UNL A   1      41.540  29.603  33.453  1.00  0.00    -0.354 N 
ATOM     44  N   UNL A   1      42.122  28.085  31.005  1.00  0.00    -0.248 NA
ATOM     45  C   UNL A   1      43.425  26.527  29.849  1.00  0.00     0.031 C 
ATOM     46  C   UNL A   1      42.845  29.295  35.224  1.00  0.00     0.029 A 
ATOM     47  C   UNL A   1      42.634  28.887  33.917  1.00  0.00     0.049 A 
ATOM     48  H   UNL A   1      41.166  29.536  32.545  1.00  0.00     0.167 HD
ATOM     49  C   UNL A   1      43.102  27.583  31.859  1.00  0.00     0.074 A 
ATOM     50  C   UNL A   1      43.844  26.595  31.103  1.00  0.00     0.031 C 
ATOM     51  C   UNL A   1      43.366  27.904  33.152  1.00  0.00     0.034 A 
BRANCH  38  52
ATOM     52  C   UNL A   1      39.506  32.168  35.492  1.00  0.00     0.023 A 
ATOM     53  C   UNL A   1      38.766  31.624  36.558  1.00  0.00     0.031 A 
ATOM     54  C   UNL A   1      39.816  33.537  35.540  1.00  0.00     0.131 A 
ATOM     55  C   UNL A   1      38.303  32.457  37.587  1.00  0.00     0.055 A 
ATOM     56  C   UNL A   1      39.421  34.346  36.607  1.00  0.00     0.041 A 
ATOM     57  F   UNL A   1      40.499  34.119  34.541  1.00  0.00    -0.206 F 
ATOM     58  C   UNL A   1      38.647  33.809  37.632  1.00  0.00     0.022 A 
BRANCH  55  59
ATOM     59  S   UNL A   1      37.128  31.778  38.792  1.00  0.00     0.124 S 
ATOM     60  O   UNL A   1      37.862  31.947  40.044  1.00  0.00    -0.237 OA
ATOM     61  O   UNL A   1      35.962  32.635  38.613  1.00  0.00    -0.237 OA
ATOM     62  O   UNL A   1      36.956  30.392  38.361  1.00  0.00    -0.744 OA
ENDBRANCH  55  59
ENDBRANCH  38  52
BRANCH  39  63
ATOM     63  C   UNL A   1      41.874  26.776  27.382  1.00  0.00     0.023 A 
ATOM     64  C   UNL A   1      41.619  25.398  27.297  1.00  0.00     0.031 A 
ATOM     65  C   UNL A   1      42.590  27.379  26.331  1.00  0.00     0.131 A 
ATOM     66  C   UNL A   1      42.134  24.656  26.223  1.00  0.00     0.055 A 
ATOM     67  C   UNL A   1      43.048  26.648  25.234  1.00  0.00     0.041 A 
ATOM     68  F   UNL A   1      42.863  28.693  26.360  1.00  0.00    -0.206 F 
ATOM     69  C   UNL A   1      42.836  25.273  25.184  1.00  0.00     0.022 A 
BRANCH  66  70
ATOM     70  S   UNL A   1      41.975  22.849  26.260  1.00  0.00     0.124 S 
ATOM     71  O   UNL A   1      42.673  22.465  25.039  1.00  0.00    -0.237 OA
ATOM     72  O   UNL A   1      42.643  22.515  27.514  1.00  0.00    -0.237 OA
ATOM     73  O   UNL A   1      40.530  22.634  26.249  1.00  0.00    -0.744 OA
ENDBRANCH  66  70
ENDBRANCH  39  63
BRANCH  51  74
ATOM     74  C   UNL A   1      44.467  27.130  33.840  1.00  0.00     0.023 A 
ATOM     75  C   UNL A   1      44.258  25.837  34.352  1.00  0.00     0.031 A 
ATOM     76  C   UNL A   1      45.733  27.715  34.022  1.00  0.00     0.131 A 
ATOM     77  C   UNL A   1      45.272  25.202  35.085  1.00  0.00     0.055 A 
ATOM     78  C   UNL A   1      46.760  27.051  34.694  1.00  0.00     0.041 A 
ATOM     79  F   UNL A   1      45.991  28.947  33.555  1.00  0.00    -0.206 F 
ATOM     80  C   UNL A   1      46.527  25.794  35.246  1.00  0.00     0.022 A 
BRANCH  77  81
ATOM     81  S   UNL A   1      44.890  23.642  35.930  1.00  0.00     0.124 S 
ATOM     82  O   UNL A   1      43.512  23.401  35.514  1.00  0.00    -0.237 OA
ATOM     83  O   UNL A   1      45.890  22.735  35.375  1.00  0.00    -0.237 OA
ATOM     84  O   UNL A   1      45.065  23.966  37.344  1.00  0.00    -0.744 OA
ENDBRANCH  77  81
ENDBRANCH  51  74
ENDBRANCH  25  26
ENDBRANCH  18  20
ENDBRANCH  17  18
ENDBRANCH  16  17
ENDBRANCH   1  16
TORSDOF 17
ENDMDL
MODEL 3
REMARK VINA RESULT:     -10.4      3.832      6.241
REMARK SMILES C[C@H]1CCCC/C1=C\C(=O)OCCOCCOC(=O)c1ccc(-c2c3nc(c(-c4cc(S(=O)(=O)[O-])ccc4F)c4ccc([nH]4)c(-c4cc(S(=O)(=O)[O-])ccc4F)c4nc(c(-c5cc(S(=O)(=O)[O-])ccc5F)c5ccc2[nH]5)C=C4)C=C3)cc1
REMARK SMILES IDX 15 1 14 2 13 3 12 4 11 5 9 6 10 7 8 8 1 9 2 10 3 11 7 12
REMARK SMILES IDX 4 13 6 14 5 15 16 16 17 17 18 18 19 19 20 20 21 21 82 22
REMARK SMILES IDX 22 23 81 24 23 25 24 26 25 27 75 28 26 29 80 30 74 31 76 32
REMARK SMILES IDX 27 33 79 34 73 35 72 36 28 38 60 39 40 40 59 41 41 42 44 43
REMARK SMILES IDX 58 44 77 45 42 46 43 47 57 49 78 50 45 51 29 52 30 53 38 54
REMARK SMILES IDX 31 55 37 56 39 57 36 58 32 59 33 60 34 61 35 62 61 63 62 64
REMARK SMILES IDX 70 65 63 66 69 67 71 68 68 69 64 70 65 71 66 72 67 73 46 74
REMARK SMILES IDX 47 75 55 76 48 77 54 78 56 79 53 80 49 81 50 82 51 83 52 84
REMARK H PARENT 76 37 44 48
REMARK Flexibility Score: inf
ROOT
ATOM      1  C   UNL A   1      34.394  34.891  27.951  1.00  0.00     0.202 C 
ENDROOT
BRANCH   1   2
ATOM      2  O   UNL A   1      34.036  36.107  28.606  1.00  0.00    -0.374 OA
BRANCH   2   3
ATOM      3  C   UNL A   1      33.080  36.013  29.666  1.00  0.00     0.202 C 
BRANCH   3   4
ATOM      4  C   UNL A   1      33.261  37.040  30.786  1.00  0.00     0.261 C 
BRANCH   4   5
ATOM      5  O   UNL A   1      33.034  36.412  32.060  1.00  0.00    -0.460 OA
BRANCH   5   6
ATOM      6  C   UNL A   1      34.017  36.540  32.972  1.00  0.00     0.330 C 
ATOM      7  O   UNL A   1      33.969  37.194  34.006  1.00  0.00    -0.247 OA
BRANCH   6   8
ATOM      8  C   UNL A   1      35.165  35.640  32.700  1.00  0.00     0.093 C 
ATOM      9  C   UNL A   1      37.578  34.353  31.578  1.00  0.00     0.012 C 
ATOM     10  C   UNL A   1      36.893  33.797  32.838  1.00  0.00     0.012 C 
ATOM     11  C   UNL A   1      37.984  33.557  33.901  1.00  0.00     0.008 C 
ATOM     12  C   UNL A   1      35.721  34.623  33.396  1.00  0.00    -0.060 C 
ATOM     13  C   UNL A   1      37.417  32.995  35.199  1.00  0.00     0.001 C 
ATOM     14  C   UNL A   1      35.210  34.108  34.730  1.00  0.00     0.031 C 
ATOM     15  C   UNL A   1      36.334  33.914  35.749  1.00  0.00     0.004 C 
ENDBRANCH   6   8
ENDBRANCH   5   6
ENDBRANCH   4   5
ENDBRANCH   3   4
ENDBRANCH   2   3
ENDBRANCH   1   2
BRANCH   1  16
ATOM     16  C   UNL A   1      33.448  33.704  28.170  1.00  0.00     0.261 C 
BRANCH  16  17
ATOM     17  O   UNL A   1      34.156  32.472  28.389  1.00  0.00    -0.460 OA
BRANCH  17  18
ATOM     18  C   UNL A   1      34.745  32.376  29.605  1.00  0.00     0.338 C 
ATOM     19  O   UNL A   1      34.282  32.757  30.672  1.00  0.00    -0.246 OA
BRANCH  18  20
ATOM     20  C   UNL A   1      35.987  31.584  29.520  1.00  0.00     0.060 A 
ATOM     21  C   UNL A   1      36.092  30.468  30.359  1.00  0.00     0.016 A 
ATOM     22  C   UNL A   1      37.063  31.964  28.712  1.00  0.00     0.016 A 
ATOM     23  C   UNL A   1      37.293  29.767  30.444  1.00  0.00     0.010 A 
ATOM     24  C   UNL A   1      38.270  31.259  28.801  1.00  0.00     0.010 A 
ATOM     25  C   UNL A   1      38.404  30.185  29.700  1.00  0.00    -0.014 A 
BRANCH  25  26
ATOM     26  C   UNL A   1      39.736  29.601  30.011  1.00  0.00     0.031 A 
ATOM     27  C   UNL A   1      40.546  30.198  31.132  1.00  0.00     0.074 A 
ATOM     28  C   UNL A   1      40.180  28.510  29.361  1.00  0.00     0.049 A 
ATOM     29  N   UNL A   1      41.716  29.838  31.597  1.00  0.00    -0.248 NA
ATOM     30  C   UNL A   1      39.954  31.355  31.821  1.00  0.00     0.031 C 
ATOM     31  C   UNL A   1      39.466  27.816  28.290  1.00  0.00     0.029 A 
ATOM     32  N   UNL A   1      41.338  27.789  29.514  1.00  0.00    -0.354 N 
ATOM     33  C   UNL A   1      41.994  30.715  32.641  1.00  0.00     0.074 A 
ATOM     34  C   UNL A   1      40.897  31.657  32.700  1.00  0.00     0.031 C 
ATOM     35  C   UNL A   1      40.202  26.768  27.882  1.00  0.00     0.029 A 
ATOM     36  C   UNL A   1      41.452  26.733  28.641  1.00  0.00     0.049 A 
ATOM     37  H   UNL A   1      42.024  28.008  30.186  1.00  0.00     0.167 HD
ATOM     38  C   UNL A   1      43.056  30.723  33.486  1.00  0.00     0.034 A 
ATOM     39  C   UNL A   1      42.454  25.848  28.466  1.00  0.00     0.034 A 
ATOM     40  C   UNL A   1      44.156  29.793  33.404  1.00  0.00     0.049 A 
ATOM     41  C   UNL A   1      43.668  25.929  29.365  1.00  0.00     0.074 A 
ATOM     42  C   UNL A   1      45.297  29.731  34.186  1.00  0.00     0.029 A 
ATOM     43  N   UNL A   1      44.255  28.759  32.481  1.00  0.00    -0.354 N 
ATOM     44  N   UNL A   1      43.919  26.768  30.345  1.00  0.00    -0.248 NA
ATOM     45  C   UNL A   1      44.722  24.931  29.144  1.00  0.00     0.031 C 
ATOM     46  C   UNL A   1      46.110  28.700  33.700  1.00  0.00     0.029 A 
ATOM     47  C   UNL A   1      45.444  28.068  32.663  1.00  0.00     0.049 A 
ATOM     48  H   UNL A   1      43.579  28.549  31.796  1.00  0.00     0.167 HD
ATOM     49  C   UNL A   1      45.142  26.368  30.881  1.00  0.00     0.074 A 
ATOM     50  C   UNL A   1      45.563  25.205  30.128  1.00  0.00     0.031 C 
ATOM     51  C   UNL A   1      45.853  26.909  31.904  1.00  0.00     0.034 A 
BRANCH  38  52
ATOM     52  C   UNL A   1      43.087  31.802  34.542  1.00  0.00     0.023 A 
ATOM     53  C   UNL A   1      42.380  31.668  35.752  1.00  0.00     0.031 A 
ATOM     54  C   UNL A   1      43.801  32.993  34.329  1.00  0.00     0.131 A 
ATOM     55  C   UNL A   1      42.345  32.731  36.665  1.00  0.00     0.055 A 
ATOM     56  C   UNL A   1      43.829  34.016  35.278  1.00  0.00     0.041 A 
ATOM     57  F   UNL A   1      44.476  33.189  33.185  1.00  0.00    -0.206 F 
ATOM     58  C   UNL A   1      43.086  33.895  36.448  1.00  0.00     0.022 A 
BRANCH  55  59
ATOM     59  S   UNL A   1      41.208  32.629  38.075  1.00  0.00     0.124 S 
ATOM     60  O   UNL A   1      40.043  31.992  37.467  1.00  0.00    -0.237 OA
ATOM     61  O   UNL A   1      41.957  31.816  39.027  1.00  0.00    -0.237 OA
ATOM     62  O   UNL A   1      41.015  34.025  38.463  1.00  0.00    -0.744 OA
ENDBRANCH  55  59
ENDBRANCH  38  52
BRANCH  39  63
ATOM     63  C   UNL A   1      42.386  24.820  27.386  1.00  0.00     0.023 A 
ATOM     64  C   UNL A   1      41.670  23.625  27.560  1.00  0.00     0.031 A 
ATOM     65  C   UNL A   1      43.115  24.982  26.194  1.00  0.00     0.131 A 
ATOM     66  C   UNL A   1      41.751  22.613  26.591  1.00  0.00     0.055 A 
ATOM     67  C   UNL A   1      43.143  23.998  25.204  1.00  0.00     0.041 A 
ATOM     68  F   UNL A   1      43.819  26.105  25.974  1.00  0.00    -0.206 F 
ATOM     69  C   UNL A   1      42.473  22.796  25.408  1.00  0.00     0.022 A 
BRANCH  66  70
ATOM     70  S   UNL A   1      40.995  21.003  26.950  1.00  0.00     0.124 S 
ATOM     71  O   UNL A   1      40.782  21.091  28.390  1.00  0.00    -0.237 OA
ATOM     72  O   UNL A   1      39.794  21.043  26.120  1.00  0.00    -0.237 OA
ATOM     73  O   UNL A   1      42.013  20.046  26.525  1.00  0.00    -0.744 OA
ENDBRANCH  66  70
ENDBRANCH  39  63
BRANCH  51  74
ATOM     74  C   UNL A   1      47.128  26.202  32.302  1.00  0.00     0.023 A 
ATOM     75  C   UNL A   1      47.153  25.226  33.314  1.00  0.00     0.031 A 
ATOM     76  C   UNL A   1      48.345  26.542  31.684  1.00  0.00     0.131 A 
ATOM     77  C   UNL A   1      48.377  24.680  33.730  1.00  0.00     0.055 A 
ATOM     78  C   UNL A   1      49.551  25.946  32.056  1.00  0.00     0.041 A 
ATOM     79  F   UNL A   1      48.383  27.467  30.711  1.00  0.00    -0.206 F 
ATOM     80  C   UNL A   1      49.574  25.023  33.097  1.00  0.00     0.022 A 
BRANCH  77  81
ATOM     81  S   UNL A   1      48.399  23.606  35.192  1.00  0.00     0.124 S 
ATOM     82  O   UNL A   1      49.830  23.446  35.431  1.00  0.00    -0.237 OA
ATOM     83  O   UNL A   1      47.675  24.406  36.176  1.00  0.00    -0.237 OA
ATOM     84  O   UNL A   1      47.705  22.400  34.743  1.00  0.00    -0.744 OA
ENDBRANCH  77  81
ENDBRANCH  51  74
ENDBRANCH  25  26
ENDBRANCH  18  20
ENDBRANCH  17  18
ENDBRANCH  16  17
ENDBRANCH   1  16
TORSDOF 17
ENDMDL
