MODEL 1
REMARK VINA RESULT:     -12.1      0.000      0.000
REMARK SMILES Cc1cc2c(=O)c3ccccc3oc2c(C(=O)OCCOCCOC(=O)c2ccc(-c3c4nc(c(-c5cc(S(=O)(=O)[O-])ccc5F)c5ccc([nH]5)c(-c5cc(S(=O)(=O)[O-])ccc5F)c5nc(c(-c6cc(S(=O)(=O)[O-])ccc6F)c6ccc3[nH]6)C=C5)C=C4)cc2)c1C
REMARK SMILES IDX 22 1 21 2 20 3 19 4 18 5 16 6 17 7 15 8 1 9 2 10 3 11 90 12
REMARK SMILES IDX 4 13 91 14 5 15 14 16 6 17 7 18 13 19 8 20 12 21 9 22 11 23
REMARK SMILES IDX 10 24 23 25 24 26 25 27 26 28 27 29 28 30 89 31 29 32 88 33
REMARK SMILES IDX 30 34 31 35 32 36 82 37 33 38 87 39 81 40 83 41 34 42 86 43
REMARK SMILES IDX 80 44 79 45 35 47 67 48 47 49 66 50 48 51 51 52 65 53 84 54
REMARK SMILES IDX 49 55 50 56 64 58 85 59 52 60 36 61 37 62 45 63 38 64 44 65
REMARK SMILES IDX 46 66 43 67 39 68 40 69 41 70 42 71 68 72 69 73 77 74 70 75
REMARK SMILES IDX 76 76 78 77 75 78 71 79 72 80 73 81 74 82 53 83 54 84 62 85
REMARK SMILES IDX 55 86 61 87 63 88 60 89 56 90 57 91 58 92 59 93
REMARK H PARENT 83 46 51 57
REMARK Flexibility Score: inf
ROOT
ATOM      1  C   UNL A   1      31.591  29.985  25.446  1.00  0.00     0.202 C 
ENDROOT
BRANCH   1   2
ATOM      2  O   UNL A   1      32.936  29.570  25.208  1.00  0.00    -0.374 OA
BRANCH   2   3
ATOM      3  C   UNL A   1      33.326  28.269  25.649  1.00  0.00     0.202 C 
BRANCH   3   4
ATOM      4  C   UNL A   1      33.975  27.355  24.608  1.00  0.00     0.261 C 
BRANCH   4   5
ATOM      5  O   UNL A   1      33.755  27.869  23.286  1.00  0.00    -0.460 OA
BRANCH   5   6
ATOM      6  C   UNL A   1      33.417  26.953  22.350  1.00  0.00     0.342 C 
ATOM      7  O   UNL A   1      34.025  26.717  21.318  1.00  0.00    -0.246 OA
BRANCH   6   8
ATOM      8  C   UNL A   1      32.229  26.161  22.780  1.00  0.00     0.106 A 
ATOM      9  C   UNL A   1      31.181  22.832  24.428  1.00  0.00     0.044 C 
ATOM     10  C   UNL A   1      31.191  24.210  23.815  1.00  0.00    -0.046 A 
ATOM     11  C   UNL A   1      30.022  24.972  23.998  1.00  0.00     0.019 A 
ATOM     12  C   UNL A   1      32.312  24.797  23.179  1.00  0.00    -0.030 A 
ATOM     13  C   UNL A   1      29.928  26.274  23.508  1.00  0.00     0.067 A 
ATOM     14  C   UNL A   1      33.554  23.996  22.868  1.00  0.00     0.046 C 
ATOM     15  C   UNL A   1      28.681  27.038  23.673  1.00  0.00     0.200 A 
ATOM     16  C   UNL A   1      31.013  26.869  22.879  1.00  0.00     0.153 A 
ATOM     17  O   UNL A   1      27.721  26.582  24.281  1.00  0.00    -0.288 OA
ATOM     18  C   UNL A   1      28.636  28.370  23.061  1.00  0.00     0.065 A 
ATOM     19  O   UNL A   1      30.934  28.117  22.295  1.00  0.00    -0.455 OA
ATOM     20  C   UNL A   1      27.487  29.163  23.149  1.00  0.00     0.016 A 
ATOM     21  C   UNL A   1      29.757  28.817  22.371  1.00  0.00     0.138 A 
ATOM     22  C   UNL A   1      27.458  30.407  22.516  1.00  0.00     0.001 A 
ATOM     23  C   UNL A   1      29.718  30.053  21.723  1.00  0.00     0.048 A 
ATOM     24  C   UNL A   1      28.569  30.845  21.794  1.00  0.00     0.004 A 
ENDBRANCH   6   8
ENDBRANCH   5   6
ENDBRANCH   4   5
ENDBRANCH   3   4
ENDBRANCH   2   3
ENDBRANCH   1   2
BRANCH   1  25
ATOM     25  C   UNL A   1      31.362  31.398  25.998  1.00  0.00     0.261 C 
BRANCH  25  26
ATOM     26  O   UNL A   1      31.923  31.598  27.305  1.00  0.00    -0.460 OA
BRANCH  26  27
ATOM     27  C   UNL A   1      32.739  32.679  27.417  1.00  0.00     0.338 C 
ATOM     28  O   UNL A   1      32.423  33.852  27.290  1.00  0.00    -0.246 OA
BRANCH  27  29
ATOM     29  C   UNL A   1      34.055  32.243  27.924  1.00  0.00     0.060 A 
ATOM     30  C   UNL A   1      35.076  33.162  28.170  1.00  0.00     0.016 A 
ATOM     31  C   UNL A   1      34.246  30.881  28.186  1.00  0.00     0.016 A 
ATOM     32  C   UNL A   1      36.288  32.710  28.699  1.00  0.00     0.010 A 
ATOM     33  C   UNL A   1      35.457  30.433  28.717  1.00  0.00     0.010 A 
ATOM     34  C   UNL A   1      36.483  31.346  28.993  1.00  0.00    -0.014 A 
BRANCH  34  35
ATOM     35  C   UNL A   1      37.703  30.909  29.718  1.00  0.00     0.031 A 
ATOM     36  C   UNL A   1      38.004  31.373  31.112  1.00  0.00     0.074 A 
ATOM     37  C   UNL A   1      38.563  30.089  29.083  1.00  0.00     0.049 A 
ATOM     38  N   UNL A   1      38.974  31.000  31.906  1.00  0.00    -0.248 NA
ATOM     39  C   UNL A   1      37.110  32.387  31.689  1.00  0.00     0.031 C 
ATOM     40  C   UNL A   1      38.399  29.626  27.704  1.00  0.00     0.029 A 
ATOM     41  N   UNL A   1      39.728  29.496  29.499  1.00  0.00    -0.354 N 
ATOM     42  C   UNL A   1      38.803  31.716  33.084  1.00  0.00     0.074 A 
ATOM     43  C   UNL A   1      37.665  32.587  32.879  1.00  0.00     0.031 C 
ATOM     44  C   UNL A   1      39.403  28.792  27.402  1.00  0.00     0.029 A 
ATOM     45  C   UNL A   1      40.305  28.688  28.547  1.00  0.00     0.049 A 
ATOM     46  H   UNL A   1      40.114  29.636  30.394  1.00  0.00     0.167 HD
ATOM     47  C   UNL A   1      39.517  31.632  34.232  1.00  0.00     0.034 A 
ATOM     48  C   UNL A   1      41.430  27.943  28.587  1.00  0.00     0.034 A 
ATOM     49  C   UNL A   1      40.658  30.764  34.407  1.00  0.00     0.049 A 
ATOM     50  C   UNL A   1      42.219  27.879  29.870  1.00  0.00     0.074 A 
ATOM     51  C   UNL A   1      41.409  30.565  35.553  1.00  0.00     0.029 A 
ATOM     52  N   UNL A   1      41.224  29.966  33.421  1.00  0.00    -0.354 N 
ATOM     53  N   UNL A   1      41.967  28.461  31.019  1.00  0.00    -0.248 NA
ATOM     54  C   UNL A   1      43.431  27.050  29.873  1.00  0.00     0.031 C 
ATOM     55  C   UNL A   1      42.473  29.720  35.239  1.00  0.00     0.029 A 
ATOM     56  C   UNL A   1      42.338  29.309  33.923  1.00  0.00     0.049 A 
ATOM     57  H   UNL A   1      40.886  29.880  32.501  1.00  0.00     0.167 HD
ATOM     58  C   UNL A   1      42.975  28.048  31.888  1.00  0.00     0.074 A 
ATOM     59  C   UNL A   1      43.821  27.144  31.138  1.00  0.00     0.031 C 
ATOM     60  C   UNL A   1      43.178  28.395  33.184  1.00  0.00     0.034 A 
BRANCH  47  61
ATOM     61  C   UNL A   1      39.094  32.463  35.420  1.00  0.00     0.023 A 
ATOM     62  C   UNL A   1      39.579  33.777  35.574  1.00  0.00     0.031 A 
ATOM     63  C   UNL A   1      38.360  31.900  36.480  1.00  0.00     0.131 A 
ATOM     64  C   UNL A   1      39.366  34.463  36.776  1.00  0.00     0.055 A 
ATOM     65  C   UNL A   1      38.109  32.607  37.657  1.00  0.00     0.041 A 
ATOM     66  F   UNL A   1      37.884  30.648  36.390  1.00  0.00    -0.206 F 
ATOM     67  C   UNL A   1      38.628  33.889  37.815  1.00  0.00     0.022 A 
BRANCH  64  68
ATOM     68  S   UNL A   1      40.115  36.089  37.076  1.00  0.00     0.124 S 
ATOM     69  O   UNL A   1      41.490  35.725  37.412  1.00  0.00    -0.237 OA
ATOM     70  O   UNL A   1      39.942  36.746  35.784  1.00  0.00    -0.237 OA
ATOM     71  O   UNL A   1      39.332  36.639  38.176  1.00  0.00    -0.744 OA
ENDBRANCH  64  68
ENDBRANCH  47  61
BRANCH  48  72
ATOM     72  C   UNL A   1      41.812  27.147  27.383  1.00  0.00     0.023 A 
ATOM     73  C   UNL A   1      41.557  25.764  27.323  1.00  0.00     0.031 A 
ATOM     74  C   UNL A   1      42.541  27.729  26.332  1.00  0.00     0.131 A 
ATOM     75  C   UNL A   1      42.095  25.000  26.281  1.00  0.00     0.055 A 
ATOM     76  C   UNL A   1      43.005  26.976  25.252  1.00  0.00     0.041 A 
ATOM     77  F   UNL A   1      42.824  29.041  26.351  1.00  0.00    -0.206 F 
ATOM     78  C   UNL A   1      42.801  25.600  25.234  1.00  0.00     0.022 A 
BRANCH  75  79
ATOM     79  S   UNL A   1      42.027  23.188  26.328  1.00  0.00     0.124 S 
ATOM     80  O   UNL A   1      42.783  22.886  27.540  1.00  0.00    -0.237 OA
ATOM     81  O   UNL A   1      40.588  22.948  26.405  1.00  0.00    -0.237 OA
ATOM     82  O   UNL A   1      42.657  22.786  25.075  1.00  0.00    -0.744 OA
ENDBRANCH  75  79
ENDBRANCH  48  72
BRANCH  60  83
ATOM     83  C   UNL A   1      44.363  27.807  33.921  1.00  0.00     0.023 A 
ATOM     84  C   UNL A   1      44.220  26.601  34.634  1.00  0.00     0.031 A 
ATOM     85  C   UNL A   1      45.569  28.517  34.058  1.00  0.00     0.131 A 
ATOM     86  C   UNL A   1      45.238  26.170  35.493  1.00  0.00     0.055 A 
ATOM     87  C   UNL A   1      46.606  28.052  34.868  1.00  0.00     0.041 A 
ATOM     88  F   UNL A   1      45.753  29.679  33.412  1.00  0.00    -0.206 F 
ATOM     89  C   UNL A   1      46.436  26.884  35.605  1.00  0.00     0.022 A 
BRANCH  86  90
ATOM     90  S   UNL A   1      45.007  24.732  36.575  1.00  0.00     0.124 S 
ATOM     91  O   UNL A   1      44.770  23.662  35.610  1.00  0.00    -0.237 OA
ATOM     92  O   UNL A   1      46.288  24.666  37.275  1.00  0.00    -0.237 OA
ATOM     93  O   UNL A   1      43.859  25.091  37.400  1.00  0.00    -0.744 OA
ENDBRANCH  86  90
ENDBRANCH  60  83
ENDBRANCH  34  35
ENDBRANCH  27  29
ENDBRANCH  26  27
ENDBRANCH  25  26
ENDBRANCH   1  25
TORSDOF 17
ENDMDL
MODEL 2
REMARK VINA RESULT:     -11.9      4.210      8.019
REMARK SMILES Cc1cc2c(=O)c3ccccc3oc2c(C(=O)OCCOCCOC(=O)c2ccc(-c3c4nc(c(-c5cc(S(=O)(=O)[O-])ccc5F)c5ccc([nH]5)c(-c5cc(S(=O)(=O)[O-])ccc5F)c5nc(c(-c6cc(S(=O)(=O)[O-])ccc6F)c6ccc3[nH]6)C=C5)C=C4)cc2)c1C
REMARK SMILES IDX 22 1 21 2 20 3 19 4 18 5 16 6 17 7 15 8 1 9 2 10 3 11 90 12
REMARK SMILES IDX 4 13 91 14 5 15 14 16 6 17 7 18 13 19 8 20 12 21 9 22 11 23
REMARK SMILES IDX 10 24 23 25 24 26 25 27 26 28 27 29 28 30 89 31 29 32 88 33
REMARK SMILES IDX 30 34 31 35 32 36 82 37 33 38 87 39 81 40 83 41 34 42 86 43
REMARK SMILES IDX 80 44 79 45 35 47 67 48 47 49 66 50 48 51 51 52 65 53 84 54
REMARK SMILES IDX 49 55 50 56 64 58 85 59 52 60 36 61 37 62 45 63 38 64 44 65
REMARK SMILES IDX 46 66 43 67 39 68 40 69 41 70 42 71 68 72 69 73 77 74 70 75
REMARK SMILES IDX 76 76 78 77 75 78 71 79 72 80 73 81 74 82 53 83 54 84 62 85
REMARK SMILES IDX 55 86 61 87 63 88 60 89 56 90 57 91 58 92 59 93
REMARK H PARENT 83 46 51 57
REMARK Flexibility Score: inf
ROOT
ATOM      1  C   UNL A   1      33.451  34.656  28.487  1.00  0.00     0.202 C 
ENDROOT
BRANCH   1   2
ATOM      2  O   UNL A   1      32.616  34.828  29.631  1.00  0.00    -0.374 OA
BRANCH   2   3
ATOM      3  C   UNL A   1      33.081  35.676  30.682  1.00  0.00     0.202 C 
BRANCH   3   4
ATOM      4  C   UNL A   1      33.648  34.985  31.924  1.00  0.00     0.261 C 
BRANCH   4   5
ATOM      5  O   UNL A   1      35.082  34.986  31.886  1.00  0.00    -0.460 OA
BRANCH   5   6
ATOM      6  C   UNL A   1      35.665  33.782  31.689  1.00  0.00     0.342 C 
ATOM      7  O   UNL A   1      35.089  32.735  31.438  1.00  0.00    -0.246 OA
BRANCH   6   8
ATOM      8  C   UNL A   1      37.151  33.896  31.712  1.00  0.00     0.106 A 
ATOM      9  C   UNL A   1      40.212  34.691  29.500  1.00  0.00     0.044 C 
ATOM     10  C   UNL A   1      39.299  34.378  30.659  1.00  0.00    -0.046 A 
ATOM     11  C   UNL A   1      39.845  34.570  31.942  1.00  0.00     0.019 A 
ATOM     12  C   UNL A   1      37.936  34.014  30.530  1.00  0.00    -0.030 A 
ATOM     13  C   UNL A   1      39.084  34.349  33.088  1.00  0.00     0.067 A 
ATOM     14  C   UNL A   1      37.325  33.698  29.185  1.00  0.00     0.046 C 
ATOM     15  C   UNL A   1      39.687  34.515  34.420  1.00  0.00     0.200 A 
ATOM     16  C   UNL A   1      37.747  33.989  32.987  1.00  0.00     0.153 A 
ATOM     17  O   UNL A   1      40.843  34.897  34.562  1.00  0.00    -0.288 OA
ATOM     18  C   UNL A   1      38.844  34.187  35.575  1.00  0.00     0.065 A 
ATOM     19  O   UNL A   1      36.984  33.667  34.090  1.00  0.00    -0.455 OA
ATOM     20  C   UNL A   1      39.336  34.296  36.879  1.00  0.00     0.016 A 
ATOM     21  C   UNL A   1      37.548  33.743  35.338  1.00  0.00     0.138 A 
ATOM     22  C   UNL A   1      38.525  33.932  37.954  1.00  0.00     0.001 A 
ATOM     23  C   UNL A   1      36.746  33.361  36.415  1.00  0.00     0.048 A 
ATOM     24  C   UNL A   1      37.235  33.453  37.721  1.00  0.00     0.004 A 
ENDBRANCH   6   8
ENDBRANCH   5   6
ENDBRANCH   4   5
ENDBRANCH   3   4
ENDBRANCH   2   3
ENDBRANCH   1   2
BRANCH   1  25
ATOM     25  C   UNL A   1      33.475  33.277  27.815  1.00  0.00     0.261 C 
BRANCH  25  26
ATOM     26  O   UNL A   1      34.614  32.483  28.182  1.00  0.00    -0.460 OA
BRANCH  26  27
ATOM     27  C   UNL A   1      34.504  31.160  27.896  1.00  0.00     0.338 C 
ATOM     28  O   UNL A   1      33.604  30.616  27.275  1.00  0.00    -0.246 OA
BRANCH  27  29
ATOM     29  C   UNL A   1      35.756  30.475  28.274  1.00  0.00     0.060 A 
ATOM     30  C   UNL A   1      36.860  30.460  27.421  1.00  0.00     0.016 A 
ATOM     31  C   UNL A   1      35.822  29.863  29.533  1.00  0.00     0.016 A 
ATOM     32  C   UNL A   1      38.041  29.844  27.844  1.00  0.00     0.010 A 
ATOM     33  C   UNL A   1      37.003  29.250  29.952  1.00  0.00     0.010 A 
ATOM     34  C   UNL A   1      38.129  29.250  29.118  1.00  0.00    -0.014 A 
BRANCH  34  35
ATOM     35  C   UNL A   1      39.438  28.760  29.620  1.00  0.00     0.031 A 
ATOM     36  C   UNL A   1      40.094  29.355  30.830  1.00  0.00     0.074 A 
ATOM     37  C   UNL A   1      40.046  27.765  28.946  1.00  0.00     0.049 A 
ATOM     38  N   UNL A   1      41.183  28.967  31.442  1.00  0.00    -0.248 NA
ATOM     39  C   UNL A   1      39.457  30.537  31.426  1.00  0.00     0.031 C 
ATOM     40  C   UNL A   1      39.527  27.155  27.721  1.00  0.00     0.029 A 
ATOM     41  N   UNL A   1      41.216  27.088  29.186  1.00  0.00    -0.354 N 
ATOM     42  C   UNL A   1      41.356  29.842  32.507  1.00  0.00     0.074 A 
ATOM     43  C   UNL A   1      40.288  30.815  32.424  1.00  0.00     0.031 C 
ATOM     44  C   UNL A   1      40.351  26.170  27.339  1.00  0.00     0.029 A 
ATOM     45  C   UNL A   1      41.480  26.100  28.266  1.00  0.00     0.049 A 
ATOM     46  H   UNL A   1      41.810  27.290  29.945  1.00  0.00     0.167 HD
ATOM     47  C   UNL A   1      42.305  29.815  33.473  1.00  0.00     0.034 A 
ATOM     48  C   UNL A   1      42.508  25.231  28.174  1.00  0.00     0.034 A 
ATOM     49  C   UNL A   1      43.369  28.840  33.527  1.00  0.00     0.049 A 
ATOM     50  C   UNL A   1      43.563  25.232  29.251  1.00  0.00     0.074 A 
ATOM     51  C   UNL A   1      44.343  28.696  34.501  1.00  0.00     0.029 A 
ATOM     52  N   UNL A   1      43.616  27.859  32.576  1.00  0.00    -0.354 N 
ATOM     53  N   UNL A   1      43.639  25.981  30.326  1.00  0.00    -0.248 NA
ATOM     54  C   UNL A   1      44.660  24.265  29.119  1.00  0.00     0.031 C 
ATOM     55  C   UNL A   1      45.223  27.691  34.097  1.00  0.00     0.029 A 
ATOM     56  C   UNL A   1      44.748  27.137  32.919  1.00  0.00     0.049 A 
ATOM     57  H   UNL A   1      43.067  27.701  31.774  1.00  0.00     0.167 HD
ATOM     58  C   UNL A   1      44.777  25.559  31.009  1.00  0.00     0.074 A 
ATOM     59  C   UNL A   1      45.339  24.469  30.241  1.00  0.00     0.031 C 
ATOM     60  C   UNL A   1      45.306  26.039  32.163  1.00  0.00     0.034 A 
BRANCH  47  61
ATOM     61  C   UNL A   1      42.248  30.836  34.585  1.00  0.00     0.023 A 
ATOM     62  C   UNL A   1      43.043  31.997  34.522  1.00  0.00     0.031 A 
ATOM     63  C   UNL A   1      41.546  30.579  35.777  1.00  0.00     0.131 A 
ATOM     64  C   UNL A   1      43.156  32.827  35.645  1.00  0.00     0.055 A 
ATOM     65  C   UNL A   1      41.623  31.435  36.875  1.00  0.00     0.041 A 
ATOM     66  F   UNL A   1      40.781  29.481  35.894  1.00  0.00    -0.206 F 
ATOM     67  C   UNL A   1      42.445  32.557  36.818  1.00  0.00     0.022 A 
BRANCH  64  68
ATOM     68  S   UNL A   1      44.299  34.237  35.659  1.00  0.00     0.124 S 
ATOM     69  O   UNL A   1      44.201  34.713  34.282  1.00  0.00    -0.237 OA
ATOM     70  O   UNL A   1      43.696  35.107  36.665  1.00  0.00    -0.237 OA
ATOM     71  O   UNL A   1      45.582  33.645  36.022  1.00  0.00    -0.744 OA
ENDBRANCH  64  68
ENDBRANCH  47  61
BRANCH  48  72
ATOM     72  C   UNL A   1      42.526  24.248  27.051  1.00  0.00     0.023 A 
ATOM     73  C   UNL A   1      41.876  23.005  27.171  1.00  0.00     0.031 A 
ATOM     74  C   UNL A   1      43.289  24.484  25.894  1.00  0.00     0.131 A 
ATOM     75  C   UNL A   1      42.067  22.021  26.194  1.00  0.00     0.055 A 
ATOM     76  C   UNL A   1      43.409  23.529  24.884  1.00  0.00     0.041 A 
ATOM     77  F   UNL A   1      43.941  25.646  25.740  1.00  0.00    -0.206 F 
ATOM     78  C   UNL A   1      42.812  22.281  25.041  1.00  0.00     0.022 A 
BRANCH  75  79
ATOM     79  S   UNL A   1      41.480  20.325  26.460  1.00  0.00     0.124 S 
ATOM     80  O   UNL A   1      42.142  19.600  25.379  1.00  0.00    -0.237 OA
ATOM     81  O   UNL A   1      41.978  20.046  27.804  1.00  0.00    -0.237 OA
ATOM     82  O   UNL A   1      40.030  20.440  26.347  1.00  0.00    -0.744 OA
ENDBRANCH  75  79
ENDBRANCH  48  72
BRANCH  60  83
ATOM     83  C   UNL A   1      46.569  25.406  32.707  1.00  0.00     0.023 A 
ATOM     84  C   UNL A   1      46.487  24.429  33.719  1.00  0.00     0.031 A 
ATOM     85  C   UNL A   1      47.843  25.884  32.354  1.00  0.00     0.131 A 
ATOM     86  C   UNL A   1      47.647  24.004  34.379  1.00  0.00     0.055 A 
ATOM     87  C   UNL A   1      49.003  25.413  32.971  1.00  0.00     0.041 A 
ATOM     88  F   UNL A   1      47.978  26.825  31.405  1.00  0.00    -0.206 F 
ATOM     89  C   UNL A   1      48.906  24.483  34.002  1.00  0.00     0.022 A 
BRANCH  86  90
ATOM     90  S   UNL A   1      47.558  22.900  35.816  1.00  0.00     0.124 S 
ATOM     91  O   UNL A   1      48.634  21.953  35.538  1.00  0.00    -0.237 OA
ATOM     92  O   UNL A   1      47.807  23.819  36.924  1.00  0.00    -0.237 OA
ATOM     93  O   UNL A   1      46.209  22.346  35.752  1.00  0.00    -0.744 OA
ENDBRANCH  86  90
ENDBRANCH  60  83
ENDBRANCH  34  35
ENDBRANCH  27  29
ENDBRANCH  26  27
ENDBRANCH  25  26
ENDBRANCH   1  25
TORSDOF 17
ENDMDL
MODEL 3
REMARK VINA RESULT:     -11.9      4.623      9.901
REMARK SMILES Cc1cc2c(=O)c3ccccc3oc2c(C(=O)OCCOCCOC(=O)c2ccc(-c3c4nc(c(-c5cc(S(=O)(=O)[O-])ccc5F)c5ccc([nH]5)c(-c5cc(S(=O)(=O)[O-])ccc5F)c5nc(c(-c6cc(S(=O)(=O)[O-])ccc6F)c6ccc3[nH]6)C=C5)C=C4)cc2)c1C
REMARK SMILES IDX 22 1 21 2 20 3 19 4 18 5 16 6 17 7 15 8 1 9 2 10 3 11 90 12
REMARK SMILES IDX 4 13 91 14 5 15 14 16 6 17 7 18 13 19 8 20 12 21 9 22 11 23
REMARK SMILES IDX 10 24 23 25 24 26 25 27 26 28 27 29 28 30 89 31 29 32 88 33
REMARK SMILES IDX 30 34 31 35 32 36 82 37 33 38 87 39 81 40 83 41 34 42 86 43
REMARK SMILES IDX 80 44 79 45 35 47 67 48 47 49 66 50 48 51 51 52 65 53 84 54
REMARK SMILES IDX 49 55 50 56 64 58 85 59 52 60 36 61 37 62 45 63 38 64 44 65
REMARK SMILES IDX 46 66 43 67 39 68 40 69 41 70 42 71 68 72 69 73 77 74 70 75
REMARK SMILES IDX 76 76 78 77 75 78 71 79 72 80 73 81 74 82 53 83 54 84 62 85
REMARK SMILES IDX 55 86 61 87 63 88 60 89 56 90 57 91 58 92 59 93
REMARK H PARENT 83 46 51 57
REMARK Flexibility Score: inf
ROOT
ATOM      1  C   UNL A   1      35.481  21.272  25.404  1.00  0.00     0.202 C 
ENDROOT
BRANCH   1   2
ATOM      2  O   UNL A   1      35.127  22.202  26.427  1.00  0.00    -0.374 OA
BRANCH   2   3
ATOM      3  C   UNL A   1      33.797  22.159  26.944  1.00  0.00     0.202 C 
BRANCH   3   4
ATOM      4  C   UNL A   1      32.773  23.086  26.288  1.00  0.00     0.261 C 
BRANCH   4   5
ATOM      5  O   UNL A   1      33.186  24.455  26.414  1.00  0.00    -0.460 OA
BRANCH   5   6
ATOM      6  C   UNL A   1      33.537  25.069  25.262  1.00  0.00     0.342 C 
ATOM      7  O   UNL A   1      34.436  24.730  24.508  1.00  0.00    -0.246 OA
BRANCH   6   8
ATOM      8  C   UNL A   1      32.605  26.190  24.946  1.00  0.00     0.106 A 
ATOM      9  C   UNL A   1      29.112  26.976  23.504  1.00  0.00     0.044 C 
ATOM     10  C   UNL A   1      30.473  27.069  24.147  1.00  0.00    -0.046 A 
ATOM     11  C   UNL A   1      30.742  28.259  24.848  1.00  0.00     0.019 A 
ATOM     12  C   UNL A   1      31.422  26.018  24.173  1.00  0.00    -0.030 A 
ATOM     13  C   UNL A   1      31.952  28.445  25.514  1.00  0.00     0.067 A 
ATOM     14  C   UNL A   1      31.231  24.759  23.359  1.00  0.00     0.046 C 
ATOM     15  C   UNL A   1      32.229  29.714  26.205  1.00  0.00     0.200 A 
ATOM     16  C   UNL A   1      32.898  27.430  25.551  1.00  0.00     0.153 A 
ATOM     17  O   UNL A   1      31.399  30.614  26.259  1.00  0.00    -0.288 OA
ATOM     18  C   UNL A   1      33.556  29.861  26.814  1.00  0.00     0.065 A 
ATOM     19  O   UNL A   1      34.145  27.603  26.114  1.00  0.00    -0.455 OA
ATOM     20  C   UNL A   1      33.917  31.038  27.476  1.00  0.00     0.016 A 
ATOM     21  C   UNL A   1      34.453  28.805  26.699  1.00  0.00     0.138 A 
ATOM     22  C   UNL A   1      35.202  31.165  28.005  1.00  0.00     0.001 A 
ATOM     23  C   UNL A   1      35.744  28.943  27.212  1.00  0.00     0.048 A 
ATOM     24  C   UNL A   1      36.119  30.122  27.862  1.00  0.00     0.004 A 
ENDBRANCH   6   8
ENDBRANCH   5   6
ENDBRANCH   4   5
ENDBRANCH   3   4
ENDBRANCH   2   3
ENDBRANCH   1   2
BRANCH   1  25
ATOM     25  C   UNL A   1      36.950  20.837  25.305  1.00  0.00     0.261 C 
BRANCH  25  26
ATOM     26  O   UNL A   1      37.878  21.925  25.440  1.00  0.00    -0.460 OA
BRANCH  26  27
ATOM     27  C   UNL A   1      39.012  21.625  26.123  1.00  0.00     0.338 C 
ATOM     28  O   UNL A   1      39.613  20.562  26.118  1.00  0.00    -0.246 OA
BRANCH  27  29
ATOM     29  C   UNL A   1      39.549  22.857  26.736  1.00  0.00     0.060 A 
ATOM     30  C   UNL A   1      40.605  22.811  27.646  1.00  0.00     0.016 A 
ATOM     31  C   UNL A   1      38.991  24.084  26.355  1.00  0.00     0.016 A 
ATOM     32  C   UNL A   1      41.115  24.007  28.161  1.00  0.00     0.010 A 
ATOM     33  C   UNL A   1      39.504  25.276  26.869  1.00  0.00     0.010 A 
ATOM     34  C   UNL A   1      40.581  25.249  27.764  1.00  0.00    -0.014 A 
BRANCH  34  35
ATOM     35  C   UNL A   1      41.247  26.509  28.180  1.00  0.00     0.031 A 
ATOM     36  C   UNL A   1      42.680  26.795  27.844  1.00  0.00     0.074 A 
ATOM     37  C   UNL A   1      40.532  27.401  28.894  1.00  0.00     0.049 A 
ATOM     38  N   UNL A   1      43.365  27.890  28.052  1.00  0.00    -0.248 NA
ATOM     39  C   UNL A   1      43.446  25.718  27.202  1.00  0.00     0.031 C 
ATOM     40  C   UNL A   1      39.150  27.198  29.328  1.00  0.00     0.029 A 
ATOM     41  N   UNL A   1      40.854  28.647  29.373  1.00  0.00    -0.354 N 
ATOM     42  C   UNL A   1      44.637  27.647  27.551  1.00  0.00     0.074 A 
ATOM     43  C   UNL A   1      44.644  26.278  27.079  1.00  0.00     0.031 C 
ATOM     44  C   UNL A   1      38.729  28.294  29.974  1.00  0.00     0.029 A 
ATOM     45  C   UNL A   1      39.821  29.264  30.038  1.00  0.00     0.049 A 
ATOM     46  H   UNL A   1      41.740  29.059  29.252  1.00  0.00     0.167 HD
ATOM     47  C   UNL A   1      45.689  28.498  27.474  1.00  0.00     0.034 A 
ATOM     48  C   UNL A   1      39.750  30.475  30.630  1.00  0.00     0.034 A 
ATOM     49  C   UNL A   1      45.661  29.856  27.965  1.00  0.00     0.049 A 
ATOM     50  C   UNL A   1      40.940  31.398  30.548  1.00  0.00     0.074 A 
ATOM     51  C   UNL A   1      46.658  30.813  27.878  1.00  0.00     0.029 A 
ATOM     52  N   UNL A   1      44.604  30.449  28.643  1.00  0.00    -0.354 N 
ATOM     53  N   UNL A   1      42.093  31.201  29.953  1.00  0.00    -0.248 NA
ATOM     54  C   UNL A   1      40.820  32.710  31.198  1.00  0.00     0.031 C 
ATOM     55  C   UNL A   1      46.240  31.947  28.574  1.00  0.00     0.029 A 
ATOM     56  C   UNL A   1      44.942  31.741  29.014  1.00  0.00     0.049 A 
ATOM     57  H   UNL A   1      43.741  30.014  28.832  1.00  0.00     0.167 HD
ATOM     58  C   UNL A   1      42.825  32.372  30.136  1.00  0.00     0.074 A 
ATOM     59  C   UNL A   1      41.971  33.282  30.870  1.00  0.00     0.031 C 
ATOM     60  C   UNL A   1      44.090  32.658  29.735  1.00  0.00     0.034 A 
BRANCH  47  61
ATOM     61  C   UNL A   1      46.964  28.029  26.813  1.00  0.00     0.023 A 
ATOM     62  C   UNL A   1      47.115  28.128  25.416  1.00  0.00     0.031 A 
ATOM     63  C   UNL A   1      47.946  27.329  27.537  1.00  0.00     0.131 A 
ATOM     64  C   UNL A   1      48.194  27.496  24.785  1.00  0.00     0.055 A 
ATOM     65  C   UNL A   1      49.045  26.743  26.908  1.00  0.00     0.041 A 
ATOM     66  F   UNL A   1      47.846  27.196  28.870  1.00  0.00    -0.206 F 
ATOM     67  C   UNL A   1      49.164  26.811  25.523  1.00  0.00     0.022 A 
BRANCH  64  68
ATOM     68  S   UNL A   1      48.332  27.459  22.975  1.00  0.00     0.124 S 
ATOM     69  O   UNL A   1      47.148  28.214  22.571  1.00  0.00    -0.237 OA
ATOM     70  O   UNL A   1      49.608  28.134  22.754  1.00  0.00    -0.237 OA
ATOM     71  O   UNL A   1      48.303  26.037  22.650  1.00  0.00    -0.744 OA
ENDBRANCH  64  68
ENDBRANCH  47  61
BRANCH  48  72
ATOM     72  C   UNL A   1      38.472  30.889  31.280  1.00  0.00     0.023 A 
ATOM     73  C   UNL A   1      37.615  31.817  30.658  1.00  0.00     0.031 A 
ATOM     74  C   UNL A   1      38.147  30.460  32.578  1.00  0.00     0.131 A 
ATOM     75  C   UNL A   1      36.526  32.342  31.363  1.00  0.00     0.055 A 
ATOM     76  C   UNL A   1      37.014  30.925  33.246  1.00  0.00     0.041 A 
ATOM     77  F   UNL A   1      38.941  29.589  33.220  1.00  0.00    -0.206 F 
ATOM     78  C   UNL A   1      36.208  31.887  32.646  1.00  0.00     0.022 A 
BRANCH  75  79
ATOM     79  S   UNL A   1      35.578  33.739  30.699  1.00  0.00     0.124 S 
ATOM     80  O   UNL A   1      36.347  34.091  29.509  1.00  0.00    -0.237 OA
ATOM     81  O   UNL A   1      34.277  33.124  30.452  1.00  0.00    -0.237 OA
ATOM     82  O   UNL A   1      35.606  34.719  31.780  1.00  0.00    -0.744 OA
ENDBRANCH  75  79
ENDBRANCH  48  72
BRANCH  60  83
ATOM     83  C   UNL A   1      44.670  34.017  30.064  1.00  0.00     0.023 A 
ATOM     84  C   UNL A   1      44.560  35.072  29.137  1.00  0.00     0.031 A 
ATOM     85  C   UNL A   1      45.470  34.219  31.202  1.00  0.00     0.131 A 
ATOM     86  C   UNL A   1      45.282  36.256  29.334  1.00  0.00     0.055 A 
ATOM     87  C   UNL A   1      46.139  35.424  31.426  1.00  0.00     0.041 A 
ATOM     88  F   UNL A   1      45.621  33.243  32.111  1.00  0.00    -0.206 F 
ATOM     89  C   UNL A   1      46.061  36.442  30.480  1.00  0.00     0.022 A 
BRANCH  86  90
ATOM     90  S   UNL A   1      45.321  37.553  28.065  1.00  0.00     0.124 S 
ATOM     91  O   UNL A   1      44.690  38.673  28.758  1.00  0.00    -0.237 OA
ATOM     92  O   UNL A   1      46.754  37.699  27.821  1.00  0.00    -0.237 OA
ATOM     93  O   UNL A   1      44.551  36.990  26.961  1.00  0.00    -0.744 OA
ENDBRANCH  86  90
ENDBRANCH  60  83
ENDBRANCH  34  35
ENDBRANCH  27  29
ENDBRANCH  26  27
ENDBRANCH  25  26
ENDBRANCH   1  25
TORSDOF 17
ENDMDL
