MODEL 1
REMARK VINA RESULT:     -10.9      0.000      0.000
REMARK SMILES O=C(C[C@H]1COCC[NH2+]1)Nc1cncc(C(=O)OCCOCCOC(=O)c2ccc(-c3c4nc(c(-c5cc(S(=O)(=O)[O-])ccc5F)c5ccc([nH]5)c(-c5cc(S(=O)(=O)[O-])ccc5F)c5nc(c(-c6cc(S(=O)(=O)[O-])ccc6F)c6ccc3[nH]6)C=C5)C=C4)cc2)c1
REMARK SMILES IDX 21 1 20 2 19 3 18 4 16 5 17 6 15 7 11 8 12 9 90 10 13 11
REMARK SMILES IDX 14 12 10 13 1 14 2 15 3 17 4 18 5 19 9 20 6 21 8 22 7 25
REMARK SMILES IDX 22 26 23 27 24 28 25 29 26 30 27 31 28 32 89 33 29 34 88 35
REMARK SMILES IDX 30 36 31 37 32 38 82 39 33 40 87 41 81 42 83 43 34 44 86 45
REMARK SMILES IDX 80 46 79 47 35 49 67 50 47 51 66 52 48 53 51 54 65 55 84 56
REMARK SMILES IDX 49 57 50 58 64 60 85 61 52 62 36 63 37 64 45 65 38 66 44 67
REMARK SMILES IDX 46 68 43 69 39 70 40 71 41 72 42 73 68 74 69 75 77 76 70 77
REMARK SMILES IDX 76 78 78 79 75 80 71 81 72 82 73 83 74 84 53 85 54 86 62 87
REMARK SMILES IDX 55 88 61 89 63 90 60 91 56 92 57 93 58 94 59 95
REMARK H PARENT 10 16 9 23 9 24 83 48 51 59
REMARK Flexibility Score: inf
ROOT
ATOM      1  O   UNL A   1      35.376  19.858  24.650  1.00  0.00    -0.374 OA
ENDROOT
BRANCH   1   2
ATOM      2  C   UNL A   1      34.690  21.046  25.058  1.00  0.00     0.202 C 
BRANCH   2   3
ATOM      3  C   UNL A   1      33.955  21.794  23.939  1.00  0.00     0.261 C 
BRANCH   3   4
ATOM      4  O   UNL A   1      33.106  22.817  24.492  1.00  0.00    -0.460 OA
BRANCH   4   5
ATOM      5  C   UNL A   1      33.585  24.083  24.445  1.00  0.00     0.339 C 
ATOM      6  O   UNL A   1      34.595  24.479  23.887  1.00  0.00    -0.246 OA
BRANCH   5   7
ATOM      7  C   UNL A   1      32.535  24.983  24.946  1.00  0.00     0.080 A 
ATOM      8  C   UNL A   1      31.427  27.104  25.118  1.00  0.00     0.060 A 
ATOM      9  C   UNL A   1      30.803  26.605  26.263  1.00  0.00     0.137 A 
ATOM     10  C   UNL A   1      32.340  26.279  24.468  1.00  0.00     0.045 A 
ATOM     11  N   UNL A   1      30.948  25.344  26.733  1.00  0.00    -0.262 NA
ATOM     12  C   UNL A   1      31.799  24.551  26.044  1.00  0.00     0.126 A 
BRANCH   8  13
ATOM     13  N   UNL A   1      31.061  28.385  24.660  1.00  0.00    -0.324 N 
ATOM     14  O   UNL A   1      29.807  27.817  22.784  1.00  0.00    -0.274 OA
ATOM     15  C   UNL A   1      30.210  28.637  23.604  1.00  0.00     0.230 C 
ATOM     16  H   UNL A   1      31.442  29.161  25.131  1.00  0.00     0.169 HD
BRANCH  15  17
ATOM     17  C   UNL A   1      29.727  30.072  23.569  1.00  0.00     0.167 C 
BRANCH  17  18
ATOM     18  C   UNL A   1      28.281  30.276  23.069  1.00  0.00     0.218 C 
ATOM     19  C   UNL A   1      27.676  31.652  23.416  1.00  0.00     0.225 C 
ATOM     20  N   UNL A   1      28.072  29.872  21.650  1.00  0.00    -0.340 N 
ATOM     21  O   UNL A   1      28.091  32.659  22.491  1.00  0.00    -0.369 OA
ATOM     22  C   UNL A   1      28.193  30.992  20.701  1.00  0.00     0.289 C 
ATOM     23  H   UNL A   1      27.139  29.472  21.562  1.00  0.00     0.346 HD
ATOM     24  H   UNL A   1      28.802  29.199  21.418  1.00  0.00     0.346 HD
ATOM     25  C   UNL A   1      27.645  32.343  21.174  1.00  0.00     0.221 C 
ENDBRANCH  17  18
ENDBRANCH  15  17
ENDBRANCH   8  13
ENDBRANCH   5   7
ENDBRANCH   4   5
ENDBRANCH   3   4
ENDBRANCH   2   3
ENDBRANCH   1   2
BRANCH   1  26
ATOM     26  C   UNL A   1      36.729  19.724  25.085  1.00  0.00     0.202 C 
BRANCH  26  27
ATOM     27  C   UNL A   1      37.706  20.810  24.621  1.00  0.00     0.261 C 
BRANCH  27  28
ATOM     28  O   UNL A   1      38.051  21.707  25.690  1.00  0.00    -0.460 OA
BRANCH  28  29
ATOM     29  C   UNL A   1      39.266  21.468  26.240  1.00  0.00     0.338 C 
ATOM     30  O   UNL A   1      39.942  20.462  26.110  1.00  0.00    -0.246 OA
BRANCH  29  31
ATOM     31  C   UNL A   1      39.776  22.685  26.902  1.00  0.00     0.060 A 
ATOM     32  C   UNL A   1      39.192  23.900  26.526  1.00  0.00     0.016 A 
ATOM     33  C   UNL A   1      40.846  22.661  27.801  1.00  0.00     0.016 A 
ATOM     34  C   UNL A   1      39.724  25.101  26.983  1.00  0.00     0.010 A 
ATOM     35  C   UNL A   1      41.381  23.871  28.260  1.00  0.00     0.010 A 
ATOM     36  C   UNL A   1      40.852  25.097  27.813  1.00  0.00    -0.014 A 
BRANCH  36  37
ATOM     37  C   UNL A   1      41.563  26.378  28.054  1.00  0.00     0.031 A 
ATOM     38  C   UNL A   1      42.959  26.549  27.514  1.00  0.00     0.074 A 
ATOM     39  C   UNL A   1      40.948  27.398  28.679  1.00  0.00     0.049 A 
ATOM     40  N   UNL A   1      43.749  27.591  27.564  1.00  0.00    -0.248 NA
ATOM     41  C   UNL A   1      43.542  25.384  26.833  1.00  0.00     0.031 C 
ATOM     42  C   UNL A   1      39.591  27.357  29.220  1.00  0.00     0.029 A 
ATOM     43  N   UNL A   1      41.386  28.667  28.960  1.00  0.00    -0.354 N 
ATOM     44  C   UNL A   1      44.925  27.206  26.927  1.00  0.00     0.074 A 
ATOM     45  C   UNL A   1      44.757  25.821  26.541  1.00  0.00     0.031 C 
ATOM     46  C   UNL A   1      39.307  28.548  29.773  1.00  0.00     0.029 A 
ATOM     47  C   UNL A   1      40.470  29.425  29.651  1.00  0.00     0.049 A 
ATOM     48  H   UNL A   1      42.271  29.004  28.693  1.00  0.00     0.167 HD
ATOM     49  C   UNL A   1      46.036  27.943  26.676  1.00  0.00     0.034 A 
ATOM     50  C   UNL A   1      40.565  30.677  30.144  1.00  0.00     0.034 A 
ATOM     51  C   UNL A   1      46.185  29.324  27.071  1.00  0.00     0.049 A 
ATOM     52  C   UNL A   1      41.827  31.465  29.895  1.00  0.00     0.074 A 
ATOM     53  C   UNL A   1      47.250  30.178  26.839  1.00  0.00     0.029 A 
ATOM     54  N   UNL A   1      45.249  30.051  27.798  1.00  0.00    -0.354 N 
ATOM     55  N   UNL A   1      42.919  31.103  29.260  1.00  0.00    -0.248 NA
ATOM     56  C   UNL A   1      41.860  32.839  30.412  1.00  0.00     0.031 C 
ATOM     57  C   UNL A   1      46.993  31.388  27.492  1.00  0.00     0.029 A 
ATOM     58  C   UNL A   1      45.729  31.327  28.057  1.00  0.00     0.049 A 
ATOM     59  H   UNL A   1      44.372  29.709  28.087  1.00  0.00     0.167 HD
ATOM     60  C   UNL A   1      43.759  32.215  29.281  1.00  0.00     0.074 A 
ATOM     61  C   UNL A   1      43.036  33.263  29.973  1.00  0.00     0.031 C 
ATOM     62  C   UNL A   1      45.009  32.359  28.768  1.00  0.00     0.034 A 
BRANCH  49  63
ATOM     63  C   UNL A   1      47.192  27.246  25.994  1.00  0.00     0.023 A 
ATOM     64  C   UNL A   1      48.152  26.512  26.714  1.00  0.00     0.031 A 
ATOM     65  C   UNL A   1      47.360  27.356  24.602  1.00  0.00     0.131 A 
ATOM     66  C   UNL A   1      49.276  25.991  26.054  1.00  0.00     0.055 A 
ATOM     67  C   UNL A   1      48.435  26.761  23.938  1.00  0.00     0.041 A 
ATOM     68  F   UNL A   1      46.492  28.063  23.862  1.00  0.00    -0.206 F 
ATOM     69  C   UNL A   1      49.411  26.088  24.668  1.00  0.00     0.022 A 
BRANCH  66  70
ATOM     70  S   UNL A   1      50.640  25.328  27.051  1.00  0.00     0.124 S 
ATOM     71  O   UNL A   1      49.982  24.233  27.761  1.00  0.00    -0.237 OA
ATOM     72  O   UNL A   1      51.612  24.941  26.037  1.00  0.00    -0.237 OA
ATOM     73  O   UNL A   1      51.030  26.459  27.892  1.00  0.00    -0.744 OA
ENDBRANCH  66  70
ENDBRANCH  49  63
BRANCH  50  74
ATOM     74  C   UNL A   1      39.450  31.249  30.952  1.00  0.00     0.023 A 
ATOM     75  C   UNL A   1      39.473  31.231  32.355  1.00  0.00     0.031 A 
ATOM     76  C   UNL A   1      38.319  31.794  30.317  1.00  0.00     0.131 A 
ATOM     77  C   UNL A   1      38.371  31.715  33.078  1.00  0.00     0.055 A 
ATOM     78  C   UNL A   1      37.249  32.322  31.040  1.00  0.00     0.041 A 
ATOM     79  F   UNL A   1      38.246  31.835  28.977  1.00  0.00    -0.206 F 
ATOM     80  C   UNL A   1      37.265  32.273  32.430  1.00  0.00     0.022 A 
BRANCH  77  81
ATOM     81  S   UNL A   1      38.367  31.540  34.883  1.00  0.00     0.124 S 
ATOM     82  O   UNL A   1      38.274  30.094  35.042  1.00  0.00    -0.237 OA
ATOM     83  O   UNL A   1      39.644  32.146  35.249  1.00  0.00    -0.237 OA
ATOM     84  O   UNL A   1      37.183  32.292  35.296  1.00  0.00    -0.744 OA
ENDBRANCH  77  81
ENDBRANCH  50  74
BRANCH  62  85
ATOM     85  C   UNL A   1      45.656  33.719  28.908  1.00  0.00     0.023 A 
ATOM     86  C   UNL A   1      46.463  34.048  30.011  1.00  0.00     0.031 A 
ATOM     87  C   UNL A   1      45.440  34.708  27.931  1.00  0.00     0.131 A 
ATOM     88  C   UNL A   1      46.967  35.352  30.146  1.00  0.00     0.055 A 
ATOM     89  C   UNL A   1      46.001  35.982  28.036  1.00  0.00     0.041 A 
ATOM     90  F   UNL A   1      44.676  34.454  26.857  1.00  0.00    -0.206 F 
ATOM     91  C   UNL A   1      46.756  36.315  29.157  1.00  0.00     0.022 A 
BRANCH  88  92
ATOM     92  S   UNL A   1      47.803  35.807  31.691  1.00  0.00     0.124 S 
ATOM     93  O   UNL A   1      47.525  34.653  32.538  1.00  0.00    -0.237 OA
ATOM     94  O   UNL A   1      49.189  35.963  31.260  1.00  0.00    -0.237 OA
ATOM     95  O   UNL A   1      47.135  37.044  32.090  1.00  0.00    -0.744 OA
ENDBRANCH  88  92
ENDBRANCH  62  85
ENDBRANCH  36  37
ENDBRANCH  29  31
ENDBRANCH  28  29
ENDBRANCH  27  28
ENDBRANCH  26  27
ENDBRANCH   1  26
TORSDOF 20
ENDMDL
MODEL 2
REMARK VINA RESULT:     -10.8      1.829      2.071
REMARK SMILES O=C(C[C@H]1COCC[NH2+]1)Nc1cncc(C(=O)OCCOCCOC(=O)c2ccc(-c3c4nc(c(-c5cc(S(=O)(=O)[O-])ccc5F)c5ccc([nH]5)c(-c5cc(S(=O)(=O)[O-])ccc5F)c5nc(c(-c6cc(S(=O)(=O)[O-])ccc6F)c6ccc3[nH]6)C=C5)C=C4)cc2)c1
REMARK SMILES IDX 21 1 20 2 19 3 18 4 16 5 17 6 15 7 11 8 12 9 90 10 13 11
REMARK SMILES IDX 14 12 10 13 1 14 2 15 3 17 4 18 5 19 9 20 6 21 8 22 7 25
REMARK SMILES IDX 22 26 23 27 24 28 25 29 26 30 27 31 28 32 89 33 29 34 88 35
REMARK SMILES IDX 30 36 31 37 32 38 82 39 33 40 87 41 81 42 83 43 34 44 86 45
REMARK SMILES IDX 80 46 79 47 35 49 67 50 47 51 66 52 48 53 51 54 65 55 84 56
REMARK SMILES IDX 49 57 50 58 64 60 85 61 52 62 36 63 37 64 45 65 38 66 44 67
REMARK SMILES IDX 46 68 43 69 39 70 40 71 41 72 42 73 68 74 69 75 77 76 70 77
REMARK SMILES IDX 76 78 78 79 75 80 71 81 72 82 73 83 74 84 53 85 54 86 62 87
REMARK SMILES IDX 55 88 61 89 63 90 60 91 56 92 57 93 58 94 59 95
REMARK H PARENT 10 16 9 23 9 24 83 48 51 59
REMARK Flexibility Score: inf
ROOT
ATOM      1  O   UNL A   1      35.000  19.801  24.635  1.00  0.00    -0.374 OA
ENDROOT
BRANCH   1   2
ATOM      2  C   UNL A   1      34.321  21.042  24.852  1.00  0.00     0.202 C 
BRANCH   2   3
ATOM      3  C   UNL A   1      33.506  21.560  23.660  1.00  0.00     0.261 C 
BRANCH   3   4
ATOM      4  O   UNL A   1      32.883  22.816  23.985  1.00  0.00    -0.460 OA
BRANCH   4   5
ATOM      5  C   UNL A   1      33.435  23.920  23.428  1.00  0.00     0.339 C 
ATOM      6  O   UNL A   1      34.010  24.007  22.357  1.00  0.00    -0.246 OA
BRANCH   5   7
ATOM      7  C   UNL A   1      32.986  25.089  24.201  1.00  0.00     0.080 A 
ATOM      8  C   UNL A   1      32.219  27.352  24.421  1.00  0.00     0.060 A 
ATOM      9  C   UNL A   1      32.578  27.267  25.767  1.00  0.00     0.137 A 
ATOM     10  C   UNL A   1      32.463  26.243  23.616  1.00  0.00     0.045 A 
ATOM     11  N   UNL A   1      33.058  26.153  26.370  1.00  0.00    -0.262 NA
ATOM     12  C   UNL A   1      33.229  25.077  25.570  1.00  0.00     0.126 A 
BRANCH   8  13
ATOM     13  N   UNL A   1      31.588  28.526  23.968  1.00  0.00    -0.324 N 
ATOM     14  O   UNL A   1      29.490  27.688  23.412  1.00  0.00    -0.274 OA
ATOM     15  C   UNL A   1      30.262  28.623  23.599  1.00  0.00     0.230 C 
ATOM     16  H   UNL A   1      32.135  29.343  23.911  1.00  0.00     0.169 HD
BRANCH  15  17
ATOM     17  C   UNL A   1      29.783  30.057  23.502  1.00  0.00     0.167 C 
BRANCH  17  18
ATOM     18  C   UNL A   1      28.323  30.241  23.034  1.00  0.00     0.218 C 
ATOM     19  C   UNL A   1      27.704  31.605  23.404  1.00  0.00     0.225 C 
ATOM     20  N   UNL A   1      28.091  29.844  21.617  1.00  0.00    -0.340 N 
ATOM     21  O   UNL A   1      28.083  32.625  22.478  1.00  0.00    -0.369 OA
ATOM     22  C   UNL A   1      28.174  30.973  20.674  1.00  0.00     0.289 C 
ATOM     23  H   UNL A   1      27.162  29.429  21.546  1.00  0.00     0.346 HD
ATOM     24  H   UNL A   1      28.827  29.184  21.365  1.00  0.00     0.346 HD
ATOM     25  C   UNL A   1      27.614  32.311  21.169  1.00  0.00     0.221 C 
ENDBRANCH  17  18
ENDBRANCH  15  17
ENDBRANCH   8  13
ENDBRANCH   5   7
ENDBRANCH   4   5
ENDBRANCH   3   4
ENDBRANCH   2   3
ENDBRANCH   1   2
BRANCH   1  26
ATOM     26  C   UNL A   1      36.375  19.752  25.019  1.00  0.00     0.202 C 
BRANCH  26  27
ATOM     27  C   UNL A   1      37.292  20.819  24.411  1.00  0.00     0.261 C 
BRANCH  27  28
ATOM     28  O   UNL A   1      37.710  21.783  25.393  1.00  0.00    -0.460 OA
BRANCH  28  29
ATOM     29  C   UNL A   1      38.907  21.504  25.964  1.00  0.00     0.338 C 
ATOM     30  O   UNL A   1      39.578  20.500  25.800  1.00  0.00    -0.246 OA
BRANCH  29  31
ATOM     31  C   UNL A   1      39.408  22.681  26.702  1.00  0.00     0.060 A 
ATOM     32  C   UNL A   1      38.844  23.918  26.373  1.00  0.00     0.016 A 
ATOM     33  C   UNL A   1      40.452  22.600  27.627  1.00  0.00     0.016 A 
ATOM     34  C   UNL A   1      39.372  25.089  26.907  1.00  0.00     0.010 A 
ATOM     35  C   UNL A   1      40.983  23.780  28.164  1.00  0.00     0.010 A 
ATOM     36  C   UNL A   1      40.476  25.032  27.766  1.00  0.00    -0.014 A 
BRANCH  36  37
ATOM     37  C   UNL A   1      41.190  26.292  28.093  1.00  0.00     0.031 A 
ATOM     38  C   UNL A   1      42.591  26.491  27.576  1.00  0.00     0.074 A 
ATOM     39  C   UNL A   1      40.574  27.273  28.777  1.00  0.00     0.049 A 
ATOM     40  N   UNL A   1      43.384  27.524  27.698  1.00  0.00    -0.248 NA
ATOM     41  C   UNL A   1      43.175  25.369  26.827  1.00  0.00     0.031 C 
ATOM     42  C   UNL A   1      39.212  27.204  29.304  1.00  0.00     0.029 A 
ATOM     43  N   UNL A   1      41.014  28.521  29.141  1.00  0.00    -0.354 N 
ATOM     44  C   UNL A   1      44.564  27.175  27.046  1.00  0.00     0.074 A 
ATOM     45  C   UNL A   1      44.394  25.818  26.572  1.00  0.00     0.031 C 
ATOM     46  C   UNL A   1      38.928  28.358  29.929  1.00  0.00     0.029 A 
ATOM     47  C   UNL A   1      40.096  29.237  29.871  1.00  0.00     0.049 A 
ATOM     48  H   UNL A   1      41.903  28.869  28.902  1.00  0.00     0.167 HD
ATOM     49  C   UNL A   1      45.679  27.923  26.851  1.00  0.00     0.034 A 
ATOM     50  C   UNL A   1      40.191  30.455  30.443  1.00  0.00     0.034 A 
ATOM     51  C   UNL A   1      45.831  29.275  27.334  1.00  0.00     0.049 A 
ATOM     52  C   UNL A   1      41.458  31.252  30.255  1.00  0.00     0.074 A 
ATOM     53  C   UNL A   1      46.900  30.138  27.164  1.00  0.00     0.029 A 
ATOM     54  N   UNL A   1      44.891  29.959  28.098  1.00  0.00    -0.354 N 
ATOM     55  N   UNL A   1      42.554  30.926  29.606  1.00  0.00    -0.248 NA
ATOM     56  C   UNL A   1      41.492  32.590  30.858  1.00  0.00     0.031 C 
ATOM     57  C   UNL A   1      46.643  31.305  27.891  1.00  0.00     0.029 A 
ATOM     58  C   UNL A   1      45.374  31.214  28.441  1.00  0.00     0.049 A 
ATOM     59  H   UNL A   1      44.011  29.603  28.358  1.00  0.00     0.167 HD
ATOM     60  C   UNL A   1      43.397  32.031  29.703  1.00  0.00     0.074 A 
ATOM     61  C   UNL A   1      42.673  33.036  30.455  1.00  0.00     0.031 C 
ATOM     62  C   UNL A   1      44.652  32.202  29.211  1.00  0.00     0.034 A 
BRANCH  49  63
ATOM     63  C   UNL A   1      46.838  27.266  26.136  1.00  0.00     0.023 A 
ATOM     64  C   UNL A   1      47.844  26.567  26.827  1.00  0.00     0.031 A 
ATOM     65  C   UNL A   1      46.960  27.379  24.739  1.00  0.00     0.131 A 
ATOM     66  C   UNL A   1      48.965  26.084  26.134  1.00  0.00     0.055 A 
ATOM     67  C   UNL A   1      48.035  26.821  24.044  1.00  0.00     0.041 A 
ATOM     68  F   UNL A   1      46.046  28.054  24.025  1.00  0.00    -0.206 F 
ATOM     69  C   UNL A   1      49.055  26.183  24.744  1.00  0.00     0.022 A 
BRANCH  66  70
ATOM     70  S   UNL A   1      50.381  25.471  27.090  1.00  0.00     0.124 S 
ATOM     71  O   UNL A   1      49.835  24.250  27.678  1.00  0.00    -0.237 OA
ATOM     72  O   UNL A   1      51.399  25.287  26.063  1.00  0.00    -0.237 OA
ATOM     73  O   UNL A   1      50.642  26.549  28.043  1.00  0.00    -0.744 OA
ENDBRANCH  66  70
ENDBRANCH  49  63
BRANCH  50  74
ATOM     74  C   UNL A   1      39.072  30.979  31.277  1.00  0.00     0.023 A 
ATOM     75  C   UNL A   1      37.959  31.610  30.703  1.00  0.00     0.031 A 
ATOM     76  C   UNL A   1      39.126  30.882  32.680  1.00  0.00     0.131 A 
ATOM     77  C   UNL A   1      36.960  32.153  31.528  1.00  0.00     0.055 A 
ATOM     78  C   UNL A   1      38.106  31.376  33.494  1.00  0.00     0.041 A 
ATOM     79  F   UNL A   1      40.169  30.288  33.281  1.00  0.00    -0.206 F 
ATOM     80  C   UNL A   1      37.020  32.028  32.919  1.00  0.00     0.022 A 
BRANCH  77  81
ATOM     81  S   UNL A   1      35.611  33.093  30.762  1.00  0.00     0.124 S 
ATOM     82  O   UNL A   1      34.436  32.393  31.267  1.00  0.00    -0.237 OA
ATOM     83  O   UNL A   1      35.837  34.435  31.291  1.00  0.00    -0.237 OA
ATOM     84  O   UNL A   1      35.862  32.941  29.330  1.00  0.00    -0.744 OA
ENDBRANCH  77  81
ENDBRANCH  50  74
BRANCH  62  85
ATOM     85  C   UNL A   1      45.303  33.548  29.441  1.00  0.00     0.023 A 
ATOM     86  C   UNL A   1      45.227  34.581  28.491  1.00  0.00     0.031 A 
ATOM     87  C   UNL A   1      46.030  33.790  30.621  1.00  0.00     0.131 A 
ATOM     88  C   UNL A   1      45.923  35.782  28.705  1.00  0.00     0.055 A 
ATOM     89  C   UNL A   1      46.661  35.011  30.860  1.00  0.00     0.041 A 
ATOM     90  F   UNL A   1      46.140  32.840  31.563  1.00  0.00    -0.206 F 
ATOM     91  C   UNL A   1      46.624  36.010  29.891  1.00  0.00     0.022 A 
BRANCH  88  92
ATOM     92  S   UNL A   1      45.997  36.998  27.360  1.00  0.00     0.124 S 
ATOM     93  O   UNL A   1      46.980  37.949  27.865  1.00  0.00    -0.237 OA
ATOM     94  O   UNL A   1      46.422  36.182  26.226  1.00  0.00    -0.237 OA
ATOM     95  O   UNL A   1      44.629  37.504  27.280  1.00  0.00    -0.744 OA
ENDBRANCH  88  92
ENDBRANCH  62  85
ENDBRANCH  36  37
ENDBRANCH  29  31
ENDBRANCH  28  29
ENDBRANCH  27  28
ENDBRANCH  26  27
ENDBRANCH   1  26
TORSDOF 20
ENDMDL
MODEL 3
REMARK VINA RESULT:     -10.8      4.833     10.706
REMARK SMILES O=C(C[C@H]1COCC[NH2+]1)Nc1cncc(C(=O)OCCOCCOC(=O)c2ccc(-c3c4nc(c(-c5cc(S(=O)(=O)[O-])ccc5F)c5ccc([nH]5)c(-c5cc(S(=O)(=O)[O-])ccc5F)c5nc(c(-c6cc(S(=O)(=O)[O-])ccc6F)c6ccc3[nH]6)C=C5)C=C4)cc2)c1
REMARK SMILES IDX 21 1 20 2 19 3 18 4 16 5 17 6 15 7 11 8 12 9 90 10 13 11
REMARK SMILES IDX 14 12 10 13 1 14 2 15 3 17 4 18 5 19 9 20 6 21 8 22 7 25
REMARK SMILES IDX 22 26 23 27 24 28 25 29 26 30 27 31 28 32 89 33 29 34 88 35
REMARK SMILES IDX 30 36 31 37 32 38 82 39 33 40 87 41 81 42 83 43 34 44 86 45
REMARK SMILES IDX 80 46 79 47 35 49 67 50 47 51 66 52 48 53 51 54 65 55 84 56
REMARK SMILES IDX 49 57 50 58 64 60 85 61 52 62 36 63 37 64 45 65 38 66 44 67
REMARK SMILES IDX 46 68 43 69 39 70 40 71 41 72 42 73 68 74 69 75 77 76 70 77
REMARK SMILES IDX 76 78 78 79 75 80 71 81 72 82 73 83 74 84 53 85 54 86 62 87
REMARK SMILES IDX 55 88 61 89 63 90 60 91 56 92 57 93 58 94 59 95
REMARK H PARENT 10 16 9 23 9 24 83 48 51 59
REMARK Flexibility Score: inf
ROOT
ATOM      1  O   UNL A   1      31.219  30.461  25.357  1.00  0.00    -0.374 OA
ENDROOT
BRANCH   1   2
ATOM      2  C   UNL A   1      31.684  29.155  24.999  1.00  0.00     0.202 C 
BRANCH   2   3
ATOM      3  C   UNL A   1      32.770  29.121  23.917  1.00  0.00     0.261 C 
BRANCH   3   4
ATOM      4  O   UNL A   1      32.176  29.021  22.610  1.00  0.00    -0.460 OA
BRANCH   4   5
ATOM      5  C   UNL A   1      31.258  28.040  22.444  1.00  0.00     0.339 C 
ATOM      6  O   UNL A   1      30.099  28.155  22.083  1.00  0.00    -0.246 OA
BRANCH   5   7
ATOM      7  C   UNL A   1      31.961  26.748  22.498  1.00  0.00     0.080 A 
ATOM      8  C   UNL A   1      32.427  24.595  23.450  1.00  0.00     0.060 A 
ATOM      9  C   UNL A   1      33.612  24.605  22.711  1.00  0.00     0.137 A 
ATOM     10  C   UNL A   1      31.602  25.712  23.362  1.00  0.00     0.045 A 
ATOM     11  N   UNL A   1      33.972  25.579  21.842  1.00  0.00    -0.262 NA
ATOM     12  C   UNL A   1      33.118  26.623  21.739  1.00  0.00     0.126 A 
BRANCH   8  13
ATOM     13  N   UNL A   1      32.112  23.443  24.195  1.00  0.00    -0.324 N 
ATOM     14  O   UNL A   1      31.840  21.895  22.479  1.00  0.00    -0.274 OA
ATOM     15  C   UNL A   1      31.944  22.179  23.668  1.00  0.00     0.230 C 
ATOM     16  H   UNL A   1      32.003  23.547  25.168  1.00  0.00     0.169 HD
BRANCH  15  17
ATOM     17  C   UNL A   1      31.966  21.095  24.727  1.00  0.00     0.167 C 
BRANCH  17  18
ATOM     18  C   UNL A   1      33.096  20.051  24.587  1.00  0.00     0.218 C 
ATOM     19  C   UNL A   1      33.421  19.288  25.887  1.00  0.00     0.225 C 
ATOM     20  N   UNL A   1      32.956  19.169  23.395  1.00  0.00    -0.340 N 
ATOM     21  O   UNL A   1      32.511  18.209  26.107  1.00  0.00    -0.369 OA
ATOM     22  C   UNL A   1      32.281  17.893  23.690  1.00  0.00     0.289 C 
ATOM     23  H   UNL A   1      33.886  18.967  23.031  1.00  0.00     0.346 HD
ATOM     24  H   UNL A   1      32.377  19.667  22.718  1.00  0.00     0.346 HD
ATOM     25  C   UNL A   1      32.599  17.258  25.048  1.00  0.00     0.221 C 
ENDBRANCH  17  18
ENDBRANCH  15  17
ENDBRANCH   8  13
ENDBRANCH   5   7
ENDBRANCH   4   5
ENDBRANCH   3   4
ENDBRANCH   2   3
ENDBRANCH   1   2
BRANCH   1  26
ATOM     26  C   UNL A   1      31.611  30.945  26.642  1.00  0.00     0.202 C 
BRANCH  26  27
ATOM     27  C   UNL A   1      31.451  32.450  26.883  1.00  0.00     0.261 C 
BRANCH  27  28
ATOM     28  O   UNL A   1      32.706  33.143  26.770  1.00  0.00    -0.460 OA
BRANCH  28  29
ATOM     29  C   UNL A   1      33.216  33.556  27.955  1.00  0.00     0.338 C 
ATOM     30  O   UNL A   1      32.660  34.253  28.786  1.00  0.00    -0.246 OA
BRANCH  29  31
ATOM     31  C   UNL A   1      34.512  32.898  28.212  1.00  0.00     0.060 A 
ATOM     32  C   UNL A   1      34.469  31.570  28.651  1.00  0.00     0.016 A 
ATOM     33  C   UNL A   1      35.732  33.572  28.111  1.00  0.00     0.016 A 
ATOM     34  C   UNL A   1      35.635  30.934  29.066  1.00  0.00     0.010 A 
ATOM     35  C   UNL A   1      36.905  32.932  28.530  1.00  0.00     0.010 A 
ATOM     36  C   UNL A   1      36.852  31.626  29.056  1.00  0.00    -0.014 A 
BRANCH  36  37
ATOM     37  C   UNL A   1      38.015  31.030  29.760  1.00  0.00     0.031 A 
ATOM     38  C   UNL A   1      38.276  31.418  31.192  1.00  0.00     0.074 A 
ATOM     39  C   UNL A   1      38.782  30.104  29.158  1.00  0.00     0.049 A 
ATOM     40  N   UNL A   1      39.201  30.992  32.014  1.00  0.00    -0.248 NA
ATOM     41  C   UNL A   1      37.376  32.427  31.770  1.00  0.00     0.031 C 
ATOM     42  C   UNL A   1      38.609  29.632  27.786  1.00  0.00     0.029 A 
ATOM     43  N   UNL A   1      39.858  29.393  29.626  1.00  0.00    -0.354 N 
ATOM     44  C   UNL A   1      38.998  31.686  33.204  1.00  0.00     0.074 A 
ATOM     45  C   UNL A   1      37.891  32.590  32.978  1.00  0.00     0.031 C 
ATOM     46  C   UNL A   1      39.550  28.711  27.520  1.00  0.00     0.029 A 
ATOM     47  C   UNL A   1      40.409  28.548  28.692  1.00  0.00     0.049 A 
ATOM     48  H   UNL A   1      40.203  29.480  30.544  1.00  0.00     0.167 HD
ATOM     49  C   UNL A   1      39.665  31.568  34.380  1.00  0.00     0.034 A 
ATOM     50  C   UNL A   1      41.492  27.749  28.768  1.00  0.00     0.034 A 
ATOM     51  C   UNL A   1      40.769  30.661  34.586  1.00  0.00     0.049 A 
ATOM     52  C   UNL A   1      42.250  27.667  30.070  1.00  0.00     0.074 A 
ATOM     53  C   UNL A   1      41.494  30.433  35.743  1.00  0.00     0.029 A 
ATOM     54  N   UNL A   1      41.321  29.842  33.608  1.00  0.00    -0.354 N 
ATOM     55  N   UNL A   1      42.027  28.300  31.200  1.00  0.00    -0.248 NA
ATOM     56  C   UNL A   1      43.393  26.746  30.112  1.00  0.00     0.031 C 
ATOM     57  C   UNL A   1      42.531  29.542  35.443  1.00  0.00     0.029 A 
ATOM     58  C   UNL A   1      42.401  29.140  34.123  1.00  0.00     0.049 A 
ATOM     59  H   UNL A   1      40.992  29.770  32.682  1.00  0.00     0.167 HD
ATOM     60  C   UNL A   1      42.988  27.834  32.094  1.00  0.00     0.074 A 
ATOM     61  C   UNL A   1      43.776  26.852  31.376  1.00  0.00     0.031 C 
ATOM     62  C   UNL A   1      43.196  28.180  33.392  1.00  0.00     0.034 A 
BRANCH  49  63
ATOM     63  C   UNL A   1      39.251  32.488  35.507  1.00  0.00     0.023 A 
ATOM     64  C   UNL A   1      39.718  33.811  35.603  1.00  0.00     0.031 A 
ATOM     65  C   UNL A   1      38.408  32.016  36.529  1.00  0.00     0.131 A 
ATOM     66  C   UNL A   1      39.409  34.584  36.733  1.00  0.00     0.055 A 
ATOM     67  C   UNL A   1      38.033  32.819  37.608  1.00  0.00     0.041 A 
ATOM     68  F   UNL A   1      37.947  30.755  36.508  1.00  0.00    -0.206 F 
ATOM     69  C   UNL A   1      38.549  34.107  37.723  1.00  0.00     0.022 A 
BRANCH  66  70
ATOM     70  S   UNL A   1      40.278  36.159  36.972  1.00  0.00     0.124 S 
ATOM     71  O   UNL A   1      39.543  36.735  38.096  1.00  0.00    -0.237 OA
ATOM     72  O   UNL A   1      41.642  35.727  37.254  1.00  0.00    -0.237 OA
ATOM     73  O   UNL A   1      40.092  36.851  35.698  1.00  0.00    -0.744 OA
ENDBRANCH  66  70
ENDBRANCH  49  63
BRANCH  50  74
ATOM     74  C   UNL A   1      41.947  26.991  27.567  1.00  0.00     0.023 A 
ATOM     75  C   UNL A   1      41.854  25.593  27.499  1.00  0.00     0.031 A 
ATOM     76  C   UNL A   1      42.520  27.668  26.474  1.00  0.00     0.131 A 
ATOM     77  C   UNL A   1      42.360  24.912  26.379  1.00  0.00     0.055 A 
ATOM     78  C   UNL A   1      42.973  26.992  25.341  1.00  0.00     0.041 A 
ATOM     79  F   UNL A   1      42.633  29.006  26.488  1.00  0.00    -0.206 F 
ATOM     80  C   UNL A   1      42.906  25.603  25.294  1.00  0.00     0.022 A 
BRANCH  77  81
ATOM     81  S   UNL A   1      42.361  23.098  26.389  1.00  0.00     0.124 S 
ATOM     82  O   UNL A   1      43.396  22.796  25.408  1.00  0.00    -0.237 OA
ATOM     83  O   UNL A   1      42.687  22.802  27.781  1.00  0.00    -0.237 OA
ATOM     84  O   UNL A   1      40.998  22.755  25.986  1.00  0.00    -0.744 OA
ENDBRANCH  77  81
ENDBRANCH  50  74
BRANCH  62  85
ATOM     85  C   UNL A   1      44.302  27.455  34.127  1.00  0.00     0.023 A 
ATOM     86  C   UNL A   1      44.044  26.341  34.944  1.00  0.00     0.031 A 
ATOM     87  C   UNL A   1      45.632  27.903  34.024  1.00  0.00     0.131 A 
ATOM     88  C   UNL A   1      45.087  25.756  35.680  1.00  0.00     0.055 A 
ATOM     89  C   UNL A   1      46.676  27.275  34.703  1.00  0.00     0.041 A 
ATOM     90  F   UNL A   1      45.939  28.964  33.261  1.00  0.00    -0.206 F 
ATOM     91  C   UNL A   1      46.404  26.204  35.550  1.00  0.00     0.022 A 
BRANCH  88  92
ATOM     92  S   UNL A   1      44.682  24.476  36.901  1.00  0.00     0.124 S 
ATOM     93  O   UNL A   1      45.909  24.406  37.686  1.00  0.00    -0.237 OA
ATOM     94  O   UNL A   1      43.523  25.048  37.579  1.00  0.00    -0.237 OA
ATOM     95  O   UNL A   1      44.401  23.299  36.082  1.00  0.00    -0.744 OA
ENDBRANCH  88  92
ENDBRANCH  62  85
ENDBRANCH  36  37
ENDBRANCH  29  31
ENDBRANCH  28  29
ENDBRANCH  27  28
ENDBRANCH  26  27
ENDBRANCH   1  26
TORSDOF 20
ENDMDL
