MODEL 1
REMARK VINA RESULT:     -11.6      0.000      0.000
REMARK SMILES Cc1ccc([C@H](CC2CCCC2)C(=O)OCCOCCOC(=O)c2ccc(-c3c4nc(c(-c5cc(S(=O)(=O)[O-])ccc5F)c5ccc([nH]5)c(-c5cc(S(=O)(=O)[O-])ccc5F)c5nc(c(-c6cc(S(=O)(=O)[O-])ccc6F)c6ccc3[nH]6)C=C5)C=C4)cc2)cc1
REMARK SMILES IDX 19 1 18 2 17 3 16 4 15 5 13 6 14 7 6 8 5 9 1 10 2 11 3 12
REMARK SMILES IDX 88 13 4 14 87 15 7 16 8 17 9 18 12 19 10 20 11 21 20 22
REMARK SMILES IDX 21 23 22 24 23 25 24 26 25 27 86 28 26 29 85 30 27 31 28 32
REMARK SMILES IDX 29 33 79 34 30 35 84 36 78 37 80 38 31 39 83 40 77 41 76 42
REMARK SMILES IDX 32 44 64 45 44 46 63 47 45 48 48 49 62 50 81 51 46 52 47 53
REMARK SMILES IDX 61 55 82 56 49 57 33 58 34 59 42 60 35 61 41 62 43 63 40 64
REMARK SMILES IDX 36 65 37 66 38 67 39 68 65 69 66 70 74 71 67 72 73 73 75 74
REMARK SMILES IDX 72 75 68 76 69 77 70 78 71 79 50 80 51 81 59 82 52 83 58 84
REMARK SMILES IDX 60 85 57 86 53 87 54 88 55 89 56 90
REMARK H PARENT 80 43 48 54
REMARK Flexibility Score: inf
ROOT
ATOM      1  C   UNL A   1      33.133  29.411  26.060  1.00  0.00     0.202 C 
ENDROOT
BRANCH   1   2
ATOM      2  O   UNL A   1      32.365  28.248  26.197  1.00  0.00    -0.374 OA
BRANCH   2   3
ATOM      3  C   UNL A   1      31.564  27.908  25.078  1.00  0.00     0.202 C 
BRANCH   3   4
ATOM      4  C   UNL A   1      30.991  26.577  25.421  1.00  0.00     0.261 C 
BRANCH   4   5
ATOM      5  O   UNL A   1      31.948  25.760  26.057  1.00  0.00    -0.463 OA
BRANCH   5   6
ATOM      6  C   UNL A   1      31.820  24.405  26.068  1.00  0.00     0.313 C 
ATOM      7  O   UNL A   1      30.943  23.739  26.573  1.00  0.00    -0.252 OA
BRANCH   6   8
ATOM      8  C   UNL A   1      32.998  23.863  25.264  1.00  0.00     0.129 C 
BRANCH   8   9
ATOM      9  C   UNL A   1      32.674  22.416  24.859  1.00  0.00    -0.034 A 
ATOM     10  C   UNL A   1      32.510  18.316  23.471  1.00  0.00     0.044 C 
ATOM     11  C   UNL A   1      32.540  19.732  23.963  1.00  0.00    -0.051 A 
ATOM     12  C   UNL A   1      32.880  20.027  25.288  1.00  0.00     0.004 A 
ATOM     13  C   UNL A   1      32.207  20.780  23.106  1.00  0.00     0.004 A 
ATOM     14  C   UNL A   1      32.964  21.355  25.729  1.00  0.00     0.005 A 
ATOM     15  C   UNL A   1      32.250  22.101  23.555  1.00  0.00     0.005 A 
ENDBRANCH   8   9
BRANCH   8  16
ATOM     16  C   UNL A   1      34.289  24.017  26.125  1.00  0.00     0.023 C 
BRANCH  16  17
ATOM     17  C   UNL A   1      35.622  23.757  25.384  1.00  0.00    -0.010 C 
ATOM     18  C   UNL A   1      36.281  22.396  25.626  1.00  0.00     0.003 C 
ATOM     19  C   UNL A   1      35.373  23.707  23.880  1.00  0.00     0.003 C 
ATOM     20  C   UNL A   1      37.057  22.035  24.363  1.00  0.00     0.000 C 
ATOM     21  C   UNL A   1      36.581  22.999  23.291  1.00  0.00     0.000 C 
ENDBRANCH  16  17
ENDBRANCH   8  16
ENDBRANCH   6   8
ENDBRANCH   5   6
ENDBRANCH   4   5
ENDBRANCH   3   4
ENDBRANCH   2   3
ENDBRANCH   1   2
BRANCH   1  22
ATOM     22  C   UNL A   1      33.072  30.333  27.271  1.00  0.00     0.261 C 
BRANCH  22  23
ATOM     23  O   UNL A   1      34.270  31.133  27.339  1.00  0.00    -0.460 OA
BRANCH  23  24
ATOM     24  C   UNL A   1      34.865  31.162  28.565  1.00  0.00     0.338 C 
ATOM     25  O   UNL A   1      34.697  32.050  29.387  1.00  0.00    -0.246 OA
BRANCH  24  26
ATOM     26  C   UNL A   1      35.859  30.056  28.706  1.00  0.00     0.060 A 
ATOM     27  C   UNL A   1      36.276  29.641  29.984  1.00  0.00     0.016 A 
ATOM     28  C   UNL A   1      36.608  29.701  27.593  1.00  0.00     0.016 A 
ATOM     29  C   UNL A   1      37.542  29.057  30.157  1.00  0.00     0.010 A 
ATOM     30  C   UNL A   1      37.914  29.314  27.800  1.00  0.00     0.010 A 
ATOM     31  C   UNL A   1      38.409  29.000  29.075  1.00  0.00    -0.014 A 
BRANCH  31  32
ATOM     32  C   UNL A   1      39.840  28.660  29.097  1.00  0.00     0.031 A 
ATOM     33  C   UNL A   1      40.198  27.266  28.732  1.00  0.00     0.074 A 
ATOM     34  C   UNL A   1      40.832  29.584  29.212  1.00  0.00     0.049 A 
ATOM     35  N   UNL A   1      41.380  26.788  28.855  1.00  0.00    -0.248 NA
ATOM     36  C   UNL A   1      39.261  26.267  28.219  1.00  0.00     0.031 C 
ATOM     37  C   UNL A   1      42.241  29.463  28.821  1.00  0.00     0.029 A 
ATOM     38  N   UNL A   1      40.792  30.865  29.771  1.00  0.00    -0.354 N 
ATOM     39  C   UNL A   1      41.446  25.589  28.194  1.00  0.00     0.074 A 
ATOM     40  C   UNL A   1      40.083  25.274  27.872  1.00  0.00     0.031 C 
ATOM     41  C   UNL A   1      42.963  30.424  29.425  1.00  0.00     0.029 A 
ATOM     42  C   UNL A   1      42.063  31.147  30.300  1.00  0.00     0.049 A 
ATOM     43  H   UNL A   1      40.011  31.463  29.793  1.00  0.00     0.167 HD
ATOM     44  C   UNL A   1      42.683  25.082  27.944  1.00  0.00     0.034 A 
ATOM     45  C   UNL A   1      42.205  31.459  31.613  1.00  0.00     0.034 A 
ATOM     46  C   UNL A   1      43.705  25.903  28.613  1.00  0.00     0.049 A 
ATOM     47  C   UNL A   1      43.016  30.367  32.251  1.00  0.00     0.074 A 
ATOM     48  C   UNL A   1      44.644  26.826  28.188  1.00  0.00     0.029 A 
ATOM     49  N   UNL A   1      43.620  26.047  29.994  1.00  0.00    -0.354 N 
ATOM     50  N   UNL A   1      43.187  29.199  31.686  1.00  0.00    -0.248 NA
ATOM     51  C   UNL A   1      43.797  30.511  33.468  1.00  0.00     0.031 C 
ATOM     52  C   UNL A   1      45.093  27.548  29.337  1.00  0.00     0.029 A 
ATOM     53  C   UNL A   1      44.454  27.039  30.458  1.00  0.00     0.049 A 
ATOM     54  H   UNL A   1      43.035  25.504  30.571  1.00  0.00     0.167 HD
ATOM     55  C   UNL A   1      44.136  28.488  32.354  1.00  0.00     0.074 A 
ATOM     56  C   UNL A   1      44.462  29.340  33.489  1.00  0.00     0.031 C 
ATOM     57  C   UNL A   1      44.575  27.275  31.895  1.00  0.00     0.034 A 
BRANCH  44  58
ATOM     58  C   UNL A   1      43.032  23.939  27.018  1.00  0.00     0.023 A 
ATOM     59  C   UNL A   1      42.331  22.725  27.178  1.00  0.00     0.031 A 
ATOM     60  C   UNL A   1      44.019  23.924  26.011  1.00  0.00     0.131 A 
ATOM     61  C   UNL A   1      42.624  21.591  26.400  1.00  0.00     0.055 A 
ATOM     62  C   UNL A   1      44.312  22.795  25.234  1.00  0.00     0.041 A 
ATOM     63  F   UNL A   1      44.757  24.990  25.700  1.00  0.00    -0.206 F 
ATOM     64  C   UNL A   1      43.615  21.616  25.427  1.00  0.00     0.022 A 
BRANCH  61  65
ATOM     65  S   UNL A   1      41.685  20.070  26.688  1.00  0.00     0.124 S 
ATOM     66  O   UNL A   1      42.420  19.460  27.791  1.00  0.00    -0.237 OA
ATOM     67  O   UNL A   1      40.355  20.579  26.997  1.00  0.00    -0.237 OA
ATOM     68  O   UNL A   1      41.791  19.362  25.412  1.00  0.00    -0.744 OA
ENDBRANCH  61  65
ENDBRANCH  44  58
BRANCH  45  69
ATOM     69  C   UNL A   1      41.022  32.252  32.092  1.00  0.00     0.023 A 
ATOM     70  C   UNL A   1      40.093  31.533  32.895  1.00  0.00     0.031 A 
ATOM     71  C   UNL A   1      41.115  33.636  32.309  1.00  0.00     0.131 A 
ATOM     72  C   UNL A   1      39.471  32.148  33.999  1.00  0.00     0.055 A 
ATOM     73  C   UNL A   1      40.448  34.252  33.384  1.00  0.00     0.041 A 
ATOM     74  F   UNL A   1      41.991  34.377  31.615  1.00  0.00    -0.206 F 
ATOM     75  C   UNL A   1      39.676  33.500  34.270  1.00  0.00     0.022 A 
BRANCH  72  76
ATOM     76  S   UNL A   1      38.632  31.103  35.238  1.00  0.00     0.124 S 
ATOM     77  O   UNL A   1      38.231  29.949  34.442  1.00  0.00    -0.237 OA
ATOM     78  O   UNL A   1      39.686  30.864  36.222  1.00  0.00    -0.237 OA
ATOM     79  O   UNL A   1      37.542  31.950  35.721  1.00  0.00    -0.744 OA
ENDBRANCH  72  76
ENDBRANCH  45  69
BRANCH  57  80
ATOM     80  C   UNL A   1      45.193  26.197  32.758  1.00  0.00     0.023 A 
ATOM     81  C   UNL A   1      44.427  25.323  33.530  1.00  0.00     0.031 A 
ATOM     82  C   UNL A   1      46.587  25.925  32.746  1.00  0.00     0.131 A 
ATOM     83  C   UNL A   1      45.015  24.303  34.291  1.00  0.00     0.055 A 
ATOM     84  C   UNL A   1      47.164  24.852  33.429  1.00  0.00     0.041 A 
ATOM     85  F   UNL A   1      47.460  26.662  32.049  1.00  0.00    -0.206 F 
ATOM     86  C   UNL A   1      46.378  24.039  34.225  1.00  0.00     0.022 A 
BRANCH  83  87
ATOM     87  S   UNL A   1      43.938  23.386  35.412  1.00  0.00     0.124 S 
ATOM     88  O   UNL A   1      44.605  22.086  35.471  1.00  0.00    -0.237 OA
ATOM     89  O   UNL A   1      44.007  24.183  36.633  1.00  0.00    -0.237 OA
ATOM     90  O   UNL A   1      42.646  23.393  34.732  1.00  0.00    -0.744 OA
ENDBRANCH  83  87
ENDBRANCH  57  80
ENDBRANCH  31  32
ENDBRANCH  24  26
ENDBRANCH  23  24
ENDBRANCH  22  23
ENDBRANCH   1  22
TORSDOF 20
ENDMDL
MODEL 2
REMARK VINA RESULT:     -10.8      1.567      2.526
REMARK SMILES Cc1ccc([C@H](CC2CCCC2)C(=O)OCCOCCOC(=O)c2ccc(-c3c4nc(c(-c5cc(S(=O)(=O)[O-])ccc5F)c5ccc([nH]5)c(-c5cc(S(=O)(=O)[O-])ccc5F)c5nc(c(-c6cc(S(=O)(=O)[O-])ccc6F)c6ccc3[nH]6)C=C5)C=C4)cc2)cc1
REMARK SMILES IDX 19 1 18 2 17 3 16 4 15 5 13 6 14 7 6 8 5 9 1 10 2 11 3 12
REMARK SMILES IDX 88 13 4 14 87 15 7 16 8 17 9 18 12 19 10 20 11 21 20 22
REMARK SMILES IDX 21 23 22 24 23 25 24 26 25 27 86 28 26 29 85 30 27 31 28 32
REMARK SMILES IDX 29 33 79 34 30 35 84 36 78 37 80 38 31 39 83 40 77 41 76 42
REMARK SMILES IDX 32 44 64 45 44 46 63 47 45 48 48 49 62 50 81 51 46 52 47 53
REMARK SMILES IDX 61 55 82 56 49 57 33 58 34 59 42 60 35 61 41 62 43 63 40 64
REMARK SMILES IDX 36 65 37 66 38 67 39 68 65 69 66 70 74 71 67 72 73 73 75 74
REMARK SMILES IDX 72 75 68 76 69 77 70 78 71 79 50 80 51 81 59 82 52 83 58 84
REMARK SMILES IDX 60 85 57 86 53 87 54 88 55 89 56 90
REMARK H PARENT 80 43 48 54
REMARK Flexibility Score: inf
ROOT
ATOM      1  C   UNL A   1      33.426  29.846  25.894  1.00  0.00     0.202 C 
ENDROOT
BRANCH   1   2
ATOM      2  O   UNL A   1      33.270  28.497  25.552  1.00  0.00    -0.374 OA
BRANCH   2   3
ATOM      3  C   UNL A   1      32.655  28.249  24.299  1.00  0.00     0.202 C 
BRANCH   3   4
ATOM      4  C   UNL A   1      33.629  27.390  23.571  1.00  0.00     0.261 C 
BRANCH   4   5
ATOM      5  O   UNL A   1      33.747  26.125  24.182  1.00  0.00    -0.463 OA
BRANCH   5   6
ATOM      6  C   UNL A   1      33.222  25.011  23.601  1.00  0.00     0.313 C 
ATOM      7  O   UNL A   1      32.921  24.843  22.440  1.00  0.00    -0.252 OA
BRANCH   6   8
ATOM      8  C   UNL A   1      33.122  23.965  24.707  1.00  0.00     0.129 C 
BRANCH   8   9
ATOM      9  C   UNL A   1      34.530  23.403  24.962  1.00  0.00    -0.034 A 
ATOM     10  C   UNL A   1      38.651  22.535  25.973  1.00  0.00     0.044 C 
ATOM     11  C   UNL A   1      37.221  22.807  25.616  1.00  0.00    -0.051 A 
ATOM     12  C   UNL A   1      36.189  22.547  26.526  1.00  0.00     0.004 A 
ATOM     13  C   UNL A   1      36.894  23.307  24.356  1.00  0.00     0.004 A 
ATOM     14  C   UNL A   1      34.859  22.858  26.211  1.00  0.00     0.005 A 
ATOM     15  C   UNL A   1      35.565  23.578  24.026  1.00  0.00     0.005 A 
ENDBRANCH   8   9
BRANCH   8  16
ATOM     16  C   UNL A   1      32.071  22.897  24.275  1.00  0.00     0.023 C 
BRANCH  16  17
ATOM     17  C   UNL A   1      32.650  21.580  23.707  1.00  0.00    -0.010 C 
ATOM     18  C   UNL A   1      32.426  20.319  24.547  1.00  0.00     0.003 C 
ATOM     19  C   UNL A   1      31.926  21.214  22.416  1.00  0.00     0.003 C 
ATOM     20  C   UNL A   1      32.357  19.137  23.584  1.00  0.00     0.000 C 
ATOM     21  C   UNL A   1      32.203  19.737  22.198  1.00  0.00     0.000 C 
ENDBRANCH  16  17
ENDBRANCH   8  16
ENDBRANCH   6   8
ENDBRANCH   5   6
ENDBRANCH   4   5
ENDBRANCH   3   4
ENDBRANCH   2   3
ENDBRANCH   1   2
BRANCH   1  22
ATOM     22  C   UNL A   1      33.578  30.088  27.389  1.00  0.00     0.261 C 
BRANCH  22  23
ATOM     23  O   UNL A   1      34.244  31.346  27.619  1.00  0.00    -0.460 OA
BRANCH  23  24
ATOM     24  C   UNL A   1      35.052  31.370  28.717  1.00  0.00     0.338 C 
ATOM     25  O   UNL A   1      35.085  32.286  29.523  1.00  0.00    -0.246 OA
BRANCH  24  26
ATOM     26  C   UNL A   1      35.993  30.209  28.716  1.00  0.00     0.060 A 
ATOM     27  C   UNL A   1      36.332  29.576  29.925  1.00  0.00     0.016 A 
ATOM     28  C   UNL A   1      36.779  30.003  27.592  1.00  0.00     0.016 A 
ATOM     29  C   UNL A   1      37.564  28.913  30.053  1.00  0.00     0.010 A 
ATOM     30  C   UNL A   1      38.058  29.526  27.785  1.00  0.00     0.010 A 
ATOM     31  C   UNL A   1      38.479  28.989  29.012  1.00  0.00    -0.014 A 
BRANCH  31  32
ATOM     32  C   UNL A   1      39.892  28.583  29.036  1.00  0.00     0.031 A 
ATOM     33  C   UNL A   1      40.174  27.142  28.814  1.00  0.00     0.074 A 
ATOM     34  C   UNL A   1      40.929  29.464  29.027  1.00  0.00     0.049 A 
ATOM     35  N   UNL A   1      41.335  26.622  28.960  1.00  0.00    -0.248 NA
ATOM     36  C   UNL A   1      39.177  26.142  28.434  1.00  0.00     0.031 C 
ATOM     37  C   UNL A   1      42.319  29.233  28.618  1.00  0.00     0.029 A 
ATOM     38  N   UNL A   1      40.965  30.797  29.446  1.00  0.00    -0.354 N 
ATOM     39  C   UNL A   1      41.327  25.358  28.430  1.00  0.00     0.074 A 
ATOM     40  C   UNL A   1      39.942  25.078  28.176  1.00  0.00     0.031 C 
ATOM     41  C   UNL A   1      43.102  30.215  29.098  1.00  0.00     0.029 A 
ATOM     42  C   UNL A   1      42.262  31.070  29.911  1.00  0.00     0.049 A 
ATOM     43  H   UNL A   1      40.214  31.432  29.422  1.00  0.00     0.167 HD
ATOM     44  C   UNL A   1      42.530  24.766  28.206  1.00  0.00     0.034 A 
ATOM     45  C   UNL A   1      42.457  31.513  31.179  1.00  0.00     0.034 A 
ATOM     46  C   UNL A   1      43.609  25.602  28.759  1.00  0.00     0.049 A 
ATOM     47  C   UNL A   1      43.234  30.456  31.911  1.00  0.00     0.074 A 
ATOM     48  C   UNL A   1      44.577  26.427  28.215  1.00  0.00     0.029 A 
ATOM     49  N   UNL A   1      43.571  25.896  30.118  1.00  0.00    -0.354 N 
ATOM     50  N   UNL A   1      43.334  29.228  31.471  1.00  0.00    -0.248 NA
ATOM     51  C   UNL A   1      44.056  30.690  33.087  1.00  0.00     0.031 C 
ATOM     52  C   UNL A   1      45.092  27.244  29.269  1.00  0.00     0.029 A 
ATOM     53  C   UNL A   1      44.463  26.889  30.453  1.00  0.00     0.049 A 
ATOM     54  H   UNL A   1      42.977  25.447  30.764  1.00  0.00     0.167 HD
ATOM     55  C   UNL A   1      44.268  28.545  32.190  1.00  0.00     0.074 A 
ATOM     56  C   UNL A   1      44.666  29.496  33.218  1.00  0.00     0.031 C 
ATOM     57  C   UNL A   1      44.636  27.270  31.853  1.00  0.00     0.034 A 
BRANCH  44  58
ATOM     58  C   UNL A   1      42.799  23.516  27.401  1.00  0.00     0.023 A 
ATOM     59  C   UNL A   1      43.774  23.583  26.385  1.00  0.00     0.031 A 
ATOM     60  C   UNL A   1      42.155  22.266  27.520  1.00  0.00     0.131 A 
ATOM     61  C   UNL A   1      44.053  22.488  25.549  1.00  0.00     0.055 A 
ATOM     62  C   UNL A   1      42.432  21.173  26.689  1.00  0.00     0.041 A 
ATOM     63  F   UNL A   1      41.228  22.011  28.446  1.00  0.00    -0.206 F 
ATOM     64  C   UNL A   1      43.384  21.278  25.693  1.00  0.00     0.022 A 
BRANCH  61  65
ATOM     65  S   UNL A   1      45.309  22.673  24.258  1.00  0.00     0.124 S 
ATOM     66  O   UNL A   1      44.617  22.158  23.081  1.00  0.00    -0.237 OA
ATOM     67  O   UNL A   1      45.571  24.106  24.282  1.00  0.00    -0.237 OA
ATOM     68  O   UNL A   1      46.411  21.838  24.738  1.00  0.00    -0.744 OA
ENDBRANCH  61  65
ENDBRANCH  44  58
BRANCH  45  69
ATOM     69  C   UNL A   1      41.326  32.410  31.598  1.00  0.00     0.023 A 
ATOM     70  C   UNL A   1      40.302  31.782  32.360  1.00  0.00     0.031 A 
ATOM     71  C   UNL A   1      41.530  33.783  31.812  1.00  0.00     0.131 A 
ATOM     72  C   UNL A   1      39.686  32.458  33.431  1.00  0.00     0.055 A 
ATOM     73  C   UNL A   1      40.870  34.464  32.852  1.00  0.00     0.041 A 
ATOM     74  F   UNL A   1      42.498  34.439  31.157  1.00  0.00    -0.206 F 
ATOM     75  C   UNL A   1      39.995  33.789  33.704  1.00  0.00     0.022 A 
BRANCH  72  76
ATOM     76  S   UNL A   1      38.702  31.501  34.634  1.00  0.00     0.124 S 
ATOM     77  O   UNL A   1      39.086  30.130  34.320  1.00  0.00    -0.237 OA
ATOM     78  O   UNL A   1      39.176  32.017  35.917  1.00  0.00    -0.237 OA
ATOM     79  O   UNL A   1      37.322  31.862  34.315  1.00  0.00    -0.744 OA
ENDBRANCH  72  76
ENDBRANCH  45  69
BRANCH  57  80
ATOM     80  C   UNL A   1      45.228  26.261  32.812  1.00  0.00     0.023 A 
ATOM     81  C   UNL A   1      44.469  25.247  33.397  1.00  0.00     0.031 A 
ATOM     82  C   UNL A   1      46.621  26.204  33.086  1.00  0.00     0.131 A 
ATOM     83  C   UNL A   1      45.044  24.295  34.250  1.00  0.00     0.055 A 
ATOM     84  C   UNL A   1      47.209  25.202  33.860  1.00  0.00     0.041 A 
ATOM     85  F   UNL A   1      47.490  27.095  32.595  1.00  0.00    -0.206 F 
ATOM     86  C   UNL A   1      46.416  24.244  34.466  1.00  0.00     0.022 A 
BRANCH  83  87
ATOM     87  S   UNL A   1      43.920  23.175  35.112  1.00  0.00     0.124 S 
ATOM     88  O   UNL A   1      43.288  22.470  33.998  1.00  0.00    -0.237 OA
ATOM     89  O   UNL A   1      44.835  22.378  35.922  1.00  0.00    -0.237 OA
ATOM     90  O   UNL A   1      43.043  24.074  35.858  1.00  0.00    -0.744 OA
ENDBRANCH  83  87
ENDBRANCH  57  80
ENDBRANCH  31  32
ENDBRANCH  24  26
ENDBRANCH  23  24
ENDBRANCH  22  23
ENDBRANCH   1  22
TORSDOF 20
ENDMDL
MODEL 3
REMARK VINA RESULT:     -10.8      4.091      9.575
REMARK SMILES Cc1ccc([C@H](CC2CCCC2)C(=O)OCCOCCOC(=O)c2ccc(-c3c4nc(c(-c5cc(S(=O)(=O)[O-])ccc5F)c5ccc([nH]5)c(-c5cc(S(=O)(=O)[O-])ccc5F)c5nc(c(-c6cc(S(=O)(=O)[O-])ccc6F)c6ccc3[nH]6)C=C5)C=C4)cc2)cc1
REMARK SMILES IDX 19 1 18 2 17 3 16 4 15 5 13 6 14 7 6 8 5 9 1 10 2 11 3 12
REMARK SMILES IDX 88 13 4 14 87 15 7 16 8 17 9 18 12 19 10 20 11 21 20 22
REMARK SMILES IDX 21 23 22 24 23 25 24 26 25 27 86 28 26 29 85 30 27 31 28 32
REMARK SMILES IDX 29 33 79 34 30 35 84 36 78 37 80 38 31 39 83 40 77 41 76 42
REMARK SMILES IDX 32 44 64 45 44 46 63 47 45 48 48 49 62 50 81 51 46 52 47 53
REMARK SMILES IDX 61 55 82 56 49 57 33 58 34 59 42 60 35 61 41 62 43 63 40 64
REMARK SMILES IDX 36 65 37 66 38 67 39 68 65 69 66 70 74 71 67 72 73 73 75 74
REMARK SMILES IDX 72 75 68 76 69 77 70 78 71 79 50 80 51 81 59 82 52 83 58 84
REMARK SMILES IDX 60 85 57 86 53 87 54 88 55 89 56 90
REMARK H PARENT 80 43 48 54
REMARK Flexibility Score: inf
ROOT
ATOM      1  C   UNL A   1      38.860  21.497  25.886  1.00  0.00     0.202 C 
ENDROOT
BRANCH   1   2
ATOM      2  O   UNL A   1      38.109  22.389  25.111  1.00  0.00    -0.374 OA
BRANCH   2   3
ATOM      3  C   UNL A   1      37.077  21.807  24.333  1.00  0.00     0.202 C 
BRANCH   3   4
ATOM      4  C   UNL A   1      36.238  21.072  25.319  1.00  0.00     0.261 C 
BRANCH   4   5
ATOM      5  O   UNL A   1      35.269  21.919  25.893  1.00  0.00    -0.463 OA
BRANCH   5   6
ATOM      6  C   UNL A   1      33.982  21.505  26.060  1.00  0.00     0.313 C 
ATOM      7  O   UNL A   1      33.297  21.572  27.057  1.00  0.00    -0.252 OA
BRANCH   6   8
ATOM      8  C   UNL A   1      33.534  20.964  24.706  1.00  0.00     0.129 C 
BRANCH   8   9
ATOM      9  C   UNL A   1      32.945  22.130  23.897  1.00  0.00    -0.034 A 
ATOM     10  C   UNL A   1      31.507  25.860  22.229  1.00  0.00     0.044 C 
ATOM     11  C   UNL A   1      31.999  24.556  22.781  1.00  0.00    -0.051 A 
ATOM     12  C   UNL A   1      33.294  24.100  22.509  1.00  0.00     0.004 A 
ATOM     13  C   UNL A   1      31.159  23.763  23.562  1.00  0.00     0.004 A 
ATOM     14  C   UNL A   1      33.769  22.909  23.074  1.00  0.00     0.005 A 
ATOM     15  C   UNL A   1      31.618  22.556  24.092  1.00  0.00     0.005 A 
ENDBRANCH   8   9
BRANCH   8  16
ATOM     16  C   UNL A   1      32.542  19.787  24.955  1.00  0.00     0.023 C 
BRANCH  16  17
ATOM     17  C   UNL A   1      32.948  18.428  24.337  1.00  0.00    -0.010 C 
ATOM     18  C   UNL A   1      34.450  18.136  24.262  1.00  0.00     0.003 C 
ATOM     19  C   UNL A   1      32.465  17.291  25.232  1.00  0.00     0.003 C 
ATOM     20  C   UNL A   1      34.625  16.623  24.363  1.00  0.00     0.000 C 
ATOM     21  C   UNL A   1      33.287  16.079  24.829  1.00  0.00     0.000 C 
ENDBRANCH  16  17
ENDBRANCH   8  16
ENDBRANCH   6   8
ENDBRANCH   5   6
ENDBRANCH   4   5
ENDBRANCH   3   4
ENDBRANCH   2   3
ENDBRANCH   1   2
BRANCH   1  22
ATOM     22  C   UNL A   1      40.060  22.138  26.570  1.00  0.00     0.261 C 
BRANCH  22  23
ATOM     23  O   UNL A   1      41.040  21.129  26.890  1.00  0.00    -0.460 OA
BRANCH  23  24
ATOM     24  C   UNL A   1      42.258  21.313  26.304  1.00  0.00     0.338 C 
ATOM     25  O   UNL A   1      42.679  20.640  25.377  1.00  0.00    -0.246 OA
BRANCH  24  26
ATOM     26  C   UNL A   1      43.060  22.334  27.042  1.00  0.00     0.060 A 
ATOM     27  C   UNL A   1      43.062  22.348  28.448  1.00  0.00     0.016 A 
ATOM     28  C   UNL A   1      43.499  23.452  26.345  1.00  0.00     0.016 A 
ATOM     29  C   UNL A   1      43.303  23.547  29.141  1.00  0.00     0.010 A 
ATOM     30  C   UNL A   1      43.537  24.652  27.022  1.00  0.00     0.010 A 
ATOM     31  C   UNL A   1      43.427  24.726  28.420  1.00  0.00    -0.014 A 
BRANCH  31  32
ATOM     32  C   UNL A   1      43.438  26.098  28.950  1.00  0.00     0.031 A 
ATOM     33  C   UNL A   1      42.135  26.810  28.981  1.00  0.00     0.074 A 
ATOM     34  C   UNL A   1      44.501  26.647  29.598  1.00  0.00     0.049 A 
ATOM     35  N   UNL A   1      42.019  28.052  29.269  1.00  0.00    -0.248 NA
ATOM     36  C   UNL A   1      40.841  26.204  28.666  1.00  0.00     0.031 C 
ATOM     37  C   UNL A   1      44.516  27.780  30.530  1.00  0.00     0.029 A 
ATOM     38  N   UNL A   1      45.857  26.318  29.515  1.00  0.00    -0.354 N 
ATOM     39  C   UNL A   1      40.694  28.340  29.474  1.00  0.00     0.074 A 
ATOM     40  C   UNL A   1      39.993  27.172  29.019  1.00  0.00     0.031 C 
ATOM     41  C   UNL A   1      45.771  28.245  30.658  1.00  0.00     0.029 A 
ATOM     42  C   UNL A   1      46.601  27.486  29.745  1.00  0.00     0.049 A 
ATOM     43  H   UNL A   1      46.226  25.425  29.328  1.00  0.00     0.167 HD
ATOM     44  C   UNL A   1      40.398  29.516  30.089  1.00  0.00     0.034 A 
ATOM     45  C   UNL A   1      47.485  27.930  28.816  1.00  0.00     0.034 A 
ATOM     46  C   UNL A   1      41.623  30.314  30.257  1.00  0.00     0.049 A 
ATOM     47  C   UNL A   1      46.984  29.255  28.313  1.00  0.00     0.074 A 
ATOM     48  C   UNL A   1      42.436  30.638  31.329  1.00  0.00     0.029 A 
ATOM     49  N   UNL A   1      42.343  30.648  29.114  1.00  0.00    -0.354 N 
ATOM     50  N   UNL A   1      45.751  29.653  28.495  1.00  0.00    -0.248 NA
ATOM     51  C   UNL A   1      47.812  30.282  27.703  1.00  0.00     0.031 C 
ATOM     52  C   UNL A   1      43.668  31.137  30.805  1.00  0.00     0.029 A 
ATOM     53  C   UNL A   1      43.587  31.150  29.420  1.00  0.00     0.049 A 
ATOM     54  H   UNL A   1      42.003  30.538  28.196  1.00  0.00     0.167 HD
ATOM     55  C   UNL A   1      45.624  30.964  28.151  1.00  0.00     0.074 A 
ATOM     56  C   UNL A   1      46.938  31.305  27.623  1.00  0.00     0.031 C 
ATOM     57  C   UNL A   1      44.455  31.646  28.353  1.00  0.00     0.034 A 
BRANCH  44  58
ATOM     58  C   UNL A   1      39.064  29.938  30.660  1.00  0.00     0.023 A 
ATOM     59  C   UNL A   1      38.563  31.205  30.296  1.00  0.00     0.031 A 
ATOM     60  C   UNL A   1      38.252  29.218  31.561  1.00  0.00     0.131 A 
ATOM     61  C   UNL A   1      37.358  31.706  30.820  1.00  0.00     0.055 A 
ATOM     62  C   UNL A   1      37.050  29.714  32.083  1.00  0.00     0.041 A 
ATOM     63  F   UNL A   1      38.552  27.991  31.990  1.00  0.00    -0.206 F 
ATOM     64  C   UNL A   1      36.596  30.967  31.716  1.00  0.00     0.022 A 
BRANCH  61  65
ATOM     65  S   UNL A   1      36.803  33.352  30.310  1.00  0.00     0.124 S 
ATOM     66  O   UNL A   1      35.365  33.279  30.550  1.00  0.00    -0.237 OA
ATOM     67  O   UNL A   1      37.565  34.225  31.194  1.00  0.00    -0.237 OA
ATOM     68  O   UNL A   1      37.188  33.416  28.900  1.00  0.00    -0.744 OA
ENDBRANCH  61  65
ENDBRANCH  44  58
BRANCH  45  69
ATOM     69  C   UNL A   1      48.143  26.769  28.124  1.00  0.00     0.023 A 
ATOM     70  C   UNL A   1      47.877  26.662  26.730  1.00  0.00     0.031 A 
ATOM     71  C   UNL A   1      49.362  26.247  28.583  1.00  0.00     0.131 A 
ATOM     72  C   UNL A   1      48.887  26.258  25.835  1.00  0.00     0.055 A 
ATOM     73  C   UNL A   1      50.346  25.796  27.684  1.00  0.00     0.041 A 
ATOM     74  F   UNL A   1      49.700  26.339  29.877  1.00  0.00    -0.206 F 
ATOM     75  C   UNL A   1      50.137  25.860  26.306  1.00  0.00     0.022 A 
BRANCH  72  76
ATOM     76  S   UNL A   1      48.649  26.535  24.048  1.00  0.00     0.124 S 
ATOM     77  O   UNL A   1      47.938  25.329  23.643  1.00  0.00    -0.237 OA
ATOM     78  O   UNL A   1      47.874  27.774  24.016  1.00  0.00    -0.237 OA
ATOM     79  O   UNL A   1      50.012  26.669  23.536  1.00  0.00    -0.744 OA
ENDBRANCH  72  76
ENDBRANCH  45  69
BRANCH  57  80
ATOM     80  C   UNL A   1      44.026  32.874  27.580  1.00  0.00     0.023 A 
ATOM     81  C   UNL A   1      43.703  34.079  28.206  1.00  0.00     0.031 A 
ATOM     82  C   UNL A   1      44.041  32.918  26.161  1.00  0.00     0.131 A 
ATOM     83  C   UNL A   1      43.349  35.218  27.470  1.00  0.00     0.055 A 
ATOM     84  C   UNL A   1      43.780  34.077  25.427  1.00  0.00     0.041 A 
ATOM     85  F   UNL A   1      44.339  31.851  25.409  1.00  0.00    -0.206 F 
ATOM     86  C   UNL A   1      43.412  35.238  26.082  1.00  0.00     0.022 A 
BRANCH  83  87
ATOM     87  S   UNL A   1      42.743  36.643  28.399  1.00  0.00     0.124 S 
ATOM     88  O   UNL A   1      41.301  36.404  28.404  1.00  0.00    -0.237 OA
ATOM     89  O   UNL A   1      43.411  36.483  29.686  1.00  0.00    -0.237 OA
ATOM     90  O   UNL A   1      43.183  37.785  27.603  1.00  0.00    -0.744 OA
ENDBRANCH  83  87
ENDBRANCH  57  80
ENDBRANCH  31  32
ENDBRANCH  24  26
ENDBRANCH  23  24
ENDBRANCH  22  23
ENDBRANCH   1  22
TORSDOF 20
ENDMDL
