MODEL 1
REMARK VINA RESULT:     -10.2      0.000      0.000
REMARK SMILES O=C(OCCOCCOC(=O)[C@@H]([NH2+]CC1CC1)c1cccc(C2CC2)c1)c1ccc(-c2c3nc(c(-c4cc(S(=O)(=O)[O-])ccc4F)c4ccc([nH]4)c(-c4cc(S(=O)(=O)[O-])ccc4F)c4nc(c(-c5cc(S(=O)(=O)[O-])ccc5F)c5ccc2[nH]5)C=C4)C=C3)cc1
REMARK SMILES IDX 6 1 5 2 4 3 3 4 2 5 1 6 27 7 28 8 89 9 29 10 88 11 30 12
REMARK SMILES IDX 31 13 32 14 82 15 33 16 87 17 81 18 83 19 34 20 86 21 80 22
REMARK SMILES IDX 79 23 35 25 67 26 47 27 66 28 48 29 51 30 65 31 84 32 49 33
REMARK SMILES IDX 50 34 64 36 85 37 52 38 36 39 37 40 45 41 38 42 44 43 46 44
REMARK SMILES IDX 43 45 39 46 40 47 41 48 42 49 68 50 69 51 77 52 70 53 76 54
REMARK SMILES IDX 78 55 75 56 71 57 72 58 73 59 74 60 53 61 54 62 62 63 55 64
REMARK SMILES IDX 61 65 63 66 60 67 56 68 57 69 58 70 59 71 7 72 8 73 9 74
REMARK SMILES IDX 10 75 11 76 12 77 13 78 14 81 15 82 16 83 17 84 18 85 19 86
REMARK SMILES IDX 26 87 20 88 22 89 21 90 23 91 24 92 25 93
REMARK H PARENT 83 24 51 35 13 79 13 80
REMARK Flexibility Score: inf
ROOT
ATOM      1  O   UNL A   1      34.428  21.397  26.603  1.00  0.00    -0.374 OA
ENDROOT
BRANCH   1   2
ATOM      2  C   UNL A   1      35.526  21.864  25.817  1.00  0.00     0.202 C 
BRANCH   2   3
ATOM      3  C   UNL A   1      36.492  20.818  25.225  1.00  0.00     0.261 C 
BRANCH   3   4
ATOM      4  O   UNL A   1      37.817  21.353  25.027  1.00  0.00    -0.460 OA
BRANCH   4   5
ATOM      5  C   UNL A   1      38.904  21.217  25.834  1.00  0.00     0.338 C 
ATOM      6  O   UNL A   1      39.310  20.088  26.102  1.00  0.00    -0.246 OA
BRANCH   5   7
ATOM      7  C   UNL A   1      39.598  22.388  26.446  1.00  0.00     0.060 A 
ATOM      8  C   UNL A   1      39.248  23.698  26.162  1.00  0.00     0.016 A 
ATOM      9  C   UNL A   1      40.612  22.185  27.395  1.00  0.00     0.016 A 
ATOM     10  C   UNL A   1      39.856  24.776  26.731  1.00  0.00     0.010 A 
ATOM     11  C   UNL A   1      41.234  23.281  28.017  1.00  0.00     0.010 A 
ATOM     12  C   UNL A   1      40.839  24.581  27.679  1.00  0.00    -0.014 A 
BRANCH  12  13
ATOM     13  C   UNL A   1      41.482  25.831  28.084  1.00  0.00     0.031 A 
ATOM     14  C   UNL A   1      42.835  26.111  27.515  1.00  0.00     0.074 A 
ATOM     15  C   UNL A   1      40.700  26.800  28.602  1.00  0.00     0.049 A 
ATOM     16  N   UNL A   1      43.583  27.167  27.647  1.00  0.00    -0.248 NA
ATOM     17  C   UNL A   1      43.405  25.069  26.638  1.00  0.00     0.031 C 
ATOM     18  C   UNL A   1      39.268  26.650  28.914  1.00  0.00     0.029 A 
ATOM     19  N   UNL A   1      40.953  28.115  28.867  1.00  0.00    -0.354 N 
ATOM     20  C   UNL A   1      44.724  26.909  26.900  1.00  0.00     0.074 A 
ATOM     21  C   UNL A   1      44.572  25.597  26.313  1.00  0.00     0.031 C 
ATOM     22  C   UNL A   1      38.774  27.834  29.302  1.00  0.00     0.029 A 
ATOM     23  C   UNL A   1      39.866  28.793  29.372  1.00  0.00     0.049 A 
ATOM     24  H   UNL A   1      41.828  28.538  28.713  1.00  0.00     0.167 HD
ATOM     25  C   UNL A   1      45.801  27.710  26.743  1.00  0.00     0.034 A 
ATOM     26  C   UNL A   1      39.797  30.033  29.891  1.00  0.00     0.034 A 
ATOM     27  C   UNL A   1      45.889  28.998  27.376  1.00  0.00     0.049 A 
ATOM     28  C   UNL A   1      41.074  30.834  29.869  1.00  0.00     0.074 A 
ATOM     29  C   UNL A   1      46.967  29.855  27.467  1.00  0.00     0.029 A 
ATOM     30  N   UNL A   1      44.828  29.615  28.037  1.00  0.00    -0.354 N 
ATOM     31  N   UNL A   1      42.231  30.523  29.321  1.00  0.00    -0.248 NA
ATOM     32  C   UNL A   1      41.051  32.134  30.540  1.00  0.00     0.031 C 
ATOM     33  C   UNL A   1      46.575  30.959  28.235  1.00  0.00     0.029 A 
ATOM     34  C   UNL A   1      45.230  30.832  28.554  1.00  0.00     0.049 A 
ATOM     35  H   UNL A   1      43.923  29.238  28.122  1.00  0.00     0.167 HD
ATOM     36  C   UNL A   1      43.072  31.598  29.573  1.00  0.00     0.074 A 
ATOM     37  C   UNL A   1      42.273  32.580  30.284  1.00  0.00     0.031 C 
ATOM     38  C   UNL A   1      44.385  31.766  29.264  1.00  0.00     0.034 A 
BRANCH  25  39
ATOM     39  C   UNL A   1      46.968  27.130  25.987  1.00  0.00     0.023 A 
ATOM     40  C   UNL A   1      48.028  26.476  26.641  1.00  0.00     0.031 A 
ATOM     41  C   UNL A   1      47.084  27.355  24.605  1.00  0.00     0.131 A 
ATOM     42  C   UNL A   1      49.190  26.141  25.924  1.00  0.00     0.055 A 
ATOM     43  C   UNL A   1      48.207  26.947  23.884  1.00  0.00     0.041 A 
ATOM     44  F   UNL A   1      46.125  28.016  23.938  1.00  0.00    -0.206 F 
ATOM     45  C   UNL A   1      49.276  26.349  24.545  1.00  0.00     0.022 A 
BRANCH  42  46
ATOM     46  S   UNL A   1      50.650  25.581  26.844  1.00  0.00     0.124 S 
ATOM     47  O   UNL A   1      51.564  25.227  25.760  1.00  0.00    -0.237 OA
ATOM     48  O   UNL A   1      51.010  26.763  27.620  1.00  0.00    -0.237 OA
ATOM     49  O   UNL A   1      50.153  24.451  27.625  1.00  0.00    -0.744 OA
ENDBRANCH  42  46
ENDBRANCH  25  39
BRANCH  26  50
ATOM     50  C   UNL A   1      38.564  30.521  30.581  1.00  0.00     0.023 A 
ATOM     51  C   UNL A   1      37.553  31.212  29.895  1.00  0.00     0.031 A 
ATOM     52  C   UNL A   1      38.421  30.382  31.978  1.00  0.00     0.131 A 
ATOM     53  C   UNL A   1      36.485  31.787  30.609  1.00  0.00     0.055 A 
ATOM     54  C   UNL A   1      37.324  30.894  32.672  1.00  0.00     0.041 A 
ATOM     55  F   UNL A   1      39.359  29.749  32.701  1.00  0.00    -0.206 F 
ATOM     56  C   UNL A   1      36.357  31.620  31.990  1.00  0.00     0.022 A 
BRANCH  53  57
ATOM     57  S   UNL A   1      35.335  32.879  29.727  1.00  0.00     0.124 S 
ATOM     58  O   UNL A   1      36.120  34.102  29.605  1.00  0.00    -0.237 OA
ATOM     59  O   UNL A   1      35.104  32.139  28.491  1.00  0.00    -0.237 OA
ATOM     60  O   UNL A   1      34.187  32.962  30.627  1.00  0.00    -0.744 OA
ENDBRANCH  53  57
ENDBRANCH  26  50
BRANCH  38  61
ATOM     61  C   UNL A   1      44.996  33.079  29.673  1.00  0.00     0.023 A 
ATOM     62  C   UNL A   1      45.621  33.238  30.920  1.00  0.00     0.031 A 
ATOM     63  C   UNL A   1      44.927  34.187  28.811  1.00  0.00     0.131 A 
ATOM     64  C   UNL A   1      46.086  34.501  31.305  1.00  0.00     0.055 A 
ATOM     65  C   UNL A   1      45.462  35.422  29.168  1.00  0.00     0.041 A 
ATOM     66  F   UNL A   1      44.338  34.084  27.609  1.00  0.00    -0.206 F 
ATOM     67  C   UNL A   1      46.030  35.590  30.430  1.00  0.00     0.022 A 
BRANCH  64  68
ATOM     68  S   UNL A   1      46.648  34.729  33.012  1.00  0.00     0.124 S 
ATOM     69  O   UNL A   1      45.446  34.404  33.772  1.00  0.00    -0.237 OA
ATOM     70  O   UNL A   1      47.742  33.768  33.109  1.00  0.00    -0.237 OA
ATOM     71  O   UNL A   1      47.052  36.133  33.054  1.00  0.00    -0.744 OA
ENDBRANCH  64  68
ENDBRANCH  38  61
ENDBRANCH  12  13
ENDBRANCH   5   7
ENDBRANCH   4   5
ENDBRANCH   3   4
ENDBRANCH   2   3
ENDBRANCH   1   2
BRANCH   1  72
ATOM     72  C   UNL A   1      33.814  22.352  27.469  1.00  0.00     0.202 C 
BRANCH  72  73
ATOM     73  C   UNL A   1      32.393  22.623  27.016  1.00  0.00     0.261 C 
BRANCH  73  74
ATOM     74  O   UNL A   1      32.400  23.888  26.343  1.00  0.00    -0.459 OA
BRANCH  74  75
ATOM     75  C   UNL A   1      31.279  24.222  25.638  1.00  0.00     0.369 C 
ATOM     76  O   UNL A   1      30.651  23.457  24.911  1.00  0.00    -0.245 OA
BRANCH  75  77
ATOM     77  C   UNL A   1      30.918  25.726  25.818  1.00  0.00     0.324 C 
BRANCH  77  78
ATOM     78  N   UNL A   1      31.863  26.427  26.718  1.00  0.00    -0.330 N 
ATOM     79  H   UNL A   1      32.733  26.583  26.209  1.00  0.00     0.347 HD
ATOM     80  H   UNL A   1      31.985  25.832  27.537  1.00  0.00     0.347 HD
BRANCH  78  81
ATOM     81  C   UNL A   1      31.379  27.713  27.201  1.00  0.00     0.264 C 
BRANCH  81  82
ATOM     82  C   UNL A   1      32.349  28.838  26.944  1.00  0.00     0.044 C 
ATOM     83  C   UNL A   1      32.467  29.479  25.583  1.00  0.00     0.010 C 
ATOM     84  C   UNL A   1      31.782  30.213  26.696  1.00  0.00     0.010 C 
ENDBRANCH  81  82
ENDBRANCH  78  81
ENDBRANCH  77  78
BRANCH  77  85
ATOM     85  C   UNL A   1      30.818  26.360  24.447  1.00  0.00     0.021 A 
ATOM     86  C   UNL A   1      31.917  26.366  23.592  1.00  0.00     0.010 A 
ATOM     87  C   UNL A   1      29.701  27.150  24.135  1.00  0.00     0.014 A 
ATOM     88  C   UNL A   1      31.939  27.253  22.523  1.00  0.00     0.001 A 
ATOM     89  C   UNL A   1      29.782  28.187  23.209  1.00  0.00    -0.044 A 
ATOM     90  C   UNL A   1      30.907  28.188  22.371  1.00  0.00     0.004 A 
BRANCH  89  91
ATOM     91  C   UNL A   1      28.800  29.343  23.226  1.00  0.00     0.019 C 
ATOM     92  C   UNL A   1      28.029  29.815  22.009  1.00  0.00     0.009 C 
ATOM     93  C   UNL A   1      27.337  28.969  23.029  1.00  0.00     0.009 C 
ENDBRANCH  89  91
ENDBRANCH  77  85
ENDBRANCH  75  77
ENDBRANCH  74  75
ENDBRANCH  73  74
ENDBRANCH  72  73
ENDBRANCH   1  72
TORSDOF 22
ENDMDL
MODEL 2
REMARK VINA RESULT:      -9.8      1.537      8.015
REMARK SMILES O=C(OCCOCCOC(=O)[C@@H]([NH2+]CC1CC1)c1cccc(C2CC2)c1)c1ccc(-c2c3nc(c(-c4cc(S(=O)(=O)[O-])ccc4F)c4ccc([nH]4)c(-c4cc(S(=O)(=O)[O-])ccc4F)c4nc(c(-c5cc(S(=O)(=O)[O-])ccc5F)c5ccc2[nH]5)C=C4)C=C3)cc1
REMARK SMILES IDX 6 1 5 2 4 3 3 4 2 5 1 6 27 7 28 8 89 9 29 10 88 11 30 12
REMARK SMILES IDX 31 13 32 14 82 15 33 16 87 17 81 18 83 19 34 20 86 21 80 22
REMARK SMILES IDX 79 23 35 25 67 26 47 27 66 28 48 29 51 30 65 31 84 32 49 33
REMARK SMILES IDX 50 34 64 36 85 37 52 38 36 39 37 40 45 41 38 42 44 43 46 44
REMARK SMILES IDX 43 45 39 46 40 47 41 48 42 49 68 50 69 51 77 52 70 53 76 54
REMARK SMILES IDX 78 55 75 56 71 57 72 58 73 59 74 60 53 61 54 62 62 63 55 64
REMARK SMILES IDX 61 65 63 66 60 67 56 68 57 69 58 70 59 71 7 72 8 73 9 74
REMARK SMILES IDX 10 75 11 76 12 77 13 78 14 81 15 82 16 83 17 84 18 85 19 86
REMARK SMILES IDX 26 87 20 88 22 89 21 90 23 91 24 92 25 93
REMARK H PARENT 83 24 51 35 13 79 13 80
REMARK Flexibility Score: inf
ROOT
ATOM      1  O   UNL A   1      34.000  21.053  26.257  1.00  0.00    -0.374 OA
ENDROOT
BRANCH   1   2
ATOM      2  C   UNL A   1      35.120  21.568  25.534  1.00  0.00     0.202 C 
BRANCH   2   3
ATOM      3  C   UNL A   1      36.236  20.585  25.128  1.00  0.00     0.261 C 
BRANCH   3   4
ATOM      4  O   UNL A   1      37.513  21.241  24.987  1.00  0.00    -0.460 OA
BRANCH   4   5
ATOM      5  C   UNL A   1      38.576  21.194  25.834  1.00  0.00     0.338 C 
ATOM      6  O   UNL A   1      38.935  20.107  26.282  1.00  0.00    -0.246 OA
BRANCH   5   7
ATOM      7  C   UNL A   1      39.301  22.421  26.278  1.00  0.00     0.060 A 
ATOM      8  C   UNL A   1      38.993  23.686  25.803  1.00  0.00     0.016 A 
ATOM      9  C   UNL A   1      40.299  22.330  27.261  1.00  0.00     0.016 A 
ATOM     10  C   UNL A   1      39.628  24.818  26.217  1.00  0.00     0.010 A 
ATOM     11  C   UNL A   1      40.948  23.487  27.725  1.00  0.00     0.010 A 
ATOM     12  C   UNL A   1      40.596  24.734  27.196  1.00  0.00    -0.014 A 
BRANCH  12  13
ATOM     13  C   UNL A   1      41.273  26.011  27.424  1.00  0.00     0.031 A 
ATOM     14  C   UNL A   1      40.609  26.971  28.356  1.00  0.00     0.074 A 
ATOM     15  C   UNL A   1      42.583  26.092  27.112  1.00  0.00     0.049 A 
ATOM     16  N   UNL A   1      41.027  28.125  28.787  1.00  0.00    -0.248 NA
ATOM     17  C   UNL A   1      39.311  26.549  28.917  1.00  0.00     0.031 C 
ATOM     18  C   UNL A   1      43.355  25.034  26.439  1.00  0.00     0.029 A 
ATOM     19  N   UNL A   1      43.518  27.044  27.397  1.00  0.00    -0.354 N 
ATOM     20  C   UNL A   1      40.034  28.584  29.641  1.00  0.00     0.074 A 
ATOM     21  C   UNL A   1      38.991  27.585  29.673  1.00  0.00     0.031 C 
ATOM     22  C   UNL A   1      44.646  25.392  26.390  1.00  0.00     0.029 A 
ATOM     23  C   UNL A   1      44.774  26.739  26.923  1.00  0.00     0.049 A 
ATOM     24  H   UNL A   1      43.315  27.870  27.893  1.00  0.00     0.167 HD
ATOM     25  C   UNL A   1      40.011  29.752  30.321  1.00  0.00     0.034 A 
ATOM     26  C   UNL A   1      45.879  27.506  26.876  1.00  0.00     0.034 A 
ATOM     27  C   UNL A   1      41.080  30.709  30.224  1.00  0.00     0.049 A 
ATOM     28  C   UNL A   1      45.760  28.882  27.480  1.00  0.00     0.074 A 
ATOM     29  C   UNL A   1      41.139  32.004  30.699  1.00  0.00     0.029 A 
ATOM     30  N   UNL A   1      42.297  30.456  29.594  1.00  0.00    -0.354 N 
ATOM     31  N   UNL A   1      44.746  29.406  28.140  1.00  0.00    -0.248 NA
ATOM     32  C   UNL A   1      46.910  29.774  27.328  1.00  0.00     0.031 C 
ATOM     33  C   UNL A   1      42.366  32.552  30.303  1.00  0.00     0.029 A 
ATOM     34  C   UNL A   1      43.107  31.575  29.651  1.00  0.00     0.049 A 
ATOM     35  H   UNL A   1      42.544  29.603  29.170  1.00  0.00     0.167 HD
ATOM     36  C   UNL A   1      45.144  30.689  28.491  1.00  0.00     0.074 A 
ATOM     37  C   UNL A   1      46.505  30.839  28.005  1.00  0.00     0.031 C 
ATOM     38  C   UNL A   1      44.456  31.665  29.139  1.00  0.00     0.034 A 
BRANCH  25  39
ATOM     39  C   UNL A   1      38.746  30.069  31.075  1.00  0.00     0.023 A 
ATOM     40  C   UNL A   1      37.710  30.832  30.507  1.00  0.00     0.031 A 
ATOM     41  C   UNL A   1      38.635  29.712  32.430  1.00  0.00     0.131 A 
ATOM     42  C   UNL A   1      36.649  31.279  31.313  1.00  0.00     0.055 A 
ATOM     43  C   UNL A   1      37.538  30.092  33.204  1.00  0.00     0.041 A 
ATOM     44  F   UNL A   1      39.615  29.024  33.038  1.00  0.00    -0.206 F 
ATOM     45  C   UNL A   1      36.544  30.893  32.651  1.00  0.00     0.022 A 
BRANCH  42  46
ATOM     46  S   UNL A   1      35.497  32.507  30.634  1.00  0.00     0.124 S 
ATOM     47  O   UNL A   1      35.210  31.944  29.316  1.00  0.00    -0.237 OA
ATOM     48  O   UNL A   1      34.398  32.476  31.594  1.00  0.00    -0.237 OA
ATOM     49  O   UNL A   1      36.279  33.741  30.621  1.00  0.00    -0.744 OA
ENDBRANCH  42  46
ENDBRANCH  25  39
BRANCH  26  50
ATOM     50  C   UNL A   1      47.101  27.067  26.133  1.00  0.00     0.023 A 
ATOM     51  C   UNL A   1      48.148  26.380  26.765  1.00  0.00     0.031 A 
ATOM     52  C   UNL A   1      47.281  27.418  24.778  1.00  0.00     0.131 A 
ATOM     53  C   UNL A   1      49.343  26.123  26.067  1.00  0.00     0.055 A 
ATOM     54  C   UNL A   1      48.439  27.098  24.070  1.00  0.00     0.041 A 
ATOM     55  F   UNL A   1      46.327  28.093  24.115  1.00  0.00    -0.206 F 
ATOM     56  C   UNL A   1      49.489  26.464  24.721  1.00  0.00     0.022 A 
BRANCH  53  57
ATOM     57  S   UNL A   1      50.761  25.457  26.984  1.00  0.00     0.124 S 
ATOM     58  O   UNL A   1      51.666  25.085  25.902  1.00  0.00    -0.237 OA
ATOM     59  O   UNL A   1      51.164  26.603  27.792  1.00  0.00    -0.237 OA
ATOM     60  O   UNL A   1      50.189  24.339  27.730  1.00  0.00    -0.744 OA
ENDBRANCH  53  57
ENDBRANCH  26  50
BRANCH  38  61
ATOM     61  C   UNL A   1      45.202  32.950  29.378  1.00  0.00     0.023 A 
ATOM     62  C   UNL A   1      45.312  33.928  28.377  1.00  0.00     0.031 A 
ATOM     63  C   UNL A   1      45.827  33.183  30.615  1.00  0.00     0.131 A 
ATOM     64  C   UNL A   1      46.100  35.063  28.603  1.00  0.00     0.055 A 
ATOM     65  C   UNL A   1      46.545  34.351  30.860  1.00  0.00     0.041 A 
ATOM     66  F   UNL A   1      45.751  32.276  31.601  1.00  0.00    -0.206 F 
ATOM     67  C   UNL A   1      46.700  35.292  29.844  1.00  0.00     0.022 A 
BRANCH  64  68
ATOM     68  S   UNL A   1      46.432  36.172  27.208  1.00  0.00     0.124 S 
ATOM     69  O   UNL A   1      47.891  36.203  27.187  1.00  0.00    -0.237 OA
ATOM     70  O   UNL A   1      45.793  35.474  26.098  1.00  0.00    -0.237 OA
ATOM     71  O   UNL A   1      45.790  37.423  27.607  1.00  0.00    -0.744 OA
ENDBRANCH  64  68
ENDBRANCH  38  61
ENDBRANCH  12  13
ENDBRANCH   5   7
ENDBRANCH   4   5
ENDBRANCH   3   4
ENDBRANCH   2   3
ENDBRANCH   1   2
BRANCH   1  72
ATOM     72  C   UNL A   1      33.060  22.012  26.741  1.00  0.00     0.202 C 
BRANCH  72  73
ATOM     73  C   UNL A   1      32.194  22.508  25.600  1.00  0.00     0.261 C 
BRANCH  73  74
ATOM     74  O   UNL A   1      31.918  23.892  25.852  1.00  0.00    -0.459 OA
BRANCH  74  75
ATOM     75  C   UNL A   1      31.016  24.504  25.031  1.00  0.00     0.369 C 
ATOM     76  O   UNL A   1      30.458  23.970  24.076  1.00  0.00    -0.245 OA
BRANCH  75  77
ATOM     77  C   UNL A   1      30.818  26.001  25.413  1.00  0.00     0.324 C 
BRANCH  77  78
ATOM     78  N   UNL A   1      31.768  26.443  26.459  1.00  0.00    -0.330 N 
ATOM     79  H   UNL A   1      32.705  26.459  26.055  1.00  0.00     0.347 HD
ATOM     80  H   UNL A   1      31.683  25.784  27.233  1.00  0.00     0.347 HD
BRANCH  78  81
ATOM     81  C   UNL A   1      31.483  27.766  27.000  1.00  0.00     0.264 C 
BRANCH  81  82
ATOM     82  C   UNL A   1      32.492  28.802  26.577  1.00  0.00     0.044 C 
ATOM     83  C   UNL A   1      33.648  29.186  27.467  1.00  0.00     0.010 C 
ATOM     84  C   UNL A   1      33.889  28.334  26.257  1.00  0.00     0.010 C 
ENDBRANCH  81  82
ENDBRANCH  78  81
ENDBRANCH  77  78
BRANCH  77  85
ATOM     85  C   UNL A   1      30.894  26.830  24.149  1.00  0.00     0.021 A 
ATOM     86  C   UNL A   1      32.098  26.957  23.460  1.00  0.00     0.010 A 
ATOM     87  C   UNL A   1      29.817  27.663  23.808  1.00  0.00     0.014 A 
ATOM     88  C   UNL A   1      32.250  27.991  22.546  1.00  0.00     0.001 A 
ATOM     89  C   UNL A   1      30.006  28.825  23.063  1.00  0.00    -0.044 A 
ATOM     90  C   UNL A   1      31.233  28.944  22.395  1.00  0.00     0.004 A 
BRANCH  89  91
ATOM     91  C   UNL A   1      29.013  29.971  23.117  1.00  0.00     0.019 C 
ATOM     92  C   UNL A   1      29.036  31.154  22.169  1.00  0.00     0.009 C 
ATOM     93  C   UNL A   1      28.043  30.058  21.946  1.00  0.00     0.009 C 
ENDBRANCH  89  91
ENDBRANCH  77  85
ENDBRANCH  75  77
ENDBRANCH  74  75
ENDBRANCH  73  74
ENDBRANCH  72  73
ENDBRANCH   1  72
TORSDOF 22
ENDMDL
MODEL 3
REMARK VINA RESULT:      -9.8      2.349      8.193
REMARK SMILES O=C(OCCOCCOC(=O)[C@@H]([NH2+]CC1CC1)c1cccc(C2CC2)c1)c1ccc(-c2c3nc(c(-c4cc(S(=O)(=O)[O-])ccc4F)c4ccc([nH]4)c(-c4cc(S(=O)(=O)[O-])ccc4F)c4nc(c(-c5cc(S(=O)(=O)[O-])ccc5F)c5ccc2[nH]5)C=C4)C=C3)cc1
REMARK SMILES IDX 6 1 5 2 4 3 3 4 2 5 1 6 27 7 28 8 89 9 29 10 88 11 30 12
REMARK SMILES IDX 31 13 32 14 82 15 33 16 87 17 81 18 83 19 34 20 86 21 80 22
REMARK SMILES IDX 79 23 35 25 67 26 47 27 66 28 48 29 51 30 65 31 84 32 49 33
REMARK SMILES IDX 50 34 64 36 85 37 52 38 36 39 37 40 45 41 38 42 44 43 46 44
REMARK SMILES IDX 43 45 39 46 40 47 41 48 42 49 68 50 69 51 77 52 70 53 76 54
REMARK SMILES IDX 78 55 75 56 71 57 72 58 73 59 74 60 53 61 54 62 62 63 55 64
REMARK SMILES IDX 61 65 63 66 60 67 56 68 57 69 58 70 59 71 7 72 8 73 9 74
REMARK SMILES IDX 10 75 11 76 12 77 13 78 14 81 15 82 16 83 17 84 18 85 19 86
REMARK SMILES IDX 26 87 20 88 22 89 21 90 23 91 24 92 25 93
REMARK H PARENT 83 24 51 35 13 79 13 80
REMARK Flexibility Score: inf
ROOT
ATOM      1  O   UNL A   1      35.214  21.940  26.506  1.00  0.00    -0.374 OA
ENDROOT
BRANCH   1   2
ATOM      2  C   UNL A   1      36.324  22.180  25.638  1.00  0.00     0.202 C 
BRANCH   2   3
ATOM      3  C   UNL A   1      37.242  20.992  25.289  1.00  0.00     0.261 C 
BRANCH   3   4
ATOM      4  O   UNL A   1      38.634  21.370  25.261  1.00  0.00    -0.460 OA
BRANCH   4   5
ATOM      5  C   UNL A   1      39.487  21.502  26.313  1.00  0.00     0.338 C 
ATOM      6  O   UNL A   1      39.775  20.507  26.976  1.00  0.00    -0.246 OA
BRANCH   5   7
ATOM      7  C   UNL A   1      40.055  22.820  26.723  1.00  0.00     0.060 A 
ATOM      8  C   UNL A   1      39.716  24.008  26.097  1.00  0.00     0.016 A 
ATOM      9  C   UNL A   1      40.925  22.897  27.821  1.00  0.00     0.016 A 
ATOM     10  C   UNL A   1      40.207  25.221  26.475  1.00  0.00     0.010 A 
ATOM     11  C   UNL A   1      41.422  24.141  28.248  1.00  0.00     0.010 A 
ATOM     12  C   UNL A   1      41.047  25.304  27.567  1.00  0.00    -0.014 A 
BRANCH  12  13
ATOM     13  C   UNL A   1      41.592  26.650  27.752  1.00  0.00     0.031 A 
ATOM     14  C   UNL A   1      40.809  27.582  28.618  1.00  0.00     0.074 A 
ATOM     15  C   UNL A   1      42.898  26.842  27.476  1.00  0.00     0.049 A 
ATOM     16  N   UNL A   1      41.101  28.790  29.004  1.00  0.00    -0.248 NA
ATOM     17  C   UNL A   1      39.538  27.062  29.160  1.00  0.00     0.031 C 
ATOM     18  C   UNL A   1      43.788  25.833  26.877  1.00  0.00     0.029 A 
ATOM     19  N   UNL A   1      43.729  27.891  27.742  1.00  0.00    -0.354 N 
ATOM     20  C   UNL A   1      40.041  29.189  29.807  1.00  0.00     0.074 A 
ATOM     21  C   UNL A   1      39.097  28.096  29.856  1.00  0.00     0.031 C 
ATOM     22  C   UNL A   1      45.041  26.311  26.848  1.00  0.00     0.029 A 
ATOM     23  C   UNL A   1      45.023  27.687  27.319  1.00  0.00     0.049 A 
ATOM     24  H   UNL A   1      43.431  28.715  28.191  1.00  0.00     0.167 HD
ATOM     25  C   UNL A   1      39.885  30.379  30.429  1.00  0.00     0.034 A 
ATOM     26  C   UNL A   1      46.052  28.554  27.268  1.00  0.00     0.034 A 
ATOM     27  C   UNL A   1      40.861  31.429  30.316  1.00  0.00     0.049 A 
ATOM     28  C   UNL A   1      45.782  29.938  27.801  1.00  0.00     0.074 A 
ATOM     29  C   UNL A   1      40.781  32.743  30.731  1.00  0.00     0.029 A 
ATOM     30  N   UNL A   1      42.117  31.266  29.735  1.00  0.00    -0.354 N 
ATOM     31  N   UNL A   1      44.702  30.391  28.405  1.00  0.00    -0.248 NA
ATOM     32  C   UNL A   1      46.847  30.929  27.640  1.00  0.00     0.031 C 
ATOM     33  C   UNL A   1      41.963  33.388  30.344  1.00  0.00     0.029 A 
ATOM     34  C   UNL A   1      42.815  32.458  29.762  1.00  0.00     0.049 A 
ATOM     35  H   UNL A   1      42.458  30.422  29.360  1.00  0.00     0.167 HD
ATOM     36  C   UNL A   1      44.964  31.721  28.705  1.00  0.00     0.074 A 
ATOM     37  C   UNL A   1      46.320  31.979  28.253  1.00  0.00     0.031 C 
ATOM     38  C   UNL A   1      44.166  32.655  29.286  1.00  0.00     0.034 A 
BRANCH  25  39
ATOM     39  C   UNL A   1      38.571  30.606  31.130  1.00  0.00     0.023 A 
ATOM     40  C   UNL A   1      37.478  31.215  30.486  1.00  0.00     0.031 A 
ATOM     41  C   UNL A   1      38.457  30.328  32.502  1.00  0.00     0.131 A 
ATOM     42  C   UNL A   1      36.352  31.597  31.235  1.00  0.00     0.055 A 
ATOM     43  C   UNL A   1      37.302  30.637  33.223  1.00  0.00     0.041 A 
ATOM     44  F   UNL A   1      39.485  29.790  33.178  1.00  0.00    -0.206 F 
ATOM     45  C   UNL A   1      36.247  31.290  32.594  1.00  0.00     0.022 A 
BRANCH  42  46
ATOM     46  S   UNL A   1      35.098  32.647  30.448  1.00  0.00     0.124 S 
ATOM     47  O   UNL A   1      35.860  33.865  30.180  1.00  0.00    -0.237 OA
ATOM     48  O   UNL A   1      34.715  31.863  29.278  1.00  0.00    -0.237 OA
ATOM     49  O   UNL A   1      34.067  32.778  31.475  1.00  0.00    -0.744 OA
ENDBRANCH  42  46
ENDBRANCH  25  39
BRANCH  26  50
ATOM     50  C   UNL A   1      47.334  28.202  26.582  1.00  0.00     0.023 A 
ATOM     51  C   UNL A   1      47.450  28.188  25.184  1.00  0.00     0.031 A 
ATOM     52  C   UNL A   1      48.453  27.776  27.330  1.00  0.00     0.131 A 
ATOM     53  C   UNL A   1      48.624  27.703  24.581  1.00  0.00     0.055 A 
ATOM     54  C   UNL A   1      49.641  27.362  26.727  1.00  0.00     0.041 A 
ATOM     55  F   UNL A   1      48.406  27.745  28.672  1.00  0.00    -0.206 F 
ATOM     56  C   UNL A   1      49.725  27.304  25.342  1.00  0.00     0.022 A 
BRANCH  53  57
ATOM     57  S   UNL A   1      48.646  27.468  22.781  1.00  0.00     0.124 S 
ATOM     58  O   UNL A   1      48.563  26.016  22.670  1.00  0.00    -0.237 OA
ATOM     59  O   UNL A   1      47.463  28.213  22.364  1.00  0.00    -0.237 OA
ATOM     60  O   UNL A   1      49.923  28.052  22.377  1.00  0.00    -0.744 OA
ENDBRANCH  53  57
ENDBRANCH  26  50
BRANCH  38  61
ATOM     61  C   UNL A   1      44.778  34.015  29.484  1.00  0.00     0.023 A 
ATOM     62  C   UNL A   1      44.678  35.012  28.501  1.00  0.00     0.031 A 
ATOM     63  C   UNL A   1      45.490  34.303  30.661  1.00  0.00     0.131 A 
ATOM     64  C   UNL A   1      45.348  36.229  28.679  1.00  0.00     0.055 A 
ATOM     65  C   UNL A   1      46.088  35.544  30.866  1.00  0.00     0.041 A 
ATOM     66  F   UNL A   1      45.614  33.380  31.629  1.00  0.00    -0.206 F 
ATOM     67  C   UNL A   1      46.035  36.510  29.863  1.00  0.00     0.022 A 
BRANCH  64  68
ATOM     68  S   UNL A   1      45.414  37.387  27.287  1.00  0.00     0.124 S 
ATOM     69  O   UNL A   1      44.000  37.551  26.963  1.00  0.00    -0.237 OA
ATOM     70  O   UNL A   1      46.071  38.547  27.879  1.00  0.00    -0.237 OA
ATOM     71  O   UNL A   1      46.202  36.672  26.285  1.00  0.00    -0.744 OA
ENDBRANCH  64  68
ENDBRANCH  38  61
ENDBRANCH  12  13
ENDBRANCH   5   7
ENDBRANCH   4   5
ENDBRANCH   3   4
ENDBRANCH   2   3
ENDBRANCH   1   2
BRANCH   1  72
ATOM     72  C   UNL A   1      34.599  23.091  27.085  1.00  0.00     0.202 C 
BRANCH  72  73
ATOM     73  C   UNL A   1      34.328  24.127  26.012  1.00  0.00     0.261 C 
BRANCH  73  74
ATOM     74  O   UNL A   1      33.393  25.065  26.558  1.00  0.00    -0.459 OA
BRANCH  74  75
ATOM     75  C   UNL A   1      32.084  24.917  26.197  1.00  0.00     0.369 C 
ATOM     76  O   UNL A   1      31.144  24.820  26.982  1.00  0.00    -0.245 OA
BRANCH  75  77
ATOM     77  C   UNL A   1      31.925  24.821  24.651  1.00  0.00     0.324 C 
BRANCH  77  78
ATOM     78  N   UNL A   1      30.650  24.180  24.256  1.00  0.00    -0.330 N 
ATOM     79  H   UNL A   1      29.955  24.913  24.110  1.00  0.00     0.347 HD
ATOM     80  H   UNL A   1      30.397  23.540  25.008  1.00  0.00     0.347 HD
BRANCH  78  81
ATOM     81  C   UNL A   1      30.737  23.385  23.038  1.00  0.00     0.264 C 
BRANCH  81  82
ATOM     82  C   UNL A   1      32.046  22.648  22.912  1.00  0.00     0.044 C 
ATOM     83  C   UNL A   1      32.310  21.378  23.683  1.00  0.00     0.010 C 
ATOM     84  C   UNL A   1      32.035  21.312  22.211  1.00  0.00     0.010 C 
ENDBRANCH  81  82
ENDBRANCH  78  81
ENDBRANCH  77  78
BRANCH  77  85
ATOM     85  C   UNL A   1      32.103  26.207  24.067  1.00  0.00     0.021 A 
ATOM     86  C   UNL A   1      32.986  26.418  23.011  1.00  0.00     0.010 A 
ATOM     87  C   UNL A   1      31.567  27.312  24.745  1.00  0.00     0.014 A 
ATOM     88  C   UNL A   1      33.419  27.709  22.737  1.00  0.00     0.001 A 
ATOM     89  C   UNL A   1      32.138  28.578  24.635  1.00  0.00    -0.044 A 
ATOM     90  C   UNL A   1      33.041  28.764  23.577  1.00  0.00     0.004 A 
BRANCH  89  91
ATOM     91  C   UNL A   1      31.929  29.637  25.701  1.00  0.00     0.019 C 
ATOM     92  C   UNL A   1      31.811  29.333  27.181  1.00  0.00     0.009 C 
ATOM     93  C   UNL A   1      33.104  29.861  26.645  1.00  0.00     0.009 C 
ENDBRANCH  89  91
ENDBRANCH  77  85
ENDBRANCH  75  77
ENDBRANCH  74  75
ENDBRANCH  73  74
ENDBRANCH  72  73
ENDBRANCH   1  72
TORSDOF 22
ENDMDL
