MODEL 1
REMARK VINA RESULT:     -11.2      0.000      0.000
REMARK SMILES CC(C)C[C@H](C(=O)OCCOCCOC(=O)c1ccc(-c2c3nc(c(-c4cc(S(=O)(=O)[O-])ccc4F)c4ccc([nH]4)c(-c4cc(S(=O)(=O)[O-])ccc4F)c4nc(c(-c5cc(S(=O)(=O)[O-])ccc5F)c5ccc2[nH]5)C=C4)C=C3)cc1)[C@@H]1CCO[C@]2(CCOC2)C1
REMARK SMILES IDX 12 1 11 2 10 3 9 4 8 5 6 6 7 7 5 8 4 9 2 10 1 11 3 12 80 13
REMARK SMILES IDX 81 14 89 15 82 16 84 17 83 18 85 19 88 20 86 21 87 22 13 23
REMARK SMILES IDX 14 24 15 25 16 26 17 27 18 28 79 29 19 30 78 31 20 32 21 33
REMARK SMILES IDX 22 34 72 35 23 36 77 37 71 38 73 39 24 40 76 41 70 42 69 43
REMARK SMILES IDX 25 45 57 46 37 47 56 48 38 49 41 50 55 51 74 52 39 53 40 54
REMARK SMILES IDX 54 56 75 57 42 58 26 59 27 60 35 61 28 62 34 63 36 64 33 65
REMARK SMILES IDX 29 66 30 67 31 68 32 69 58 70 59 71 67 72 60 73 66 74 68 75
REMARK SMILES IDX 65 76 61 77 62 78 63 79 64 80 43 81 44 82 52 83 45 84 51 85
REMARK SMILES IDX 53 86 50 87 46 88 47 89 48 90 49 91
REMARK H PARENT 73 44 41 55
REMARK Flexibility Score: inf
ROOT
ATOM      1  C   UNL A   1      35.375  20.784  25.294  1.00  0.00     0.202 C 
ENDROOT
BRANCH   1   2
ATOM      2  O   UNL A   1      34.310  19.901  24.970  1.00  0.00    -0.374 OA
BRANCH   2   3
ATOM      3  C   UNL A   1      32.992  20.295  25.354  1.00  0.00     0.202 C 
BRANCH   3   4
ATOM      4  C   UNL A   1      32.839  21.610  26.130  1.00  0.00     0.261 C 
BRANCH   4   5
ATOM      5  O   UNL A   1      31.799  22.459  25.593  1.00  0.00    -0.463 OA
BRANCH   5   6
ATOM      6  C   UNL A   1      31.612  23.643  26.235  1.00  0.00     0.309 C 
ATOM      7  O   UNL A   1      31.349  23.766  27.427  1.00  0.00    -0.252 OA
BRANCH   6   8
ATOM      8  C   UNL A   1      31.738  24.859  25.313  1.00  0.00     0.103 C 
BRANCH   8   9
ATOM      9  C   UNL A   1      31.913  24.438  23.833  1.00  0.00     0.018 C 
BRANCH   9  10
ATOM     10  C   UNL A   1      33.353  24.422  23.253  1.00  0.00    -0.017 C 
ATOM     11  C   UNL A   1      34.438  24.816  24.260  1.00  0.00     0.007 C 
ATOM     12  C   UNL A   1      33.693  23.026  22.714  1.00  0.00     0.007 C 
ENDBRANCH   9  10
ENDBRANCH   8   9
BRANCH   8  13
ATOM     13  C   UNL A   1      30.622  25.876  25.680  1.00  0.00     0.008 C 
ATOM     14  C   UNL A   1      29.804  26.442  24.517  1.00  0.00     0.033 C 
ATOM     15  C   UNL A   1      31.164  27.071  26.518  1.00  0.00     0.042 C 
ATOM     16  C   UNL A   1      30.567  27.512  23.751  1.00  0.00     0.161 C 
ATOM     17  C   UNL A   1      31.779  28.232  25.694  1.00  0.00     0.094 C 
ATOM     18  O   UNL A   1      30.923  28.589  24.606  1.00  0.00    -0.372 OA
ATOM     19  C   UNL A   1      33.232  28.046  25.269  1.00  0.00     0.066 C 
ATOM     20  C   UNL A   1      31.960  29.482  26.568  1.00  0.00     0.195 C 
ATOM     21  C   UNL A   1      34.026  28.442  26.496  1.00  0.00     0.163 C 
ATOM     22  O   UNL A   1      33.225  29.368  27.236  1.00  0.00    -0.378 OA
ENDBRANCH   8  13
ENDBRANCH   6   8
ENDBRANCH   5   6
ENDBRANCH   4   5
ENDBRANCH   3   4
ENDBRANCH   2   3
ENDBRANCH   1   2
BRANCH   1  23
ATOM     23  C   UNL A   1      36.809  20.326  24.994  1.00  0.00     0.261 C 
BRANCH  23  24
ATOM     24  O   UNL A   1      37.780  21.383  25.059  1.00  0.00    -0.460 OA
BRANCH  24  25
ATOM     25  C   UNL A   1      38.864  21.083  25.817  1.00  0.00     0.338 C 
ATOM     26  O   UNL A   1      39.431  20.000  25.884  1.00  0.00    -0.246 OA
BRANCH  25  27
ATOM     27  C   UNL A   1      39.418  22.296  26.443  1.00  0.00     0.060 A 
ATOM     28  C   UNL A   1      38.830  23.518  26.093  1.00  0.00     0.016 A 
ATOM     29  C   UNL A   1      40.536  22.261  27.282  1.00  0.00     0.016 A 
ATOM     30  C   UNL A   1      39.393  24.714  26.525  1.00  0.00     0.010 A 
ATOM     31  C   UNL A   1      41.105  23.469  27.709  1.00  0.00     0.010 A 
ATOM     32  C   UNL A   1      40.560  24.698  27.297  1.00  0.00    -0.014 A 
BRANCH  32  33
ATOM     33  C   UNL A   1      41.293  25.973  27.509  1.00  0.00     0.031 A 
ATOM     34  C   UNL A   1      40.657  27.039  28.361  1.00  0.00     0.074 A 
ATOM     35  C   UNL A   1      42.533  26.144  27.016  1.00  0.00     0.049 A 
ATOM     36  N   UNL A   1      41.114  28.218  28.696  1.00  0.00    -0.248 NA
ATOM     37  C   UNL A   1      39.327  26.731  28.908  1.00  0.00     0.031 C 
ATOM     38  C   UNL A   1      43.271  25.157  26.231  1.00  0.00     0.029 A 
ATOM     39  N   UNL A   1      43.393  27.210  27.114  1.00  0.00    -0.354 N 
ATOM     40  C   UNL A   1      40.127  28.796  29.488  1.00  0.00     0.074 A 
ATOM     41  C   UNL A   1      39.034  27.850  29.554  1.00  0.00     0.031 C 
ATOM     42  C   UNL A   1      44.479  25.661  25.923  1.00  0.00     0.029 A 
ATOM     43  C   UNL A   1      44.585  27.018  26.455  1.00  0.00     0.049 A 
ATOM     44  H   UNL A   1      43.176  28.032  27.608  1.00  0.00     0.167 HD
ATOM     45  C   UNL A   1      40.136  30.003  30.105  1.00  0.00     0.034 A 
ATOM     46  C   UNL A   1      45.632  27.851  26.288  1.00  0.00     0.034 A 
ATOM     47  C   UNL A   1      41.235  30.934  30.027  1.00  0.00     0.049 A 
ATOM     48  C   UNL A   1      45.584  29.223  26.915  1.00  0.00     0.074 A 
ATOM     49  C   UNL A   1      41.358  32.174  30.631  1.00  0.00     0.029 A 
ATOM     50  N   UNL A   1      42.395  30.737  29.290  1.00  0.00    -0.354 N 
ATOM     51  N   UNL A   1      44.644  29.759  27.658  1.00  0.00    -0.248 NA
ATOM     52  C   UNL A   1      46.741  30.097  26.686  1.00  0.00     0.031 C 
ATOM     53  C   UNL A   1      42.554  32.756  30.199  1.00  0.00     0.029 A 
ATOM     54  C   UNL A   1      43.221  31.846  29.392  1.00  0.00     0.049 A 
ATOM     55  H   UNL A   1      42.603  29.926  28.771  1.00  0.00     0.167 HD
ATOM     56  C   UNL A   1      45.111  31.023  28.009  1.00  0.00     0.074 A 
ATOM     57  C   UNL A   1      46.420  31.163  27.404  1.00  0.00     0.031 C 
ATOM     58  C   UNL A   1      44.516  31.980  28.768  1.00  0.00     0.034 A 
BRANCH  45  59
ATOM     59  C   UNL A   1      38.893  30.406  30.863  1.00  0.00     0.023 A 
ATOM     60  C   UNL A   1      37.897  31.214  30.289  1.00  0.00     0.031 A 
ATOM     61  C   UNL A   1      38.717  29.988  32.195  1.00  0.00     0.131 A 
ATOM     62  C   UNL A   1      36.800  31.628  31.063  1.00  0.00     0.055 A 
ATOM     63  C   UNL A   1      37.587  30.342  32.935  1.00  0.00     0.041 A 
ATOM     64  F   UNL A   1      39.647  29.237  32.804  1.00  0.00    -0.206 F 
ATOM     65  C   UNL A   1      36.627  31.177  32.374  1.00  0.00     0.022 A 
BRANCH  62  66
ATOM     66  S   UNL A   1      35.669  32.869  30.377  1.00  0.00     0.124 S 
ATOM     67  O   UNL A   1      34.402  32.489  30.997  1.00  0.00    -0.237 OA
ATOM     68  O   UNL A   1      36.256  34.122  30.838  1.00  0.00    -0.237 OA
ATOM     69  O   UNL A   1      35.741  32.639  28.935  1.00  0.00    -0.744 OA
ENDBRANCH  62  66
ENDBRANCH  45  59
BRANCH  46  70
ATOM     70  C   UNL A   1      46.803  27.431  25.466  1.00  0.00     0.023 A 
ATOM     71  C   UNL A   1      46.952  27.861  24.137  1.00  0.00     0.031 A 
ATOM     72  C   UNL A   1      47.774  26.559  25.989  1.00  0.00     0.131 A 
ATOM     73  C   UNL A   1      48.027  27.390  23.367  1.00  0.00     0.055 A 
ATOM     74  C   UNL A   1      48.868  26.132  25.235  1.00  0.00     0.041 A 
ATOM     75  F   UNL A   1      47.678  26.117  27.254  1.00  0.00    -0.206 F 
ATOM     76  C   UNL A   1      48.993  26.540  23.911  1.00  0.00     0.022 A 
BRANCH  73  77
ATOM     77  S   UNL A   1      48.113  27.855  21.615  1.00  0.00     0.124 S 
ATOM     78  O   UNL A   1      49.273  28.738  21.599  1.00  0.00    -0.237 OA
ATOM     79  O   UNL A   1      48.282  26.559  20.966  1.00  0.00    -0.237 OA
ATOM     80  O   UNL A   1      46.827  28.506  21.373  1.00  0.00    -0.744 OA
ENDBRANCH  73  77
ENDBRANCH  46  70
BRANCH  58  81
ATOM     81  C   UNL A   1      45.301  33.246  29.020  1.00  0.00     0.023 A 
ATOM     82  C   UNL A   1      45.163  34.379  28.200  1.00  0.00     0.031 A 
ATOM     83  C   UNL A   1      46.203  33.315  30.098  1.00  0.00     0.131 A 
ATOM     84  C   UNL A   1      45.955  35.513  28.436  1.00  0.00     0.055 A 
ATOM     85  C   UNL A   1      46.942  34.468  30.365  1.00  0.00     0.041 A 
ATOM     86  F   UNL A   1      46.376  32.262  30.913  1.00  0.00    -0.206 F 
ATOM     87  C   UNL A   1      46.831  35.571  29.524  1.00  0.00     0.022 A 
BRANCH  84  88
ATOM     88  S   UNL A   1      45.895  36.881  27.248  1.00  0.00     0.124 S 
ATOM     89  O   UNL A   1      46.383  38.000  28.048  1.00  0.00    -0.237 OA
ATOM     90  O   UNL A   1      46.788  36.417  26.191  1.00  0.00    -0.237 OA
ATOM     91  O   UNL A   1      44.482  36.954  26.877  1.00  0.00    -0.744 OA
ENDBRANCH  84  88
ENDBRANCH  58  81
ENDBRANCH  32  33
ENDBRANCH  25  27
ENDBRANCH  24  25
ENDBRANCH  23  24
ENDBRANCH   1  23
TORSDOF 20
ENDMDL
MODEL 2
REMARK VINA RESULT:     -10.9      0.932      1.798
REMARK SMILES CC(C)C[C@H](C(=O)OCCOCCOC(=O)c1ccc(-c2c3nc(c(-c4cc(S(=O)(=O)[O-])ccc4F)c4ccc([nH]4)c(-c4cc(S(=O)(=O)[O-])ccc4F)c4nc(c(-c5cc(S(=O)(=O)[O-])ccc5F)c5ccc2[nH]5)C=C4)C=C3)cc1)[C@@H]1CCO[C@]2(CCOC2)C1
REMARK SMILES IDX 12 1 11 2 10 3 9 4 8 5 6 6 7 7 5 8 4 9 2 10 1 11 3 12 80 13
REMARK SMILES IDX 81 14 89 15 82 16 84 17 83 18 85 19 88 20 86 21 87 22 13 23
REMARK SMILES IDX 14 24 15 25 16 26 17 27 18 28 79 29 19 30 78 31 20 32 21 33
REMARK SMILES IDX 22 34 72 35 23 36 77 37 71 38 73 39 24 40 76 41 70 42 69 43
REMARK SMILES IDX 25 45 57 46 37 47 56 48 38 49 41 50 55 51 74 52 39 53 40 54
REMARK SMILES IDX 54 56 75 57 42 58 26 59 27 60 35 61 28 62 34 63 36 64 33 65
REMARK SMILES IDX 29 66 30 67 31 68 32 69 58 70 59 71 67 72 60 73 66 74 68 75
REMARK SMILES IDX 65 76 61 77 62 78 63 79 64 80 43 81 44 82 52 83 45 84 51 85
REMARK SMILES IDX 53 86 50 87 46 88 47 89 48 90 49 91
REMARK H PARENT 73 44 41 55
REMARK Flexibility Score: inf
ROOT
ATOM      1  C   UNL A   1      35.488  21.660  26.110  1.00  0.00     0.202 C 
ENDROOT
BRANCH   1   2
ATOM      2  O   UNL A   1      34.268  21.047  26.502  1.00  0.00    -0.374 OA
BRANCH   2   3
ATOM      3  C   UNL A   1      33.065  21.786  26.288  1.00  0.00     0.202 C 
BRANCH   3   4
ATOM      4  C   UNL A   1      33.170  23.113  25.525  1.00  0.00     0.261 C 
BRANCH   4   5
ATOM      5  O   UNL A   1      32.951  24.265  26.373  1.00  0.00    -0.463 OA
BRANCH   5   6
ATOM      6  C   UNL A   1      31.666  24.702  26.456  1.00  0.00     0.309 C 
ATOM      7  O   UNL A   1      30.765  24.134  27.065  1.00  0.00    -0.252 OA
BRANCH   6   8
ATOM      8  C   UNL A   1      31.415  25.999  25.681  1.00  0.00     0.103 C 
BRANCH   8   9
ATOM      9  C   UNL A   1      32.732  26.772  25.422  1.00  0.00     0.018 C 
BRANCH   9  10
ATOM     10  C   UNL A   1      33.262  27.692  26.554  1.00  0.00    -0.017 C 
ATOM     11  C   UNL A   1      34.141  28.847  26.063  1.00  0.00     0.007 C 
ATOM     12  C   UNL A   1      32.092  28.291  27.344  1.00  0.00     0.007 C 
ENDBRANCH   9  10
ENDBRANCH   8   9
BRANCH   8  13
ATOM     13  C   UNL A   1      30.477  25.685  24.483  1.00  0.00     0.008 C 
ATOM     14  C   UNL A   1      31.137  25.097  23.234  1.00  0.00     0.033 C 
ATOM     15  C   UNL A   1      29.640  26.924  24.050  1.00  0.00     0.042 C 
ATOM     16  C   UNL A   1      31.868  26.155  22.423  1.00  0.00     0.161 C 
ATOM     17  C   UNL A   1      30.353  27.898  23.076  1.00  0.00     0.094 C 
ATOM     18  O   UNL A   1      30.977  27.181  22.009  1.00  0.00    -0.372 OA
ATOM     19  C   UNL A   1      31.281  28.921  23.724  1.00  0.00     0.066 C 
ATOM     20  C   UNL A   1      29.347  28.875  22.450  1.00  0.00     0.195 C 
ATOM     21  C   UNL A   1      30.346  30.015  24.198  1.00  0.00     0.163 C 
ATOM     22  O   UNL A   1      29.195  29.982  23.348  1.00  0.00    -0.378 OA
ENDBRANCH   8  13
ENDBRANCH   6   8
ENDBRANCH   5   6
ENDBRANCH   4   5
ENDBRANCH   3   4
ENDBRANCH   2   3
ENDBRANCH   1   2
BRANCH   1  23
ATOM     23  C   UNL A   1      36.469  20.838  25.263  1.00  0.00     0.261 C 
BRANCH  23  24
ATOM     24  O   UNL A   1      37.687  21.534  24.949  1.00  0.00    -0.460 OA
BRANCH  24  25
ATOM     25  C   UNL A   1      38.736  21.179  25.731  1.00  0.00     0.338 C 
ATOM     26  O   UNL A   1      39.260  20.074  25.794  1.00  0.00    -0.246 OA
BRANCH  25  27
ATOM     27  C   UNL A   1      39.317  22.358  26.397  1.00  0.00     0.060 A 
ATOM     28  C   UNL A   1      38.733  23.600  26.113  1.00  0.00     0.016 A 
ATOM     29  C   UNL A   1      40.453  22.276  27.208  1.00  0.00     0.016 A 
ATOM     30  C   UNL A   1      39.318  24.771  26.584  1.00  0.00     0.010 A 
ATOM     31  C   UNL A   1      41.044  23.458  27.673  1.00  0.00     0.010 A 
ATOM     32  C   UNL A   1      40.503  24.710  27.327  1.00  0.00    -0.014 A 
BRANCH  32  33
ATOM     33  C   UNL A   1      41.253  25.967  27.578  1.00  0.00     0.031 A 
ATOM     34  C   UNL A   1      40.618  27.030  28.434  1.00  0.00     0.074 A 
ATOM     35  C   UNL A   1      42.506  26.125  27.114  1.00  0.00     0.049 A 
ATOM     36  N   UNL A   1      41.089  28.194  28.799  1.00  0.00    -0.248 NA
ATOM     37  C   UNL A   1      39.272  26.737  28.948  1.00  0.00     0.031 C 
ATOM     38  C   UNL A   1      43.244  25.137  26.328  1.00  0.00     0.029 A 
ATOM     39  N   UNL A   1      43.383  27.172  27.249  1.00  0.00    -0.354 N 
ATOM     40  C   UNL A   1      40.095  28.777  29.580  1.00  0.00     0.074 A 
ATOM     41  C   UNL A   1      38.984  27.850  29.606  1.00  0.00     0.031 C 
ATOM     42  C   UNL A   1      44.467  25.625  26.055  1.00  0.00     0.029 A 
ATOM     43  C   UNL A   1      44.585  26.971  26.613  1.00  0.00     0.049 A 
ATOM     44  H   UNL A   1      43.171  27.990  27.753  1.00  0.00     0.167 HD
ATOM     45  C   UNL A   1      40.112  29.973  30.219  1.00  0.00     0.034 A 
ATOM     46  C   UNL A   1      45.651  27.787  26.483  1.00  0.00     0.034 A 
ATOM     47  C   UNL A   1      41.229  30.885  30.181  1.00  0.00     0.049 A 
ATOM     48  C   UNL A   1      45.613  29.148  27.133  1.00  0.00     0.074 A 
ATOM     49  C   UNL A   1      41.361  32.111  30.810  1.00  0.00     0.029 A 
ATOM     50  N   UNL A   1      42.402  30.679  29.466  1.00  0.00    -0.354 N 
ATOM     51  N   UNL A   1      44.667  29.688  27.866  1.00  0.00    -0.248 NA
ATOM     52  C   UNL A   1      46.791  30.005  26.944  1.00  0.00     0.031 C 
ATOM     53  C   UNL A   1      42.576  32.679  30.413  1.00  0.00     0.029 A 
ATOM     54  C   UNL A   1      43.244  31.771  29.605  1.00  0.00     0.049 A 
ATOM     55  H   UNL A   1      42.606  29.873  28.937  1.00  0.00     0.167 HD
ATOM     56  C   UNL A   1      45.149  30.938  28.248  1.00  0.00     0.074 A 
ATOM     57  C   UNL A   1      46.474  31.064  27.674  1.00  0.00     0.031 C 
ATOM     58  C   UNL A   1      44.555  31.892  29.011  1.00  0.00     0.034 A 
BRANCH  45  59
ATOM     59  C   UNL A   1      38.861  30.385  30.957  1.00  0.00     0.023 A 
ATOM     60  C   UNL A   1      37.851  31.150  30.348  1.00  0.00     0.031 A 
ATOM     61  C   UNL A   1      38.688  30.021  32.305  1.00  0.00     0.131 A 
ATOM     62  C   UNL A   1      36.745  31.577  31.102  1.00  0.00     0.055 A 
ATOM     63  C   UNL A   1      37.551  30.386  33.028  1.00  0.00     0.041 A 
ATOM     64  F   UNL A   1      39.631  29.313  32.947  1.00  0.00    -0.206 F 
ATOM     65  C   UNL A   1      36.578  31.179  32.430  1.00  0.00     0.022 A 
BRANCH  62  66
ATOM     66  S   UNL A   1      35.594  32.767  30.361  1.00  0.00     0.124 S 
ATOM     67  O   UNL A   1      36.234  34.039  30.689  1.00  0.00    -0.237 OA
ATOM     68  O   UNL A   1      35.608  32.387  28.954  1.00  0.00    -0.237 OA
ATOM     69  O   UNL A   1      34.338  32.512  31.065  1.00  0.00    -0.744 OA
ENDBRANCH  62  66
ENDBRANCH  45  59
BRANCH  46  70
ATOM     70  C   UNL A   1      46.832  27.360  25.679  1.00  0.00     0.023 A 
ATOM     71  C   UNL A   1      47.005  27.791  24.354  1.00  0.00     0.031 A 
ATOM     72  C   UNL A   1      47.788  26.480  26.217  1.00  0.00     0.131 A 
ATOM     73  C   UNL A   1      48.089  27.313  23.600  1.00  0.00     0.055 A 
ATOM     74  C   UNL A   1      48.890  26.046  25.479  1.00  0.00     0.041 A 
ATOM     75  F   UNL A   1      47.668  26.036  27.479  1.00  0.00    -0.206 F 
ATOM     76  C   UNL A   1      49.039  26.455  24.157  1.00  0.00     0.022 A 
BRANCH  73  77
ATOM     77  S   UNL A   1      48.206  27.781  21.851  1.00  0.00     0.124 S 
ATOM     78  O   UNL A   1      49.330  28.710  21.867  1.00  0.00    -0.237 OA
ATOM     79  O   UNL A   1      48.445  26.492  21.209  1.00  0.00    -0.237 OA
ATOM     80  O   UNL A   1      46.903  28.380  21.571  1.00  0.00    -0.744 OA
ENDBRANCH  73  77
ENDBRANCH  46  70
BRANCH  58  81
ATOM     81  C   UNL A   1      45.357  33.139  29.303  1.00  0.00     0.023 A 
ATOM     82  C   UNL A   1      45.360  34.239  28.428  1.00  0.00     0.031 A 
ATOM     83  C   UNL A   1      46.132  33.222  30.474  1.00  0.00     0.131 A 
ATOM     84  C   UNL A   1      46.164  35.353  28.710  1.00  0.00     0.055 A 
ATOM     85  C   UNL A   1      46.881  34.359  30.779  1.00  0.00     0.041 A 
ATOM     86  F   UNL A   1      46.167  32.201  31.345  1.00  0.00    -0.206 F 
ATOM     87  C   UNL A   1      46.912  35.427  29.889  1.00  0.00     0.022 A 
BRANCH  84  88
ATOM     88  S   UNL A   1      46.296  36.669  27.469  1.00  0.00     0.124 S 
ATOM     89  O   UNL A   1      45.016  36.564  26.777  1.00  0.00    -0.237 OA
ATOM     90  O   UNL A   1      46.478  37.860  28.295  1.00  0.00    -0.237 OA
ATOM     91  O   UNL A   1      47.463  36.281  26.678  1.00  0.00    -0.744 OA
ENDBRANCH  84  88
ENDBRANCH  58  81
ENDBRANCH  32  33
ENDBRANCH  25  27
ENDBRANCH  24  25
ENDBRANCH  23  24
ENDBRANCH   1  23
TORSDOF 20
ENDMDL
MODEL 3
REMARK VINA RESULT:     -10.9      1.644      7.652
REMARK SMILES CC(C)C[C@H](C(=O)OCCOCCOC(=O)c1ccc(-c2c3nc(c(-c4cc(S(=O)(=O)[O-])ccc4F)c4ccc([nH]4)c(-c4cc(S(=O)(=O)[O-])ccc4F)c4nc(c(-c5cc(S(=O)(=O)[O-])ccc5F)c5ccc2[nH]5)C=C4)C=C3)cc1)[C@@H]1CCO[C@]2(CCOC2)C1
REMARK SMILES IDX 12 1 11 2 10 3 9 4 8 5 6 6 7 7 5 8 4 9 2 10 1 11 3 12 80 13
REMARK SMILES IDX 81 14 89 15 82 16 84 17 83 18 85 19 88 20 86 21 87 22 13 23
REMARK SMILES IDX 14 24 15 25 16 26 17 27 18 28 79 29 19 30 78 31 20 32 21 33
REMARK SMILES IDX 22 34 72 35 23 36 77 37 71 38 73 39 24 40 76 41 70 42 69 43
REMARK SMILES IDX 25 45 57 46 37 47 56 48 38 49 41 50 55 51 74 52 39 53 40 54
REMARK SMILES IDX 54 56 75 57 42 58 26 59 27 60 35 61 28 62 34 63 36 64 33 65
REMARK SMILES IDX 29 66 30 67 31 68 32 69 58 70 59 71 67 72 60 73 66 74 68 75
REMARK SMILES IDX 65 76 61 77 62 78 63 79 64 80 43 81 44 82 52 83 45 84 51 85
REMARK SMILES IDX 53 86 50 87 46 88 47 89 48 90 49 91
REMARK H PARENT 73 44 41 55
REMARK Flexibility Score: inf
ROOT
ATOM      1  C   UNL A   1      35.651  20.833  24.843  1.00  0.00     0.202 C 
ENDROOT
BRANCH   1   2
ATOM      2  O   UNL A   1      35.372  22.206  25.082  1.00  0.00    -0.374 OA
BRANCH   2   3
ATOM      3  C   UNL A   1      34.506  22.517  26.175  1.00  0.00     0.202 C 
BRANCH   3   4
ATOM      4  C   UNL A   1      33.931  23.938  26.246  1.00  0.00     0.261 C 
BRANCH   4   5
ATOM      5  O   UNL A   1      32.589  23.972  26.786  1.00  0.00    -0.463 OA
BRANCH   5   6
ATOM      6  C   UNL A   1      31.583  23.861  25.878  1.00  0.00     0.309 C 
ATOM      7  O   UNL A   1      30.777  22.938  25.827  1.00  0.00    -0.252 OA
BRANCH   6   8
ATOM      8  C   UNL A   1      31.546  25.014  24.871  1.00  0.00     0.103 C 
BRANCH   8   9
ATOM      9  C   UNL A   1      31.493  24.497  23.413  1.00  0.00     0.018 C 
BRANCH   9  10
ATOM     10  C   UNL A   1      32.780  24.625  22.555  1.00  0.00    -0.017 C 
ATOM     11  C   UNL A   1      33.302  23.293  22.006  1.00  0.00     0.007 C 
ATOM     12  C   UNL A   1      32.536  25.563  21.366  1.00  0.00     0.007 C 
ENDBRANCH   9  10
ENDBRANCH   8   9
BRANCH   8  13
ATOM     13  C   UNL A   1      30.487  26.049  25.343  1.00  0.00     0.008 C 
ATOM     14  C   UNL A   1      29.726  26.796  24.246  1.00  0.00     0.033 C 
ATOM     15  C   UNL A   1      31.087  27.103  26.320  1.00  0.00     0.042 C 
ATOM     16  C   UNL A   1      30.565  27.897  23.617  1.00  0.00     0.161 C 
ATOM     17  C   UNL A   1      31.784  28.311  25.643  1.00  0.00     0.094 C 
ATOM     18  O   UNL A   1      30.971  28.844  24.595  1.00  0.00    -0.372 OA
ATOM     19  C   UNL A   1      33.231  28.086  25.213  1.00  0.00     0.066 C 
ATOM     20  C   UNL A   1      32.026  29.438  26.658  1.00  0.00     0.195 C 
ATOM     21  C   UNL A   1      34.026  28.288  26.486  1.00  0.00     0.163 C 
ATOM     22  O   UNL A   1      33.270  29.170  27.320  1.00  0.00    -0.378 OA
ENDBRANCH   8  13
ENDBRANCH   6   8
ENDBRANCH   5   6
ENDBRANCH   4   5
ENDBRANCH   3   4
ENDBRANCH   2   3
ENDBRANCH   1   2
BRANCH   1  23
ATOM     23  C   UNL A   1      37.102  20.354  24.995  1.00  0.00     0.261 C 
BRANCH  23  24
ATOM     24  O   UNL A   1      38.056  21.424  25.099  1.00  0.00    -0.460 OA
BRANCH  24  25
ATOM     25  C   UNL A   1      39.114  21.136  25.896  1.00  0.00     0.338 C 
ATOM     26  O   UNL A   1      39.728  20.077  25.941  1.00  0.00    -0.246 OA
BRANCH  25  27
ATOM     27  C   UNL A   1      39.579  22.340  26.606  1.00  0.00     0.060 A 
ATOM     28  C   UNL A   1      38.880  23.529  26.366  1.00  0.00     0.016 A 
ATOM     29  C   UNL A   1      40.718  22.337  27.419  1.00  0.00     0.016 A 
ATOM     30  C   UNL A   1      39.350  24.733  26.882  1.00  0.00     0.010 A 
ATOM     31  C   UNL A   1      41.193  23.552  27.929  1.00  0.00     0.010 A 
ATOM     32  C   UNL A   1      40.535  24.758  27.627  1.00  0.00    -0.014 A 
BRANCH  32  33
ATOM     33  C   UNL A   1      41.162  26.071  27.926  1.00  0.00     0.031 A 
ATOM     34  C   UNL A   1      42.555  26.339  27.421  1.00  0.00     0.074 A 
ATOM     35  C   UNL A   1      40.474  27.032  28.568  1.00  0.00     0.049 A 
ATOM     36  N   UNL A   1      43.292  27.412  27.546  1.00  0.00    -0.248 NA
ATOM     37  C   UNL A   1      43.200  25.249  26.673  1.00  0.00     0.031 C 
ATOM     38  C   UNL A   1      39.098  26.907  29.046  1.00  0.00     0.029 A 
ATOM     39  N   UNL A   1      40.838  28.309  28.917  1.00  0.00    -0.354 N 
ATOM     40  C   UNL A   1      44.491  27.125  26.899  1.00  0.00     0.074 A 
ATOM     41  C   UNL A   1      44.391  25.766  26.413  1.00  0.00     0.031 C 
ATOM     42  C   UNL A   1      38.731  28.064  29.623  1.00  0.00     0.029 A 
ATOM     43  C   UNL A   1      39.855  28.998  29.588  1.00  0.00     0.049 A 
ATOM     44  H   UNL A   1      41.718  28.694  28.707  1.00  0.00     0.167 HD
ATOM     45  C   UNL A   1      45.571  27.926  26.724  1.00  0.00     0.034 A 
ATOM     46  C   UNL A   1      39.869  30.234  30.126  1.00  0.00     0.034 A 
ATOM     47  C   UNL A   1      45.653  29.279  27.217  1.00  0.00     0.049 A 
ATOM     48  C   UNL A   1      41.114  31.076  29.992  1.00  0.00     0.074 A 
ATOM     49  C   UNL A   1      46.690  30.186  27.076  1.00  0.00     0.029 A 
ATOM     50  N   UNL A   1      44.666  29.919  27.956  1.00  0.00    -0.354 N 
ATOM     51  N   UNL A   1      42.242  30.793  29.381  1.00  0.00    -0.248 NA
ATOM     52  C   UNL A   1      41.085  32.407  30.613  1.00  0.00     0.031 C 
ATOM     53  C   UNL A   1      46.363  31.341  27.795  1.00  0.00     0.029 A 
ATOM     54  C   UNL A   1      45.086  31.191  28.313  1.00  0.00     0.049 A 
ATOM     55  H   UNL A   1      43.794  29.526  28.192  1.00  0.00     0.167 HD
ATOM     56  C   UNL A   1      43.044  31.923  29.521  1.00  0.00     0.074 A 
ATOM     57  C   UNL A   1      42.266  32.894  30.264  1.00  0.00     0.031 C 
ATOM     58  C   UNL A   1      44.307  32.143  29.070  1.00  0.00     0.034 A 
BRANCH  45  59
ATOM     59  C   UNL A   1      46.771  27.332  26.026  1.00  0.00     0.023 A 
ATOM     60  C   UNL A   1      47.791  26.667  26.727  1.00  0.00     0.031 A 
ATOM     61  C   UNL A   1      46.904  27.456  24.630  1.00  0.00     0.131 A 
ATOM     62  C   UNL A   1      48.926  26.204  26.040  1.00  0.00     0.055 A 
ATOM     63  C   UNL A   1      47.999  26.928  23.944  1.00  0.00     0.041 A 
ATOM     64  F   UNL A   1      45.974  28.103  23.911  1.00  0.00    -0.206 F 
ATOM     65  C   UNL A   1      49.024  26.309  24.651  1.00  0.00     0.022 A 
BRANCH  62  66
ATOM     66  S   UNL A   1      50.332  25.581  27.002  1.00  0.00     0.124 S 
ATOM     67  O   UNL A   1      51.299  25.279  25.949  1.00  0.00    -0.237 OA
ATOM     68  O   UNL A   1      50.655  26.714  27.861  1.00  0.00    -0.237 OA
ATOM     69  O   UNL A   1      49.786  24.412  27.689  1.00  0.00    -0.744 OA
ENDBRANCH  62  66
ENDBRANCH  45  59
BRANCH  46  70
ATOM     70  C   UNL A   1      38.683  30.744  30.873  1.00  0.00     0.023 A 
ATOM     71  C   UNL A   1      37.605  31.346  30.203  1.00  0.00     0.031 A 
ATOM     72  C   UNL A   1      38.630  30.670  32.275  1.00  0.00     0.131 A 
ATOM     73  C   UNL A   1      36.537  31.881  30.940  1.00  0.00     0.055 A 
ATOM     74  C   UNL A   1      37.542  31.160  33.000  1.00  0.00     0.041 A 
ATOM     75  F   UNL A   1      39.635  30.105  32.964  1.00  0.00    -0.206 F 
ATOM     76  C   UNL A   1      36.492  31.781  32.332  1.00  0.00     0.022 A 
BRANCH  73  77
ATOM     77  S   UNL A   1      35.229  32.774  30.054  1.00  0.00     0.124 S 
ATOM     78  O   UNL A   1      34.744  31.752  29.133  1.00  0.00    -0.237 OA
ATOM     79  O   UNL A   1      34.326  33.142  31.139  1.00  0.00    -0.237 OA
ATOM     80  O   UNL A   1      35.939  33.890  29.433  1.00  0.00    -0.744 OA
ENDBRANCH  73  77
ENDBRANCH  46  70
BRANCH  58  81
ATOM     81  C   UNL A   1      44.905  33.504  29.334  1.00  0.00     0.023 A 
ATOM     82  C   UNL A   1      44.698  34.587  28.461  1.00  0.00     0.031 A 
ATOM     83  C   UNL A   1      45.698  33.718  30.477  1.00  0.00     0.131 A 
ATOM     84  C   UNL A   1      45.321  35.817  28.715  1.00  0.00     0.055 A 
ATOM     85  C   UNL A   1      46.264  34.962  30.756  1.00  0.00     0.041 A 
ATOM     86  F   UNL A   1      45.930  32.720  31.344  1.00  0.00    -0.206 F 
ATOM     87  C   UNL A   1      46.088  36.017  29.867  1.00  0.00     0.022 A 
BRANCH  84  88
ATOM     88  S   UNL A   1      45.193  37.132  27.473  1.00  0.00     0.124 S 
ATOM     89  O   UNL A   1      46.577  37.266  27.029  1.00  0.00    -0.237 OA
ATOM     90  O   UNL A   1      44.266  36.557  26.503  1.00  0.00    -0.237 OA
ATOM     91  O   UNL A   1      44.671  38.270  28.228  1.00  0.00    -0.744 OA
ENDBRANCH  84  88
ENDBRANCH  58  81
ENDBRANCH  32  33
ENDBRANCH  25  27
ENDBRANCH  24  25
ENDBRANCH  23  24
ENDBRANCH   1  23
TORSDOF 20
ENDMDL
