MODEL 1
REMARK VINA RESULT:     -11.2      0.000      0.000
REMARK SMILES CC1(C)NC(=O)N(CCC(=O)N2CCC[C@H]2C(=O)OCCOCCOC(=O)c2ccc(-c3c4nc(c(-c5cc(S(=O)(=O)[O-])ccc5F)c5ccc([nH]5)c(-c5cc(S(=O)(=O)[O-])ccc5F)c5nc(c(-c6cc(S(=O)(=O)[O-])ccc6F)c6ccc3[nH]6)C=C5)C=C4)cc2)C1=O
REMARK SMILES IDX 21 1 20 2 19 3 17 4 18 5 16 6 12 7 13 8 14 9 15 10 10 11
REMARK SMILES IDX 11 12 9 13 8 14 7 15 1 16 2 17 3 18 4 19 91 20 5 21 92 23
REMARK SMILES IDX 6 24 22 25 23 26 24 27 25 28 26 29 27 30 28 31 29 32 90 33
REMARK SMILES IDX 30 34 89 35 31 36 32 37 33 38 83 39 34 40 88 41 82 42 84 43
REMARK SMILES IDX 35 44 87 45 81 46 80 47 36 49 68 50 48 51 67 52 49 53 52 54
REMARK SMILES IDX 66 55 85 56 50 57 51 58 65 60 86 61 53 62 37 63 38 64 46 65
REMARK SMILES IDX 39 66 45 67 47 68 44 69 40 70 41 71 42 72 43 73 69 74 70 75
REMARK SMILES IDX 78 76 71 77 77 78 79 79 76 80 72 81 73 82 74 83 75 84 54 85
REMARK SMILES IDX 55 86 63 87 56 88 62 89 64 90 61 91 57 92 58 93 59 94 60 95
REMARK H PARENT 4 22 84 48 52 59
REMARK Flexibility Score: inf
ROOT
ATOM      1  C   UNL A   1      37.298  22.761  24.875  1.00  0.00     0.202 C 
ENDROOT
BRANCH   1   2
ATOM      2  C   UNL A   1      36.306  23.899  25.239  1.00  0.00     0.261 C 
BRANCH   2   3
ATOM      3  O   UNL A   1      34.921  23.579  25.528  1.00  0.00    -0.462 OA
BRANCH   3   4
ATOM      4  C   UNL A   1      34.135  24.634  25.259  1.00  0.00     0.328 C 
ATOM      5  O   UNL A   1      33.587  25.249  26.163  1.00  0.00    -0.250 OA
BRANCH   4   6
ATOM      6  C   UNL A   1      33.805  25.013  23.826  1.00  0.00     0.195 C 
ATOM      7  N   UNL A   1      32.766  24.337  23.100  1.00  0.00    -0.329 N 
ATOM      8  C   UNL A   1      31.713  25.301  22.803  1.00  0.00     0.120 C 
ATOM      9  C   UNL A   1      32.501  26.569  22.519  1.00  0.00     0.024 C 
ATOM     10  C   UNL A   1      33.644  26.506  23.532  1.00  0.00     0.039 C 
BRANCH   7  11
ATOM     11  C   UNL A   1      33.033  23.272  22.255  1.00  0.00     0.225 C 
ATOM     12  O   UNL A   1      33.612  23.474  21.179  1.00  0.00    -0.275 OA
BRANCH  11  13
ATOM     13  C   UNL A   1      32.445  21.864  22.507  1.00  0.00     0.122 C 
BRANCH  13  14
ATOM     14  C   UNL A   1      32.103  21.031  23.776  1.00  0.00     0.140 C 
BRANCH  14  15
ATOM     15  N   UNL A   1      32.742  19.779  24.165  1.00  0.00    -0.262 N 
ATOM     16  C   UNL A   1      34.168  16.572  23.317  1.00  0.00     0.045 C 
ATOM     17  C   UNL A   1      33.437  17.488  24.287  1.00  0.00     0.115 C 
ATOM     18  C   UNL A   1      32.695  16.598  25.295  1.00  0.00     0.045 C 
ATOM     19  N   UNL A   1      34.279  18.403  25.027  1.00  0.00    -0.324 N 
ATOM     20  C   UNL A   1      32.627  18.571  23.505  1.00  0.00     0.255 C 
ATOM     21  C   UNL A   1      33.815  19.701  25.000  1.00  0.00     0.325 C 
ATOM     22  H   UNL A   1      35.097  18.127  25.501  1.00  0.00     0.166 HD
ATOM     23  O   UNL A   1      32.028  18.386  22.453  1.00  0.00    -0.272 OA
ATOM     24  O   UNL A   1      34.312  20.615  25.637  1.00  0.00    -0.248 OA
ENDBRANCH  14  15
ENDBRANCH  13  14
ENDBRANCH  11  13
ENDBRANCH   7  11
ENDBRANCH   4   6
ENDBRANCH   3   4
ENDBRANCH   2   3
ENDBRANCH   1   2
BRANCH   1  25
ATOM     25  O   UNL A   1      37.418  21.586  25.646  1.00  0.00    -0.374 OA
BRANCH  25  26
ATOM     26  C   UNL A   1      37.818  20.335  25.109  1.00  0.00     0.202 C 
BRANCH  26  27
ATOM     27  C   UNL A   1      39.147  19.609  25.384  1.00  0.00     0.261 C 
BRANCH  27  28
ATOM     28  O   UNL A   1      39.874  20.016  26.528  1.00  0.00    -0.460 OA
BRANCH  28  29
ATOM     29  C   UNL A   1      41.149  20.395  26.269  1.00  0.00     0.338 C 
ATOM     30  O   UNL A   1      41.950  19.853  25.537  1.00  0.00    -0.246 OA
BRANCH  29  31
ATOM     31  C   UNL A   1      41.285  21.748  26.823  1.00  0.00     0.060 A 
ATOM     32  C   UNL A   1      40.797  22.808  26.050  1.00  0.00     0.016 A 
ATOM     33  C   UNL A   1      41.802  21.951  28.105  1.00  0.00     0.016 A 
ATOM     34  C   UNL A   1      40.831  24.093  26.556  1.00  0.00     0.010 A 
ATOM     35  C   UNL A   1      41.887  23.251  28.592  1.00  0.00     0.010 A 
ATOM     36  C   UNL A   1      41.434  24.318  27.799  1.00  0.00    -0.014 A 
BRANCH  36  37
ATOM     37  C   UNL A   1      41.849  25.698  28.095  1.00  0.00     0.031 A 
ATOM     38  C   UNL A   1      43.189  26.127  27.574  1.00  0.00     0.074 A 
ATOM     39  C   UNL A   1      41.004  26.550  28.695  1.00  0.00     0.049 A 
ATOM     40  N   UNL A   1      43.775  27.289  27.648  1.00  0.00    -0.248 NA
ATOM     41  C   UNL A   1      43.969  25.102  26.857  1.00  0.00     0.031 C 
ATOM     42  C   UNL A   1      39.653  26.220  29.147  1.00  0.00     0.029 A 
ATOM     43  N   UNL A   1      41.154  27.872  29.007  1.00  0.00    -0.354 N 
ATOM     44  C   UNL A   1      44.988  27.137  26.987  1.00  0.00     0.074 A 
ATOM     45  C   UNL A   1      45.073  25.761  26.553  1.00  0.00     0.031 C 
ATOM     46  C   UNL A   1      39.095  27.320  29.681  1.00  0.00     0.029 A 
ATOM     47  C   UNL A   1      40.064  28.413  29.644  1.00  0.00     0.049 A 
ATOM     48  H   UNL A   1      41.965  28.387  28.796  1.00  0.00     0.167 HD
ATOM     49  C   UNL A   1      45.940  28.071  26.759  1.00  0.00     0.034 A 
ATOM     50  C   UNL A   1      39.894  29.648  30.154  1.00  0.00     0.034 A 
ATOM     51  C   UNL A   1      45.827  29.426  27.232  1.00  0.00     0.049 A 
ATOM     52  C   UNL A   1      41.019  30.642  29.988  1.00  0.00     0.074 A 
ATOM     53  C   UNL A   1      46.727  30.465  27.097  1.00  0.00     0.029 A 
ATOM     54  N   UNL A   1      44.744  29.924  27.949  1.00  0.00    -0.354 N 
ATOM     55  N   UNL A   1      42.174  30.489  29.378  1.00  0.00    -0.248 NA
ATOM     56  C   UNL A   1      40.816  31.973  30.568  1.00  0.00     0.031 C 
ATOM     57  C   UNL A   1      46.225  31.565  27.800  1.00  0.00     0.029 A 
ATOM     58  C   UNL A   1      44.969  31.244  28.295  1.00  0.00     0.049 A 
ATOM     59  H   UNL A   1      43.934  29.410  28.178  1.00  0.00     0.167 HD
ATOM     60  C   UNL A   1      42.822  31.717  29.476  1.00  0.00     0.074 A 
ATOM     61  C   UNL A   1      41.919  32.600  30.187  1.00  0.00     0.031 C 
ATOM     62  C   UNL A   1      44.047  32.090  29.018  1.00  0.00     0.034 A 
BRANCH  49  63
ATOM     63  C   UNL A   1      47.193  27.623  26.046  1.00  0.00     0.023 A 
ATOM     64  C   UNL A   1      47.413  27.897  24.683  1.00  0.00     0.031 A 
ATOM     65  C   UNL A   1      48.152  26.855  26.725  1.00  0.00     0.131 A 
ATOM     66  C   UNL A   1      48.528  27.346  24.030  1.00  0.00     0.055 A 
ATOM     67  C   UNL A   1      49.301  26.381  26.091  1.00  0.00     0.041 A 
ATOM     68  F   UNL A   1      47.978  26.529  28.017  1.00  0.00    -0.206 F 
ATOM     69  C   UNL A   1      49.487  26.613  24.731  1.00  0.00     0.022 A 
BRANCH  66  70
ATOM     70  S   UNL A   1      48.625  27.469  22.223  1.00  0.00     0.124 S 
ATOM     71  O   UNL A   1      48.733  26.063  21.837  1.00  0.00    -0.237 OA
ATOM     72  O   UNL A   1      47.369  28.130  21.884  1.00  0.00    -0.237 OA
ATOM     73  O   UNL A   1      49.831  28.264  21.997  1.00  0.00    -0.744 OA
ENDBRANCH  66  70
ENDBRANCH  49  63
BRANCH  50  74
ATOM     74  C   UNL A   1      38.649  29.998  30.895  1.00  0.00     0.023 A 
ATOM     75  C   UNL A   1      37.651  30.797  30.315  1.00  0.00     0.031 A 
ATOM     76  C   UNL A   1      38.459  29.575  32.224  1.00  0.00     0.131 A 
ATOM     77  C   UNL A   1      36.535  31.183  31.073  1.00  0.00     0.055 A 
ATOM     78  C   UNL A   1      37.320  29.915  32.955  1.00  0.00     0.041 A 
ATOM     79  F   UNL A   1      39.382  28.811  32.833  1.00  0.00    -0.206 F 
ATOM     80  C   UNL A   1      36.355  30.735  32.384  1.00  0.00     0.022 A 
BRANCH  77  81
ATOM     81  S   UNL A   1      35.361  32.363  30.350  1.00  0.00     0.124 S 
ATOM     82  O   UNL A   1      34.356  32.463  31.402  1.00  0.00    -0.237 OA
ATOM     83  O   UNL A   1      36.201  33.538  30.148  1.00  0.00    -0.237 OA
ATOM     84  O   UNL A   1      34.921  31.696  29.126  1.00  0.00    -0.744 OA
ENDBRANCH  77  81
ENDBRANCH  50  74
BRANCH  62  85
ATOM     85  C   UNL A   1      44.447  33.528  29.240  1.00  0.00     0.023 A 
ATOM     86  C   UNL A   1      44.081  34.544  28.342  1.00  0.00     0.031 A 
ATOM     87  C   UNL A   1      45.208  33.881  30.369  1.00  0.00     0.131 A 
ATOM     88  C   UNL A   1      44.532  35.854  28.553  1.00  0.00     0.055 A 
ATOM     89  C   UNL A   1      45.590  35.200  30.613  1.00  0.00     0.041 A 
ATOM     90  F   UNL A   1      45.585  32.949  31.258  1.00  0.00    -0.206 F 
ATOM     91  C   UNL A   1      45.265  36.193  29.694  1.00  0.00     0.022 A 
BRANCH  88  92
ATOM     92  S   UNL A   1      44.240  37.089  27.259  1.00  0.00     0.124 S 
ATOM     93  O   UNL A   1      43.150  36.482  26.502  1.00  0.00    -0.237 OA
ATOM     94  O   UNL A   1      43.894  38.277  28.033  1.00  0.00    -0.237 OA
ATOM     95  O   UNL A   1      45.520  37.159  26.557  1.00  0.00    -0.744 OA
ENDBRANCH  88  92
ENDBRANCH  62  85
ENDBRANCH  36  37
ENDBRANCH  29  31
ENDBRANCH  28  29
ENDBRANCH  27  28
ENDBRANCH  26  27
ENDBRANCH  25  26
ENDBRANCH   1  25
TORSDOF 21
ENDMDL
MODEL 2
REMARK VINA RESULT:     -11.0      1.813      2.330
REMARK SMILES CC1(C)NC(=O)N(CCC(=O)N2CCC[C@H]2C(=O)OCCOCCOC(=O)c2ccc(-c3c4nc(c(-c5cc(S(=O)(=O)[O-])ccc5F)c5ccc([nH]5)c(-c5cc(S(=O)(=O)[O-])ccc5F)c5nc(c(-c6cc(S(=O)(=O)[O-])ccc6F)c6ccc3[nH]6)C=C5)C=C4)cc2)C1=O
REMARK SMILES IDX 21 1 20 2 19 3 17 4 18 5 16 6 12 7 13 8 14 9 15 10 10 11
REMARK SMILES IDX 11 12 9 13 8 14 7 15 1 16 2 17 3 18 4 19 91 20 5 21 92 23
REMARK SMILES IDX 6 24 22 25 23 26 24 27 25 28 26 29 27 30 28 31 29 32 90 33
REMARK SMILES IDX 30 34 89 35 31 36 32 37 33 38 83 39 34 40 88 41 82 42 84 43
REMARK SMILES IDX 35 44 87 45 81 46 80 47 36 49 68 50 48 51 67 52 49 53 52 54
REMARK SMILES IDX 66 55 85 56 50 57 51 58 65 60 86 61 53 62 37 63 38 64 46 65
REMARK SMILES IDX 39 66 45 67 47 68 44 69 40 70 41 71 42 72 43 73 69 74 70 75
REMARK SMILES IDX 78 76 71 77 77 78 79 79 76 80 72 81 73 82 74 83 75 84 54 85
REMARK SMILES IDX 55 86 63 87 56 88 62 89 64 90 61 91 57 92 58 93 59 94 60 95
REMARK H PARENT 4 22 84 48 52 59
REMARK Flexibility Score: inf
ROOT
ATOM      1  C   UNL A   1      37.020  22.832  24.647  1.00  0.00     0.202 C 
ENDROOT
BRANCH   1   2
ATOM      2  C   UNL A   1      36.164  23.926  25.341  1.00  0.00     0.261 C 
BRANCH   2   3
ATOM      3  O   UNL A   1      34.985  24.445  24.675  1.00  0.00    -0.462 OA
BRANCH   3   4
ATOM      4  C   UNL A   1      34.084  24.858  25.581  1.00  0.00     0.328 C 
ATOM      5  O   UNL A   1      33.701  24.106  26.466  1.00  0.00    -0.250 OA
BRANCH   4   6
ATOM      6  C   UNL A   1      33.424  26.220  25.457  1.00  0.00     0.195 C 
ATOM      7  N   UNL A   1      32.000  26.368  25.572  1.00  0.00    -0.329 N 
ATOM      8  C   UNL A   1      31.716  27.173  26.754  1.00  0.00     0.120 C 
ATOM      9  C   UNL A   1      32.853  28.184  26.741  1.00  0.00     0.024 C 
ATOM     10  C   UNL A   1      34.048  27.360  26.265  1.00  0.00     0.039 C 
BRANCH   7  11
ATOM     11  C   UNL A   1      31.172  26.394  24.462  1.00  0.00     0.225 C 
ATOM     12  O   UNL A   1      30.291  27.260  24.374  1.00  0.00    -0.275 OA
BRANCH  11  13
ATOM     13  C   UNL A   1      31.166  25.249  23.422  1.00  0.00     0.122 C 
BRANCH  13  14
ATOM     14  C   UNL A   1      30.680  23.771  23.423  1.00  0.00     0.140 C 
BRANCH  14  15
ATOM     15  N   UNL A   1      31.327  22.666  24.121  1.00  0.00    -0.262 N 
ATOM     16  C   UNL A   1      34.290  20.806  25.011  1.00  0.00     0.045 C 
ATOM     17  C   UNL A   1      32.796  20.874  24.735  1.00  0.00     0.115 C 
ATOM     18  C   UNL A   1      32.320  19.452  24.404  1.00  0.00     0.045 C 
ATOM     19  N   UNL A   1      31.988  21.378  25.825  1.00  0.00    -0.324 N 
ATOM     20  C   UNL A   1      32.483  22.023  23.724  1.00  0.00     0.255 C 
ATOM     21  C   UNL A   1      31.101  22.357  25.428  1.00  0.00     0.325 C 
ATOM     22  H   UNL A   1      32.064  21.056  26.752  1.00  0.00     0.166 HD
ATOM     23  O   UNL A   1      33.179  22.331  22.764  1.00  0.00    -0.272 OA
ATOM     24  O   UNL A   1      30.258  22.849  26.159  1.00  0.00    -0.248 OA
ENDBRANCH  14  15
ENDBRANCH  13  14
ENDBRANCH  11  13
ENDBRANCH   7  11
ENDBRANCH   4   6
ENDBRANCH   3   4
ENDBRANCH   2   3
ENDBRANCH   1   2
BRANCH   1  25
ATOM     25  O   UNL A   1      37.699  21.830  25.371  1.00  0.00    -0.374 OA
BRANCH  25  26
ATOM     26  C   UNL A   1      37.791  20.480  24.943  1.00  0.00     0.202 C 
BRANCH  26  27
ATOM     27  C   UNL A   1      38.920  19.492  25.283  1.00  0.00     0.261 C 
BRANCH  27  28
ATOM     28  O   UNL A   1      39.668  19.753  26.456  1.00  0.00    -0.460 OA
BRANCH  28  29
ATOM     29  C   UNL A   1      40.963  20.078  26.227  1.00  0.00     0.338 C 
ATOM     30  O   UNL A   1      41.761  19.499  25.522  1.00  0.00    -0.246 OA
BRANCH  29  31
ATOM     31  C   UNL A   1      41.137  21.431  26.771  1.00  0.00     0.060 A 
ATOM     32  C   UNL A   1      40.663  22.498  25.999  1.00  0.00     0.016 A 
ATOM     33  C   UNL A   1      41.677  21.629  28.044  1.00  0.00     0.016 A 
ATOM     34  C   UNL A   1      40.734  23.784  26.498  1.00  0.00     0.010 A 
ATOM     35  C   UNL A   1      41.799  22.929  28.523  1.00  0.00     0.010 A 
ATOM     36  C   UNL A   1      41.358  24.002  27.731  1.00  0.00    -0.014 A 
BRANCH  36  37
ATOM     37  C   UNL A   1      41.809  25.373  28.014  1.00  0.00     0.031 A 
ATOM     38  C   UNL A   1      43.177  25.750  27.526  1.00  0.00     0.074 A 
ATOM     39  C   UNL A   1      40.974  26.265  28.571  1.00  0.00     0.049 A 
ATOM     40  N   UNL A   1      43.798  26.893  27.596  1.00  0.00    -0.248 NA
ATOM     41  C   UNL A   1      43.945  24.686  26.854  1.00  0.00     0.031 C 
ATOM     42  C   UNL A   1      39.600  25.986  28.988  1.00  0.00     0.029 A 
ATOM     43  N   UNL A   1      41.157  27.587  28.863  1.00  0.00    -0.354 N 
ATOM     44  C   UNL A   1      45.025  26.690  26.976  1.00  0.00     0.074 A 
ATOM     45  C   UNL A   1      45.078  25.304  26.571  1.00  0.00     0.031 C 
ATOM     46  C   UNL A   1      39.062  27.114  29.483  1.00  0.00     0.029 A 
ATOM     47  C   UNL A   1      40.067  28.174  29.455  1.00  0.00     0.049 A 
ATOM     48  H   UNL A   1      41.991  28.072  28.667  1.00  0.00     0.167 HD
ATOM     49  C   UNL A   1      46.013  27.588  26.760  1.00  0.00     0.034 A 
ATOM     50  C   UNL A   1      39.921  29.424  29.936  1.00  0.00     0.034 A 
ATOM     51  C   UNL A   1      45.930  28.955  27.204  1.00  0.00     0.049 A 
ATOM     52  C   UNL A   1      41.082  30.378  29.786  1.00  0.00     0.074 A 
ATOM     53  C   UNL A   1      46.867  29.963  27.077  1.00  0.00     0.029 A 
ATOM     54  N   UNL A   1      44.842  29.502  27.877  1.00  0.00    -0.354 N 
ATOM     55  N   UNL A   1      42.250  30.176  29.216  1.00  0.00    -0.248 NA
ATOM     56  C   UNL A   1      40.906  31.727  30.335  1.00  0.00     0.031 C 
ATOM     57  C   UNL A   1      46.380  31.092  27.744  1.00  0.00     0.029 A 
ATOM     58  C   UNL A   1      45.100  30.821  28.205  1.00  0.00     0.049 A 
ATOM     59  H   UNL A   1      44.010  29.019  28.090  1.00  0.00     0.167 HD
ATOM     60  C   UNL A   1      42.934  31.385  29.310  1.00  0.00     0.074 A 
ATOM     61  C   UNL A   1      42.039  32.311  29.976  1.00  0.00     0.031 C 
ATOM     62  C   UNL A   1      44.184  31.710  28.883  1.00  0.00     0.034 A 
BRANCH  49  63
ATOM     63  C   UNL A   1      47.272  27.087  26.095  1.00  0.00     0.023 A 
ATOM     64  C   UNL A   1      48.245  26.352  26.797  1.00  0.00     0.031 A 
ATOM     65  C   UNL A   1      47.531  27.405  24.751  1.00  0.00     0.131 A 
ATOM     66  C   UNL A   1      49.459  26.023  26.172  1.00  0.00     0.055 A 
ATOM     67  C   UNL A   1      48.704  27.002  24.111  1.00  0.00     0.041 A 
ATOM     68  F   UNL A   1      46.657  28.137  24.041  1.00  0.00    -0.206 F 
ATOM     69  C   UNL A   1      49.683  26.320  24.826  1.00  0.00     0.022 A 
BRANCH  66  70
ATOM     70  S   UNL A   1      50.801  25.342  27.185  1.00  0.00     0.124 S 
ATOM     71  O   UNL A   1      51.742  24.888  26.162  1.00  0.00    -0.237 OA
ATOM     72  O   UNL A   1      51.221  26.498  27.970  1.00  0.00    -0.237 OA
ATOM     73  O   UNL A   1      50.152  24.274  27.942  1.00  0.00    -0.744 OA
ENDBRANCH  66  70
ENDBRANCH  49  63
BRANCH  50  74
ATOM     74  C   UNL A   1      38.667  29.828  30.632  1.00  0.00     0.023 A 
ATOM     75  C   UNL A   1      37.719  30.657  30.010  1.00  0.00     0.031 A 
ATOM     76  C   UNL A   1      38.418  29.428  31.958  1.00  0.00     0.131 A 
ATOM     77  C   UNL A   1      36.593  31.093  30.727  1.00  0.00     0.055 A 
ATOM     78  C   UNL A   1      37.268  29.818  32.647  1.00  0.00     0.041 A 
ATOM     79  F   UNL A   1      39.290  28.637  32.604  1.00  0.00    -0.206 F 
ATOM     80  C   UNL A   1      36.354  30.667  32.035  1.00  0.00     0.022 A 
BRANCH  77  81
ATOM     81  S   UNL A   1      35.489  32.306  29.953  1.00  0.00     0.124 S 
ATOM     82  O   UNL A   1      34.744  32.804  31.103  1.00  0.00    -0.237 OA
ATOM     83  O   UNL A   1      36.437  33.235  29.350  1.00  0.00    -0.237 OA
ATOM     84  O   UNL A   1      34.716  31.506  29.006  1.00  0.00    -0.744 OA
ENDBRANCH  77  81
ENDBRANCH  50  74
BRANCH  62  85
ATOM     85  C   UNL A   1      44.624  33.138  29.090  1.00  0.00     0.023 A 
ATOM     86  C   UNL A   1      44.148  34.183  28.281  1.00  0.00     0.031 A 
ATOM     87  C   UNL A   1      45.535  33.454  30.114  1.00  0.00     0.131 A 
ATOM     88  C   UNL A   1      44.635  35.484  28.467  1.00  0.00     0.055 A 
ATOM     89  C   UNL A   1      45.959  34.763  30.342  1.00  0.00     0.041 A 
ATOM     90  F   UNL A   1      46.022  32.493  30.915  1.00  0.00    -0.206 F 
ATOM     91  C   UNL A   1      45.519  35.784  29.505  1.00  0.00     0.022 A 
BRANCH  88  92
ATOM     92  S   UNL A   1      44.179  36.759  27.262  1.00  0.00     0.124 S 
ATOM     93  O   UNL A   1      43.313  36.018  26.350  1.00  0.00    -0.237 OA
ATOM     94  O   UNL A   1      43.520  37.757  28.097  1.00  0.00    -0.237 OA
ATOM     95  O   UNL A   1      45.463  37.172  26.699  1.00  0.00    -0.744 OA
ENDBRANCH  88  92
ENDBRANCH  62  85
ENDBRANCH  36  37
ENDBRANCH  29  31
ENDBRANCH  28  29
ENDBRANCH  27  28
ENDBRANCH  26  27
ENDBRANCH  25  26
ENDBRANCH   1  25
TORSDOF 21
ENDMDL
MODEL 3
REMARK VINA RESULT:     -10.8      2.473      4.326
REMARK SMILES CC1(C)NC(=O)N(CCC(=O)N2CCC[C@H]2C(=O)OCCOCCOC(=O)c2ccc(-c3c4nc(c(-c5cc(S(=O)(=O)[O-])ccc5F)c5ccc([nH]5)c(-c5cc(S(=O)(=O)[O-])ccc5F)c5nc(c(-c6cc(S(=O)(=O)[O-])ccc6F)c6ccc3[nH]6)C=C5)C=C4)cc2)C1=O
REMARK SMILES IDX 21 1 20 2 19 3 17 4 18 5 16 6 12 7 13 8 14 9 15 10 10 11
REMARK SMILES IDX 11 12 9 13 8 14 7 15 1 16 2 17 3 18 4 19 91 20 5 21 92 23
REMARK SMILES IDX 6 24 22 25 23 26 24 27 25 28 26 29 27 30 28 31 29 32 90 33
REMARK SMILES IDX 30 34 89 35 31 36 32 37 33 38 83 39 34 40 88 41 82 42 84 43
REMARK SMILES IDX 35 44 87 45 81 46 80 47 36 49 68 50 48 51 67 52 49 53 52 54
REMARK SMILES IDX 66 55 85 56 50 57 51 58 65 60 86 61 53 62 37 63 38 64 46 65
REMARK SMILES IDX 39 66 45 67 47 68 44 69 40 70 41 71 42 72 43 73 69 74 70 75
REMARK SMILES IDX 78 76 71 77 77 78 79 79 76 80 72 81 73 82 74 83 75 84 54 85
REMARK SMILES IDX 55 86 63 87 56 88 62 89 64 90 61 91 57 92 58 93 59 94 60 95
REMARK H PARENT 4 22 84 48 52 59
REMARK Flexibility Score: inf
ROOT
ATOM      1  C   UNL A   1      36.604  22.099  24.941  1.00  0.00     0.202 C 
ENDROOT
BRANCH   1   2
ATOM      2  C   UNL A   1      36.077  23.245  25.847  1.00  0.00     0.261 C 
BRANCH   2   3
ATOM      3  O   UNL A   1      35.353  24.354  25.254  1.00  0.00    -0.462 OA
BRANCH   3   4
ATOM      4  C   UNL A   1      34.158  24.499  25.848  1.00  0.00     0.328 C 
ATOM      5  O   UNL A   1      33.779  23.696  26.689  1.00  0.00    -0.250 OA
BRANCH   4   6
ATOM      6  C   UNL A   1      33.193  25.584  25.402  1.00  0.00     0.195 C 
ATOM      7  N   UNL A   1      31.870  25.673  25.954  1.00  0.00    -0.329 N 
ATOM      8  C   UNL A   1      31.764  26.929  26.688  1.00  0.00     0.120 C 
ATOM      9  C   UNL A   1      32.582  27.880  25.829  1.00  0.00     0.024 C 
ATOM     10  C   UNL A   1      33.744  27.011  25.353  1.00  0.00     0.039 C 
BRANCH   7  11
ATOM     11  C   UNL A   1      30.773  25.105  25.327  1.00  0.00     0.225 C 
ATOM     12  O   UNL A   1      30.513  23.909  25.513  1.00  0.00    -0.275 OA
BRANCH  11  13
ATOM     13  C   UNL A   1      29.981  25.857  24.232  1.00  0.00     0.122 C 
BRANCH  13  14
ATOM     14  C   UNL A   1      30.368  26.734  23.007  1.00  0.00     0.140 C 
BRANCH  14  15
ATOM     15  N   UNL A   1      29.938  28.110  22.781  1.00  0.00    -0.262 N 
ATOM     16  C   UNL A   1      27.764  30.894  23.523  1.00  0.00     0.045 C 
ATOM     17  C   UNL A   1      28.633  30.108  22.554  1.00  0.00     0.115 C 
ATOM     18  C   UNL A   1      28.204  30.490  21.130  1.00  0.00     0.045 C 
ATOM     19  N   UNL A   1      30.057  30.340  22.673  1.00  0.00    -0.324 N 
ATOM     20  C   UNL A   1      28.657  28.597  22.950  1.00  0.00     0.255 C 
ATOM     21  C   UNL A   1      30.789  29.172  22.728  1.00  0.00     0.325 C 
ATOM     22  H   UNL A   1      30.461  31.237  22.711  1.00  0.00     0.166 HD
ATOM     23  O   UNL A   1      27.703  27.964  23.386  1.00  0.00    -0.272 OA
ATOM     24  O   UNL A   1      32.008  29.131  22.729  1.00  0.00    -0.248 OA
ENDBRANCH  14  15
ENDBRANCH  13  14
ENDBRANCH  11  13
ENDBRANCH   7  11
ENDBRANCH   4   6
ENDBRANCH   3   4
ENDBRANCH   2   3
ENDBRANCH   1   2
BRANCH   1  25
ATOM     25  O   UNL A   1      37.833  21.450  25.180  1.00  0.00    -0.374 OA
BRANCH  25  26
ATOM     26  C   UNL A   1      38.015  20.048  25.061  1.00  0.00     0.202 C 
BRANCH  26  27
ATOM     27  C   UNL A   1      39.273  19.256  25.458  1.00  0.00     0.261 C 
BRANCH  27  28
ATOM     28  O   UNL A   1      40.014  19.743  26.562  1.00  0.00    -0.460 OA
BRANCH  28  29
ATOM     29  C   UNL A   1      41.269  20.149  26.251  1.00  0.00     0.338 C 
ATOM     30  O   UNL A   1      42.061  19.611  25.508  1.00  0.00    -0.246 OA
BRANCH  29  31
ATOM     31  C   UNL A   1      41.383  21.521  26.765  1.00  0.00     0.060 A 
ATOM     32  C   UNL A   1      41.038  22.561  25.894  1.00  0.00     0.016 A 
ATOM     33  C   UNL A   1      41.741  21.762  28.093  1.00  0.00     0.016 A 
ATOM     34  C   UNL A   1      41.055  23.865  26.350  1.00  0.00     0.010 A 
ATOM     35  C   UNL A   1      41.812  23.079  28.537  1.00  0.00     0.010 A 
ATOM     36  C   UNL A   1      41.503  24.125  27.651  1.00  0.00    -0.014 A 
BRANCH  36  37
ATOM     37  C   UNL A   1      41.928  25.502  27.944  1.00  0.00     0.031 A 
ATOM     38  C   UNL A   1      43.277  25.916  27.434  1.00  0.00     0.074 A 
ATOM     39  C   UNL A   1      41.085  26.365  28.531  1.00  0.00     0.049 A 
ATOM     40  N   UNL A   1      43.873  27.072  27.508  1.00  0.00    -0.248 NA
ATOM     41  C   UNL A   1      44.055  24.879  26.731  1.00  0.00     0.031 C 
ATOM     42  C   UNL A   1      39.727  26.050  28.972  1.00  0.00     0.029 A 
ATOM     43  N   UNL A   1      41.245  27.688  28.838  1.00  0.00    -0.354 N 
ATOM     44  C   UNL A   1      45.092  26.905  26.860  1.00  0.00     0.074 A 
ATOM     45  C   UNL A   1      45.168  25.526  26.435  1.00  0.00     0.031 C 
ATOM     46  C   UNL A   1      39.174  27.158  29.494  1.00  0.00     0.029 A 
ATOM     47  C   UNL A   1      40.153  28.242  29.461  1.00  0.00     0.049 A 
ATOM     48  H   UNL A   1      42.063  28.194  28.632  1.00  0.00     0.167 HD
ATOM     49  C   UNL A   1      46.055  27.829  26.637  1.00  0.00     0.034 A 
ATOM     50  C   UNL A   1      39.990  29.481  29.963  1.00  0.00     0.034 A 
ATOM     51  C   UNL A   1      45.950  29.187  27.102  1.00  0.00     0.049 A 
ATOM     52  C   UNL A   1      41.126  30.463  29.803  1.00  0.00     0.074 A 
ATOM     53  C   UNL A   1      46.861  30.218  26.971  1.00  0.00     0.029 A 
ATOM     54  N   UNL A   1      44.864  29.699  27.805  1.00  0.00    -0.354 N 
ATOM     55  N   UNL A   1      42.286  30.296  29.205  1.00  0.00    -0.248 NA
ATOM     56  C   UNL A   1      40.930  31.800  30.374  1.00  0.00     0.031 C 
ATOM     57  C   UNL A   1      46.363  31.326  27.663  1.00  0.00     0.029 A 
ATOM     58  C   UNL A   1      45.099  31.019  28.146  1.00  0.00     0.049 A 
ATOM     59  H   UNL A   1      44.048  29.195  28.028  1.00  0.00     0.167 HD
ATOM     60  C   UNL A   1      42.945  31.519  29.303  1.00  0.00     0.074 A 
ATOM     61  C   UNL A   1      42.043  32.415  30.001  1.00  0.00     0.031 C 
ATOM     62  C   UNL A   1      44.177  31.878  28.856  1.00  0.00     0.034 A 
BRANCH  49  63
ATOM     63  C   UNL A   1      47.310  27.366  25.939  1.00  0.00     0.023 A 
ATOM     64  C   UNL A   1      48.427  26.890  26.650  1.00  0.00     0.031 A 
ATOM     65  C   UNL A   1      47.414  27.463  24.541  1.00  0.00     0.131 A 
ATOM     66  C   UNL A   1      49.619  26.597  25.967  1.00  0.00     0.055 A 
ATOM     67  C   UNL A   1      48.574  27.090  23.860  1.00  0.00     0.041 A 
ATOM     68  F   UNL A   1      46.395  27.946  23.812  1.00  0.00    -0.206 F 
ATOM     69  C   UNL A   1      49.691  26.669  24.575  1.00  0.00     0.022 A 
BRANCH  66  70
ATOM     70  S   UNL A   1      51.119  26.274  26.936  1.00  0.00     0.124 S 
ATOM     71  O   UNL A   1      50.667  26.582  28.291  1.00  0.00    -0.237 OA
ATOM     72  O   UNL A   1      51.379  24.866  26.653  1.00  0.00    -0.237 OA
ATOM     73  O   UNL A   1      52.093  27.213  26.383  1.00  0.00    -0.744 OA
ENDBRANCH  66  70
ENDBRANCH  49  63
BRANCH  50  74
ATOM     74  C   UNL A   1      38.741  29.847  30.689  1.00  0.00     0.023 A 
ATOM     75  C   UNL A   1      37.748  30.634  30.087  1.00  0.00     0.031 A 
ATOM     76  C   UNL A   1      38.544  29.451  32.025  1.00  0.00     0.131 A 
ATOM     77  C   UNL A   1      36.627  31.036  30.831  1.00  0.00     0.055 A 
ATOM     78  C   UNL A   1      37.400  29.806  32.743  1.00  0.00     0.041 A 
ATOM     79  F   UNL A   1      39.462  28.699  32.655  1.00  0.00    -0.206 F 
ATOM     80  C   UNL A   1      36.440  30.615  32.149  1.00  0.00     0.022 A 
BRANCH  77  81
ATOM     81  S   UNL A   1      35.458  32.201  30.077  1.00  0.00     0.124 S 
ATOM     82  O   UNL A   1      36.317  33.345  29.798  1.00  0.00    -0.237 OA
ATOM     83  O   UNL A   1      34.990  31.450  28.918  1.00  0.00    -0.237 OA
ATOM     84  O   UNL A   1      34.462  32.408  31.126  1.00  0.00    -0.744 OA
ENDBRANCH  77  81
ENDBRANCH  50  74
BRANCH  62  85
ATOM     85  C   UNL A   1      44.589  33.313  29.074  1.00  0.00     0.023 A 
ATOM     86  C   UNL A   1      44.056  34.360  28.305  1.00  0.00     0.031 A 
ATOM     87  C   UNL A   1      45.531  33.632  30.069  1.00  0.00     0.131 A 
ATOM     88  C   UNL A   1      44.517  35.669  28.498  1.00  0.00     0.055 A 
ATOM     89  C   UNL A   1      45.930  34.947  30.306  1.00  0.00     0.041 A 
ATOM     90  F   UNL A   1      46.072  32.669  30.832  1.00  0.00    -0.206 F 
ATOM     91  C   UNL A   1      45.434  35.973  29.507  1.00  0.00     0.022 A 
BRANCH  88  92
ATOM     92  S   UNL A   1      43.984  36.955  27.336  1.00  0.00     0.124 S 
ATOM     93  O   UNL A   1      43.178  37.820  28.192  1.00  0.00    -0.237 OA
ATOM     94  O   UNL A   1      45.254  37.512  26.882  1.00  0.00    -0.237 OA
ATOM     95  O   UNL A   1      43.236  36.213  26.323  1.00  0.00    -0.744 OA
ENDBRANCH  88  92
ENDBRANCH  62  85
ENDBRANCH  36  37
ENDBRANCH  29  31
ENDBRANCH  28  29
ENDBRANCH  27  28
ENDBRANCH  26  27
ENDBRANCH  25  26
ENDBRANCH   1  25
TORSDOF 21
ENDMDL
