MODEL 1
REMARK VINA RESULT:     -11.0      0.000      0.000
REMARK SMILES O=C(OCCOCCOC(=O)c1ccccc1N[C@H]1SC(=O)N(Cc2ccccc2)C1=O)c1ccc(-c2c3nc(c(-c4cc(S(=O)(=O)[O-])ccc4F)c4ccc([nH]4)c(-c4cc(S(=O)(=O)[O-])ccc4F)c4nc(c(-c5cc(S(=O)(=O)[O-])ccc5F)c5ccc2[nH]5)C=C4)C=C3)cc1
REMARK SMILES IDX 7 1 6 2 5 3 4 4 3 5 2 6 1 7 33 8 34 9 95 10 35 11 94 12
REMARK SMILES IDX 36 13 37 14 38 15 88 16 39 17 93 18 87 19 89 20 40 21 92 22
REMARK SMILES IDX 86 23 85 24 41 26 73 27 53 28 72 29 54 30 57 31 71 32 90 33
REMARK SMILES IDX 55 34 56 35 70 37 91 38 58 39 42 40 43 41 51 42 44 43 50 44
REMARK SMILES IDX 52 45 49 46 45 47 46 48 47 49 48 50 74 51 75 52 83 53 76 54
REMARK SMILES IDX 82 55 84 56 81 57 77 58 78 59 79 60 80 61 59 62 60 63 68 64
REMARK SMILES IDX 61 65 67 66 69 67 66 68 62 69 63 70 64 71 65 72 8 73 9 74
REMARK SMILES IDX 10 75 11 76 12 77 13 78 17 79 14 80 16 81 15 82 18 83 19 85
REMARK SMILES IDX 20 86 31 87 21 88 23 89 32 90 22 91 24 92 25 93 26 94 30 95
REMARK SMILES IDX 27 96 29 97 28 98
REMARK H PARENT 89 25 57 36 18 84
REMARK Flexibility Score: inf
ROOT
ATOM      1  C   UNL A   1      34.464  22.610  27.179  1.00  0.00     0.202 C 
ENDROOT
BRANCH   1   2
ATOM      2  O   UNL A   1      35.105  21.422  26.703  1.00  0.00    -0.374 OA
BRANCH   2   3
ATOM      3  C   UNL A   1      35.545  21.420  25.347  1.00  0.00     0.202 C 
BRANCH   3   4
ATOM      4  C   UNL A   1      36.847  20.652  25.100  1.00  0.00     0.261 C 
BRANCH   4   5
ATOM      5  O   UNL A   1      37.974  21.540  25.168  1.00  0.00    -0.460 OA
BRANCH   5   6
ATOM      6  C   UNL A   1      38.941  21.571  26.114  1.00  0.00     0.338 C 
ATOM      7  O   UNL A   1      39.370  20.505  26.555  1.00  0.00    -0.246 OA
BRANCH   6   8
ATOM      8  C   UNL A   1      39.504  22.836  26.674  1.00  0.00     0.060 A 
ATOM      9  C   UNL A   1      40.538  22.891  27.610  1.00  0.00     0.016 A 
ATOM     10  C   UNL A   1      39.048  24.045  26.126  1.00  0.00     0.016 A 
ATOM     11  C   UNL A   1      41.114  24.083  27.999  1.00  0.00     0.010 A 
ATOM     12  C   UNL A   1      39.642  25.257  26.489  1.00  0.00     0.010 A 
ATOM     13  C   UNL A   1      40.692  25.266  27.414  1.00  0.00    -0.014 A 
BRANCH  13  14
ATOM     14  C   UNL A   1      41.364  26.495  27.846  1.00  0.00     0.031 A 
ATOM     15  C   UNL A   1      40.575  27.484  28.637  1.00  0.00     0.074 A 
ATOM     16  C   UNL A   1      42.685  26.623  27.630  1.00  0.00     0.049 A 
ATOM     17  N   UNL A   1      40.919  28.672  29.040  1.00  0.00    -0.248 NA
ATOM     18  C   UNL A   1      39.220  27.069  29.041  1.00  0.00     0.031 C 
ATOM     19  C   UNL A   1      43.539  25.602  27.008  1.00  0.00     0.029 A 
ATOM     20  N   UNL A   1      43.551  27.641  27.921  1.00  0.00    -0.354 N 
ATOM     21  C   UNL A   1      39.808  29.172  29.705  1.00  0.00     0.074 A 
ATOM     22  C   UNL A   1      38.786  28.151  29.672  1.00  0.00     0.031 C 
ATOM     23  C   UNL A   1      44.802  26.053  26.962  1.00  0.00     0.029 A 
ATOM     24  C   UNL A   1      44.828  27.422  27.457  1.00  0.00     0.049 A 
ATOM     25  H   UNL A   1      43.286  28.450  28.414  1.00  0.00     0.167 HD
ATOM     26  C   UNL A   1      39.669  30.396  30.260  1.00  0.00     0.034 A 
ATOM     27  C   UNL A   1      45.870  28.273  27.378  1.00  0.00     0.034 A 
ATOM     28  C   UNL A   1      40.730  31.369  30.254  1.00  0.00     0.049 A 
ATOM     29  C   UNL A   1      45.641  29.675  27.893  1.00  0.00     0.074 A 
ATOM     30  C   UNL A   1      40.722  32.657  30.751  1.00  0.00     0.029 A 
ATOM     31  N   UNL A   1      41.989  31.157  29.703  1.00  0.00    -0.354 N 
ATOM     32  N   UNL A   1      44.574  30.172  28.481  1.00  0.00    -0.248 NA
ATOM     33  C   UNL A   1      46.734  30.636  27.718  1.00  0.00     0.031 C 
ATOM     34  C   UNL A   1      41.944  33.250  30.421  1.00  0.00     0.029 A 
ATOM     35  C   UNL A   1      42.749  32.308  29.798  1.00  0.00     0.049 A 
ATOM     36  H   UNL A   1      42.295  30.310  29.303  1.00  0.00     0.167 HD
ATOM     37  C   UNL A   1      44.874  31.500  28.757  1.00  0.00     0.074 A 
ATOM     38  C   UNL A   1      46.234  31.715  28.301  1.00  0.00     0.031 C 
ATOM     39  C   UNL A   1      44.104  32.464  29.323  1.00  0.00     0.034 A 
BRANCH  26  40
ATOM     40  C   UNL A   1      38.310  30.773  30.783  1.00  0.00     0.023 A 
ATOM     41  C   UNL A   1      37.336  31.392  29.982  1.00  0.00     0.031 A 
ATOM     42  C   UNL A   1      38.008  30.546  32.138  1.00  0.00     0.131 A 
ATOM     43  C   UNL A   1      36.125  31.807  30.557  1.00  0.00     0.055 A 
ATOM     44  C   UNL A   1      36.775  30.897  32.686  1.00  0.00     0.041 A 
ATOM     45  F   UNL A   1      38.919  29.997  32.958  1.00  0.00    -0.206 F 
ATOM     46  C   UNL A   1      35.826  31.540  31.896  1.00  0.00     0.022 A 
BRANCH  43  47
ATOM     47  S   UNL A   1      34.986  32.811  29.564  1.00  0.00     0.124 S 
ATOM     48  O   UNL A   1      35.896  33.792  28.975  1.00  0.00    -0.237 OA
ATOM     49  O   UNL A   1      34.420  31.833  28.643  1.00  0.00    -0.237 OA
ATOM     50  O   UNL A   1      34.053  33.352  30.551  1.00  0.00    -0.744 OA
ENDBRANCH  43  47
ENDBRANCH  26  40
BRANCH  27  51
ATOM     51  C   UNL A   1      47.141  27.890  26.693  1.00  0.00     0.023 A 
ATOM     52  C   UNL A   1      47.294  28.031  25.305  1.00  0.00     0.031 A 
ATOM     53  C   UNL A   1      48.196  27.281  27.403  1.00  0.00     0.131 A 
ATOM     54  C   UNL A   1      48.431  27.506  24.665  1.00  0.00     0.055 A 
ATOM     55  C   UNL A   1      49.358  26.832  26.774  1.00  0.00     0.041 A 
ATOM     56  F   UNL A   1      48.109  27.099  28.731  1.00  0.00    -0.206 F 
ATOM     57  C   UNL A   1      49.471  26.923  25.392  1.00  0.00     0.022 A 
BRANCH  54  58
ATOM     58  S   UNL A   1      48.460  27.458  22.852  1.00  0.00     0.124 S 
ATOM     59  O   UNL A   1      49.719  28.133  22.558  1.00  0.00    -0.237 OA
ATOM     60  O   UNL A   1      48.424  26.024  22.587  1.00  0.00    -0.237 OA
ATOM     61  O   UNL A   1      47.254  28.192  22.473  1.00  0.00    -0.744 OA
ENDBRANCH  54  58
ENDBRANCH  27  51
BRANCH  39  62
ATOM     62  C   UNL A   1      44.739  33.816  29.496  1.00  0.00     0.023 A 
ATOM     63  C   UNL A   1      44.729  34.764  28.460  1.00  0.00     0.031 A 
ATOM     64  C   UNL A   1      45.329  34.167  30.722  1.00  0.00     0.131 A 
ATOM     65  C   UNL A   1      45.338  36.009  28.657  1.00  0.00     0.055 A 
ATOM     66  C   UNL A   1      45.872  35.432  30.934  1.00  0.00     0.041 A 
ATOM     67  F   UNL A   1      45.363  33.291  31.741  1.00  0.00    -0.206 F 
ATOM     68  C   UNL A   1      45.887  36.358  29.895  1.00  0.00     0.022 A 
BRANCH  65  69
ATOM     69  S   UNL A   1      45.466  37.143  27.250  1.00  0.00     0.124 S 
ATOM     70  O   UNL A   1      44.073  37.528  27.046  1.00  0.00    -0.237 OA
ATOM     71  O   UNL A   1      46.347  38.185  27.765  1.00  0.00    -0.237 OA
ATOM     72  O   UNL A   1      46.041  36.311  26.194  1.00  0.00    -0.744 OA
ENDBRANCH  65  69
ENDBRANCH  39  62
ENDBRANCH  13  14
ENDBRANCH   6   8
ENDBRANCH   5   6
ENDBRANCH   4   5
ENDBRANCH   3   4
ENDBRANCH   2   3
ENDBRANCH   1   2
BRANCH   1  73
ATOM     73  C   UNL A   1      33.047  22.242  27.622  1.00  0.00     0.261 C 
BRANCH  73  74
ATOM     74  O   UNL A   1      32.163  23.208  27.037  1.00  0.00    -0.460 OA
BRANCH  74  75
ATOM     75  C   UNL A   1      31.810  22.961  25.747  1.00  0.00     0.340 C 
ATOM     76  O   UNL A   1      31.962  21.912  25.141  1.00  0.00    -0.246 OA
BRANCH  75  77
ATOM     77  C   UNL A   1      31.050  24.124  25.206  1.00  0.00     0.083 A 
ATOM     78  C   UNL A   1      30.404  24.931  26.160  1.00  0.00     0.018 A 
ATOM     79  C   UNL A   1      30.985  24.443  23.828  1.00  0.00     0.050 A 
ATOM     80  C   UNL A   1      29.647  26.027  25.760  1.00  0.00     0.001 A 
ATOM     81  C   UNL A   1      30.141  25.494  23.449  1.00  0.00     0.026 A 
ATOM     82  C   UNL A   1      29.488  26.286  24.403  1.00  0.00     0.002 A 
BRANCH  79  83
ATOM     83  N   UNL A   1      31.762  23.769  22.888  1.00  0.00    -0.364 N 
ATOM     84  H   UNL A   1      31.488  22.860  22.630  1.00  0.00     0.162 HD
BRANCH  83  85
ATOM     85  C   UNL A   1      32.953  24.324  22.264  1.00  0.00     0.238 C 
ATOM     86  S   UNL A   1      32.531  25.578  21.046  1.00  0.00    -0.029 SA
ATOM     87  C   UNL A   1      33.762  25.081  23.331  1.00  0.00     0.263 C 
ATOM     88  C   UNL A   1      33.030  26.893  22.076  1.00  0.00     0.291 C 
ATOM     89  N   UNL A   1      33.631  26.444  23.211  1.00  0.00    -0.266 N 
ATOM     90  O   UNL A   1      34.413  24.518  24.208  1.00  0.00    -0.271 OA
ATOM     91  O   UNL A   1      32.908  28.061  21.724  1.00  0.00    -0.261 OA
BRANCH  89  92
ATOM     92  C   UNL A   1      34.276  27.364  24.130  1.00  0.00     0.165 C 
BRANCH  92  93
ATOM     93  C   UNL A   1      33.373  27.962  25.189  1.00  0.00    -0.028 A 
ATOM     94  C   UNL A   1      33.257  27.359  26.452  1.00  0.00     0.005 A 
ATOM     95  C   UNL A   1      32.554  29.065  24.899  1.00  0.00     0.005 A 
ATOM     96  C   UNL A   1      32.323  27.826  27.383  1.00  0.00     0.000 A 
ATOM     97  C   UNL A   1      31.628  29.536  25.834  1.00  0.00     0.000 A 
ATOM     98  C   UNL A   1      31.505  28.910  27.072  1.00  0.00     0.000 A 
ENDBRANCH  92  93
ENDBRANCH  89  92
ENDBRANCH  83  85
ENDBRANCH  79  83
ENDBRANCH  75  77
ENDBRANCH  74  75
ENDBRANCH  73  74
ENDBRANCH   1  73
TORSDOF 21
ENDMDL
MODEL 2
REMARK VINA RESULT:     -10.9      4.974      9.934
REMARK SMILES O=C(OCCOCCOC(=O)c1ccccc1N[C@H]1SC(=O)N(Cc2ccccc2)C1=O)c1ccc(-c2c3nc(c(-c4cc(S(=O)(=O)[O-])ccc4F)c4ccc([nH]4)c(-c4cc(S(=O)(=O)[O-])ccc4F)c4nc(c(-c5cc(S(=O)(=O)[O-])ccc5F)c5ccc2[nH]5)C=C4)C=C3)cc1
REMARK SMILES IDX 7 1 6 2 5 3 4 4 3 5 2 6 1 7 33 8 34 9 95 10 35 11 94 12
REMARK SMILES IDX 36 13 37 14 38 15 88 16 39 17 93 18 87 19 89 20 40 21 92 22
REMARK SMILES IDX 86 23 85 24 41 26 73 27 53 28 72 29 54 30 57 31 71 32 90 33
REMARK SMILES IDX 55 34 56 35 70 37 91 38 58 39 42 40 43 41 51 42 44 43 50 44
REMARK SMILES IDX 52 45 49 46 45 47 46 48 47 49 48 50 74 51 75 52 83 53 76 54
REMARK SMILES IDX 82 55 84 56 81 57 77 58 78 59 79 60 80 61 59 62 60 63 68 64
REMARK SMILES IDX 61 65 67 66 69 67 66 68 62 69 63 70 64 71 65 72 8 73 9 74
REMARK SMILES IDX 10 75 11 76 12 77 13 78 17 79 14 80 16 81 15 82 18 83 19 85
REMARK SMILES IDX 20 86 31 87 21 88 23 89 32 90 22 91 24 92 25 93 26 94 30 95
REMARK SMILES IDX 27 96 29 97 28 98
REMARK H PARENT 89 25 57 36 18 84
REMARK Flexibility Score: inf
ROOT
ATOM      1  C   UNL A   1      33.233  28.907  23.426  1.00  0.00     0.202 C 
ENDROOT
BRANCH   1   2
ATOM      2  O   UNL A   1      31.803  28.972  23.424  1.00  0.00    -0.374 OA
BRANCH   2   3
ATOM      3  C   UNL A   1      31.176  29.533  24.574  1.00  0.00     0.202 C 
BRANCH   3   4
ATOM      4  C   UNL A   1      32.061  29.586  25.823  1.00  0.00     0.261 C 
BRANCH   4   5
ATOM      5  O   UNL A   1      32.786  30.825  25.872  1.00  0.00    -0.460 OA
BRANCH   5   6
ATOM      6  C   UNL A   1      33.254  31.461  26.971  1.00  0.00     0.338 C 
ATOM      7  O   UNL A   1      32.583  32.372  27.456  1.00  0.00    -0.246 OA
BRANCH   6   8
ATOM      8  C   UNL A   1      34.559  31.133  27.617  1.00  0.00     0.060 A 
ATOM      9  C   UNL A   1      35.552  32.071  27.906  1.00  0.00     0.016 A 
ATOM     10  C   UNL A   1      34.741  29.820  28.078  1.00  0.00     0.016 A 
ATOM     11  C   UNL A   1      36.685  31.745  28.622  1.00  0.00     0.010 A 
ATOM     12  C   UNL A   1      35.871  29.482  28.830  1.00  0.00     0.010 A 
ATOM     13  C   UNL A   1      36.831  30.459  29.117  1.00  0.00    -0.014 A 
BRANCH  13  14
ATOM     14  C   UNL A   1      38.041  30.182  29.896  1.00  0.00     0.031 A 
ATOM     15  C   UNL A   1      39.072  29.287  29.296  1.00  0.00     0.074 A 
ATOM     16  C   UNL A   1      38.234  30.842  31.053  1.00  0.00     0.049 A 
ATOM     17  N   UNL A   1      40.165  28.824  29.828  1.00  0.00    -0.248 NA
ATOM     18  C   UNL A   1      38.848  28.872  27.900  1.00  0.00     0.031 C 
ATOM     19  C   UNL A   1      37.328  31.861  31.600  1.00  0.00     0.029 A 
ATOM     20  N   UNL A   1      39.251  30.782  31.965  1.00  0.00    -0.354 N 
ATOM     21  C   UNL A   1      40.739  28.020  28.852  1.00  0.00     0.074 A 
ATOM     22  C   UNL A   1      39.887  28.077  27.687  1.00  0.00     0.031 C 
ATOM     23  C   UNL A   1      37.832  32.322  32.756  1.00  0.00     0.029 A 
ATOM     24  C   UNL A   1      39.035  31.567  33.075  1.00  0.00     0.049 A 
ATOM     25  H   UNL A   1      40.057  30.232  31.839  1.00  0.00     0.167 HD
ATOM     26  C   UNL A   1      41.868  27.284  28.958  1.00  0.00     0.034 A 
ATOM     27  C   UNL A   1      39.704  31.600  34.245  1.00  0.00     0.034 A 
ATOM     28  C   UNL A   1      42.669  27.272  30.153  1.00  0.00     0.049 A 
ATOM     29  C   UNL A   1      40.888  30.670  34.377  1.00  0.00     0.074 A 
ATOM     30  C   UNL A   1      43.819  26.552  30.413  1.00  0.00     0.029 A 
ATOM     31  N   UNL A   1      42.387  28.008  31.298  1.00  0.00    -0.354 N 
ATOM     32  N   UNL A   1      41.409  29.869  33.472  1.00  0.00    -0.248 NA
ATOM     33  C   UNL A   1      41.559  30.625  35.679  1.00  0.00     0.031 C 
ATOM     34  C   UNL A   1      44.179  26.787  31.743  1.00  0.00     0.029 A 
ATOM     35  C   UNL A   1      43.308  27.720  32.287  1.00  0.00     0.049 A 
ATOM     36  H   UNL A   1      41.639  28.643  31.391  1.00  0.00     0.167 HD
ATOM     37  C   UNL A   1      42.478  29.236  34.095  1.00  0.00     0.074 A 
ATOM     38  C   UNL A   1      42.545  29.773  35.440  1.00  0.00     0.031 C 
ATOM     39  C   UNL A   1      43.324  28.289  33.615  1.00  0.00     0.034 A 
BRANCH  26  40
ATOM     40  C   UNL A   1      42.204  26.361  27.819  1.00  0.00     0.023 A 
ATOM     41  C   UNL A   1      41.731  25.040  27.750  1.00  0.00     0.031 A 
ATOM     42  C   UNL A   1      43.067  26.809  26.803  1.00  0.00     0.131 A 
ATOM     43  C   UNL A   1      42.163  24.200  26.713  1.00  0.00     0.055 A 
ATOM     44  C   UNL A   1      43.436  25.991  25.736  1.00  0.00     0.041 A 
ATOM     45  F   UNL A   1      43.583  28.049  26.843  1.00  0.00    -0.206 F 
ATOM     46  C   UNL A   1      42.991  24.674  25.690  1.00  0.00     0.022 A 
BRANCH  43  47
ATOM     47  S   UNL A   1      41.730  22.440  26.776  1.00  0.00     0.124 S 
ATOM     48  O   UNL A   1      41.890  22.046  25.378  1.00  0.00    -0.237 OA
ATOM     49  O   UNL A   1      42.716  21.903  27.707  1.00  0.00    -0.237 OA
ATOM     50  O   UNL A   1      40.351  22.441  27.261  1.00  0.00    -0.744 OA
ENDBRANCH  43  47
ENDBRANCH  26  40
BRANCH  27  51
ATOM     51  C   UNL A   1      39.219  32.415  35.400  1.00  0.00     0.023 A 
ATOM     52  C   UNL A   1      39.630  33.744  35.581  1.00  0.00     0.031 A 
ATOM     53  C   UNL A   1      38.408  31.844  36.402  1.00  0.00     0.131 A 
ATOM     54  C   UNL A   1      39.296  34.429  36.762  1.00  0.00     0.055 A 
ATOM     55  C   UNL A   1      38.013  32.555  37.537  1.00  0.00     0.041 A 
ATOM     56  F   UNL A   1      37.991  30.572  36.301  1.00  0.00    -0.206 F 
ATOM     57  C   UNL A   1      38.476  33.850  37.733  1.00  0.00     0.022 A 
BRANCH  54  58
ATOM     58  S   UNL A   1      40.077  36.035  37.083  1.00  0.00     0.124 S 
ATOM     59  O   UNL A   1      39.910  36.707  35.798  1.00  0.00    -0.237 OA
ATOM     60  O   UNL A   1      39.272  36.549  38.185  1.00  0.00    -0.237 OA
ATOM     61  O   UNL A   1      41.452  35.681  37.428  1.00  0.00    -0.744 OA
ENDBRANCH  54  58
ENDBRANCH  27  51
BRANCH  39  62
ATOM     62  C   UNL A   1      44.399  27.811  34.552  1.00  0.00     0.023 A 
ATOM     63  C   UNL A   1      44.209  26.681  35.364  1.00  0.00     0.031 A 
ATOM     64  C   UNL A   1      45.635  28.476  34.605  1.00  0.00     0.131 A 
ATOM     65  C   UNL A   1      45.230  26.272  36.230  1.00  0.00     0.055 A 
ATOM     66  C   UNL A   1      46.672  28.023  35.418  1.00  0.00     0.041 A 
ATOM     67  F   UNL A   1      45.862  29.562  33.848  1.00  0.00    -0.206 F 
ATOM     68  C   UNL A   1      46.469  26.921  36.244  1.00  0.00     0.022 A 
BRANCH  65  69
ATOM     69  S   UNL A   1      44.893  24.923  37.390  1.00  0.00     0.124 S 
ATOM     70  O   UNL A   1      45.916  25.139  38.408  1.00  0.00    -0.237 OA
ATOM     71  O   UNL A   1      43.519  25.196  37.799  1.00  0.00    -0.237 OA
ATOM     72  O   UNL A   1      45.070  23.721  36.577  1.00  0.00    -0.744 OA
ENDBRANCH  65  69
ENDBRANCH  39  62
ENDBRANCH  13  14
ENDBRANCH   6   8
ENDBRANCH   5   6
ENDBRANCH   4   5
ENDBRANCH   3   4
ENDBRANCH   2   3
ENDBRANCH   1   2
BRANCH   1  73
ATOM     73  C   UNL A   1      33.670  27.985  22.288  1.00  0.00     0.261 C 
BRANCH  73  74
ATOM     74  O   UNL A   1      32.561  27.120  22.002  1.00  0.00    -0.460 OA
BRANCH  74  75
ATOM     75  C   UNL A   1      32.764  25.807  22.292  1.00  0.00     0.340 C 
ATOM     76  O   UNL A   1      33.382  25.001  21.616  1.00  0.00    -0.246 OA
BRANCH  75  77
ATOM     77  C   UNL A   1      32.250  25.514  23.661  1.00  0.00     0.083 A 
ATOM     78  C   UNL A   1      30.862  25.657  23.838  1.00  0.00     0.018 A 
ATOM     79  C   UNL A   1      33.074  25.087  24.730  1.00  0.00     0.050 A 
ATOM     80  C   UNL A   1      30.283  25.431  25.083  1.00  0.00     0.001 A 
ATOM     81  C   UNL A   1      32.478  24.960  25.991  1.00  0.00     0.026 A 
ATOM     82  C   UNL A   1      31.096  25.117  26.165  1.00  0.00     0.002 A 
BRANCH  79  83
ATOM     83  N   UNL A   1      34.415  24.764  24.532  1.00  0.00    -0.364 N 
ATOM     84  H   UNL A   1      35.054  25.503  24.415  1.00  0.00     0.162 HD
BRANCH  83  85
ATOM     85  C   UNL A   1      34.929  23.405  24.486  1.00  0.00     0.238 C 
ATOM     86  S   UNL A   1      35.440  22.841  26.115  1.00  0.00    -0.029 SA
ATOM     87  C   UNL A   1      33.783  22.457  24.093  1.00  0.00     0.263 C 
ATOM     88  C   UNL A   1      34.049  21.808  26.307  1.00  0.00     0.291 C 
ATOM     89  N   UNL A   1      33.308  21.744  25.168  1.00  0.00    -0.266 N 
ATOM     90  O   UNL A   1      33.328  22.385  22.953  1.00  0.00    -0.271 OA
ATOM     91  O   UNL A   1      33.864  21.171  27.338  1.00  0.00    -0.261 OA
BRANCH  89  92
ATOM     92  C   UNL A   1      32.203  20.811  25.046  1.00  0.00     0.165 C 
BRANCH  92  93
ATOM     93  C   UNL A   1      32.548  19.480  24.408  1.00  0.00    -0.028 A 
ATOM     94  C   UNL A   1      33.359  18.553  25.082  1.00  0.00     0.005 A 
ATOM     95  C   UNL A   1      32.154  19.188  23.091  1.00  0.00     0.005 A 
ATOM     96  C   UNL A   1      33.792  17.386  24.444  1.00  0.00     0.000 A 
ATOM     97  C   UNL A   1      32.581  18.017  22.460  1.00  0.00     0.000 A 
ATOM     98  C   UNL A   1      33.408  17.121  23.132  1.00  0.00     0.000 A 
ENDBRANCH  92  93
ENDBRANCH  89  92
ENDBRANCH  83  85
ENDBRANCH  79  83
ENDBRANCH  75  77
ENDBRANCH  74  75
ENDBRANCH  73  74
ENDBRANCH   1  73
TORSDOF 21
ENDMDL
MODEL 3
REMARK VINA RESULT:     -10.8      4.929      8.775
REMARK SMILES O=C(OCCOCCOC(=O)c1ccccc1N[C@H]1SC(=O)N(Cc2ccccc2)C1=O)c1ccc(-c2c3nc(c(-c4cc(S(=O)(=O)[O-])ccc4F)c4ccc([nH]4)c(-c4cc(S(=O)(=O)[O-])ccc4F)c4nc(c(-c5cc(S(=O)(=O)[O-])ccc5F)c5ccc2[nH]5)C=C4)C=C3)cc1
REMARK SMILES IDX 7 1 6 2 5 3 4 4 3 5 2 6 1 7 33 8 34 9 95 10 35 11 94 12
REMARK SMILES IDX 36 13 37 14 38 15 88 16 39 17 93 18 87 19 89 20 40 21 92 22
REMARK SMILES IDX 86 23 85 24 41 26 73 27 53 28 72 29 54 30 57 31 71 32 90 33
REMARK SMILES IDX 55 34 56 35 70 37 91 38 58 39 42 40 43 41 51 42 44 43 50 44
REMARK SMILES IDX 52 45 49 46 45 47 46 48 47 49 48 50 74 51 75 52 83 53 76 54
REMARK SMILES IDX 82 55 84 56 81 57 77 58 78 59 79 60 80 61 59 62 60 63 68 64
REMARK SMILES IDX 61 65 67 66 69 67 66 68 62 69 63 70 64 71 65 72 8 73 9 74
REMARK SMILES IDX 10 75 11 76 12 77 13 78 17 79 14 80 16 81 15 82 18 83 19 85
REMARK SMILES IDX 20 86 31 87 21 88 23 89 32 90 22 91 24 92 25 93 26 94 30 95
REMARK SMILES IDX 27 96 29 97 28 98
REMARK H PARENT 89 25 57 36 18 84
REMARK Flexibility Score: inf
ROOT
ATOM      1  C   UNL A   1      38.942  21.436  25.838  1.00  0.00     0.202 C 
ENDROOT
BRANCH   1   2
ATOM      2  O   UNL A   1      39.947  20.429  25.988  1.00  0.00    -0.374 OA
BRANCH   2   3
ATOM      3  C   UNL A   1      41.037  20.722  26.859  1.00  0.00     0.202 C 
BRANCH   3   4
ATOM      4  C   UNL A   1      42.354  21.043  26.148  1.00  0.00     0.261 C 
BRANCH   4   5
ATOM      5  O   UNL A   1      42.205  22.207  25.318  1.00  0.00    -0.460 OA
BRANCH   5   6
ATOM      6  C   UNL A   1      42.818  23.405  25.463  1.00  0.00     0.338 C 
ATOM      7  O   UNL A   1      43.829  23.634  24.798  1.00  0.00    -0.246 OA
BRANCH   6   8
ATOM      8  C   UNL A   1      42.348  24.460  26.408  1.00  0.00     0.060 A 
ATOM      9  C   UNL A   1      41.438  24.240  27.444  1.00  0.00     0.016 A 
ATOM     10  C   UNL A   1      42.960  25.721  26.327  1.00  0.00     0.016 A 
ATOM     11  C   UNL A   1      41.134  25.213  28.373  1.00  0.00     0.010 A 
ATOM     12  C   UNL A   1      42.683  26.707  27.279  1.00  0.00     0.010 A 
ATOM     13  C   UNL A   1      41.781  26.437  28.315  1.00  0.00    -0.014 A 
BRANCH  13  14
ATOM     14  C   UNL A   1      41.438  27.418  29.349  1.00  0.00     0.031 A 
ATOM     15  C   UNL A   1      42.319  27.510  30.548  1.00  0.00     0.074 A 
ATOM     16  C   UNL A   1      40.431  28.280  29.117  1.00  0.00     0.049 A 
ATOM     17  N   UNL A   1      42.165  28.223  31.626  1.00  0.00    -0.248 NA
ATOM     18  C   UNL A   1      43.549  26.699  30.523  1.00  0.00     0.031 C 
ATOM     19  C   UNL A   1      39.644  28.341  27.877  1.00  0.00     0.029 A 
ATOM     20  N   UNL A   1      39.905  29.278  29.889  1.00  0.00    -0.354 N 
ATOM     21  C   UNL A   1      43.252  27.912  32.432  1.00  0.00     0.074 A 
ATOM     22  C   UNL A   1      44.070  26.965  31.711  1.00  0.00     0.031 C 
ATOM     23  C   UNL A   1      38.735  29.322  27.982  1.00  0.00     0.029 A 
ATOM     24  C   UNL A   1      38.809  29.888  29.321  1.00  0.00     0.049 A 
ATOM     25  H   UNL A   1      40.274  29.535  30.764  1.00  0.00     0.167 HD
ATOM     26  C   UNL A   1      43.504  28.372  33.678  1.00  0.00     0.034 A 
ATOM     27  C   UNL A   1      37.928  30.750  29.867  1.00  0.00     0.034 A 
ATOM     28  C   UNL A   1      42.641  29.315  34.339  1.00  0.00     0.049 A 
ATOM     29  C   UNL A   1      38.168  31.145  31.305  1.00  0.00     0.074 A 
ATOM     30  C   UNL A   1      42.755  29.844  35.610  1.00  0.00     0.029 A 
ATOM     31  N   UNL A   1      41.489  29.856  33.779  1.00  0.00    -0.354 N 
ATOM     32  N   UNL A   1      39.170  30.817  32.092  1.00  0.00    -0.248 NA
ATOM     33  C   UNL A   1      37.160  32.001  31.938  1.00  0.00     0.031 C 
ATOM     34  C   UNL A   1      41.626  30.634  35.847  1.00  0.00     0.029 A 
ATOM     35  C   UNL A   1      40.852  30.671  34.696  1.00  0.00     0.049 A 
ATOM     36  H   UNL A   1      41.173  29.684  32.861  1.00  0.00     0.167 HD
ATOM     37  C   UNL A   1      38.917  31.438  33.309  1.00  0.00     0.074 A 
ATOM     38  C   UNL A   1      37.687  32.186  33.140  1.00  0.00     0.031 C 
ATOM     39  C   UNL A   1      39.621  31.393  34.469  1.00  0.00     0.034 A 
BRANCH  26  40
ATOM     40  C   UNL A   1      44.661  27.765  34.422  1.00  0.00     0.023 A 
ATOM     41  C   UNL A   1      44.513  26.674  35.293  1.00  0.00     0.031 A 
ATOM     42  C   UNL A   1      45.940  28.336  34.286  1.00  0.00     0.131 A 
ATOM     43  C   UNL A   1      45.616  26.219  36.033  1.00  0.00     0.055 A 
ATOM     44  C   UNL A   1      47.047  27.833  34.970  1.00  0.00     0.041 A 
ATOM     45  F   UNL A   1      46.130  29.407  33.500  1.00  0.00    -0.206 F 
ATOM     46  C   UNL A   1      46.887  26.773  35.857  1.00  0.00     0.022 A 
BRANCH  43  47
ATOM     47  S   UNL A   1      45.349  24.970  37.321  1.00  0.00     0.124 S 
ATOM     48  O   UNL A   1      44.770  25.775  38.395  1.00  0.00    -0.237 OA
ATOM     49  O   UNL A   1      44.444  24.030  36.670  1.00  0.00    -0.237 OA
ATOM     50  O   UNL A   1      46.691  24.459  37.589  1.00  0.00    -0.744 OA
ENDBRANCH  43  47
ENDBRANCH  26  40
BRANCH  27  51
ATOM     51  C   UNL A   1      36.703  31.185  29.131  1.00  0.00     0.023 A 
ATOM     52  C   UNL A   1      35.774  30.253  28.642  1.00  0.00     0.031 A 
ATOM     53  C   UNL A   1      36.487  32.542  28.815  1.00  0.00     0.131 A 
ATOM     54  C   UNL A   1      34.724  30.675  27.809  1.00  0.00     0.055 A 
ATOM     55  C   UNL A   1      35.398  32.966  28.052  1.00  0.00     0.041 A 
ATOM     56  F   UNL A   1      37.345  33.486  29.235  1.00  0.00    -0.206 F 
ATOM     57  C   UNL A   1      34.520  32.028  27.525  1.00  0.00     0.022 A 
BRANCH  54  58
ATOM     58  S   UNL A   1      33.719  29.416  26.976  1.00  0.00     0.124 S 
ATOM     59  O   UNL A   1      34.722  28.413  26.638  1.00  0.00    -0.237 OA
ATOM     60  O   UNL A   1      32.768  29.048  28.019  1.00  0.00    -0.237 OA
ATOM     61  O   UNL A   1      33.148  30.135  25.839  1.00  0.00    -0.744 OA
ENDBRANCH  54  58
ENDBRANCH  27  51
BRANCH  39  62
ATOM     62  C   UNL A   1      39.079  32.200  35.617  1.00  0.00     0.023 A 
ATOM     63  C   UNL A   1      38.382  31.589  36.671  1.00  0.00     0.031 A 
ATOM     64  C   UNL A   1      39.294  33.587  35.668  1.00  0.00     0.131 A 
ATOM     65  C   UNL A   1      37.884  32.374  37.718  1.00  0.00     0.055 A 
ATOM     66  C   UNL A   1      38.856  34.352  36.747  1.00  0.00     0.041 A 
ATOM     67  F   UNL A   1      39.955  34.215  34.681  1.00  0.00    -0.206 F 
ATOM     68  C   UNL A   1      38.139  33.748  37.775  1.00  0.00     0.022 A 
BRANCH  65  69
ATOM     69  S   UNL A   1      36.839  31.586  38.970  1.00  0.00     0.124 S 
ATOM     70  O   UNL A   1      36.775  30.211  38.487  1.00  0.00    -0.237 OA
ATOM     71  O   UNL A   1      37.603  31.797  40.195  1.00  0.00    -0.237 OA
ATOM     72  O   UNL A   1      35.585  32.333  38.885  1.00  0.00    -0.744 OA
ENDBRANCH  65  69
ENDBRANCH  39  62
ENDBRANCH  13  14
ENDBRANCH   6   8
ENDBRANCH   5   6
ENDBRANCH   4   5
ENDBRANCH   3   4
ENDBRANCH   2   3
ENDBRANCH   1   2
BRANCH   1  73
ATOM     73  C   UNL A   1      37.709  20.788  25.206  1.00  0.00     0.261 C 
BRANCH  73  74
ATOM     74  O   UNL A   1      36.906  21.851  24.673  1.00  0.00    -0.460 OA
BRANCH  74  75
ATOM     75  C   UNL A   1      36.090  22.464  25.572  1.00  0.00     0.340 C 
ATOM     76  O   UNL A   1      36.395  23.375  26.325  1.00  0.00    -0.246 OA
BRANCH  75  77
ATOM     77  C   UNL A   1      34.695  21.968  25.399  1.00  0.00     0.083 A 
ATOM     78  C   UNL A   1      34.567  20.661  24.896  1.00  0.00     0.018 A 
ATOM     79  C   UNL A   1      33.548  22.726  25.738  1.00  0.00     0.050 A 
ATOM     80  C   UNL A   1      33.309  20.111  24.674  1.00  0.00     0.001 A 
ATOM     81  C   UNL A   1      32.298  22.183  25.415  1.00  0.00     0.026 A 
ATOM     82  C   UNL A   1      32.177  20.885  24.900  1.00  0.00     0.002 A 
BRANCH  79  83
ATOM     83  N   UNL A   1      33.652  23.945  26.405  1.00  0.00    -0.364 N 
ATOM     84  H   UNL A   1      33.834  23.927  27.372  1.00  0.00     0.162 HD
BRANCH  83  85
ATOM     85  C   UNL A   1      33.510  25.242  25.763  1.00  0.00     0.238 C 
ATOM     86  S   UNL A   1      33.860  25.145  24.002  1.00  0.00    -0.029 SA
ATOM     87  C   UNL A   1      32.034  25.670  25.839  1.00  0.00     0.263 C 
ATOM     88  C   UNL A   1      32.179  25.265  23.557  1.00  0.00     0.291 C 
ATOM     89  N   UNL A   1      31.389  25.524  24.634  1.00  0.00    -0.266 N 
ATOM     90  O   UNL A   1      31.497  26.058  26.874  1.00  0.00    -0.271 OA
ATOM     91  O   UNL A   1      31.823  25.203  22.385  1.00  0.00    -0.261 OA
BRANCH  89  92
ATOM     92  C   UNL A   1      29.980  25.833  24.471  1.00  0.00     0.165 C 
BRANCH  92  93
ATOM     93  C   UNL A   1      29.675  27.259  24.059  1.00  0.00    -0.028 A 
ATOM     94  C   UNL A   1      28.484  27.568  23.383  1.00  0.00     0.005 A 
ATOM     95  C   UNL A   1      30.619  28.282  24.249  1.00  0.00     0.005 A 
ATOM     96  C   UNL A   1      28.261  28.854  22.881  1.00  0.00     0.000 A 
ATOM     97  C   UNL A   1      30.389  29.569  23.754  1.00  0.00     0.000 A 
ATOM     98  C   UNL A   1      29.215  29.852  23.061  1.00  0.00     0.000 A 
ENDBRANCH  92  93
ENDBRANCH  89  92
ENDBRANCH  83  85
ENDBRANCH  79  83
ENDBRANCH  75  77
ENDBRANCH  74  75
ENDBRANCH  73  74
ENDBRANCH   1  73
TORSDOF 21
ENDMDL
