MODEL 1
REMARK VINA RESULT:      -9.5      0.000      0.000
REMARK SMILES CC(C)(C)[NH2+]Cc1ccn(CC(C)(C)C(=O)OCCOCCOC(=O)c2ccc(-c3c4nc(c(-c5cc(S(=O)(=O)[O-])ccc5F)c5ccc([nH]5)c(-c5cc(S(=O)(=O)[O-])ccc5F)c5nc(c(-c6cc(S(=O)(=O)[O-])ccc6F)c6ccc3[nH]6)C=C5)C=C4)cc2)c1
REMARK SMILES IDX 19 1 18 2 17 3 15 4 16 5 12 6 13 7 14 8 11 9 10 10 7 11 8 12
REMARK SMILES IDX 89 13 9 14 6 15 5 16 2 19 1 20 3 21 4 22 20 23 21 24 22 25
REMARK SMILES IDX 23 26 24 27 25 28 26 29 27 30 88 31 28 32 87 33 29 34 30 35
REMARK SMILES IDX 31 36 81 37 32 38 86 39 80 40 82 41 33 42 85 43 79 44 78 45
REMARK SMILES IDX 34 47 66 48 46 49 65 50 47 51 50 52 64 53 83 54 48 55 49 56
REMARK SMILES IDX 63 58 84 59 51 60 35 61 36 62 44 63 37 64 43 65 45 66 42 67
REMARK SMILES IDX 38 68 39 69 40 70 41 71 67 72 68 73 76 74 69 75 75 76 77 77
REMARK SMILES IDX 74 78 70 79 71 80 72 81 73 82 52 83 53 84 61 85 54 86 60 87
REMARK SMILES IDX 62 88 59 89 55 90 56 91 57 92 58 93
REMARK H PARENT 5 17 5 18 82 46 50 57
REMARK Flexibility Score: inf
ROOT
ATOM      1  C   UNL A   1      35.203  33.022  28.113  1.00  0.00     0.202 C 
ENDROOT
BRANCH   1   2
ATOM      2  C   UNL A   1      33.990  32.098  28.129  1.00  0.00     0.261 C 
BRANCH   2   3
ATOM      3  O   UNL A   1      33.888  31.323  26.926  1.00  0.00    -0.463 OA
BRANCH   3   4
ATOM      4  C   UNL A   1      32.747  30.596  26.822  1.00  0.00     0.313 C 
ATOM      5  O   UNL A   1      31.626  31.090  26.827  1.00  0.00    -0.252 OA
BRANCH   4   6
ATOM      6  C   UNL A   1      32.998  29.087  26.712  1.00  0.00     0.080 C 
ATOM      7  C   UNL A   1      31.835  28.413  27.462  1.00  0.00     0.025 C 
ATOM      8  C   UNL A   1      34.304  28.625  27.387  1.00  0.00     0.025 C 
BRANCH   6   9
ATOM      9  C   UNL A   1      33.057  28.638  25.229  1.00  0.00     0.139 C 
BRANCH   9  10
ATOM     10  N   UNL A   1      31.798  28.497  24.520  1.00  0.00    -0.353 N 
ATOM     11  C   UNL A   1      30.076  28.954  23.174  1.00  0.00     0.024 A 
ATOM     12  C   UNL A   1      29.924  27.641  23.698  1.00  0.00     0.029 A 
ATOM     13  C   UNL A   1      31.217  29.478  23.757  1.00  0.00     0.095 A 
ATOM     14  C   UNL A   1      31.051  27.357  24.435  1.00  0.00     0.086 A 
BRANCH  11  15
ATOM     15  C   UNL A   1      29.210  29.593  22.144  1.00  0.00     0.299 C 
BRANCH  15  16
ATOM     16  N   UNL A   1      29.549  31.011  21.994  1.00  0.00    -0.338 N 
ATOM     17  H   UNL A   1      30.371  31.184  22.573  1.00  0.00     0.347 HD
ATOM     18  H   UNL A   1      29.666  31.128  20.987  1.00  0.00     0.347 HD
BRANCH  16  19
ATOM     19  C   UNL A   1      28.545  32.032  22.352  1.00  0.00     0.088 C 
ATOM     20  C   UNL A   1      27.470  31.494  23.310  1.00  0.00     0.078 C 
ATOM     21  C   UNL A   1      27.868  32.708  21.144  1.00  0.00     0.078 C 
ATOM     22  C   UNL A   1      29.342  33.134  23.080  1.00  0.00     0.078 C 
ENDBRANCH  16  19
ENDBRANCH  15  16
ENDBRANCH  11  15
ENDBRANCH   9  10
ENDBRANCH   6   9
ENDBRANCH   4   6
ENDBRANCH   3   4
ENDBRANCH   2   3
ENDBRANCH   1   2
BRANCH   1  23
ATOM     23  O   UNL A   1      34.989  34.427  27.983  1.00  0.00    -0.374 OA
BRANCH  23  24
ATOM     24  C   UNL A   1      33.817  35.033  28.515  1.00  0.00     0.202 C 
BRANCH  24  25
ATOM     25  C   UNL A   1      33.746  35.373  30.000  1.00  0.00     0.261 C 
BRANCH  25  26
ATOM     26  O   UNL A   1      33.562  34.240  30.836  1.00  0.00    -0.460 OA
BRANCH  26  27
ATOM     27  C   UNL A   1      33.902  34.526  32.111  1.00  0.00     0.338 C 
ATOM     28  O   UNL A   1      33.365  35.329  32.856  1.00  0.00    -0.246 OA
BRANCH  27  29
ATOM     29  C   UNL A   1      35.129  33.843  32.488  1.00  0.00     0.060 A 
ATOM     30  C   UNL A   1      36.075  34.645  33.128  1.00  0.00     0.016 A 
ATOM     31  C   UNL A   1      35.455  32.660  31.814  1.00  0.00     0.016 A 
ATOM     32  C   UNL A   1      37.400  34.375  32.907  1.00  0.00     0.010 A 
ATOM     33  C   UNL A   1      36.784  32.411  31.562  1.00  0.00     0.010 A 
ATOM     34  C   UNL A   1      37.737  33.301  32.073  1.00  0.00    -0.014 A 
BRANCH  34  35
ATOM     35  C   UNL A   1      39.160  33.003  31.951  1.00  0.00     0.031 A 
ATOM     36  C   UNL A   1      39.530  31.997  33.067  1.00  0.00     0.074 A 
ATOM     37  C   UNL A   1      39.835  33.716  30.990  1.00  0.00     0.049 A 
ATOM     38  N   UNL A   1      40.631  31.856  33.729  1.00  0.00    -0.248 NA
ATOM     39  C   UNL A   1      38.474  31.091  33.634  1.00  0.00     0.031 C 
ATOM     40  C   UNL A   1      39.219  34.654  30.009  1.00  0.00     0.029 A 
ATOM     41  N   UNL A   1      41.160  33.820  30.633  1.00  0.00    -0.354 N 
ATOM     42  C   UNL A   1      40.505  30.681  34.508  1.00  0.00     0.074 A 
ATOM     43  C   UNL A   1      39.114  30.379  34.561  1.00  0.00     0.031 C 
ATOM     44  C   UNL A   1      40.163  35.276  29.255  1.00  0.00     0.029 A 
ATOM     45  C   UNL A   1      41.478  34.793  29.630  1.00  0.00     0.049 A 
ATOM     46  H   UNL A   1      41.854  33.256  31.045  1.00  0.00     0.167 HD
ATOM     47  C   UNL A   1      41.582  29.924  34.866  1.00  0.00     0.034 A 
ATOM     48  C   UNL A   1      42.719  35.182  29.177  1.00  0.00     0.034 A 
ATOM     49  C   UNL A   1      42.768  30.567  34.400  1.00  0.00     0.049 A 
ATOM     50  C   UNL A   1      43.612  34.190  29.793  1.00  0.00     0.074 A 
ATOM     51  C   UNL A   1      43.366  31.748  34.747  1.00  0.00     0.029 A 
ATOM     52  N   UNL A   1      43.242  30.158  33.170  1.00  0.00    -0.354 N 
ATOM     53  N   UNL A   1      43.709  32.954  29.414  1.00  0.00    -0.248 NA
ATOM     54  C   UNL A   1      44.397  34.579  30.971  1.00  0.00     0.031 C 
ATOM     55  C   UNL A   1      43.733  32.275  33.494  1.00  0.00     0.029 A 
ATOM     56  C   UNL A   1      43.630  31.288  32.503  1.00  0.00     0.049 A 
ATOM     57  H   UNL A   1      43.291  29.233  32.838  1.00  0.00     0.167 HD
ATOM     58  C   UNL A   1      44.287  32.358  30.502  1.00  0.00     0.074 A 
ATOM     59  C   UNL A   1      44.982  33.409  31.220  1.00  0.00     0.031 C 
ATOM     60  C   UNL A   1      43.688  31.269  31.056  1.00  0.00     0.034 A 
BRANCH  47  61
ATOM     61  C   UNL A   1      41.728  28.496  35.326  1.00  0.00     0.023 A 
ATOM     62  C   UNL A   1      42.582  28.317  36.440  1.00  0.00     0.031 A 
ATOM     63  C   UNL A   1      41.428  27.347  34.583  1.00  0.00     0.131 A 
ATOM     64  C   UNL A   1      43.276  27.123  36.641  1.00  0.00     0.055 A 
ATOM     65  C   UNL A   1      42.044  26.116  34.855  1.00  0.00     0.041 A 
ATOM     66  F   UNL A   1      40.608  27.379  33.525  1.00  0.00    -0.206 F 
ATOM     67  C   UNL A   1      43.015  26.012  35.851  1.00  0.00     0.022 A 
BRANCH  64  68
ATOM     68  S   UNL A   1      44.686  27.161  37.783  1.00  0.00     0.124 S 
ATOM     69  O   UNL A   1      44.041  26.884  39.063  1.00  0.00    -0.237 OA
ATOM     70  O   UNL A   1      45.535  26.098  37.254  1.00  0.00    -0.237 OA
ATOM     71  O   UNL A   1      45.210  28.515  37.626  1.00  0.00    -0.744 OA
ENDBRANCH  64  68
ENDBRANCH  47  61
BRANCH  48  72
ATOM     72  C   UNL A   1      43.449  36.235  28.331  1.00  0.00     0.023 A 
ATOM     73  C   UNL A   1      43.476  37.631  28.509  1.00  0.00     0.031 A 
ATOM     74  C   UNL A   1      44.290  35.774  27.258  1.00  0.00     0.131 A 
ATOM     75  C   UNL A   1      44.356  38.440  27.715  1.00  0.00     0.055 A 
ATOM     76  C   UNL A   1      45.218  36.549  26.567  1.00  0.00     0.041 A 
ATOM     77  F   UNL A   1      44.257  34.513  26.806  1.00  0.00    -0.206 F 
ATOM     78  C   UNL A   1      45.266  37.896  26.804  1.00  0.00     0.022 A 
BRANCH  75  79
ATOM     79  S   UNL A   1      44.368  40.259  27.822  1.00  0.00     0.124 S 
ATOM     80  O   UNL A   1      45.619  40.594  27.150  1.00  0.00    -0.237 OA
ATOM     81  O   UNL A   1      43.142  40.638  27.129  1.00  0.00    -0.237 OA
ATOM     82  O   UNL A   1      44.357  40.510  29.264  1.00  0.00    -0.744 OA
ENDBRANCH  75  79
ENDBRANCH  48  72
BRANCH  60  83
ATOM     83  C   UNL A   1      42.813  30.450  30.098  1.00  0.00     0.023 A 
ATOM     84  C   UNL A   1      41.406  30.485  30.214  1.00  0.00     0.031 A 
ATOM     85  C   UNL A   1      43.316  29.546  29.145  1.00  0.00     0.131 A 
ATOM     86  C   UNL A   1      40.584  29.626  29.455  1.00  0.00     0.055 A 
ATOM     87  C   UNL A   1      42.502  28.684  28.390  1.00  0.00     0.041 A 
ATOM     88  F   UNL A   1      44.621  29.456  28.905  1.00  0.00    -0.206 F 
ATOM     89  C   UNL A   1      41.126  28.717  28.548  1.00  0.00     0.022 A 
BRANCH  86  90
ATOM     90  S   UNL A   1      38.781  29.720  29.645  1.00  0.00     0.124 S 
ATOM     91  O   UNL A   1      38.306  28.679  28.740  1.00  0.00    -0.237 OA
ATOM     92  O   UNL A   1      38.600  29.462  31.071  1.00  0.00    -0.237 OA
ATOM     93  O   UNL A   1      38.462  31.086  29.229  1.00  0.00    -0.744 OA
ENDBRANCH  86  90
ENDBRANCH  60  83
ENDBRANCH  34  35
ENDBRANCH  27  29
ENDBRANCH  26  27
ENDBRANCH  25  26
ENDBRANCH  24  25
ENDBRANCH  23  24
ENDBRANCH   1  23
TORSDOF 22
ENDMDL
MODEL 2
REMARK VINA RESULT:      -9.0      5.524     12.078
REMARK SMILES CC(C)(C)[NH2+]Cc1ccn(CC(C)(C)C(=O)OCCOCCOC(=O)c2ccc(-c3c4nc(c(-c5cc(S(=O)(=O)[O-])ccc5F)c5ccc([nH]5)c(-c5cc(S(=O)(=O)[O-])ccc5F)c5nc(c(-c6cc(S(=O)(=O)[O-])ccc6F)c6ccc3[nH]6)C=C5)C=C4)cc2)c1
REMARK SMILES IDX 19 1 18 2 17 3 15 4 16 5 12 6 13 7 14 8 11 9 10 10 7 11 8 12
REMARK SMILES IDX 89 13 9 14 6 15 5 16 2 19 1 20 3 21 4 22 20 23 21 24 22 25
REMARK SMILES IDX 23 26 24 27 25 28 26 29 27 30 88 31 28 32 87 33 29 34 30 35
REMARK SMILES IDX 31 36 81 37 32 38 86 39 80 40 82 41 33 42 85 43 79 44 78 45
REMARK SMILES IDX 34 47 66 48 46 49 65 50 47 51 50 52 64 53 83 54 48 55 49 56
REMARK SMILES IDX 63 58 84 59 51 60 35 61 36 62 44 63 37 64 43 65 45 66 42 67
REMARK SMILES IDX 38 68 39 69 40 70 41 71 67 72 68 73 76 74 69 75 75 76 77 77
REMARK SMILES IDX 74 78 70 79 71 80 72 81 73 82 52 83 53 84 61 85 54 86 60 87
REMARK SMILES IDX 62 88 59 89 55 90 56 91 57 92 58 93
REMARK H PARENT 5 17 5 18 82 46 50 57
REMARK Flexibility Score: inf
ROOT
ATOM      1  C   UNL A   1      44.151  40.486  27.807  1.00  0.00     0.202 C 
ENDROOT
BRANCH   1   2
ATOM      2  C   UNL A   1      43.700  41.227  26.552  1.00  0.00     0.261 C 
BRANCH   2   3
ATOM      3  O   UNL A   1      44.574  42.317  26.228  1.00  0.00    -0.463 OA
BRANCH   3   4
ATOM      4  C   UNL A   1      44.575  42.664  24.915  1.00  0.00     0.313 C 
ATOM      5  O   UNL A   1      43.991  42.029  24.047  1.00  0.00    -0.252 OA
BRANCH   4   6
ATOM      6  C   UNL A   1      45.396  43.926  24.624  1.00  0.00     0.080 C 
ATOM      7  C   UNL A   1      46.602  43.457  23.790  1.00  0.00     0.025 C 
ATOM      8  C   UNL A   1      45.954  44.609  25.888  1.00  0.00     0.025 C 
BRANCH   6   9
ATOM      9  C   UNL A   1      44.549  44.978  23.861  1.00  0.00     0.139 C 
BRANCH   9  10
ATOM     10  N   UNL A   1      44.729  45.070  22.424  1.00  0.00    -0.353 N 
ATOM     11  C   UNL A   1      44.447  44.709  20.239  1.00  0.00     0.024 A 
ATOM     12  C   UNL A   1      45.414  45.736  20.422  1.00  0.00     0.029 A 
ATOM     13  C   UNL A   1      44.092  44.276  21.505  1.00  0.00     0.095 A 
ATOM     14  C   UNL A   1      45.484  46.003  21.770  1.00  0.00     0.086 A 
BRANCH  11  15
ATOM     15  C   UNL A   1      43.885  44.257  18.936  1.00  0.00     0.299 C 
BRANCH  15  16
ATOM     16  N   UNL A   1      43.665  45.400  18.045  1.00  0.00    -0.338 N 
ATOM     17  H   UNL A   1      44.005  46.228  18.534  1.00  0.00     0.347 HD
ATOM     18  H   UNL A   1      44.156  45.139  17.189  1.00  0.00     0.347 HD
BRANCH  16  19
ATOM     19  C   UNL A   1      42.294  45.700  17.587  1.00  0.00     0.088 C 
ATOM     20  C   UNL A   1      42.029  47.208  17.458  1.00  0.00     0.078 C 
ATOM     21  C   UNL A   1      41.185  45.052  18.438  1.00  0.00     0.078 C 
ATOM     22  C   UNL A   1      42.197  45.064  16.185  1.00  0.00     0.078 C 
ENDBRANCH  16  19
ENDBRANCH  15  16
ENDBRANCH  11  15
ENDBRANCH   9  10
ENDBRANCH   6   9
ENDBRANCH   4   6
ENDBRANCH   3   4
ENDBRANCH   2   3
ENDBRANCH   1   2
BRANCH   1  23
ATOM     23  O   UNL A   1      43.259  39.547  28.404  1.00  0.00    -0.374 OA
BRANCH  23  24
ATOM     24  C   UNL A   1      43.734  38.288  28.864  1.00  0.00     0.202 C 
BRANCH  24  25
ATOM     25  C   UNL A   1      45.189  37.895  28.632  1.00  0.00     0.261 C 
BRANCH  25  26
ATOM     26  O   UNL A   1      45.676  36.937  29.560  1.00  0.00    -0.460 OA
BRANCH  26  27
ATOM     27  C   UNL A   1      46.533  36.083  28.961  1.00  0.00     0.338 C 
ATOM     28  O   UNL A   1      47.572  36.362  28.386  1.00  0.00    -0.246 OA
BRANCH  27  29
ATOM     29  C   UNL A   1      45.994  34.732  28.946  1.00  0.00     0.060 A 
ATOM     30  C   UNL A   1      45.295  34.392  27.787  1.00  0.00     0.016 A 
ATOM     31  C   UNL A   1      45.807  34.087  30.174  1.00  0.00     0.016 A 
ATOM     32  C   UNL A   1      44.232  33.535  27.907  1.00  0.00     0.010 A 
ATOM     33  C   UNL A   1      44.718  33.256  30.301  1.00  0.00     0.010 A 
ATOM     34  C   UNL A   1      43.917  33.030  29.176  1.00  0.00    -0.014 A 
BRANCH  34  35
ATOM     35  C   UNL A   1      42.837  32.050  29.228  1.00  0.00     0.031 A 
ATOM     36  C   UNL A   1      43.353  30.743  28.580  1.00  0.00     0.074 A 
ATOM     37  C   UNL A   1      41.641  32.511  29.723  1.00  0.00     0.049 A 
ATOM     38  N   UNL A   1      42.719  29.844  27.900  1.00  0.00    -0.248 NA
ATOM     39  C   UNL A   1      44.826  30.447  28.568  1.00  0.00     0.031 C 
ATOM     40  C   UNL A   1      41.403  33.862  30.307  1.00  0.00     0.029 A 
ATOM     41  N   UNL A   1      40.381  31.968  29.836  1.00  0.00    -0.354 N 
ATOM     42  C   UNL A   1      43.615  28.769  27.688  1.00  0.00     0.074 A 
ATOM     43  C   UNL A   1      44.922  29.277  27.938  1.00  0.00     0.031 C 
ATOM     44  C   UNL A   1      40.094  34.046  30.617  1.00  0.00     0.029 A 
ATOM     45  C   UNL A   1      39.348  32.841  30.309  1.00  0.00     0.049 A 
ATOM     46  H   UNL A   1      40.200  31.028  29.605  1.00  0.00     0.167 HD
ATOM     47  C   UNL A   1      43.187  27.483  27.536  1.00  0.00     0.034 A 
ATOM     48  C   UNL A   1      37.996  32.596  30.404  1.00  0.00     0.034 A 
ATOM     49  C   UNL A   1      41.760  27.471  27.547  1.00  0.00     0.049 A 
ATOM     50  C   UNL A   1      37.912  31.152  30.137  1.00  0.00     0.074 A 
ATOM     51  C   UNL A   1      40.834  27.980  26.678  1.00  0.00     0.029 A 
ATOM     52  N   UNL A   1      41.160  27.231  28.766  1.00  0.00    -0.354 N 
ATOM     53  N   UNL A   1      38.279  30.229  30.971  1.00  0.00    -0.248 NA
ATOM     54  C   UNL A   1      37.462  30.701  28.814  1.00  0.00     0.031 C 
ATOM     55  C   UNL A   1      39.884  28.544  27.550  1.00  0.00     0.029 A 
ATOM     56  C   UNL A   1      40.104  28.097  28.862  1.00  0.00     0.049 A 
ATOM     57  H   UNL A   1      41.438  26.567  29.437  1.00  0.00     0.167 HD
ATOM     58  C   UNL A   1      38.425  29.139  30.155  1.00  0.00     0.074 A 
ATOM     59  C   UNL A   1      37.597  29.389  28.990  1.00  0.00     0.031 C 
ATOM     60  C   UNL A   1      39.599  28.452  30.172  1.00  0.00     0.034 A 
BRANCH  47  61
ATOM     61  C   UNL A   1      43.872  26.147  27.683  1.00  0.00     0.023 A 
ATOM     62  C   UNL A   1      43.479  25.174  26.733  1.00  0.00     0.031 A 
ATOM     63  C   UNL A   1      44.535  25.672  28.820  1.00  0.00     0.131 A 
ATOM     64  C   UNL A   1      43.531  23.810  27.024  1.00  0.00     0.055 A 
ATOM     65  C   UNL A   1      44.685  24.298  29.061  1.00  0.00     0.041 A 
ATOM     66  F   UNL A   1      44.984  26.495  29.776  1.00  0.00    -0.206 F 
ATOM     67  C   UNL A   1      44.133  23.359  28.190  1.00  0.00     0.022 A 
BRANCH  64  68
ATOM     68  S   UNL A   1      42.569  22.695  25.963  1.00  0.00     0.124 S 
ATOM     69  O   UNL A   1      41.203  23.128  26.235  1.00  0.00    -0.237 OA
ATOM     70  O   UNL A   1      43.088  23.015  24.636  1.00  0.00    -0.237 OA
ATOM     71  O   UNL A   1      42.918  21.368  26.465  1.00  0.00    -0.744 OA
ENDBRANCH  64  68
ENDBRANCH  47  61
BRANCH  48  72
ATOM     72  C   UNL A   1      36.636  33.263  30.649  1.00  0.00     0.023 A 
ATOM     73  C   UNL A   1      35.791  33.891  29.715  1.00  0.00     0.031 A 
ATOM     74  C   UNL A   1      36.077  33.189  31.974  1.00  0.00     0.131 A 
ATOM     75  C   UNL A   1      34.474  34.308  30.103  1.00  0.00     0.055 A 
ATOM     76  C   UNL A   1      34.763  33.498  32.316  1.00  0.00     0.041 A 
ATOM     77  F   UNL A   1      36.794  32.806  33.038  1.00  0.00    -0.206 F 
ATOM     78  C   UNL A   1      33.943  34.050  31.370  1.00  0.00     0.022 A 
BRANCH  75  79
ATOM     79  S   UNL A   1      33.368  35.217  28.974  1.00  0.00     0.124 S 
ATOM     80  O   UNL A   1      32.710  34.132  28.257  1.00  0.00    -0.237 OA
ATOM     81  O   UNL A   1      32.531  35.989  29.885  1.00  0.00    -0.237 OA
ATOM     82  O   UNL A   1      34.294  36.015  28.169  1.00  0.00    -0.744 OA
ENDBRANCH  75  79
ENDBRANCH  48  72
BRANCH  60  83
ATOM     83  C   UNL A   1      40.391  28.552  31.482  1.00  0.00     0.023 A 
ATOM     84  C   UNL A   1      41.668  29.156  31.498  1.00  0.00     0.031 A 
ATOM     85  C   UNL A   1      39.986  27.972  32.697  1.00  0.00     0.131 A 
ATOM     86  C   UNL A   1      42.484  29.121  32.647  1.00  0.00     0.055 A 
ATOM     87  C   UNL A   1      40.796  27.930  33.844  1.00  0.00     0.041 A 
ATOM     88  F   UNL A   1      38.784  27.417  32.826  1.00  0.00    -0.206 F 
ATOM     89  C   UNL A   1      42.058  28.502  33.821  1.00  0.00     0.022 A 
BRANCH  86  90
ATOM     90  S   UNL A   1      44.115  29.918  32.608  1.00  0.00     0.124 S 
ATOM     91  O   UNL A   1      44.656  29.613  33.927  1.00  0.00    -0.237 OA
ATOM     92  O   UNL A   1      44.763  29.256  31.480  1.00  0.00    -0.237 OA
ATOM     93  O   UNL A   1      43.802  31.331  32.386  1.00  0.00    -0.744 OA
ENDBRANCH  86  90
ENDBRANCH  60  83
ENDBRANCH  34  35
ENDBRANCH  27  29
ENDBRANCH  26  27
ENDBRANCH  25  26
ENDBRANCH  24  25
ENDBRANCH  23  24
ENDBRANCH   1  23
TORSDOF 22
ENDMDL
MODEL 3
REMARK VINA RESULT:      -8.7      5.233     10.984
REMARK SMILES CC(C)(C)[NH2+]Cc1ccn(CC(C)(C)C(=O)OCCOCCOC(=O)c2ccc(-c3c4nc(c(-c5cc(S(=O)(=O)[O-])ccc5F)c5ccc([nH]5)c(-c5cc(S(=O)(=O)[O-])ccc5F)c5nc(c(-c6cc(S(=O)(=O)[O-])ccc6F)c6ccc3[nH]6)C=C5)C=C4)cc2)c1
REMARK SMILES IDX 19 1 18 2 17 3 15 4 16 5 12 6 13 7 14 8 11 9 10 10 7 11 8 12
REMARK SMILES IDX 89 13 9 14 6 15 5 16 2 19 1 20 3 21 4 22 20 23 21 24 22 25
REMARK SMILES IDX 23 26 24 27 25 28 26 29 27 30 88 31 28 32 87 33 29 34 30 35
REMARK SMILES IDX 31 36 81 37 32 38 86 39 80 40 82 41 33 42 85 43 79 44 78 45
REMARK SMILES IDX 34 47 66 48 46 49 65 50 47 51 50 52 64 53 83 54 48 55 49 56
REMARK SMILES IDX 63 58 84 59 51 60 35 61 36 62 44 63 37 64 43 65 45 66 42 67
REMARK SMILES IDX 38 68 39 69 40 70 41 71 67 72 68 73 76 74 69 75 75 76 77 77
REMARK SMILES IDX 74 78 70 79 71 80 72 81 73 82 52 83 53 84 61 85 54 86 60 87
REMARK SMILES IDX 62 88 59 89 55 90 56 91 57 92 58 93
REMARK H PARENT 5 17 5 18 82 46 50 57
REMARK Flexibility Score: inf
ROOT
ATOM      1  C   UNL A   1      40.957  29.652  35.540  1.00  0.00     0.202 C 
ENDROOT
BRANCH   1   2
ATOM      2  C   UNL A   1      41.212  29.736  34.038  1.00  0.00     0.261 C 
BRANCH   2   3
ATOM      3  O   UNL A   1      40.274  30.600  33.381  1.00  0.00    -0.463 OA
BRANCH   3   4
ATOM      4  C   UNL A   1      39.612  30.025  32.345  1.00  0.00     0.313 C 
ATOM      5  O   UNL A   1      40.064  29.100  31.683  1.00  0.00    -0.252 OA
BRANCH   4   6
ATOM      6  C   UNL A   1      38.242  30.659  32.075  1.00  0.00     0.080 C 
ATOM      7  C   UNL A   1      37.994  31.632  33.242  1.00  0.00     0.025 C 
ATOM      8  C   UNL A   1      37.080  29.646  32.071  1.00  0.00     0.025 C 
BRANCH   6   9
ATOM      9  C   UNL A   1      38.226  31.391  30.708  1.00  0.00     0.139 C 
BRANCH   9  10
ATOM     10  N   UNL A   1      37.406  30.823  29.653  1.00  0.00    -0.353 N 
ATOM     11  C   UNL A   1      35.725  30.547  28.210  1.00  0.00     0.024 A 
ATOM     12  C   UNL A   1      36.715  29.556  27.968  1.00  0.00     0.029 A 
ATOM     13  C   UNL A   1      36.158  31.274  29.305  1.00  0.00     0.095 A 
ATOM     14  C   UNL A   1      37.778  29.821  28.802  1.00  0.00     0.086 A 
BRANCH  11  15
ATOM     15  C   UNL A   1      34.505  30.786  27.389  1.00  0.00     0.299 C 
BRANCH  15  16
ATOM     16  N   UNL A   1      33.431  29.870  27.782  1.00  0.00    -0.338 N 
ATOM     17  H   UNL A   1      33.805  29.271  28.518  1.00  0.00     0.347 HD
ATOM     18  H   UNL A   1      32.664  30.491  28.043  1.00  0.00     0.347 HD
BRANCH  16  19
ATOM     19  C   UNL A   1      32.835  28.983  26.764  1.00  0.00     0.088 C 
ATOM     20  C   UNL A   1      31.585  28.249  27.275  1.00  0.00     0.078 C 
ATOM     21  C   UNL A   1      33.818  27.964  26.155  1.00  0.00     0.078 C 
ATOM     22  C   UNL A   1      32.414  29.924  25.616  1.00  0.00     0.078 C 
ENDBRANCH  16  19
ENDBRANCH  15  16
ENDBRANCH  11  15
ENDBRANCH   9  10
ENDBRANCH   6   9
ENDBRANCH   4   6
ENDBRANCH   3   4
ENDBRANCH   2   3
ENDBRANCH   1   2
BRANCH   1  23
ATOM     23  O   UNL A   1      42.057  29.827  36.430  1.00  0.00    -0.374 OA
BRANCH  23  24
ATOM     24  C   UNL A   1      43.372  29.451  36.039  1.00  0.00     0.202 C 
BRANCH  24  25
ATOM     25  C   UNL A   1      44.184  28.504  36.917  1.00  0.00     0.261 C 
BRANCH  25  26
ATOM     26  O   UNL A   1      43.710  27.166  36.902  1.00  0.00    -0.460 OA
BRANCH  26  27
ATOM     27  C   UNL A   1      44.679  26.320  36.492  1.00  0.00     0.338 C 
ATOM     28  O   UNL A   1      45.695  26.012  37.095  1.00  0.00    -0.246 OA
BRANCH  27  29
ATOM     29  C   UNL A   1      44.450  25.892  35.121  1.00  0.00     0.060 A 
ATOM     30  C   UNL A   1      45.592  25.855  34.319  1.00  0.00     0.016 A 
ATOM     31  C   UNL A   1      43.153  26.005  34.607  1.00  0.00     0.016 A 
ATOM     32  C   UNL A   1      45.452  26.154  32.989  1.00  0.00     0.010 A 
ATOM     33  C   UNL A   1      43.017  26.341  33.280  1.00  0.00     0.010 A 
ATOM     34  C   UNL A   1      44.174  26.459  32.500  1.00  0.00    -0.014 A 
BRANCH  34  35
ATOM     35  C   UNL A   1      44.071  26.675  31.060  1.00  0.00     0.031 A 
ATOM     36  C   UNL A   1      43.725  28.165  30.830  1.00  0.00     0.074 A 
ATOM     37  C   UNL A   1      44.199  25.551  30.282  1.00  0.00     0.049 A 
ATOM     38  N   UNL A   1      43.017  28.721  29.902  1.00  0.00    -0.248 NA
ATOM     39  C   UNL A   1      44.111  29.189  31.859  1.00  0.00     0.031 C 
ATOM     40  C   UNL A   1      44.547  24.186  30.772  1.00  0.00     0.029 A 
ATOM     41  N   UNL A   1      44.059  25.300  28.935  1.00  0.00    -0.354 N 
ATOM     42  C   UNL A   1      43.158  30.122  30.049  1.00  0.00     0.074 A 
ATOM     43  C   UNL A   1      43.663  30.341  31.363  1.00  0.00     0.031 C 
ATOM     44  C   UNL A   1      44.501  23.270  29.770  1.00  0.00     0.029 A 
ATOM     45  C   UNL A   1      44.158  23.931  28.525  1.00  0.00     0.049 A 
ATOM     46  H   UNL A   1      43.900  26.025  28.287  1.00  0.00     0.167 HD
ATOM     47  C   UNL A   1      43.054  30.980  28.994  1.00  0.00     0.034 A 
ATOM     48  C   UNL A   1      43.944  23.393  27.275  1.00  0.00     0.034 A 
ATOM     49  C   UNL A   1      42.714  30.232  27.828  1.00  0.00     0.049 A 
ATOM     50  C   UNL A   1      43.833  24.589  26.426  1.00  0.00     0.074 A 
ATOM     51  C   UNL A   1      41.590  29.529  27.487  1.00  0.00     0.029 A 
ATOM     52  N   UNL A   1      43.766  29.826  27.033  1.00  0.00    -0.354 N 
ATOM     53  N   UNL A   1      44.831  25.341  26.083  1.00  0.00    -0.248 NA
ATOM     54  C   UNL A   1      42.500  25.027  25.992  1.00  0.00     0.031 C 
ATOM     55  C   UNL A   1      42.130  28.363  26.913  1.00  0.00     0.029 A 
ATOM     56  C   UNL A   1      43.498  28.539  26.653  1.00  0.00     0.049 A 
ATOM     57  H   UNL A   1      44.556  30.359  26.788  1.00  0.00     0.167 HD
ATOM     58  C   UNL A   1      44.207  26.498  25.699  1.00  0.00     0.074 A 
ATOM     59  C   UNL A   1      42.853  26.128  25.332  1.00  0.00     0.031 C 
ATOM     60  C   UNL A   1      44.593  27.676  26.261  1.00  0.00     0.034 A 
BRANCH  47  61
ATOM     61  C   UNL A   1      43.517  32.398  28.773  1.00  0.00     0.023 A 
ATOM     62  C   UNL A   1      44.405  32.567  27.683  1.00  0.00     0.031 A 
ATOM     63  C   UNL A   1      43.468  33.444  29.701  1.00  0.00     0.131 A 
ATOM     64  C   UNL A   1      45.348  33.596  27.666  1.00  0.00     0.055 A 
ATOM     65  C   UNL A   1      44.344  34.538  29.621  1.00  0.00     0.041 A 
ATOM     66  F   UNL A   1      42.647  33.419  30.758  1.00  0.00    -0.206 F 
ATOM     67  C   UNL A   1      45.327  34.589  28.633  1.00  0.00     0.022 A 
BRANCH  64  68
ATOM     68  S   UNL A   1      46.730  33.439  26.499  1.00  0.00     0.124 S 
ATOM     69  O   UNL A   1      46.814  31.992  26.329  1.00  0.00    -0.237 OA
ATOM     70  O   UNL A   1      46.242  34.189  25.346  1.00  0.00    -0.237 OA
ATOM     71  O   UNL A   1      47.846  34.052  27.215  1.00  0.00    -0.744 OA
ENDBRANCH  64  68
ENDBRANCH  47  61
BRANCH  48  72
ATOM     72  C   UNL A   1      43.768  22.072  26.515  1.00  0.00     0.023 A 
ATOM     73  C   UNL A   1      44.744  21.321  25.833  1.00  0.00     0.031 A 
ATOM     74  C   UNL A   1      42.473  21.444  26.545  1.00  0.00     0.131 A 
ATOM     75  C   UNL A   1      44.422  20.018  25.324  1.00  0.00     0.055 A 
ATOM     76  C   UNL A   1      42.198  20.139  26.145  1.00  0.00     0.041 A 
ATOM     77  F   UNL A   1      41.374  22.078  26.973  1.00  0.00    -0.206 F 
ATOM     78  C   UNL A   1      43.184  19.407  25.540  1.00  0.00     0.022 A 
BRANCH  75  79
ATOM     79  S   UNL A   1      45.605  19.036  24.345  1.00  0.00     0.124 S 
ATOM     80  O   UNL A   1      46.742  19.944  24.243  1.00  0.00    -0.237 OA
ATOM     81  O   UNL A   1      45.801  17.845  25.163  1.00  0.00    -0.237 OA
ATOM     82  O   UNL A   1      44.888  18.803  23.090  1.00  0.00    -0.744 OA
ENDBRANCH  75  79
ENDBRANCH  48  72
BRANCH  60  83
ATOM     83  C   UNL A   1      46.037  27.708  26.776  1.00  0.00     0.023 A 
ATOM     84  C   UNL A   1      46.302  27.613  28.160  1.00  0.00     0.031 A 
ATOM     85  C   UNL A   1      47.162  27.945  25.964  1.00  0.00     0.131 A 
ATOM     86  C   UNL A   1      47.601  27.799  28.675  1.00  0.00     0.055 A 
ATOM     87  C   UNL A   1      48.457  28.135  26.472  1.00  0.00     0.041 A 
ATOM     88  F   UNL A   1      47.052  28.004  24.640  1.00  0.00    -0.206 F 
ATOM     89  C   UNL A   1      48.682  28.068  27.838  1.00  0.00     0.022 A 
BRANCH  86  90
ATOM     90  S   UNL A   1      47.880  27.661  30.464  1.00  0.00     0.124 S 
ATOM     91  O   UNL A   1      49.299  27.971  30.595  1.00  0.00    -0.237 OA
ATOM     92  O   UNL A   1      46.954  28.651  31.005  1.00  0.00    -0.237 OA
ATOM     93  O   UNL A   1      47.527  26.271  30.760  1.00  0.00    -0.744 OA
ENDBRANCH  86  90
ENDBRANCH  60  83
ENDBRANCH  34  35
ENDBRANCH  27  29
ENDBRANCH  26  27
ENDBRANCH  25  26
ENDBRANCH  24  25
ENDBRANCH  23  24
ENDBRANCH   1  23
TORSDOF 22
ENDMDL
