MODEL 1
REMARK VINA RESULT:      -7.5      0.000      0.000
REMARK SMILES CC(C)[C@H](NC(=O)[C@@H]1CC2=c3ccccc3=N[C@H]2[C@@H]2c3ccccc3C(=O)N12)C(=O)N[C@H](C)C(=O)OCCOCCOC(=O)c1ccc(-c2c3nc(c(-c4cc(S(=O)(=O)[O-])ccc4F)c4ccc([nH]4)c(-c4cc(S(=O)(=O)[O-])ccc4F)c4nc(c(-c5cc(S(=O)(=O)[O-])ccc5F)c5ccc2[nH]5)C=C4)C=C3)cc1
REMARK SMILES IDX 38 1 37 2 36 3 34 4 35 5 32 6 33 7 31 8 29 9 30 10 4 12 2 13
REMARK SMILES IDX 1 14 3 15 5 16 6 17 7 19 8 20 9 21 28 22 10 23 19 24 26 25
REMARK SMILES IDX 11 26 18 27 20 28 25 29 27 30 12 31 16 32 17 33 21 34 24 35
REMARK SMILES IDX 13 36 15 37 22 38 23 39 14 40 39 41 40 42 41 43 42 44 43 45
REMARK SMILES IDX 44 46 45 47 46 48 107 49 47 50 106 51 48 52 49 53 50 54
REMARK SMILES IDX 100 55 51 56 105 57 99 58 101 59 52 60 104 61 98 62 97 63
REMARK SMILES IDX 53 65 85 66 65 67 84 68 66 69 69 70 83 71 102 72 67 73 68 74
REMARK SMILES IDX 82 76 103 77 70 78 54 79 55 80 63 81 56 82 62 83 64 84 61 85
REMARK SMILES IDX 57 86 58 87 59 88 60 89 86 90 87 91 95 92 88 93 94 94 96 95
REMARK SMILES IDX 93 96 89 97 90 98 91 99 92 100 71 101 72 102 80 103 73 104
REMARK SMILES IDX 79 105 81 106 78 107 74 108 75 109 76 110 77 111
REMARK H PARENT 31 11 5 18 101 64 69 75
REMARK Flexibility Score: inf
ROOT
ATOM      1  C   UNL A   1      38.833  27.896  28.682  1.00  0.00     0.202 C 
ENDROOT
BRANCH   1   2
ATOM      2  C   UNL A   1      40.055  27.474  27.859  1.00  0.00     0.261 C 
BRANCH   2   3
ATOM      3  O   UNL A   1      39.783  26.231  27.192  1.00  0.00    -0.462 OA
BRANCH   3   4
ATOM      4  C   UNL A   1      40.718  25.745  26.324  1.00  0.00     0.328 C 
ATOM      5  O   UNL A   1      41.220  26.376  25.403  1.00  0.00    -0.250 OA
BRANCH   4   6
ATOM      6  C   UNL A   1      41.154  24.330  26.762  1.00  0.00     0.189 C 
ATOM      7  C   UNL A   1      39.957  23.518  27.289  1.00  0.00     0.043 C 
BRANCH   6   8
ATOM      8  N   UNL A   1      41.851  23.556  25.719  1.00  0.00    -0.341 N 
ATOM      9  C   UNL A   1      43.152  23.423  25.342  1.00  0.00     0.243 C 
ATOM     10  O   UNL A   1      43.403  22.443  24.625  1.00  0.00    -0.273 OA
ATOM     11  H   UNL A   1      41.238  23.013  25.173  1.00  0.00     0.164 HD
BRANCH   9  12
ATOM     12  C   UNL A   1      44.323  24.399  25.688  1.00  0.00     0.174 C 
BRANCH  12  13
ATOM     13  C   UNL A   1      44.952  24.213  27.100  1.00  0.00     0.015 C 
ATOM     14  C   UNL A   1      44.078  23.425  28.087  1.00  0.00     0.010 C 
ATOM     15  C   UNL A   1      46.383  23.706  27.117  1.00  0.00     0.010 C 
ENDBRANCH  12  13
BRANCH  12  16
ATOM     16  N   UNL A   1      44.317  25.699  25.039  1.00  0.00    -0.342 N 
ATOM     17  C   UNL A   1      44.956  26.867  25.098  1.00  0.00     0.243 C 
ATOM     18  H   UNL A   1      43.626  25.724  24.337  1.00  0.00     0.164 HD
ATOM     19  O   UNL A   1      44.268  27.802  24.649  1.00  0.00    -0.273 OA
BRANCH  17  20
ATOM     20  C   UNL A   1      46.367  27.181  25.635  1.00  0.00     0.179 C 
ATOM     21  C   UNL A   1      46.720  28.689  25.813  1.00  0.00     0.069 C 
ATOM     22  N   UNL A   1      47.609  26.416  25.694  1.00  0.00    -0.317 N 
ATOM     23  C   UNL A   1      47.024  28.837  27.295  1.00  0.00    -0.031 C 
ATOM     24  C   UNL A   1      48.537  26.766  26.819  1.00  0.00     0.146 C 
ATOM     25  C   UNL A   1      48.306  26.223  24.521  1.00  0.00     0.255 C 
ATOM     26  C   UNL A   1      45.978  29.108  28.090  1.00  0.00     0.001 A 
ATOM     27  C   UNL A   1      47.926  27.766  27.895  1.00  0.00     0.160 C 
ATOM     28  C   UNL A   1      49.762  27.195  26.043  1.00  0.00    -0.010 A 
ATOM     29  C   UNL A   1      49.641  26.765  24.718  1.00  0.00     0.045 A 
ATOM     30  O   UNL A   1      47.878  25.903  23.430  1.00  0.00    -0.269 OA
ATOM     31  C   UNL A   1      44.784  29.829  27.736  1.00  0.00     0.010 A 
ATOM     32  C   UNL A   1      45.900  27.795  28.790  1.00  0.00     0.066 A 
ATOM     33  N   UNL A   1      46.975  27.050  28.825  1.00  0.00    -0.274 NA
ATOM     34  C   UNL A   1      50.882  27.920  26.399  1.00  0.00     0.007 A 
ATOM     35  C   UNL A   1      50.536  27.075  23.709  1.00  0.00     0.014 A 
ATOM     36  C   UNL A   1      43.583  29.297  27.991  1.00  0.00     0.001 A 
ATOM     37  C   UNL A   1      44.524  27.329  29.132  1.00  0.00     0.028 A 
ATOM     38  C   UNL A   1      51.815  28.247  25.396  1.00  0.00     0.000 A 
ATOM     39  C   UNL A   1      51.639  27.838  24.060  1.00  0.00     0.001 A 
ATOM     40  C   UNL A   1      43.463  28.027  28.679  1.00  0.00     0.002 A 
ENDBRANCH  17  20
ENDBRANCH  12  16
ENDBRANCH   9  12
ENDBRANCH   6   8
ENDBRANCH   4   6
ENDBRANCH   3   4
ENDBRANCH   2   3
ENDBRANCH   1   2
BRANCH   1  41
ATOM     41  O   UNL A   1      39.037  28.005  30.091  1.00  0.00    -0.374 OA
BRANCH  41  42
ATOM     42  C   UNL A   1      37.889  28.275  30.899  1.00  0.00     0.202 C 
BRANCH  42  43
ATOM     43  C   UNL A   1      37.185  29.613  30.644  1.00  0.00     0.261 C 
BRANCH  43  44
ATOM     44  O   UNL A   1      37.220  30.474  31.789  1.00  0.00    -0.460 OA
BRANCH  44  45
ATOM     45  C   UNL A   1      37.902  31.633  31.625  1.00  0.00     0.338 C 
ATOM     46  O   UNL A   1      37.460  32.767  31.619  1.00  0.00    -0.246 OA
BRANCH  45  47
ATOM     47  C   UNL A   1      39.336  31.301  31.663  1.00  0.00     0.060 A 
ATOM     48  C   UNL A   1      39.996  31.128  32.881  1.00  0.00     0.016 A 
ATOM     49  C   UNL A   1      40.021  31.194  30.449  1.00  0.00     0.016 A 
ATOM     50  C   UNL A   1      41.359  30.841  32.877  1.00  0.00     0.010 A 
ATOM     51  C   UNL A   1      41.383  30.907  30.448  1.00  0.00     0.010 A 
ATOM     52  C   UNL A   1      42.057  30.715  31.661  1.00  0.00    -0.014 A 
BRANCH  52  53
ATOM     53  C   UNL A   1      43.453  30.223  31.659  1.00  0.00     0.031 A 
ATOM     54  C   UNL A   1      43.819  28.892  32.235  1.00  0.00     0.074 A 
ATOM     55  C   UNL A   1      44.397  31.036  31.147  1.00  0.00     0.049 A 
ATOM     56  N   UNL A   1      44.984  28.300  32.245  1.00  0.00    -0.248 NA
ATOM     57  C   UNL A   1      42.748  28.127  32.892  1.00  0.00     0.031 C 
ATOM     58  C   UNL A   1      44.137  32.374  30.616  1.00  0.00     0.029 A 
ATOM     59  N   UNL A   1      45.747  30.867  30.983  1.00  0.00    -0.354 N 
ATOM     60  C   UNL A   1      44.792  27.088  32.893  1.00  0.00     0.074 A 
ATOM     61  C   UNL A   1      43.405  27.051  33.309  1.00  0.00     0.031 C 
ATOM     62  C   UNL A   1      45.282  32.891  30.153  1.00  0.00     0.029 A 
ATOM     63  C   UNL A   1      46.366  31.942  30.393  1.00  0.00     0.049 A 
ATOM     64  H   UNL A   1      46.227  30.053  31.262  1.00  0.00     0.167 HD
ATOM     65  C   UNL A   1      45.691  26.097  33.097  1.00  0.00     0.034 A 
ATOM     66  C   UNL A   1      47.661  32.144  30.074  1.00  0.00     0.034 A 
ATOM     67  C   UNL A   1      47.072  26.173  32.678  1.00  0.00     0.049 A 
ATOM     68  C   UNL A   1      48.643  31.030  30.326  1.00  0.00     0.074 A 
ATOM     69  C   UNL A   1      48.052  25.203  32.790  1.00  0.00     0.029 A 
ATOM     70  N   UNL A   1      47.672  27.277  32.085  1.00  0.00    -0.354 N 
ATOM     71  N   UNL A   1      48.423  29.839  30.830  1.00  0.00    -0.248 NA
ATOM     72  C   UNL A   1      50.041  31.273  29.951  1.00  0.00     0.031 C 
ATOM     73  C   UNL A   1      49.257  25.746  32.346  1.00  0.00     0.029 A 
ATOM     74  C   UNL A   1      49.017  27.023  31.863  1.00  0.00     0.049 A 
ATOM     75  H   UNL A   1      47.210  28.115  31.856  1.00  0.00     0.167 HD
ATOM     76  C   UNL A   1      49.649  29.182  30.812  1.00  0.00     0.074 A 
ATOM     77  C   UNL A   1      50.599  30.098  30.215  1.00  0.00     0.031 C 
ATOM     78  C   UNL A   1      49.959  27.937  31.256  1.00  0.00     0.034 A 
BRANCH  65  79
ATOM     79  C   UNL A   1      45.239  24.823  33.773  1.00  0.00     0.023 A 
ATOM     80  C   UNL A   1      45.633  24.549  35.097  1.00  0.00     0.031 A 
ATOM     81  C   UNL A   1      44.565  23.815  33.061  1.00  0.00     0.131 A 
ATOM     82  C   UNL A   1      45.395  23.282  35.649  1.00  0.00     0.055 A 
ATOM     83  C   UNL A   1      44.283  22.573  33.632  1.00  0.00     0.041 A 
ATOM     84  F   UNL A   1      44.173  24.021  31.793  1.00  0.00    -0.206 F 
ATOM     85  C   UNL A   1      44.715  22.297  34.926  1.00  0.00     0.022 A 
BRANCH  82  86
ATOM     86  S   UNL A   1      46.036  22.836  37.286  1.00  0.00     0.124 S 
ATOM     87  O   UNL A   1      45.747  21.404  37.340  1.00  0.00    -0.237 OA
ATOM     88  O   UNL A   1      47.449  23.183  37.165  1.00  0.00    -0.237 OA
ATOM     89  O   UNL A   1      45.258  23.660  38.204  1.00  0.00    -0.744 OA
ENDBRANCH  82  86
ENDBRANCH  65  79
BRANCH  66  90
ATOM     90  C   UNL A   1      48.052  33.427  29.419  1.00  0.00     0.023 A 
ATOM     91  C   UNL A   1      48.011  33.563  28.019  1.00  0.00     0.031 A 
ATOM     92  C   UNL A   1      48.595  34.483  30.169  1.00  0.00     0.131 A 
ATOM     93  C   UNL A   1      48.576  34.692  27.412  1.00  0.00     0.055 A 
ATOM     94  C   UNL A   1      49.082  35.642  29.564  1.00  0.00     0.041 A 
ATOM     95  F   UNL A   1      48.675  34.392  31.506  1.00  0.00    -0.206 F 
ATOM     96  C   UNL A   1      49.092  35.742  28.176  1.00  0.00     0.022 A 
BRANCH  93  97
ATOM     97  S   UNL A   1      48.796  34.764  25.612  1.00  0.00     0.124 S 
ATOM     98  O   UNL A   1      49.364  36.097  25.428  1.00  0.00    -0.237 OA
ATOM     99  O   UNL A   1      49.713  33.650  25.381  1.00  0.00    -0.237 OA
ATOM    100  O   UNL A   1      47.447  34.575  25.091  1.00  0.00    -0.744 OA
ENDBRANCH  93  97
ENDBRANCH  66  90
BRANCH  78 101
ATOM    101  C   UNL A   1      51.388  27.458  31.128  1.00  0.00     0.023 A 
ATOM    102  C   UNL A   1      52.362  27.895  32.048  1.00  0.00     0.031 A 
ATOM    103  C   UNL A   1      51.816  26.709  30.018  1.00  0.00     0.131 A 
ATOM    104  C   UNL A   1      53.715  27.628  31.812  1.00  0.00     0.055 A 
ATOM    105  C   UNL A   1      53.161  26.390  29.822  1.00  0.00     0.041 A 
ATOM    106  F   UNL A   1      50.931  26.278  29.103  1.00  0.00    -0.206 F 
ATOM    107  C   UNL A   1      54.119  26.867  30.712  1.00  0.00     0.022 A 
BRANCH 104 108
ATOM    108  S   UNL A   1      55.008  28.347  32.863  1.00  0.00     0.124 S 
ATOM    109  O   UNL A   1      55.896  27.206  33.075  1.00  0.00    -0.237 OA
ATOM    110  O   UNL A   1      55.545  29.403  32.007  1.00  0.00    -0.237 OA
ATOM    111  O   UNL A   1      54.289  28.803  34.046  1.00  0.00    -0.744 OA
ENDBRANCH 104 108
ENDBRANCH  78 101
ENDBRANCH  52  53
ENDBRANCH  45  47
ENDBRANCH  44  45
ENDBRANCH  43  44
ENDBRANCH  42  43
ENDBRANCH  41  42
ENDBRANCH   1  41
TORSDOF 22
ENDMDL
MODEL 2
REMARK VINA RESULT:      -7.3      4.321      9.259
REMARK SMILES CC(C)[C@H](NC(=O)[C@@H]1CC2=c3ccccc3=N[C@H]2[C@@H]2c3ccccc3C(=O)N12)C(=O)N[C@H](C)C(=O)OCCOCCOC(=O)c1ccc(-c2c3nc(c(-c4cc(S(=O)(=O)[O-])ccc4F)c4ccc([nH]4)c(-c4cc(S(=O)(=O)[O-])ccc4F)c4nc(c(-c5cc(S(=O)(=O)[O-])ccc5F)c5ccc2[nH]5)C=C4)C=C3)cc1
REMARK SMILES IDX 38 1 37 2 36 3 34 4 35 5 32 6 33 7 31 8 29 9 30 10 4 12 2 13
REMARK SMILES IDX 1 14 3 15 5 16 6 17 7 19 8 20 9 21 28 22 10 23 19 24 26 25
REMARK SMILES IDX 11 26 18 27 20 28 25 29 27 30 12 31 16 32 17 33 21 34 24 35
REMARK SMILES IDX 13 36 15 37 22 38 23 39 14 40 39 41 40 42 41 43 42 44 43 45
REMARK SMILES IDX 44 46 45 47 46 48 107 49 47 50 106 51 48 52 49 53 50 54
REMARK SMILES IDX 100 55 51 56 105 57 99 58 101 59 52 60 104 61 98 62 97 63
REMARK SMILES IDX 53 65 85 66 65 67 84 68 66 69 69 70 83 71 102 72 67 73 68 74
REMARK SMILES IDX 82 76 103 77 70 78 54 79 55 80 63 81 56 82 62 83 64 84 61 85
REMARK SMILES IDX 57 86 58 87 59 88 60 89 86 90 87 91 95 92 88 93 94 94 96 95
REMARK SMILES IDX 93 96 89 97 90 98 91 99 92 100 71 101 72 102 80 103 73 104
REMARK SMILES IDX 79 105 81 106 78 107 74 108 75 109 76 110 77 111
REMARK H PARENT 31 11 5 18 101 64 69 75
REMARK Flexibility Score: inf
ROOT
ATOM      1  C   UNL A   1      38.336  34.369  29.560  1.00  0.00     0.202 C 
ENDROOT
BRANCH   1   2
ATOM      2  C   UNL A   1      38.222  34.628  31.067  1.00  0.00     0.261 C 
BRANCH   2   3
ATOM      3  O   UNL A   1      39.519  34.524  31.674  1.00  0.00    -0.462 OA
BRANCH   3   4
ATOM      4  C   UNL A   1      39.586  34.280  33.016  1.00  0.00     0.328 C 
ATOM      5  O   UNL A   1      38.920  33.445  33.616  1.00  0.00    -0.250 OA
BRANCH   4   6
ATOM      6  C   UNL A   1      40.726  35.112  33.644  1.00  0.00     0.189 C 
ATOM      7  C   UNL A   1      40.380  35.533  35.083  1.00  0.00     0.043 C 
BRANCH   6   8
ATOM      8  N   UNL A   1      42.043  34.450  33.630  1.00  0.00    -0.341 N 
ATOM      9  C   UNL A   1      43.254  34.753  33.088  1.00  0.00     0.243 C 
ATOM     10  O   UNL A   1      44.218  34.119  33.544  1.00  0.00    -0.273 OA
ATOM     11  H   UNL A   1      42.048  33.599  34.123  1.00  0.00     0.164 HD
BRANCH   9  12
ATOM     12  C   UNL A   1      43.526  35.774  31.935  1.00  0.00     0.174 C 
BRANCH  12  13
ATOM     13  C   UNL A   1      44.136  37.136  32.381  1.00  0.00     0.015 C 
ATOM     14  C   UNL A   1      43.435  37.783  33.586  1.00  0.00     0.010 C 
ATOM     15  C   UNL A   1      45.643  37.153  32.556  1.00  0.00     0.010 C 
ENDBRANCH  12  13
BRANCH  12  16
ATOM     16  N   UNL A   1      42.685  35.682  30.755  1.00  0.00    -0.342 N 
ATOM     17  C   UNL A   1      42.719  35.187  29.519  1.00  0.00     0.243 C 
ATOM     18  H   UNL A   1      41.820  36.124  30.920  1.00  0.00     0.164 HD
ATOM     19  O   UNL A   1      41.933  35.775  28.755  1.00  0.00    -0.273 OA
BRANCH  17  20
ATOM     20  C   UNL A   1      43.578  34.038  28.951  1.00  0.00     0.179 C 
ATOM     21  C   UNL A   1      43.811  34.044  27.410  1.00  0.00     0.069 C 
ATOM     22  N   UNL A   1      43.951  32.721  29.460  1.00  0.00    -0.317 N 
ATOM     23  C   UNL A   1      45.320  34.144  27.252  1.00  0.00    -0.031 C 
ATOM     24  C   UNL A   1      45.262  32.181  28.971  1.00  0.00     0.146 C 
ATOM     25  C   UNL A   1      42.987  31.737  29.475  1.00  0.00     0.255 C 
ATOM     26  C   UNL A   1      45.832  35.383  27.217  1.00  0.00     0.001 A 
ATOM     27  C   UNL A   1      46.139  33.220  28.144  1.00  0.00     0.160 C 
ATOM     28  C   UNL A   1      44.800  30.914  28.286  1.00  0.00    -0.010 A 
ATOM     29  C   UNL A   1      43.493  30.624  28.689  1.00  0.00     0.045 A 
ATOM     30  O   UNL A   1      41.830  31.816  29.839  1.00  0.00    -0.269 OA
ATOM     31  C   UNL A   1      45.184  36.574  26.732  1.00  0.00     0.010 A 
ATOM     32  C   UNL A   1      46.514  35.367  28.541  1.00  0.00     0.066 A 
ATOM     33  N   UNL A   1      46.822  34.207  29.062  1.00  0.00    -0.274 NA
ATOM     34  C   UNL A   1      45.406  30.080  27.367  1.00  0.00     0.007 A 
ATOM     35  C   UNL A   1      42.727  29.591  28.178  1.00  0.00     0.014 A 
ATOM     36  C   UNL A   1      45.149  37.671  27.497  1.00  0.00     0.001 A 
ATOM     37  C   UNL A   1      46.519  36.665  29.278  1.00  0.00     0.028 A 
ATOM     38  C   UNL A   1      44.654  29.015  26.832  1.00  0.00     0.000 A 
ATOM     39  C   UNL A   1      43.323  28.779  27.225  1.00  0.00     0.001 A 
ATOM     40  C   UNL A   1      45.809  37.701  28.788  1.00  0.00     0.002 A 
ENDBRANCH  17  20
ENDBRANCH  12  16
ENDBRANCH   9  12
ENDBRANCH   6   8
ENDBRANCH   4   6
ENDBRANCH   3   4
ENDBRANCH   2   3
ENDBRANCH   1   2
BRANCH   1  41
ATOM     41  O   UNL A   1      37.332  33.527  28.993  1.00  0.00    -0.374 OA
BRANCH  41  42
ATOM     42  C   UNL A   1      36.058  34.116  28.727  1.00  0.00     0.202 C 
BRANCH  42  43
ATOM     43  C   UNL A   1      34.880  33.144  28.598  1.00  0.00     0.261 C 
BRANCH  43  44
ATOM     44  O   UNL A   1      34.948  32.360  27.401  1.00  0.00    -0.460 OA
BRANCH  44  45
ATOM     45  C   UNL A   1      34.651  31.046  27.550  1.00  0.00     0.338 C 
ATOM     46  O   UNL A   1      33.659  30.455  27.165  1.00  0.00    -0.246 OA
BRANCH  45  47
ATOM     47  C   UNL A   1      35.855  30.387  28.083  1.00  0.00     0.060 A 
ATOM     48  C   UNL A   1      37.059  30.421  27.378  1.00  0.00     0.016 A 
ATOM     49  C   UNL A   1      35.748  29.703  29.299  1.00  0.00     0.016 A 
ATOM     50  C   UNL A   1      38.169  29.763  27.904  1.00  0.00     0.010 A 
ATOM     51  C   UNL A   1      36.859  29.047  29.821  1.00  0.00     0.010 A 
ATOM     52  C   UNL A   1      38.079  29.084  29.134  1.00  0.00    -0.014 A 
BRANCH  52  53
ATOM     53  C   UNL A   1      39.304  28.555  29.775  1.00  0.00     0.031 A 
ATOM     54  C   UNL A   1      39.827  29.119  31.058  1.00  0.00     0.074 A 
ATOM     55  C   UNL A   1      39.956  27.561  29.142  1.00  0.00     0.049 A 
ATOM     56  N   UNL A   1      40.846  28.715  31.770  1.00  0.00    -0.248 NA
ATOM     57  C   UNL A   1      39.128  30.288  31.612  1.00  0.00     0.031 C 
ATOM     58  C   UNL A   1      39.547  26.990  27.858  1.00  0.00     0.029 A 
ATOM     59  N   UNL A   1      41.082  26.856  29.480  1.00  0.00    -0.354 N 
ATOM     60  C   UNL A   1      40.907  29.567  32.865  1.00  0.00     0.074 A 
ATOM     61  C   UNL A   1      39.852  30.545  32.696  1.00  0.00     0.031 C 
ATOM     62  C   UNL A   1      40.388  25.999  27.533  1.00  0.00     0.029 A 
ATOM     63  C   UNL A   1      41.420  25.892  28.561  1.00  0.00     0.049 A 
ATOM     64  H   UNL A   1      41.598  27.025  30.301  1.00  0.00     0.167 HD
ATOM     65  C   UNL A   1      41.757  29.515  33.918  1.00  0.00     0.034 A 
ATOM     66  C   UNL A   1      42.445  25.015  28.545  1.00  0.00     0.034 A 
ATOM     67  C   UNL A   1      42.807  28.532  34.048  1.00  0.00     0.049 A 
ATOM     68  C   UNL A   1      43.384  24.989  29.723  1.00  0.00     0.074 A 
ATOM     69  C   UNL A   1      43.689  28.360  35.101  1.00  0.00     0.029 A 
ATOM     70  N   UNL A   1      43.129  27.569  33.100  1.00  0.00    -0.354 N 
ATOM     71  N   UNL A   1      43.358  25.722  30.812  1.00  0.00    -0.248 NA
ATOM     72  C   UNL A   1      44.477  24.011  29.685  1.00  0.00     0.031 C 
ATOM     73  C   UNL A   1      44.592  27.356  34.754  1.00  0.00     0.029 A 
ATOM     74  C   UNL A   1      44.221  26.829  33.528  1.00  0.00     0.049 A 
ATOM     75  H   UNL A   1      42.653  27.433  32.249  1.00  0.00     0.167 HD
ATOM     76  C   UNL A   1      44.416  25.278  31.598  1.00  0.00     0.074 A 
ATOM     77  C   UNL A   1      45.040  24.190  30.874  1.00  0.00     0.031 C 
ATOM     78  C   UNL A   1      44.834  25.736  32.806  1.00  0.00     0.034 A 
BRANCH  65  79
ATOM     79  C   UNL A   1      41.597  30.515  35.040  1.00  0.00     0.023 A 
ATOM     80  C   UNL A   1      40.353  30.659  35.685  1.00  0.00     0.031 A 
ATOM     81  C   UNL A   1      42.616  31.431  35.357  1.00  0.00     0.131 A 
ATOM     82  C   UNL A   1      40.145  31.723  36.573  1.00  0.00     0.055 A 
ATOM     83  C   UNL A   1      42.421  32.458  36.281  1.00  0.00     0.041 A 
ATOM     84  F   UNL A   1      43.819  31.344  34.766  1.00  0.00    -0.206 F 
ATOM     85  C   UNL A   1      41.175  32.618  36.880  1.00  0.00     0.022 A 
BRANCH  82  86
ATOM     86  S   UNL A   1      38.510  32.042  37.291  1.00  0.00     0.124 S 
ATOM     87  O   UNL A   1      37.833  30.765  37.071  1.00  0.00    -0.237 OA
ATOM     88  O   UNL A   1      38.842  32.340  38.682  1.00  0.00    -0.237 OA
ATOM     89  O   UNL A   1      37.995  33.161  36.510  1.00  0.00    -0.744 OA
ENDBRANCH  82  86
ENDBRANCH  65  79
BRANCH  66  90
ATOM     90  C   UNL A   1      42.561  24.060  27.405  1.00  0.00     0.023 A 
ATOM     91  C   UNL A   1      41.953  22.792  27.461  1.00  0.00     0.031 A 
ATOM     92  C   UNL A   1      43.385  24.348  26.305  1.00  0.00     0.131 A 
ATOM     93  C   UNL A   1      42.243  21.835  26.481  1.00  0.00     0.055 A 
ATOM     94  C   UNL A   1      43.607  23.419  25.287  1.00  0.00     0.041 A 
ATOM     95  F   UNL A   1      44.003  25.536  26.215  1.00  0.00    -0.206 F 
ATOM     96  C   UNL A   1      43.050  22.147  25.383  1.00  0.00     0.022 A 
BRANCH  93  97
ATOM     97  S   UNL A   1      41.709  20.113  26.679  1.00  0.00     0.124 S 
ATOM     98  O   UNL A   1      41.103  19.830  25.381  1.00  0.00    -0.237 OA
ATOM     99  O   UNL A   1      42.978  19.437  26.944  1.00  0.00    -0.237 OA
ATOM    100  O   UNL A   1      40.788  20.165  27.809  1.00  0.00    -0.744 OA
ENDBRANCH  93  97
ENDBRANCH  66  90
BRANCH  78 101
ATOM    101  C   UNL A   1      46.032  25.078  33.454  1.00  0.00     0.023 A 
ATOM    102  C   UNL A   1      47.334  25.451  33.067  1.00  0.00     0.031 A 
ATOM    103  C   UNL A   1      45.888  23.983  34.324  1.00  0.00     0.131 A 
ATOM    104  C   UNL A   1      48.434  24.703  33.503  1.00  0.00     0.055 A 
ATOM    105  C   UNL A   1      46.994  23.280  34.808  1.00  0.00     0.041 A 
ATOM    106  F   UNL A   1      44.669  23.576  34.715  1.00  0.00    -0.206 F 
ATOM    107  C   UNL A   1      48.273  23.629  34.383  1.00  0.00     0.022 A 
BRANCH 104 108
ATOM    108  S   UNL A   1      50.101  25.029  32.864  1.00  0.00     0.124 S 
ATOM    109  O   UNL A   1      50.550  26.116  33.731  1.00  0.00    -0.237 OA
ATOM    110  O   UNL A   1      50.767  23.746  33.079  1.00  0.00    -0.237 OA
ATOM    111  O   UNL A   1      49.879  25.397  31.471  1.00  0.00    -0.744 OA
ENDBRANCH 104 108
ENDBRANCH  78 101
ENDBRANCH  52  53
ENDBRANCH  45  47
ENDBRANCH  44  45
ENDBRANCH  43  44
ENDBRANCH  42  43
ENDBRANCH  41  42
ENDBRANCH   1  41
TORSDOF 22
ENDMDL
MODEL 3
REMARK VINA RESULT:      -7.1      5.055     10.808
REMARK SMILES CC(C)[C@H](NC(=O)[C@@H]1CC2=c3ccccc3=N[C@H]2[C@@H]2c3ccccc3C(=O)N12)C(=O)N[C@H](C)C(=O)OCCOCCOC(=O)c1ccc(-c2c3nc(c(-c4cc(S(=O)(=O)[O-])ccc4F)c4ccc([nH]4)c(-c4cc(S(=O)(=O)[O-])ccc4F)c4nc(c(-c5cc(S(=O)(=O)[O-])ccc5F)c5ccc2[nH]5)C=C4)C=C3)cc1
REMARK SMILES IDX 38 1 37 2 36 3 34 4 35 5 32 6 33 7 31 8 29 9 30 10 4 12 2 13
REMARK SMILES IDX 1 14 3 15 5 16 6 17 7 19 8 20 9 21 28 22 10 23 19 24 26 25
REMARK SMILES IDX 11 26 18 27 20 28 25 29 27 30 12 31 16 32 17 33 21 34 24 35
REMARK SMILES IDX 13 36 15 37 22 38 23 39 14 40 39 41 40 42 41 43 42 44 43 45
REMARK SMILES IDX 44 46 45 47 46 48 107 49 47 50 106 51 48 52 49 53 50 54
REMARK SMILES IDX 100 55 51 56 105 57 99 58 101 59 52 60 104 61 98 62 97 63
REMARK SMILES IDX 53 65 85 66 65 67 84 68 66 69 69 70 83 71 102 72 67 73 68 74
REMARK SMILES IDX 82 76 103 77 70 78 54 79 55 80 63 81 56 82 62 83 64 84 61 85
REMARK SMILES IDX 57 86 58 87 59 88 60 89 86 90 87 91 95 92 88 93 94 94 96 95
REMARK SMILES IDX 93 96 89 97 90 98 91 99 92 100 71 101 72 102 80 103 73 104
REMARK SMILES IDX 79 105 81 106 78 107 74 108 75 109 76 110 77 111
REMARK H PARENT 31 11 5 18 101 64 69 75
REMARK Flexibility Score: inf
ROOT
ATOM      1  C   UNL A   1      38.438  34.151  29.520  1.00  0.00     0.202 C 
ENDROOT
BRANCH   1   2
ATOM      2  C   UNL A   1      38.700  34.571  30.971  1.00  0.00     0.261 C 
BRANCH   2   3
ATOM      3  O   UNL A   1      40.114  34.593  31.219  1.00  0.00    -0.462 OA
BRANCH   3   4
ATOM      4  C   UNL A   1      40.543  34.529  32.514  1.00  0.00     0.328 C 
ATOM      5  O   UNL A   1      40.055  33.820  33.385  1.00  0.00    -0.250 OA
BRANCH   4   6
ATOM      6  C   UNL A   1      41.825  35.373  32.684  1.00  0.00     0.189 C 
ATOM      7  C   UNL A   1      41.927  35.949  34.107  1.00  0.00     0.043 C 
BRANCH   6   8
ATOM      8  N   UNL A   1      43.073  34.662  32.352  1.00  0.00    -0.341 N 
ATOM      9  C   UNL A   1      44.122  34.918  31.524  1.00  0.00     0.243 C 
ATOM     10  O   UNL A   1      45.145  34.249  31.735  1.00  0.00    -0.273 OA
ATOM     11  H   UNL A   1      43.168  33.812  32.838  1.00  0.00     0.164 HD
BRANCH   9  12
ATOM     12  C   UNL A   1      44.138  35.926  30.329  1.00  0.00     0.174 C 
BRANCH  12  13
ATOM     13  C   UNL A   1      43.370  35.462  29.056  1.00  0.00     0.015 C 
ATOM     14  C   UNL A   1      42.950  33.984  29.068  1.00  0.00     0.010 C 
ATOM     15  C   UNL A   1      42.217  36.352  28.627  1.00  0.00     0.010 C 
ENDBRANCH  12  13
BRANCH  12  16
ATOM     16  N   UNL A   1      45.279  36.819  30.229  1.00  0.00    -0.342 N 
ATOM     17  C   UNL A   1      45.548  38.124  30.203  1.00  0.00     0.243 C 
ATOM     18  H   UNL A   1      46.112  36.299  30.160  1.00  0.00     0.164 HD
ATOM     19  O   UNL A   1      46.631  38.369  29.640  1.00  0.00    -0.273 OA
BRANCH  17  20
ATOM     20  C   UNL A   1      44.718  39.303  30.750  1.00  0.00     0.179 C 
ATOM     21  C   UNL A   1      45.326  40.726  30.559  1.00  0.00     0.069 C 
ATOM     22  N   UNL A   1      43.642  39.399  31.733  1.00  0.00    -0.317 N 
ATOM     23  C   UNL A   1      44.299  41.470  29.720  1.00  0.00    -0.031 C 
ATOM     24  C   UNL A   1      42.676  40.528  31.532  1.00  0.00     0.146 C 
ATOM     25  C   UNL A   1      43.969  39.260  33.065  1.00  0.00     0.255 C 
ATOM     26  C   UNL A   1      44.430  41.362  28.390  1.00  0.00     0.001 A 
ATOM     27  C   UNL A   1      42.849  41.312  30.159  1.00  0.00     0.160 C 
ATOM     28  C   UNL A   1      42.861  41.284  32.829  1.00  0.00    -0.010 A 
ATOM     29  C   UNL A   1      43.533  40.469  33.745  1.00  0.00     0.045 A 
ATOM     30  O   UNL A   1      44.696  38.437  33.583  1.00  0.00    -0.269 OA
ATOM     31  C   UNL A   1      45.651  41.165  27.652  1.00  0.00     0.010 A 
ATOM     32  C   UNL A   1      43.232  40.515  28.128  1.00  0.00     0.066 A 
ATOM     33  N   UNL A   1      42.264  40.529  29.007  1.00  0.00    -0.274 NA
ATOM     34  C   UNL A   1      42.529  42.569  33.212  1.00  0.00     0.007 A 
ATOM     35  C   UNL A   1      43.956  40.880  34.996  1.00  0.00     0.014 A 
ATOM     36  C   UNL A   1      45.734  40.178  26.752  1.00  0.00     0.001 A 
ATOM     37  C   UNL A   1      43.380  39.512  27.033  1.00  0.00     0.028 A 
ATOM     38  C   UNL A   1      42.941  43.016  34.483  1.00  0.00     0.000 A 
ATOM     39  C   UNL A   1      43.657  42.184  35.363  1.00  0.00     0.001 A 
ATOM     40  C   UNL A   1      44.589  39.338  26.461  1.00  0.00     0.002 A 
ENDBRANCH  17  20
ENDBRANCH  12  16
ENDBRANCH   9  12
ENDBRANCH   6   8
ENDBRANCH   4   6
ENDBRANCH   3   4
ENDBRANCH   2   3
ENDBRANCH   1   2
BRANCH   1  41
ATOM     41  O   UNL A   1      37.297  33.319  29.307  1.00  0.00    -0.374 OA
BRANCH  41  42
ATOM     42  C   UNL A   1      36.048  33.971  29.068  1.00  0.00     0.202 C 
BRANCH  42  43
ATOM     43  C   UNL A   1      34.839  33.053  28.852  1.00  0.00     0.261 C 
BRANCH  43  44
ATOM     44  O   UNL A   1      34.895  32.365  27.597  1.00  0.00    -0.460 OA
BRANCH  44  45
ATOM     45  C   UNL A   1      34.665  31.030  27.654  1.00  0.00     0.338 C 
ATOM     46  O   UNL A   1      33.701  30.418  27.232  1.00  0.00    -0.246 OA
BRANCH  45  47
ATOM     47  C   UNL A   1      35.903  30.398  28.139  1.00  0.00     0.060 A 
ATOM     48  C   UNL A   1      37.060  30.403  27.358  1.00  0.00     0.016 A 
ATOM     49  C   UNL A   1      35.877  29.767  29.387  1.00  0.00     0.016 A 
ATOM     50  C   UNL A   1      38.204  29.770  27.839  1.00  0.00     0.010 A 
ATOM     51  C   UNL A   1      37.021  29.136  29.865  1.00  0.00     0.010 A 
ATOM     52  C   UNL A   1      38.195  29.146  29.101  1.00  0.00    -0.014 A 
BRANCH  52  53
ATOM     53  C   UNL A   1      39.461  28.646  29.685  1.00  0.00     0.031 A 
ATOM     54  C   UNL A   1      40.077  29.285  30.890  1.00  0.00     0.074 A 
ATOM     55  C   UNL A   1      40.062  27.610  29.071  1.00  0.00     0.049 A 
ATOM     56  N   UNL A   1      41.142  28.918  31.552  1.00  0.00    -0.248 NA
ATOM     57  C   UNL A   1      39.424  30.493  31.418  1.00  0.00     0.031 C 
ATOM     58  C   UNL A   1      39.560  26.964  27.858  1.00  0.00     0.029 A 
ATOM     59  N   UNL A   1      41.206  26.918  29.371  1.00  0.00    -0.354 N 
ATOM     60  C   UNL A   1      41.285  29.836  32.584  1.00  0.00     0.074 A 
ATOM     61  C   UNL A   1      40.225  30.809  32.429  1.00  0.00     0.031 C 
ATOM     62  C   UNL A   1      40.372  25.947  27.536  1.00  0.00     0.029 A 
ATOM     63  C   UNL A   1      41.474  25.896  28.492  1.00  0.00     0.049 A 
ATOM     64  H   UNL A   1      41.780  27.133  30.142  1.00  0.00     0.167 HD
ATOM     65  C   UNL A   1      42.208  29.842  33.575  1.00  0.00     0.034 A 
ATOM     66  C   UNL A   1      42.491  25.011  28.459  1.00  0.00     0.034 A 
ATOM     67  C   UNL A   1      43.261  28.860  33.691  1.00  0.00     0.049 A 
ATOM     68  C   UNL A   1      43.512  25.050  29.566  1.00  0.00     0.074 A 
ATOM     69  C   UNL A   1      44.215  28.746  34.687  1.00  0.00     0.029 A 
ATOM     70  N   UNL A   1      43.510  27.837  32.784  1.00  0.00    -0.354 N 
ATOM     71  N   UNL A   1      43.567  25.849  30.606  1.00  0.00    -0.248 NA
ATOM     72  C   UNL A   1      44.596  24.062  29.512  1.00  0.00     0.031 C 
ATOM     73  C   UNL A   1      45.087  27.715  34.341  1.00  0.00     0.029 A 
ATOM     74  C   UNL A   1      44.627  27.115  33.179  1.00  0.00     0.049 A 
ATOM     75  H   UNL A   1      42.974  27.652  31.980  1.00  0.00     0.167 HD
ATOM     76  C   UNL A   1      44.677  25.446  31.342  1.00  0.00     0.074 A 
ATOM     77  C   UNL A   1      45.243  24.310  30.644  1.00  0.00     0.031 C 
ATOM     78  C   UNL A   1      45.182  25.975  32.485  1.00  0.00     0.034 A 
BRANCH  65  79
ATOM     79  C   UNL A   1      42.132  30.911  34.640  1.00  0.00     0.023 A 
ATOM     80  C   UNL A   1      40.997  31.003  35.468  1.00  0.00     0.031 A 
ATOM     81  C   UNL A   1      43.099  31.930  34.726  1.00  0.00     0.131 A 
ATOM     82  C   UNL A   1      40.832  32.114  36.307  1.00  0.00     0.055 A 
ATOM     83  C   UNL A   1      42.955  33.008  35.601  1.00  0.00     0.041 A 
ATOM     84  F   UNL A   1      44.197  31.895  33.954  1.00  0.00    -0.206 F 
ATOM     85  C   UNL A   1      41.809  33.112  36.384  1.00  0.00     0.022 A 
BRANCH  82  86
ATOM     86  S   UNL A   1      39.307  32.353  37.260  1.00  0.00     0.124 S 
ATOM     87  O   UNL A   1      39.830  32.693  38.582  1.00  0.00    -0.237 OA
ATOM     88  O   UNL A   1      38.668  33.451  36.541  1.00  0.00    -0.237 OA
ATOM     89  O   UNL A   1      38.633  31.062  37.173  1.00  0.00    -0.744 OA
ENDBRANCH  82  86
ENDBRANCH  65  79
BRANCH  66  90
ATOM     90  C   UNL A   1      42.521  23.986  27.375  1.00  0.00     0.023 A 
ATOM     91  C   UNL A   1      41.841  22.762  27.521  1.00  0.00     0.031 A 
ATOM     92  C   UNL A   1      43.334  24.158  26.243  1.00  0.00     0.131 A 
ATOM     93  C   UNL A   1      42.049  21.734  26.593  1.00  0.00     0.055 A 
ATOM     94  C   UNL A   1      43.474  23.159  25.278  1.00  0.00     0.041 A 
ATOM     95  F   UNL A   1      44.019  25.298  26.070  1.00  0.00    -0.206 F 
ATOM     96  C   UNL A   1      42.845  21.932  25.461  1.00  0.00     0.022 A 
BRANCH  93  97
ATOM     97  S   UNL A   1      41.418  20.062  26.905  1.00  0.00     0.124 S 
ATOM     98  O   UNL A   1      42.623  19.250  26.765  1.00  0.00    -0.237 OA
ATOM     99  O   UNL A   1      40.897  20.190  28.264  1.00  0.00    -0.237 OA
ATOM    100  O   UNL A   1      40.407  19.875  25.870  1.00  0.00    -0.744 OA
ENDBRANCH  93  97
ENDBRANCH  66  90
BRANCH  78 101
ATOM    101  C   UNL A   1      46.421  25.348  33.086  1.00  0.00     0.023 A 
ATOM    102  C   UNL A   1      47.685  25.606  32.520  1.00  0.00     0.031 A 
ATOM    103  C   UNL A   1      46.336  24.381  34.104  1.00  0.00     0.131 A 
ATOM    104  C   UNL A   1      48.800  24.869  32.935  1.00  0.00     0.055 A 
ATOM    105  C   UNL A   1      47.463  23.694  34.558  1.00  0.00     0.041 A 
ATOM    106  F   UNL A   1      45.154  24.086  34.669  1.00  0.00    -0.206 F 
ATOM    107  C   UNL A   1      48.699  23.924  33.960  1.00  0.00     0.022 A 
BRANCH 104 108
ATOM    108  S   UNL A   1      50.397  25.030  32.089  1.00  0.00     0.124 S 
ATOM    109  O   UNL A   1      51.114  25.951  32.969  1.00  0.00    -0.237 OA
ATOM    110  O   UNL A   1      50.887  23.654  32.095  1.00  0.00    -0.237 OA
ATOM    111  O   UNL A   1      50.050  25.568  30.779  1.00  0.00    -0.744 OA
ENDBRANCH 104 108
ENDBRANCH  78 101
ENDBRANCH  52  53
ENDBRANCH  45  47
ENDBRANCH  44  45
ENDBRANCH  43  44
ENDBRANCH  42  43
ENDBRANCH  41  42
ENDBRANCH   1  41
TORSDOF 22
ENDMDL
