MODEL 1
REMARK VINA RESULT:      -9.9      0.000      0.000
REMARK SMILES O=C(OCCOCCOC(=O)c1ccc(C[NH2+][C@@H]2CCCc3sccc32)nc1)c1ccc(-c2c3nc(c(-c4cc(S(=O)(=O)[O-])ccc4F)c4ccc([nH]4)c(-c4cc(S(=O)(=O)[O-])ccc4F)c4nc(c(-c5cc(S(=O)(=O)[O-])ccc5F)c5ccc2[nH]5)C=C4)C=C3)cc1
REMARK SMILES IDX 6 1 5 2 4 3 3 4 2 5 1 6 29 7 30 8 91 9 31 10 90 11 32 12
REMARK SMILES IDX 33 13 34 14 84 15 35 16 89 17 83 18 85 19 36 20 88 21 82 22
REMARK SMILES IDX 81 23 37 25 69 26 49 27 68 28 50 29 53 30 67 31 86 32 51 33
REMARK SMILES IDX 52 34 66 36 87 37 54 38 38 39 39 40 47 41 40 42 46 43 48 44
REMARK SMILES IDX 45 45 41 46 42 47 43 48 44 49 70 50 71 51 79 52 72 53 78 54
REMARK SMILES IDX 80 55 77 56 73 57 74 58 75 59 76 60 55 61 56 62 64 63 57 64
REMARK SMILES IDX 63 65 65 66 62 67 58 68 59 69 60 70 61 71 7 72 8 73 9 74
REMARK SMILES IDX 10 75 11 76 12 77 13 78 28 79 14 80 27 81 15 82 16 83 17 84
REMARK SMILES IDX 18 87 19 88 26 89 20 90 22 91 25 92 21 93 23 94 24 95
REMARK H PARENT 85 24 53 35 17 85 17 86
REMARK Flexibility Score: inf
ROOT
ATOM      1  O   UNL A   1      32.965  35.166  30.915  1.00  0.00    -0.374 OA
ENDROOT
BRANCH   1   2
ATOM      2  C   UNL A   1      33.678  34.976  29.689  1.00  0.00     0.202 C 
BRANCH   2   3
ATOM      3  C   UNL A   1      34.404  33.631  29.561  1.00  0.00     0.261 C 
BRANCH   3   4
ATOM      4  O   UNL A   1      33.839  32.857  28.486  1.00  0.00    -0.460 OA
BRANCH   4   5
ATOM      5  C   UNL A   1      34.281  31.689  27.962  1.00  0.00     0.338 C 
ATOM      6  O   UNL A   1      33.586  31.130  27.114  1.00  0.00    -0.246 OA
BRANCH   5   7
ATOM      7  C   UNL A   1      35.564  31.035  28.360  1.00  0.00     0.060 A 
ATOM      8  C   UNL A   1      35.671  29.749  28.888  1.00  0.00     0.016 A 
ATOM      9  C   UNL A   1      36.752  31.743  28.106  1.00  0.00     0.016 A 
ATOM     10  C   UNL A   1      36.896  29.219  29.262  1.00  0.00     0.010 A 
ATOM     11  C   UNL A   1      37.998  31.194  28.428  1.00  0.00     0.010 A 
ATOM     12  C   UNL A   1      38.065  29.940  29.043  1.00  0.00    -0.014 A 
BRANCH  12  13
ATOM     13  C   UNL A   1      39.316  29.394  29.605  1.00  0.00     0.031 A 
ATOM     14  C   UNL A   1      39.734  29.849  30.971  1.00  0.00     0.074 A 
ATOM     15  C   UNL A   1      39.946  28.391  28.966  1.00  0.00     0.049 A 
ATOM     16  N   UNL A   1      40.763  29.489  31.688  1.00  0.00    -0.248 NA
ATOM     17  C   UNL A   1      38.860  30.838  31.622  1.00  0.00     0.031 C 
ATOM     18  C   UNL A   1      39.518  27.809  27.691  1.00  0.00     0.029 A 
ATOM     19  N   UNL A   1      41.043  27.651  29.318  1.00  0.00    -0.354 N 
ATOM     20  C   UNL A   1      40.674  30.223  32.865  1.00  0.00     0.074 A 
ATOM     21  C   UNL A   1      39.501  31.060  32.757  1.00  0.00     0.031 C 
ATOM     22  C   UNL A   1      40.320  26.774  27.390  1.00  0.00     0.029 A 
ATOM     23  C   UNL A   1      41.356  26.665  28.410  1.00  0.00     0.049 A 
ATOM     24  H   UNL A   1      41.558  27.810  30.140  1.00  0.00     0.167 HD
ATOM     25  C   UNL A   1      41.507  30.196  33.934  1.00  0.00     0.034 A 
ATOM     26  C   UNL A   1      42.382  25.792  28.404  1.00  0.00     0.034 A 
ATOM     27  C   UNL A   1      42.674  29.353  33.989  1.00  0.00     0.049 A 
ATOM     28  C   UNL A   1      43.350  25.849  29.560  1.00  0.00     0.074 A 
ATOM     29  C   UNL A   1      43.654  29.285  34.963  1.00  0.00     0.029 A 
ATOM     30  N   UNL A   1      43.020  28.423  33.012  1.00  0.00    -0.354 N 
ATOM     31  N   UNL A   1      43.309  26.608  30.633  1.00  0.00    -0.248 NA
ATOM     32  C   UNL A   1      44.498  24.940  29.506  1.00  0.00     0.031 C 
ATOM     33  C   UNL A   1      44.620  28.361  34.544  1.00  0.00     0.029 A 
ATOM     34  C   UNL A   1      44.207  27.793  33.348  1.00  0.00     0.049 A 
ATOM     35  H   UNL A   1      42.496  28.240  32.199  1.00  0.00     0.167 HD
ATOM     36  C   UNL A   1      44.416  26.249  31.395  1.00  0.00     0.074 A 
ATOM     37  C   UNL A   1      45.089  25.192  30.665  1.00  0.00     0.031 C 
ATOM     38  C   UNL A   1      44.845  26.744  32.586  1.00  0.00     0.034 A 
BRANCH  25  39
ATOM     39  C   UNL A   1      41.224  31.185  35.040  1.00  0.00     0.023 A 
ATOM     40  C   UNL A   1      40.113  31.058  35.893  1.00  0.00     0.031 A 
ATOM     41  C   UNL A   1      42.017  32.341  35.163  1.00  0.00     0.131 A 
ATOM     42  C   UNL A   1      39.772  32.108  36.761  1.00  0.00     0.055 A 
ATOM     43  C   UNL A   1      41.720  33.344  36.089  1.00  0.00     0.041 A 
ATOM     44  F   UNL A   1      43.070  32.537  34.355  1.00  0.00    -0.206 F 
ATOM     45  C   UNL A   1      40.581  33.241  36.880  1.00  0.00     0.022 A 
BRANCH  42  46
ATOM     46  S   UNL A   1      38.159  32.061  37.594  1.00  0.00     0.124 S 
ATOM     47  O   UNL A   1      38.547  32.198  38.996  1.00  0.00    -0.237 OA
ATOM     48  O   UNL A   1      37.467  33.203  37.007  1.00  0.00    -0.237 OA
ATOM     49  O   UNL A   1      37.621  30.752  37.230  1.00  0.00    -0.744 OA
ENDBRANCH  42  46
ENDBRANCH  25  39
BRANCH  26  50
ATOM     50  C   UNL A   1      42.581  24.846  27.265  1.00  0.00     0.023 A 
ATOM     51  C   UNL A   1      42.068  23.538  27.295  1.00  0.00     0.031 A 
ATOM     52  C   UNL A   1      43.338  25.223  26.139  1.00  0.00     0.131 A 
ATOM     53  C   UNL A   1      42.351  22.648  26.245  1.00  0.00     0.055 A 
ATOM     54  C   UNL A   1      43.568  24.354  25.071  1.00  0.00     0.041 A 
ATOM     55  F   UNL A   1      43.862  26.457  26.054  1.00  0.00    -0.206 F 
ATOM     56  C   UNL A   1      43.085  23.051  25.127  1.00  0.00     0.022 A 
BRANCH  53  57
ATOM     57  S   UNL A   1      41.827  20.917  26.401  1.00  0.00     0.124 S 
ATOM     58  O   UNL A   1      42.658  20.263  25.397  1.00  0.00    -0.237 OA
ATOM     59  O   UNL A   1      42.150  20.625  27.792  1.00  0.00    -0.237 OA
ATOM     60  O   UNL A   1      40.398  20.965  26.091  1.00  0.00    -0.744 OA
ENDBRANCH  53  57
ENDBRANCH  26  50
BRANCH  38  61
ATOM     61  C   UNL A   1      46.071  26.096  33.178  1.00  0.00     0.023 A 
ATOM     62  C   UNL A   1      45.980  24.981  34.028  1.00  0.00     0.031 A 
ATOM     63  C   UNL A   1      47.345  26.618  32.897  1.00  0.00     0.131 A 
ATOM     64  C   UNL A   1      47.139  24.465  34.623  1.00  0.00     0.055 A 
ATOM     65  C   UNL A   1      48.501  26.059  33.442  1.00  0.00     0.041 A 
ATOM     66  F   UNL A   1      47.485  27.683  32.090  1.00  0.00    -0.206 F 
ATOM     67  C   UNL A   1      48.400  24.986  34.322  1.00  0.00     0.022 A 
BRANCH  64  68
ATOM     68  S   UNL A   1      46.966  23.170  35.880  1.00  0.00     0.124 S 
ATOM     69  O   UNL A   1      47.312  23.886  37.104  1.00  0.00    -0.237 OA
ATOM     70  O   UNL A   1      45.565  22.786  35.741  1.00  0.00    -0.237 OA
ATOM     71  O   UNL A   1      47.930  22.155  35.462  1.00  0.00    -0.744 OA
ENDBRANCH  64  68
ENDBRANCH  38  61
ENDBRANCH  12  13
ENDBRANCH   5   7
ENDBRANCH   4   5
ENDBRANCH   3   4
ENDBRANCH   2   3
ENDBRANCH   1   2
BRANCH   1  72
ATOM     72  C   UNL A   1      33.395  36.271  31.722  1.00  0.00     0.202 C 
BRANCH  72  73
ATOM     73  C   UNL A   1      33.965  35.756  33.045  1.00  0.00     0.261 C 
BRANCH  73  74
ATOM     74  O   UNL A   1      35.393  35.669  32.910  1.00  0.00    -0.460 OA
BRANCH  74  75
ATOM     75  C   UNL A   1      35.942  34.585  33.512  1.00  0.00     0.339 C 
ATOM     76  O   UNL A   1      35.377  33.739  34.181  1.00  0.00    -0.246 OA
BRANCH  75  77
ATOM     77  C   UNL A   1      37.329  34.468  33.045  1.00  0.00     0.078 A 
ATOM     78  C   UNL A   1      38.429  34.558  33.896  1.00  0.00     0.019 A 
ATOM     79  C   UNL A   1      37.552  34.368  31.683  1.00  0.00     0.127 A 
ATOM     80  C   UNL A   1      39.711  34.565  33.351  1.00  0.00     0.031 A 
ATOM     81  N   UNL A   1      38.788  34.364  31.131  1.00  0.00    -0.254 NA
ATOM     82  C   UNL A   1      39.855  34.472  31.967  1.00  0.00     0.094 A 
BRANCH  82  83
ATOM     83  C   UNL A   1      41.245  34.505  31.352  1.00  0.00     0.318 C 
BRANCH  83  84
ATOM     84  N   UNL A   1      41.216  34.314  29.901  1.00  0.00    -0.335 N 
ATOM     85  H   UNL A   1      40.287  34.568  29.565  1.00  0.00     0.347 HD
ATOM     86  H   UNL A   1      41.447  33.335  29.731  1.00  0.00     0.347 HD
BRANCH  84  87
ATOM     87  C   UNL A   1      42.196  35.104  29.169  1.00  0.00     0.215 C 
ATOM     88  C   UNL A   1      41.493  36.019  28.135  1.00  0.00     0.071 C 
ATOM     89  C   UNL A   1      43.166  34.159  28.492  1.00  0.00     0.023 A 
ATOM     90  C   UNL A   1      42.471  36.565  27.088  1.00  0.00     0.012 C 
ATOM     91  C   UNL A   1      43.577  34.341  27.182  1.00  0.00     0.014 A 
ATOM     92  C   UNL A   1      43.819  33.017  29.068  1.00  0.00     0.022 A 
ATOM     93  C   UNL A   1      43.102  35.430  26.273  1.00  0.00     0.047 C 
ATOM     94  S   UNL A   1      44.672  33.151  26.651  1.00  0.00    -0.148 S 
ATOM     95  C   UNL A   1      44.640  32.370  28.170  1.00  0.00     0.065 A 
ENDBRANCH  84  87
ENDBRANCH  83  84
ENDBRANCH  82  83
ENDBRANCH  75  77
ENDBRANCH  74  75
ENDBRANCH  73  74
ENDBRANCH  72  73
ENDBRANCH   1  72
TORSDOF 20
ENDMDL
MODEL 2
REMARK VINA RESULT:      -9.6      4.117     11.426
REMARK SMILES O=C(OCCOCCOC(=O)c1ccc(C[NH2+][C@@H]2CCCc3sccc32)nc1)c1ccc(-c2c3nc(c(-c4cc(S(=O)(=O)[O-])ccc4F)c4ccc([nH]4)c(-c4cc(S(=O)(=O)[O-])ccc4F)c4nc(c(-c5cc(S(=O)(=O)[O-])ccc5F)c5ccc2[nH]5)C=C4)C=C3)cc1
REMARK SMILES IDX 6 1 5 2 4 3 3 4 2 5 1 6 29 7 30 8 91 9 31 10 90 11 32 12
REMARK SMILES IDX 33 13 34 14 84 15 35 16 89 17 83 18 85 19 36 20 88 21 82 22
REMARK SMILES IDX 81 23 37 25 69 26 49 27 68 28 50 29 53 30 67 31 86 32 51 33
REMARK SMILES IDX 52 34 66 36 87 37 54 38 38 39 39 40 47 41 40 42 46 43 48 44
REMARK SMILES IDX 45 45 41 46 42 47 43 48 44 49 70 50 71 51 79 52 72 53 78 54
REMARK SMILES IDX 80 55 77 56 73 57 74 58 75 59 76 60 55 61 56 62 64 63 57 64
REMARK SMILES IDX 63 65 65 66 62 67 58 68 59 69 60 70 61 71 7 72 8 73 9 74
REMARK SMILES IDX 10 75 11 76 12 77 13 78 28 79 14 80 27 81 15 82 16 83 17 84
REMARK SMILES IDX 18 87 19 88 26 89 20 90 22 91 25 92 21 93 23 94 24 95
REMARK H PARENT 85 24 53 35 17 85 17 86
REMARK Flexibility Score: inf
ROOT
ATOM      1  O   UNL A   1      41.827  21.155  27.340  1.00  0.00    -0.374 OA
ENDROOT
BRANCH   1   2
ATOM      2  C   UNL A   1      42.413  20.698  26.117  1.00  0.00     0.202 C 
BRANCH   2   3
ATOM      3  C   UNL A   1      43.510  21.604  25.544  1.00  0.00     0.261 C 
BRANCH   3   4
ATOM      4  O   UNL A   1      42.943  22.837  25.065  1.00  0.00    -0.460 OA
BRANCH   4   5
ATOM      5  C   UNL A   1      43.426  24.096  25.191  1.00  0.00     0.338 C 
ATOM      6  O   UNL A   1      44.334  24.452  24.440  1.00  0.00    -0.246 OA
BRANCH   5   7
ATOM      7  C   UNL A   1      42.923  25.079  26.197  1.00  0.00     0.060 A 
ATOM      8  C   UNL A   1      43.265  26.432  26.229  1.00  0.00     0.016 A 
ATOM      9  C   UNL A   1      41.975  24.619  27.128  1.00  0.00     0.016 A 
ATOM     10  C   UNL A   1      42.780  27.279  27.212  1.00  0.00     0.010 A 
ATOM     11  C   UNL A   1      41.436  25.480  28.091  1.00  0.00     0.010 A 
ATOM     12  C   UNL A   1      41.871  26.808  28.154  1.00  0.00    -0.014 A 
BRANCH  12  13
ATOM     13  C   UNL A   1      41.516  27.710  29.266  1.00  0.00     0.031 A 
ATOM     14  C   UNL A   1      40.233  28.481  29.168  1.00  0.00     0.074 A 
ATOM     15  C   UNL A   1      42.248  27.690  30.395  1.00  0.00     0.049 A 
ATOM     16  N   UNL A   1      39.689  29.302  30.024  1.00  0.00    -0.248 NA
ATOM     17  C   UNL A   1      39.449  28.285  27.938  1.00  0.00     0.031 C 
ATOM     18  C   UNL A   1      43.440  26.864  30.607  1.00  0.00     0.029 A 
ATOM     19  N   UNL A   1      42.077  28.338  31.589  1.00  0.00    -0.354 N 
ATOM     20  C   UNL A   1      38.512  29.739  29.429  1.00  0.00     0.074 A 
ATOM     21  C   UNL A   1      38.431  29.105  28.132  1.00  0.00     0.031 C 
ATOM     22  C   UNL A   1      43.866  27.024  31.870  1.00  0.00     0.029 A 
ATOM     23  C   UNL A   1      43.024  28.013  32.533  1.00  0.00     0.049 A 
ATOM     24  H   UNL A   1      41.346  28.976  31.755  1.00  0.00     0.167 HD
ATOM     25  C   UNL A   1      37.589  30.598  29.927  1.00  0.00     0.034 A 
ATOM     26  C   UNL A   1      43.195  28.486  33.783  1.00  0.00     0.034 A 
ATOM     27  C   UNL A   1      37.722  31.216  31.221  1.00  0.00     0.049 A 
ATOM     28  C   UNL A   1      42.207  29.514  34.277  1.00  0.00     0.074 A 
ATOM     29  C   UNL A   1      36.917  32.170  31.817  1.00  0.00     0.029 A 
ATOM     30  N   UNL A   1      38.743  30.936  32.126  1.00  0.00    -0.354 N 
ATOM     31  N   UNL A   1      41.140  29.990  33.673  1.00  0.00    -0.248 NA
ATOM     32  C   UNL A   1      42.445  30.070  35.612  1.00  0.00     0.031 C 
ATOM     33  C   UNL A   1      37.485  32.508  33.052  1.00  0.00     0.029 A 
ATOM     34  C   UNL A   1      38.602  31.713  33.264  1.00  0.00     0.049 A 
ATOM     35  H   UNL A   1      39.463  30.281  31.978  1.00  0.00     0.167 HD
ATOM     36  C   UNL A   1      40.564  30.886  34.569  1.00  0.00     0.074 A 
ATOM     37  C   UNL A   1      41.394  30.863  35.759  1.00  0.00     0.031 C 
ATOM     38  C   UNL A   1      39.456  31.660  34.428  1.00  0.00     0.034 A 
BRANCH  25  39
ATOM     39  C   UNL A   1      36.451  30.978  29.010  1.00  0.00     0.023 A 
ATOM     40  C   UNL A   1      36.026  32.310  28.855  1.00  0.00     0.031 A 
ATOM     41  C   UNL A   1      35.703  29.973  28.371  1.00  0.00     0.131 A 
ATOM     42  C   UNL A   1      34.836  32.590  28.165  1.00  0.00     0.055 A 
ATOM     43  C   UNL A   1      34.567  30.267  27.613  1.00  0.00     0.041 A 
ATOM     44  F   UNL A   1      36.037  28.680  28.508  1.00  0.00    -0.206 F 
ATOM     45  C   UNL A   1      34.115  31.579  27.523  1.00  0.00     0.022 A 
BRANCH  42  46
ATOM     46  S   UNL A   1      34.140  34.264  28.271  1.00  0.00     0.124 S 
ATOM     47  O   UNL A   1      34.850  34.949  27.194  1.00  0.00    -0.237 OA
ATOM     48  O   UNL A   1      32.717  34.029  28.051  1.00  0.00    -0.237 OA
ATOM     49  O   UNL A   1      34.498  34.701  29.619  1.00  0.00    -0.744 OA
ENDBRANCH  42  46
ENDBRANCH  25  39
BRANCH  26  50
ATOM     50  C   UNL A   1      44.353  28.049  34.620  1.00  0.00     0.023 A 
ATOM     51  C   UNL A   1      44.187  27.175  35.707  1.00  0.00     0.031 A 
ATOM     52  C   UNL A   1      45.647  28.543  34.372  1.00  0.00     0.131 A 
ATOM     53  C   UNL A   1      45.283  26.857  36.526  1.00  0.00     0.055 A 
ATOM     54  C   UNL A   1      46.746  28.178  35.153  1.00  0.00     0.041 A 
ATOM     55  F   UNL A   1      45.870  29.389  33.352  1.00  0.00    -0.206 F 
ATOM     56  C   UNL A   1      46.564  27.341  36.248  1.00  0.00     0.022 A 
BRANCH  53  57
ATOM     57  S   UNL A   1      45.000  25.872  38.024  1.00  0.00     0.124 S 
ATOM     58  O   UNL A   1      43.713  26.386  38.479  1.00  0.00    -0.237 OA
ATOM     59  O   UNL A   1      44.999  24.512  37.498  1.00  0.00    -0.237 OA
ATOM     60  O   UNL A   1      46.141  26.209  38.875  1.00  0.00    -0.744 OA
ENDBRANCH  53  57
ENDBRANCH  26  50
BRANCH  38  61
ATOM     61  C   UNL A   1      39.068  32.497  35.621  1.00  0.00     0.023 A 
ATOM     62  C   UNL A   1      39.522  33.818  35.774  1.00  0.00     0.031 A 
ATOM     63  C   UNL A   1      38.248  31.953  36.622  1.00  0.00     0.131 A 
ATOM     64  C   UNL A   1      39.206  34.529  36.940  1.00  0.00     0.055 A 
ATOM     65  C   UNL A   1      37.884  32.688  37.750  1.00  0.00     0.041 A 
ATOM     66  F   UNL A   1      37.788  30.694  36.522  1.00  0.00    -0.206 F 
ATOM     67  C   UNL A   1      38.376  33.978  37.921  1.00  0.00     0.022 A 
BRANCH  64  68
ATOM     68  S   UNL A   1      39.983  36.145  37.208  1.00  0.00     0.124 S 
ATOM     69  O   UNL A   1      41.316  35.769  37.667  1.00  0.00    -0.237 OA
ATOM     70  O   UNL A   1      39.913  36.748  35.881  1.00  0.00    -0.237 OA
ATOM     71  O   UNL A   1      39.132  36.771  38.218  1.00  0.00    -0.744 OA
ENDBRANCH  64  68
ENDBRANCH  38  61
ENDBRANCH  12  13
ENDBRANCH   5   7
ENDBRANCH   4   5
ENDBRANCH   3   4
ENDBRANCH   2   3
ENDBRANCH   1   2
BRANCH   1  72
ATOM     72  C   UNL A   1      40.419  21.421  27.295  1.00  0.00     0.202 C 
BRANCH  72  73
ATOM     73  C   UNL A   1      39.873  21.089  25.904  1.00  0.00     0.261 C 
BRANCH  73  74
ATOM     74  O   UNL A   1      38.630  21.789  25.735  1.00  0.00    -0.460 OA
BRANCH  74  75
ATOM     75  C   UNL A   1      37.641  21.039  25.190  1.00  0.00     0.339 C 
ATOM     76  O   UNL A   1      37.692  19.871  24.852  1.00  0.00    -0.246 OA
BRANCH  75  77
ATOM     77  C   UNL A   1      36.396  21.816  25.267  1.00  0.00     0.078 A 
ATOM     78  C   UNL A   1      36.344  23.125  25.742  1.00  0.00     0.019 A 
ATOM     79  C   UNL A   1      35.210  21.178  24.950  1.00  0.00     0.127 A 
ATOM     80  C   UNL A   1      35.105  23.740  25.901  1.00  0.00     0.031 A 
ATOM     81  N   UNL A   1      33.995  21.759  25.089  1.00  0.00    -0.254 NA
ATOM     82  C   UNL A   1      33.952  23.029  25.572  1.00  0.00     0.094 A 
BRANCH  82  83
ATOM     83  C   UNL A   1      32.588  23.675  25.764  1.00  0.00     0.318 C 
BRANCH  83  84
ATOM     84  N   UNL A   1      32.683  25.003  26.372  1.00  0.00    -0.335 N 
ATOM     85  H   UNL A   1      33.588  25.403  26.126  1.00  0.00     0.347 HD
ATOM     86  H   UNL A   1      32.566  24.872  27.377  1.00  0.00     0.347 HD
BRANCH  84  87
ATOM     87  C   UNL A   1      31.644  25.934  25.952  1.00  0.00     0.215 C 
ATOM     88  C   UNL A   1      30.489  25.178  25.249  1.00  0.00     0.071 C 
ATOM     89  C   UNL A   1      32.266  26.962  25.029  1.00  0.00     0.023 A 
ATOM     90  C   UNL A   1      29.581  26.122  24.452  1.00  0.00     0.012 C 
ATOM     91  C   UNL A   1      31.651  27.362  23.855  1.00  0.00     0.014 A 
ATOM     92  C   UNL A   1      33.491  27.683  25.225  1.00  0.00     0.022 A 
ATOM     93  C   UNL A   1      30.358  26.823  23.331  1.00  0.00     0.047 C 
ATOM     94  S   UNL A   1      32.543  28.530  22.996  1.00  0.00    -0.148 S 
ATOM     95  C   UNL A   1      33.769  28.544  24.185  1.00  0.00     0.065 A 
ENDBRANCH  84  87
ENDBRANCH  83  84
ENDBRANCH  82  83
ENDBRANCH  75  77
ENDBRANCH  74  75
ENDBRANCH  73  74
ENDBRANCH  72  73
ENDBRANCH   1  72
TORSDOF 20
ENDMDL
MODEL 3
REMARK VINA RESULT:      -9.4      4.399      7.900
REMARK SMILES O=C(OCCOCCOC(=O)c1ccc(C[NH2+][C@@H]2CCCc3sccc32)nc1)c1ccc(-c2c3nc(c(-c4cc(S(=O)(=O)[O-])ccc4F)c4ccc([nH]4)c(-c4cc(S(=O)(=O)[O-])ccc4F)c4nc(c(-c5cc(S(=O)(=O)[O-])ccc5F)c5ccc2[nH]5)C=C4)C=C3)cc1
REMARK SMILES IDX 6 1 5 2 4 3 3 4 2 5 1 6 29 7 30 8 91 9 31 10 90 11 32 12
REMARK SMILES IDX 33 13 34 14 84 15 35 16 89 17 83 18 85 19 36 20 88 21 82 22
REMARK SMILES IDX 81 23 37 25 69 26 49 27 68 28 50 29 53 30 67 31 86 32 51 33
REMARK SMILES IDX 52 34 66 36 87 37 54 38 38 39 39 40 47 41 40 42 46 43 48 44
REMARK SMILES IDX 45 45 41 46 42 47 43 48 44 49 70 50 71 51 79 52 72 53 78 54
REMARK SMILES IDX 80 55 77 56 73 57 74 58 75 59 76 60 55 61 56 62 64 63 57 64
REMARK SMILES IDX 63 65 65 66 62 67 58 68 59 69 60 70 61 71 7 72 8 73 9 74
REMARK SMILES IDX 10 75 11 76 12 77 13 78 28 79 14 80 27 81 15 82 16 83 17 84
REMARK SMILES IDX 18 87 19 88 26 89 20 90 22 91 25 92 21 93 23 94 24 95
REMARK H PARENT 85 24 53 35 17 85 17 86
REMARK Flexibility Score: inf
ROOT
ATOM      1  O   UNL A   1      31.776  30.732  26.838  1.00  0.00    -0.374 OA
ENDROOT
BRANCH   1   2
ATOM      2  C   UNL A   1      31.038  31.812  26.259  1.00  0.00     0.202 C 
BRANCH   2   3
ATOM      3  C   UNL A   1      31.644  33.204  26.479  1.00  0.00     0.261 C 
BRANCH   3   4
ATOM      4  O   UNL A   1      32.347  33.252  27.734  1.00  0.00    -0.460 OA
BRANCH   4   5
ATOM      5  C   UNL A   1      33.531  33.844  28.019  1.00  0.00     0.338 C 
ATOM      6  O   UNL A   1      33.631  35.060  27.860  1.00  0.00    -0.246 OA
BRANCH   5   7
ATOM      7  C   UNL A   1      34.732  33.101  28.509  1.00  0.00     0.060 A 
ATOM      8  C   UNL A   1      34.705  31.815  29.050  1.00  0.00     0.016 A 
ATOM      9  C   UNL A   1      35.984  33.716  28.336  1.00  0.00     0.016 A 
ATOM     10  C   UNL A   1      35.858  31.200  29.511  1.00  0.00     0.010 A 
ATOM     11  C   UNL A   1      37.160  33.079  28.746  1.00  0.00     0.010 A 
ATOM     12  C   UNL A   1      37.091  31.830  29.371  1.00  0.00    -0.014 A 
BRANCH  12  13
ATOM     13  C   UNL A   1      38.255  31.198  30.022  1.00  0.00     0.031 A 
ATOM     14  C   UNL A   1      38.495  31.488  31.473  1.00  0.00     0.074 A 
ATOM     15  C   UNL A   1      38.957  30.262  29.358  1.00  0.00     0.049 A 
ATOM     16  N   UNL A   1      39.420  31.028  32.270  1.00  0.00    -0.248 NA
ATOM     17  C   UNL A   1      37.549  32.413  32.117  1.00  0.00     0.031 C 
ATOM     18  C   UNL A   1      38.695  29.837  27.980  1.00  0.00     0.029 A 
ATOM     19  N   UNL A   1      39.996  29.465  29.760  1.00  0.00    -0.354 N 
ATOM     20  C   UNL A   1      39.184  31.625  33.503  1.00  0.00     0.074 A 
ATOM     21  C   UNL A   1      38.039  32.493  33.343  1.00  0.00     0.031 C 
ATOM     22  C   UNL A   1      39.523  28.827  27.667  1.00  0.00     0.029 A 
ATOM     23  C   UNL A   1      40.418  28.582  28.793  1.00  0.00     0.049 A 
ATOM     24  H   UNL A   1      40.401  29.519  30.654  1.00  0.00     0.167 HD
ATOM     25  C   UNL A   1      39.871  31.460  34.660  1.00  0.00     0.034 A 
ATOM     26  C   UNL A   1      41.432  27.695  28.817  1.00  0.00     0.034 A 
ATOM     27  C   UNL A   1      41.017  30.593  34.767  1.00  0.00     0.049 A 
ATOM     28  C   UNL A   1      42.242  27.601  30.087  1.00  0.00     0.074 A 
ATOM     29  C   UNL A   1      41.862  30.395  35.843  1.00  0.00     0.029 A 
ATOM     30  N   UNL A   1      41.481  29.773  33.741  1.00  0.00    -0.354 N 
ATOM     31  N   UNL A   1      42.066  28.235  31.226  1.00  0.00    -0.248 NA
ATOM     32  C   UNL A   1      43.383  26.681  30.076  1.00  0.00     0.031 C 
ATOM     33  C   UNL A   1      42.869  29.505  35.448  1.00  0.00     0.029 A 
ATOM     34  C   UNL A   1      42.611  29.085  34.151  1.00  0.00     0.049 A 
ATOM     35  H   UNL A   1      41.066  29.694  32.852  1.00  0.00     0.167 HD
ATOM     36  C   UNL A   1      43.063  27.769  32.077  1.00  0.00     0.074 A 
ATOM     37  C   UNL A   1      43.819  26.788  31.322  1.00  0.00     0.031 C 
ATOM     38  C   UNL A   1      43.337  28.116  33.362  1.00  0.00     0.034 A 
BRANCH  25  39
ATOM     39  C   UNL A   1      39.452  32.323  35.827  1.00  0.00     0.023 A 
ATOM     40  C   UNL A   1      40.056  33.565  36.094  1.00  0.00     0.031 A 
ATOM     41  C   UNL A   1      38.514  31.836  36.755  1.00  0.00     0.131 A 
ATOM     42  C   UNL A   1      39.788  34.228  37.303  1.00  0.00     0.055 A 
ATOM     43  C   UNL A   1      38.187  32.543  37.914  1.00  0.00     0.041 A 
ATOM     44  F   UNL A   1      37.929  30.642  36.573  1.00  0.00    -0.206 F 
ATOM     45  C   UNL A   1      38.840  33.736  38.205  1.00  0.00     0.022 A 
BRANCH  42  46
ATOM     46  S   UNL A   1      40.826  35.643  37.770  1.00  0.00     0.124 S 
ATOM     47  O   UNL A   1      39.949  36.769  37.458  1.00  0.00    -0.237 OA
ATOM     48  O   UNL A   1      41.074  35.398  39.186  1.00  0.00    -0.237 OA
ATOM     49  O   UNL A   1      41.994  35.514  36.901  1.00  0.00    -0.744 OA
ENDBRANCH  42  46
ENDBRANCH  25  39
BRANCH  26  50
ATOM     50  C   UNL A   1      41.772  26.880  27.612  1.00  0.00     0.023 A 
ATOM     51  C   UNL A   1      41.465  25.512  27.537  1.00  0.00     0.031 A 
ATOM     52  C   UNL A   1      42.460  27.455  26.525  1.00  0.00     0.131 A 
ATOM     53  C   UNL A   1      41.880  24.758  26.426  1.00  0.00     0.055 A 
ATOM     54  C   UNL A   1      42.819  26.715  25.397  1.00  0.00     0.041 A 
ATOM     55  F   UNL A   1      42.788  28.757  26.539  1.00  0.00    -0.206 F 
ATOM     56  C   UNL A   1      42.542  25.353  25.350  1.00  0.00     0.022 A 
BRANCH  53  57
ATOM     57  S   UNL A   1      41.628  22.961  26.444  1.00  0.00     0.124 S 
ATOM     58  O   UNL A   1      42.352  22.546  25.249  1.00  0.00    -0.237 OA
ATOM     59  O   UNL A   1      42.224  22.583  27.720  1.00  0.00    -0.237 OA
ATOM     60  O   UNL A   1      40.174  22.820  26.372  1.00  0.00    -0.744 OA
ENDBRANCH  53  57
ENDBRANCH  26  50
BRANCH  38  61
ATOM     61  C   UNL A   1      44.473  27.381  34.028  1.00  0.00     0.023 A 
ATOM     62  C   UNL A   1      44.282  26.136  34.651  1.00  0.00     0.031 A 
ATOM     63  C   UNL A   1      45.758  27.948  34.051  1.00  0.00     0.131 A 
ATOM     64  C   UNL A   1      45.347  25.530  35.331  1.00  0.00     0.055 A 
ATOM     65  C   UNL A   1      46.829  27.309  34.674  1.00  0.00     0.041 A 
ATOM     66  F   UNL A   1      45.992  29.136  33.469  1.00  0.00    -0.206 F 
ATOM     67  C   UNL A   1      46.623  26.100  35.332  1.00  0.00     0.022 A 
BRANCH  64  68
ATOM     68  S   UNL A   1      45.016  24.037  36.305  1.00  0.00     0.124 S 
ATOM     69  O   UNL A   1      45.867  24.243  37.474  1.00  0.00    -0.237 OA
ATOM     70  O   UNL A   1      43.579  24.130  36.540  1.00  0.00    -0.237 OA
ATOM     71  O   UNL A   1      45.430  22.951  35.420  1.00  0.00    -0.744 OA
ENDBRANCH  64  68
ENDBRANCH  38  61
ENDBRANCH  12  13
ENDBRANCH   5   7
ENDBRANCH   4   5
ENDBRANCH   3   4
ENDBRANCH   2   3
ENDBRANCH   1   2
BRANCH   1  72
ATOM     72  C   UNL A   1      32.974  30.355  26.146  1.00  0.00     0.202 C 
BRANCH  72  73
ATOM     73  C   UNL A   1      33.233  28.859  26.336  1.00  0.00     0.261 C 
BRANCH  73  74
ATOM     74  O   UNL A   1      32.183  28.137  25.672  1.00  0.00    -0.460 OA
BRANCH  74  75
ATOM     75  C   UNL A   1      31.540  27.243  26.463  1.00  0.00     0.339 C 
ATOM     76  O   UNL A   1      31.015  27.444  27.542  1.00  0.00    -0.246 OA
BRANCH  75  77
ATOM     77  C   UNL A   1      31.383  25.999  25.696  1.00  0.00     0.078 A 
ATOM     78  C   UNL A   1      31.009  24.789  26.277  1.00  0.00     0.019 A 
ATOM     79  C   UNL A   1      31.726  26.012  24.355  1.00  0.00     0.127 A 
ATOM     80  C   UNL A   1      31.011  23.634  25.500  1.00  0.00     0.031 A 
ATOM     81  N   UNL A   1      31.727  24.904  23.579  1.00  0.00    -0.254 NA
ATOM     82  C   UNL A   1      31.380  23.724  24.159  1.00  0.00     0.094 A 
BRANCH  82  83
ATOM     83  C   UNL A   1      31.413  22.469  23.300  1.00  0.00     0.318 C 
BRANCH  83  84
ATOM     84  N   UNL A   1      32.774  21.978  23.085  1.00  0.00    -0.335 N 
ATOM     85  H   UNL A   1      33.328  22.738  22.688  1.00  0.00     0.347 HD
ATOM     86  H   UNL A   1      32.699  21.174  22.463  1.00  0.00     0.347 HD
BRANCH  84  87
ATOM     87  C   UNL A   1      33.444  21.510  24.290  1.00  0.00     0.215 C 
ATOM     88  C   UNL A   1      34.873  22.103  24.383  1.00  0.00     0.071 C 
ATOM     89  C   UNL A   1      33.483  19.996  24.261  1.00  0.00     0.023 A 
ATOM     90  C   UNL A   1      35.745  21.352  25.395  1.00  0.00     0.012 C 
ATOM     91  C   UNL A   1      34.620  19.283  24.600  1.00  0.00     0.014 A 
ATOM     92  C   UNL A   1      32.405  19.101  23.945  1.00  0.00     0.022 A 
ATOM     93  C   UNL A   1      35.934  19.886  24.984  1.00  0.00     0.047 C 
ATOM     94  S   UNL A   1      34.411  17.597  24.494  1.00  0.00    -0.148 S 
ATOM     95  C   UNL A   1      32.783  17.777  24.009  1.00  0.00     0.065 A 
ENDBRANCH  84  87
ENDBRANCH  83  84
ENDBRANCH  82  83
ENDBRANCH  75  77
ENDBRANCH  74  75
ENDBRANCH  73  74
ENDBRANCH  72  73
ENDBRANCH   1  72
TORSDOF 20
ENDMDL
