MODEL 1
REMARK VINA RESULT:     -11.6      0.000      0.000
REMARK SMILES O=C(Cc1ccc(F)c(F)c1)NC1(C(=O)OCCOCCOC(=O)c2ccc(-c3c4nc(c(-c5cc(S(=O)(=O)[O-])ccc5F)c5ccc([nH]5)c(-c5cc(S(=O)(=O)[O-])ccc5F)c5nc(c(-c6cc(S(=O)(=O)[O-])ccc6F)c6ccc3[nH]6)C=C5)C=C4)cc2)CCCC1
REMARK SMILES IDX 19 1 18 2 17 3 16 4 14 5 15 6 13 7 88 8 91 9 89 10 90 11
REMARK SMILES IDX 12 12 1 13 2 14 3 16 4 17 5 18 11 19 6 20 9 21 7 22 10 23
REMARK SMILES IDX 8 24 20 25 21 26 22 27 23 28 24 29 25 30 26 31 87 32 27 33
REMARK SMILES IDX 86 34 28 35 29 36 30 37 80 38 31 39 85 40 79 41 81 42 32 43
REMARK SMILES IDX 84 44 78 45 77 46 33 48 65 49 45 50 64 51 46 52 49 53 63 54
REMARK SMILES IDX 82 55 47 56 48 57 62 59 83 60 50 61 34 62 35 63 43 64 36 65
REMARK SMILES IDX 42 66 44 67 41 68 37 69 38 70 39 71 40 72 66 73 67 74 75 75
REMARK SMILES IDX 68 76 74 77 76 78 73 79 69 80 70 81 71 82 72 83 51 84 52 85
REMARK SMILES IDX 60 86 53 87 59 88 61 89 58 90 54 91 55 92 56 93 57 94
REMARK H PARENT 12 15 81 47 49 58
REMARK Flexibility Score: inf
ROOT
ATOM      1  O   UNL A   1      32.361  30.649  26.303  1.00  0.00    -0.374 OA
ENDROOT
BRANCH   1   2
ATOM      2  C   UNL A   1      32.280  29.465  27.093  1.00  0.00     0.202 C 
BRANCH   2   3
ATOM      3  C   UNL A   1      31.704  28.208  26.436  1.00  0.00     0.261 C 
BRANCH   3   4
ATOM      4  O   UNL A   1      32.487  27.037  26.727  1.00  0.00    -0.461 OA
BRANCH   4   5
ATOM      5  C   UNL A   1      31.960  25.871  26.257  1.00  0.00     0.331 C 
ATOM      6  O   UNL A   1      30.955  25.349  26.726  1.00  0.00    -0.249 OA
BRANCH   5   7
ATOM      7  C   UNL A   1      32.746  25.303  25.034  1.00  0.00     0.138 C 
ATOM      8  C   UNL A   1      32.501  23.801  24.876  1.00  0.00     0.040 C 
ATOM      9  C   UNL A   1      34.285  25.361  25.168  1.00  0.00     0.040 C 
ATOM     10  C   UNL A   1      33.506  23.147  25.821  1.00  0.00     0.003 C 
ATOM     11  C   UNL A   1      34.721  24.063  25.839  1.00  0.00     0.003 C 
BRANCH   7  12
ATOM     12  N   UNL A   1      32.363  26.112  23.856  1.00  0.00    -0.340 N 
ATOM     13  O   UNL A   1      30.289  25.199  23.487  1.00  0.00    -0.275 OA
ATOM     14  C   UNL A   1      31.117  26.078  23.264  1.00  0.00     0.225 C 
ATOM     15  H   UNL A   1      33.040  26.712  23.470  1.00  0.00     0.164 HD
BRANCH  14  16
ATOM     16  C   UNL A   1      30.871  27.155  22.217  1.00  0.00     0.135 C 
BRANCH  16  17
ATOM     17  C   UNL A   1      29.921  28.285  22.583  1.00  0.00    -0.036 A 
ATOM     18  C   UNL A   1      30.256  29.636  22.385  1.00  0.00     0.007 A 
ATOM     19  C   UNL A   1      28.622  27.987  23.032  1.00  0.00     0.046 A 
ATOM     20  C   UNL A   1      29.327  30.655  22.628  1.00  0.00     0.043 A 
ATOM     21  C   UNL A   1      27.695  29.007  23.255  1.00  0.00     0.159 A 
ATOM     22  C   UNL A   1      28.047  30.334  23.055  1.00  0.00     0.158 A 
ATOM     23  F   UNL A   1      26.447  28.694  23.631  1.00  0.00    -0.204 F 
ATOM     24  F   UNL A   1      27.151  31.312  23.243  1.00  0.00    -0.204 F 
ENDBRANCH  16  17
ENDBRANCH  14  16
ENDBRANCH   7  12
ENDBRANCH   5   7
ENDBRANCH   4   5
ENDBRANCH   3   4
ENDBRANCH   2   3
ENDBRANCH   1   2
BRANCH   1  25
ATOM     25  C   UNL A   1      31.351  31.637  26.468  1.00  0.00     0.202 C 
BRANCH  25  26
ATOM     26  C   UNL A   1      31.785  33.084  26.737  1.00  0.00     0.261 C 
BRANCH  26  27
ATOM     27  O   UNL A   1      32.341  33.272  28.047  1.00  0.00    -0.460 OA
BRANCH  27  28
ATOM     28  C   UNL A   1      33.427  34.083  28.074  1.00  0.00     0.338 C 
ATOM     29  O   UNL A   1      33.424  35.310  28.074  1.00  0.00    -0.246 OA
BRANCH  28  30
ATOM     30  C   UNL A   1      34.649  33.298  28.317  1.00  0.00     0.060 A 
ATOM     31  C   UNL A   1      34.486  31.988  28.789  1.00  0.00     0.016 A 
ATOM     32  C   UNL A   1      35.925  33.843  28.159  1.00  0.00     0.016 A 
ATOM     33  C   UNL A   1      35.595  31.239  29.165  1.00  0.00     0.010 A 
ATOM     34  C   UNL A   1      37.039  33.092  28.550  1.00  0.00     0.010 A 
ATOM     35  C   UNL A   1      36.873  31.805  29.096  1.00  0.00    -0.014 A 
BRANCH  35  36
ATOM     36  C   UNL A   1      37.996  31.127  29.788  1.00  0.00     0.031 A 
ATOM     37  C   UNL A   1      38.254  31.464  31.233  1.00  0.00     0.074 A 
ATOM     38  C   UNL A   1      38.730  30.188  29.167  1.00  0.00     0.049 A 
ATOM     39  N   UNL A   1      39.180  31.018  32.041  1.00  0.00    -0.248 NA
ATOM     40  C   UNL A   1      37.340  32.442  31.844  1.00  0.00     0.031 C 
ATOM     41  C   UNL A   1      38.532  29.736  27.791  1.00  0.00     0.029 A 
ATOM     42  N   UNL A   1      39.789  29.442  29.617  1.00  0.00    -0.354 N 
ATOM     43  C   UNL A   1      38.963  31.661  33.256  1.00  0.00     0.074 A 
ATOM     44  C   UNL A   1      37.845  32.560  33.062  1.00  0.00     0.031 C 
ATOM     45  C   UNL A   1      39.447  28.793  27.506  1.00  0.00     0.029 A 
ATOM     46  C   UNL A   1      40.315  28.599  28.666  1.00  0.00     0.049 A 
ATOM     47  H   UNL A   1      40.141  29.504  30.535  1.00  0.00     0.167 HD
ATOM     48  C   UNL A   1      39.627  31.506  34.428  1.00  0.00     0.034 A 
ATOM     49  C   UNL A   1      41.387  27.782  28.723  1.00  0.00     0.034 A 
ATOM     50  C   UNL A   1      40.749  30.614  34.599  1.00  0.00     0.049 A 
ATOM     51  C   UNL A   1      42.169  27.693  30.011  1.00  0.00     0.074 A 
ATOM     52  C   UNL A   1      41.502  30.382  35.736  1.00  0.00     0.029 A 
ATOM     53  N   UNL A   1      41.285  29.812  33.598  1.00  0.00    -0.354 N 
ATOM     54  N   UNL A   1      41.962  28.312  31.152  1.00  0.00    -0.248 NA
ATOM     55  C   UNL A   1      43.324  26.785  30.023  1.00  0.00     0.031 C 
ATOM     56  C   UNL A   1      42.533  29.496  35.406  1.00  0.00     0.029 A 
ATOM     57  C   UNL A   1      42.377  29.109  34.085  1.00  0.00     0.049 A 
ATOM     58  H   UNL A   1      40.941  29.753  32.678  1.00  0.00     0.167 HD
ATOM     59  C   UNL A   1      42.937  27.836  32.026  1.00  0.00     0.074 A 
ATOM     60  C   UNL A   1      43.726  26.876  31.282  1.00  0.00     0.031 C 
ATOM     61  C   UNL A   1      43.157  28.158  33.328  1.00  0.00     0.034 A 
BRANCH  48  62
ATOM     62  C   UNL A   1      39.187  32.366  35.589  1.00  0.00     0.023 A 
ATOM     63  C   UNL A   1      39.613  33.700  35.727  1.00  0.00     0.031 A 
ATOM     64  C   UNL A   1      38.368  31.830  36.599  1.00  0.00     0.131 A 
ATOM     65  C   UNL A   1      39.288  34.422  36.885  1.00  0.00     0.055 A 
ATOM     66  C   UNL A   1      37.977  32.583  37.708  1.00  0.00     0.041 A 
ATOM     67  F   UNL A   1      37.952  30.555  36.536  1.00  0.00    -0.206 F 
ATOM     68  C   UNL A   1      38.451  33.882  37.865  1.00  0.00     0.022 A 
BRANCH  65  69
ATOM     69  S   UNL A   1      40.102  36.018  37.170  1.00  0.00     0.124 S 
ATOM     70  O   UNL A   1      41.379  35.598  37.743  1.00  0.00    -0.237 OA
ATOM     71  O   UNL A   1      40.158  36.587  35.829  1.00  0.00    -0.237 OA
ATOM     72  O   UNL A   1      39.205  36.699  38.101  1.00  0.00    -0.744 OA
ENDBRANCH  65  69
ENDBRANCH  48  62
BRANCH  49  73
ATOM     73  C   UNL A   1      41.810  27.009  27.521  1.00  0.00     0.023 A 
ATOM     74  C   UNL A   1      41.646  25.616  27.457  1.00  0.00     0.031 A 
ATOM     75  C   UNL A   1      42.437  27.650  26.438  1.00  0.00     0.131 A 
ATOM     76  C   UNL A   1      42.143  24.904  26.353  1.00  0.00     0.055 A 
ATOM     77  C   UNL A   1      42.882  26.943  25.318  1.00  0.00     0.041 A 
ATOM     78  F   UNL A   1      42.620  28.979  26.447  1.00  0.00    -0.206 F 
ATOM     79  C   UNL A   1      42.748  25.560  25.278  1.00  0.00     0.022 A 
BRANCH  76  80
ATOM     80  S   UNL A   1      42.061  23.092  26.380  1.00  0.00     0.124 S 
ATOM     81  O   UNL A   1      40.674  22.864  26.769  1.00  0.00    -0.237 OA
ATOM     82  O   UNL A   1      42.406  22.753  25.003  1.00  0.00    -0.237 OA
ATOM     83  O   UNL A   1      43.060  22.721  27.380  1.00  0.00    -0.744 OA
ENDBRANCH  76  80
ENDBRANCH  49  73
BRANCH  61  84
ATOM     84  C   UNL A   1      44.259  27.413  34.043  1.00  0.00     0.023 A 
ATOM     85  C   UNL A   1      44.101  26.085  34.478  1.00  0.00     0.031 A 
ATOM     86  C   UNL A   1      45.485  28.051  34.303  1.00  0.00     0.131 A 
ATOM     87  C   UNL A   1      45.130  25.459  35.199  1.00  0.00     0.055 A 
ATOM     88  C   UNL A   1      46.528  27.403  34.966  1.00  0.00     0.041 A 
ATOM     89  F   UNL A   1      45.692  29.319  33.911  1.00  0.00    -0.206 F 
ATOM     90  C   UNL A   1      46.348  26.104  35.430  1.00  0.00     0.022 A 
BRANCH  87  91
ATOM     91  S   UNL A   1      44.820  23.822  35.917  1.00  0.00     0.124 S 
ATOM     92  O   UNL A   1      45.816  22.999  35.239  1.00  0.00    -0.237 OA
ATOM     93  O   UNL A   1      45.049  24.057  37.339  1.00  0.00    -0.237 OA
ATOM     94  O   UNL A   1      43.432  23.544  35.552  1.00  0.00    -0.744 OA
ENDBRANCH  87  91
ENDBRANCH  61  84
ENDBRANCH  35  36
ENDBRANCH  28  30
ENDBRANCH  27  28
ENDBRANCH  26  27
ENDBRANCH  25  26
ENDBRANCH   1  25
TORSDOF 20
ENDMDL
MODEL 2
REMARK VINA RESULT:     -11.5      1.287      1.547
REMARK SMILES O=C(Cc1ccc(F)c(F)c1)NC1(C(=O)OCCOCCOC(=O)c2ccc(-c3c4nc(c(-c5cc(S(=O)(=O)[O-])ccc5F)c5ccc([nH]5)c(-c5cc(S(=O)(=O)[O-])ccc5F)c5nc(c(-c6cc(S(=O)(=O)[O-])ccc6F)c6ccc3[nH]6)C=C5)C=C4)cc2)CCCC1
REMARK SMILES IDX 19 1 18 2 17 3 16 4 14 5 15 6 13 7 88 8 91 9 89 10 90 11
REMARK SMILES IDX 12 12 1 13 2 14 3 16 4 17 5 18 11 19 6 20 9 21 7 22 10 23
REMARK SMILES IDX 8 24 20 25 21 26 22 27 23 28 24 29 25 30 26 31 87 32 27 33
REMARK SMILES IDX 86 34 28 35 29 36 30 37 80 38 31 39 85 40 79 41 81 42 32 43
REMARK SMILES IDX 84 44 78 45 77 46 33 48 65 49 45 50 64 51 46 52 49 53 63 54
REMARK SMILES IDX 82 55 47 56 48 57 62 59 83 60 50 61 34 62 35 63 43 64 36 65
REMARK SMILES IDX 42 66 44 67 41 68 37 69 38 70 39 71 40 72 66 73 67 74 75 75
REMARK SMILES IDX 68 76 74 77 76 78 73 79 69 80 70 81 71 82 72 83 51 84 52 85
REMARK SMILES IDX 60 86 53 87 59 88 61 89 58 90 54 91 55 92 56 93 57 94
REMARK H PARENT 12 15 81 47 49 58
REMARK Flexibility Score: inf
ROOT
ATOM      1  O   UNL A   1      32.391  30.605  26.287  1.00  0.00    -0.374 OA
ENDROOT
BRANCH   1   2
ATOM      2  C   UNL A   1      32.298  29.435  27.096  1.00  0.00     0.202 C 
BRANCH   2   3
ATOM      3  C   UNL A   1      31.750  28.162  26.448  1.00  0.00     0.261 C 
BRANCH   3   4
ATOM      4  O   UNL A   1      32.579  27.017  26.714  1.00  0.00    -0.461 OA
BRANCH   4   5
ATOM      5  C   UNL A   1      32.069  25.832  26.273  1.00  0.00     0.331 C 
ATOM      6  O   UNL A   1      31.087  25.294  26.772  1.00  0.00    -0.249 OA
BRANCH   5   7
ATOM      7  C   UNL A   1      32.840  25.265  25.040  1.00  0.00     0.138 C 
ATOM      8  C   UNL A   1      32.605  23.760  24.894  1.00  0.00     0.040 C 
ATOM      9  C   UNL A   1      34.380  25.336  25.150  1.00  0.00     0.040 C 
ATOM     10  C   UNL A   1      33.630  23.119  25.825  1.00  0.00     0.003 C 
ATOM     11  C   UNL A   1      34.838  24.045  25.820  1.00  0.00     0.003 C 
BRANCH   7  12
ATOM     12  N   UNL A   1      32.431  26.065  23.865  1.00  0.00    -0.340 N 
ATOM     13  O   UNL A   1      30.375  25.108  23.510  1.00  0.00    -0.275 OA
ATOM     14  C   UNL A   1      31.182  26.004  23.282  1.00  0.00     0.225 C 
ATOM     15  H   UNL A   1      33.093  26.679  23.474  1.00  0.00     0.164 HD
BRANCH  14  16
ATOM     16  C   UNL A   1      30.906  27.075  22.237  1.00  0.00     0.135 C 
BRANCH  16  17
ATOM     17  C   UNL A   1      29.944  28.191  22.613  1.00  0.00    -0.036 A 
ATOM     18  C   UNL A   1      30.263  29.547  22.423  1.00  0.00     0.007 A 
ATOM     19  C   UNL A   1      28.649  27.875  23.063  1.00  0.00     0.046 A 
ATOM     20  C   UNL A   1      29.323  30.553  22.676  1.00  0.00     0.043 A 
ATOM     21  C   UNL A   1      27.711  28.882  23.296  1.00  0.00     0.159 A 
ATOM     22  C   UNL A   1      28.048  30.215  23.105  1.00  0.00     0.158 A 
ATOM     23  F   UNL A   1      26.468  28.552  23.673  1.00  0.00    -0.204 F 
ATOM     24  F   UNL A   1      27.140  31.181  23.301  1.00  0.00    -0.204 F 
ENDBRANCH  16  17
ENDBRANCH  14  16
ENDBRANCH   7  12
ENDBRANCH   5   7
ENDBRANCH   4   5
ENDBRANCH   3   4
ENDBRANCH   2   3
ENDBRANCH   1   2
BRANCH   1  25
ATOM     25  C   UNL A   1      31.373  31.591  26.413  1.00  0.00     0.202 C 
BRANCH  25  26
ATOM     26  C   UNL A   1      31.793  33.039  26.702  1.00  0.00     0.261 C 
BRANCH  26  27
ATOM     27  O   UNL A   1      32.288  33.226  28.036  1.00  0.00    -0.460 OA
BRANCH  27  28
ATOM     28  C   UNL A   1      33.368  34.043  28.114  1.00  0.00     0.338 C 
ATOM     29  O   UNL A   1      33.355  35.269  28.163  1.00  0.00    -0.246 OA
BRANCH  28  30
ATOM     30  C   UNL A   1      34.591  33.257  28.347  1.00  0.00     0.060 A 
ATOM     31  C   UNL A   1      34.431  31.953  28.834  1.00  0.00     0.016 A 
ATOM     32  C   UNL A   1      35.865  33.797  28.165  1.00  0.00     0.016 A 
ATOM     33  C   UNL A   1      35.544  31.204  29.202  1.00  0.00     0.010 A 
ATOM     34  C   UNL A   1      36.984  33.048  28.548  1.00  0.00     0.010 A 
ATOM     35  C   UNL A   1      36.822  31.767  29.109  1.00  0.00    -0.014 A 
BRANCH  35  36
ATOM     36  C   UNL A   1      37.954  31.092  29.791  1.00  0.00     0.031 A 
ATOM     37  C   UNL A   1      38.233  31.443  31.229  1.00  0.00     0.074 A 
ATOM     38  C   UNL A   1      38.676  30.145  29.168  1.00  0.00     0.049 A 
ATOM     39  N   UNL A   1      39.170  31.003  32.027  1.00  0.00    -0.248 NA
ATOM     40  C   UNL A   1      37.331  32.429  31.844  1.00  0.00     0.031 C 
ATOM     41  C   UNL A   1      38.457  29.681  27.800  1.00  0.00     0.029 A 
ATOM     42  N   UNL A   1      39.740  29.402  29.610  1.00  0.00    -0.354 N 
ATOM     43  C   UNL A   1      38.973  31.658  33.239  1.00  0.00     0.074 A 
ATOM     44  C   UNL A   1      37.854  32.558  33.052  1.00  0.00     0.031 C 
ATOM     45  C   UNL A   1      39.365  28.732  27.512  1.00  0.00     0.029 A 
ATOM     46  C   UNL A   1      40.249  28.548  28.661  1.00  0.00     0.049 A 
ATOM     47  H   UNL A   1      40.105  29.471  30.523  1.00  0.00     0.167 HD
ATOM     48  C   UNL A   1      39.653  31.513  34.403  1.00  0.00     0.034 A 
ATOM     49  C   UNL A   1      41.320  27.729  28.710  1.00  0.00     0.034 A 
ATOM     50  C   UNL A   1      40.775  30.620  34.567  1.00  0.00     0.049 A 
ATOM     51  C   UNL A   1      42.121  27.650  29.988  1.00  0.00     0.074 A 
ATOM     52  C   UNL A   1      41.544  30.397  35.695  1.00  0.00     0.029 A 
ATOM     53  N   UNL A   1      41.295  29.807  33.566  1.00  0.00    -0.354 N 
ATOM     54  N   UNL A   1      41.932  28.280  31.125  1.00  0.00    -0.248 NA
ATOM     55  C   UNL A   1      43.273  26.739  29.991  1.00  0.00     0.031 C 
ATOM     56  C   UNL A   1      42.568  29.505  35.358  1.00  0.00     0.029 A 
ATOM     57  C   UNL A   1      42.391  29.105  34.043  1.00  0.00     0.049 A 
ATOM     58  H   UNL A   1      40.936  29.740  32.651  1.00  0.00     0.167 HD
ATOM     59  C   UNL A   1      42.919  27.811  31.989  1.00  0.00     0.074 A 
ATOM     60  C   UNL A   1      43.694  26.842  31.243  1.00  0.00     0.031 C 
ATOM     61  C   UNL A   1      43.158  28.145  33.285  1.00  0.00     0.034 A 
BRANCH  48  62
ATOM     62  C   UNL A   1      39.231  32.385  35.561  1.00  0.00     0.023 A 
ATOM     63  C   UNL A   1      39.631  33.731  35.660  1.00  0.00     0.031 A 
ATOM     64  C   UNL A   1      38.460  31.851  36.608  1.00  0.00     0.131 A 
ATOM     65  C   UNL A   1      39.328  34.469  36.814  1.00  0.00     0.055 A 
ATOM     66  C   UNL A   1      38.089  32.617  37.715  1.00  0.00     0.041 A 
ATOM     67  F   UNL A   1      38.072  30.567  36.584  1.00  0.00    -0.206 F 
ATOM     68  C   UNL A   1      38.537  33.929  37.832  1.00  0.00     0.022 A 
BRANCH  65  69
ATOM     69  S   UNL A   1      40.113  36.088  37.041  1.00  0.00     0.124 S 
ATOM     70  O   UNL A   1      41.492  35.706  37.339  1.00  0.00    -0.237 OA
ATOM     71  O   UNL A   1      39.892  36.729  35.751  1.00  0.00    -0.237 OA
ATOM     72  O   UNL A   1      39.381  36.671  38.163  1.00  0.00    -0.744 OA
ENDBRANCH  65  69
ENDBRANCH  48  62
BRANCH  49  73
ATOM     73  C   UNL A   1      41.724  26.942  27.510  1.00  0.00     0.023 A 
ATOM     74  C   UNL A   1      41.527  25.554  27.449  1.00  0.00     0.031 A 
ATOM     75  C   UNL A   1      42.365  27.565  26.424  1.00  0.00     0.131 A 
ATOM     76  C   UNL A   1      42.006  24.827  26.347  1.00  0.00     0.055 A 
ATOM     77  C   UNL A   1      42.793  26.845  25.306  1.00  0.00     0.041 A 
ATOM     78  F   UNL A   1      42.579  28.890  26.430  1.00  0.00    -0.206 F 
ATOM     79  C   UNL A   1      42.625  25.466  25.270  1.00  0.00     0.022 A 
BRANCH  76  80
ATOM     80  S   UNL A   1      41.881  23.018  26.379  1.00  0.00     0.124 S 
ATOM     81  O   UNL A   1      42.582  22.651  25.153  1.00  0.00    -0.237 OA
ATOM     82  O   UNL A   1      42.559  22.689  27.629  1.00  0.00    -0.237 OA
ATOM     83  O   UNL A   1      40.440  22.776  26.371  1.00  0.00    -0.744 OA
ENDBRANCH  76  80
ENDBRANCH  49  73
BRANCH  61  84
ATOM     84  C   UNL A   1      44.269  27.404  33.992  1.00  0.00     0.023 A 
ATOM     85  C   UNL A   1      45.595  27.871  33.989  1.00  0.00     0.031 A 
ATOM     86  C   UNL A   1      43.992  26.204  34.670  1.00  0.00     0.131 A 
ATOM     87  C   UNL A   1      46.604  27.112  34.602  1.00  0.00     0.055 A 
ATOM     88  C   UNL A   1      44.989  25.484  35.331  1.00  0.00     0.041 A 
ATOM     89  F   UNL A   1      42.744  25.711  34.705  1.00  0.00    -0.206 F 
ATOM     90  C   UNL A   1      46.306  25.931  35.288  1.00  0.00     0.022 A 
BRANCH  87  91
ATOM     91  S   UNL A   1      48.330  27.637  34.409  1.00  0.00     0.124 S 
ATOM     92  O   UNL A   1      48.702  27.967  35.781  1.00  0.00    -0.237 OA
ATOM     93  O   UNL A   1      48.957  26.445  33.848  1.00  0.00    -0.237 OA
ATOM     94  O   UNL A   1      48.242  28.777  33.498  1.00  0.00    -0.744 OA
ENDBRANCH  87  91
ENDBRANCH  61  84
ENDBRANCH  35  36
ENDBRANCH  28  30
ENDBRANCH  27  28
ENDBRANCH  26  27
ENDBRANCH  25  26
ENDBRANCH   1  25
TORSDOF 20
ENDMDL
MODEL 3
REMARK VINA RESULT:     -11.4      2.098      7.764
REMARK SMILES O=C(Cc1ccc(F)c(F)c1)NC1(C(=O)OCCOCCOC(=O)c2ccc(-c3c4nc(c(-c5cc(S(=O)(=O)[O-])ccc5F)c5ccc([nH]5)c(-c5cc(S(=O)(=O)[O-])ccc5F)c5nc(c(-c6cc(S(=O)(=O)[O-])ccc6F)c6ccc3[nH]6)C=C5)C=C4)cc2)CCCC1
REMARK SMILES IDX 19 1 18 2 17 3 16 4 14 5 15 6 13 7 88 8 91 9 89 10 90 11
REMARK SMILES IDX 12 12 1 13 2 14 3 16 4 17 5 18 11 19 6 20 9 21 7 22 10 23
REMARK SMILES IDX 8 24 20 25 21 26 22 27 23 28 24 29 25 30 26 31 87 32 27 33
REMARK SMILES IDX 86 34 28 35 29 36 30 37 80 38 31 39 85 40 79 41 81 42 32 43
REMARK SMILES IDX 84 44 78 45 77 46 33 48 65 49 45 50 64 51 46 52 49 53 63 54
REMARK SMILES IDX 82 55 47 56 48 57 62 59 83 60 50 61 34 62 35 63 43 64 36 65
REMARK SMILES IDX 42 66 44 67 41 68 37 69 38 70 39 71 40 72 66 73 67 74 75 75
REMARK SMILES IDX 68 76 74 77 76 78 73 79 69 80 70 81 71 82 72 83 51 84 52 85
REMARK SMILES IDX 60 86 53 87 59 88 61 89 58 90 54 91 55 92 56 93 57 94
REMARK H PARENT 12 15 81 47 49 58
REMARK Flexibility Score: inf
ROOT
ATOM      1  O   UNL A   1      32.460  30.215  25.609  1.00  0.00    -0.374 OA
ENDROOT
BRANCH   1   2
ATOM      2  C   UNL A   1      33.653  29.530  25.982  1.00  0.00     0.202 C 
BRANCH   2   3
ATOM      3  C   UNL A   1      33.552  28.476  27.087  1.00  0.00     0.261 C 
BRANCH   3   4
ATOM      4  O   UNL A   1      33.254  27.169  26.565  1.00  0.00    -0.461 OA
BRANCH   4   5
ATOM      5  C   UNL A   1      31.948  26.798  26.675  1.00  0.00     0.331 C 
ATOM      6  O   UNL A   1      31.178  27.279  27.499  1.00  0.00    -0.249 OA
BRANCH   5   7
ATOM      7  C   UNL A   1      31.530  25.734  25.612  1.00  0.00     0.138 C 
ATOM      8  C   UNL A   1      30.744  24.593  26.261  1.00  0.00     0.040 C 
ATOM      9  C   UNL A   1      32.708  24.975  24.958  1.00  0.00     0.040 C 
ATOM     10  C   UNL A   1      31.814  23.641  26.789  1.00  0.00     0.003 C 
ATOM     11  C   UNL A   1      32.987  23.754  25.827  1.00  0.00     0.003 C 
BRANCH   7  12
ATOM     12  N   UNL A   1      30.800  26.449  24.543  1.00  0.00    -0.340 N 
ATOM     13  O   UNL A   1      32.607  27.362  23.460  1.00  0.00    -0.275 OA
ATOM     14  C   UNL A   1      31.409  27.094  23.486  1.00  0.00     0.225 C 
ATOM     15  H   UNL A   1      29.817  26.464  24.588  1.00  0.00     0.164 HD
BRANCH  14  16
ATOM     16  C   UNL A   1      30.466  27.560  22.386  1.00  0.00     0.135 C 
BRANCH  16  17
ATOM     17  C   UNL A   1      29.486  28.671  22.726  1.00  0.00    -0.036 A 
ATOM     18  C   UNL A   1      28.098  28.451  22.778  1.00  0.00     0.007 A 
ATOM     19  C   UNL A   1      29.968  29.935  23.111  1.00  0.00     0.046 A 
ATOM     20  C   UNL A   1      27.221  29.459  23.198  1.00  0.00     0.043 A 
ATOM     21  C   UNL A   1      29.090  30.929  23.546  1.00  0.00     0.159 A 
ATOM     22  C   UNL A   1      27.723  30.692  23.587  1.00  0.00     0.158 A 
ATOM     23  F   UNL A   1      29.579  32.107  23.958  1.00  0.00    -0.204 F 
ATOM     24  F   UNL A   1      26.882  31.637  24.030  1.00  0.00    -0.204 F 
ENDBRANCH  16  17
ENDBRANCH  14  16
ENDBRANCH   7  12
ENDBRANCH   5   7
ENDBRANCH   4   5
ENDBRANCH   3   4
ENDBRANCH   2   3
ENDBRANCH   1   2
BRANCH   1  25
ATOM     25  C   UNL A   1      31.620  30.714  26.644  1.00  0.00     0.202 C 
BRANCH  25  26
ATOM     26  C   UNL A   1      31.550  32.233  26.857  1.00  0.00     0.261 C 
BRANCH  26  27
ATOM     27  O   UNL A   1      32.804  32.892  26.627  1.00  0.00    -0.460 OA
BRANCH  27  28
ATOM     28  C   UNL A   1      33.331  33.475  27.733  1.00  0.00     0.338 C 
ATOM     29  O   UNL A   1      32.792  34.318  28.443  1.00  0.00    -0.246 OA
BRANCH  28  30
ATOM     30  C   UNL A   1      34.588  32.809  28.116  1.00  0.00     0.060 A 
ATOM     31  C   UNL A   1      34.491  31.521  28.658  1.00  0.00     0.016 A 
ATOM     32  C   UNL A   1      35.825  33.448  28.017  1.00  0.00     0.016 A 
ATOM     33  C   UNL A   1      35.623  30.890  29.163  1.00  0.00     0.010 A 
ATOM     34  C   UNL A   1      36.961  32.817  28.537  1.00  0.00     0.010 A 
ATOM     35  C   UNL A   1      36.854  31.555  29.151  1.00  0.00    -0.014 A 
BRANCH  35  36
ATOM     36  C   UNL A   1      37.969  31.014  29.967  1.00  0.00     0.031 A 
ATOM     37  C   UNL A   1      38.915  30.034  29.325  1.00  0.00     0.074 A 
ATOM     38  C   UNL A   1      38.173  31.431  31.229  1.00  0.00     0.049 A 
ATOM     39  N   UNL A   1      39.947  29.415  29.836  1.00  0.00    -0.248 NA
ATOM     40  C   UNL A   1      38.653  29.708  27.914  1.00  0.00     0.031 C 
ATOM     41  C   UNL A   1      37.359  32.421  31.932  1.00  0.00     0.029 A 
ATOM     42  N   UNL A   1      39.133  31.074  32.141  1.00  0.00    -0.354 N 
ATOM     43  C   UNL A   1      40.459  28.625  28.810  1.00  0.00     0.074 A 
ATOM     44  C   UNL A   1      39.594  28.812  27.665  1.00  0.00     0.031 C 
ATOM     45  C   UNL A   1      37.853  32.589  33.171  1.00  0.00     0.029 A 
ATOM     46  C   UNL A   1      38.993  31.694  33.360  1.00  0.00     0.049 A 
ATOM     47  H   UNL A   1      39.855  30.435  31.942  1.00  0.00     0.167 HD
ATOM     48  C   UNL A   1      41.556  27.829  28.820  1.00  0.00     0.034 A 
ATOM     49  C   UNL A   1      39.695  31.539  34.501  1.00  0.00     0.034 A 
ATOM     50  C   UNL A   1      42.399  27.645  29.977  1.00  0.00     0.049 A 
ATOM     51  C   UNL A   1      40.859  30.577  34.519  1.00  0.00     0.074 A 
ATOM     52  C   UNL A   1      43.530  26.858  30.105  1.00  0.00     0.029 A 
ATOM     53  N   UNL A   1      42.197  28.251  31.211  1.00  0.00    -0.354 N 
ATOM     54  N   UNL A   1      41.329  29.828  33.547  1.00  0.00    -0.248 NA
ATOM     55  C   UNL A   1      41.593  30.449  35.784  1.00  0.00     0.031 C 
ATOM     56  C   UNL A   1      43.969  26.933  31.431  1.00  0.00     0.029 A 
ATOM     57  C   UNL A   1      43.164  27.832  32.112  1.00  0.00     0.049 A 
ATOM     58  H   UNL A   1      41.472  28.885  31.416  1.00  0.00     0.167 HD
ATOM     59  C   UNL A   1      42.438  29.170  34.076  1.00  0.00     0.074 A 
ATOM     60  C   UNL A   1      42.568  29.618  35.447  1.00  0.00     0.031 C 
ATOM     61  C   UNL A   1      43.277  28.283  33.480  1.00  0.00     0.034 A 
BRANCH  48  62
ATOM     62  C   UNL A   1      41.859  27.058  27.558  1.00  0.00     0.023 A 
ATOM     63  C   UNL A   1      41.621  25.674  27.457  1.00  0.00     0.031 A 
ATOM     64  C   UNL A   1      42.442  27.706  26.454  1.00  0.00     0.131 A 
ATOM     65  C   UNL A   1      42.037  24.973  26.316  1.00  0.00     0.055 A 
ATOM     66  C   UNL A   1      42.776  27.016  25.286  1.00  0.00     0.041 A 
ATOM     67  F   UNL A   1      42.719  29.018  26.500  1.00  0.00    -0.206 F 
ATOM     68  C   UNL A   1      42.590  25.638  25.219  1.00  0.00     0.022 A 
BRANCH  65  69
ATOM     69  S   UNL A   1      41.994  23.160  26.347  1.00  0.00     0.124 S 
ATOM     70  O   UNL A   1      42.851  22.866  27.494  1.00  0.00    -0.237 OA
ATOM     71  O   UNL A   1      40.574  22.881  26.522  1.00  0.00    -0.237 OA
ATOM     72  O   UNL A   1      42.551  22.781  25.051  1.00  0.00    -0.744 OA
ENDBRANCH  65  69
ENDBRANCH  48  62
BRANCH  49  73
ATOM     73  C   UNL A   1      39.304  32.281  35.734  1.00  0.00     0.023 A 
ATOM     74  C   UNL A   1      38.561  31.662  36.751  1.00  0.00     0.031 A 
ATOM     75  C   UNL A   1      39.624  33.642  35.886  1.00  0.00     0.131 A 
ATOM     76  C   UNL A   1      38.124  32.414  37.854  1.00  0.00     0.055 A 
ATOM     77  C   UNL A   1      39.233  34.372  37.011  1.00  0.00     0.041 A 
ATOM     78  F   UNL A   1      40.333  34.283  34.944  1.00  0.00    -0.206 F 
ATOM     79  C   UNL A   1      38.467  33.761  37.996  1.00  0.00     0.022 A 
BRANCH  76  80
ATOM     80  S   UNL A   1      37.028  31.624  39.065  1.00  0.00     0.124 S 
ATOM     81  O   UNL A   1      36.791  30.325  38.446  1.00  0.00    -0.237 OA
ATOM     82  O   UNL A   1      37.856  31.622  40.266  1.00  0.00    -0.237 OA
ATOM     83  O   UNL A   1      35.871  32.516  39.109  1.00  0.00    -0.744 OA
ENDBRANCH  76  80
ENDBRANCH  49  73
BRANCH  61  84
ATOM     84  C   UNL A   1      44.448  27.790  34.297  1.00  0.00     0.023 A 
ATOM     85  C   UNL A   1      45.700  28.430  34.267  1.00  0.00     0.031 A 
ATOM     86  C   UNL A   1      44.308  26.652  35.110  1.00  0.00     0.131 A 
ATOM     87  C   UNL A   1      46.776  27.893  34.990  1.00  0.00     0.055 A 
ATOM     88  C   UNL A   1      45.364  26.158  35.876  1.00  0.00     0.041 A 
ATOM     89  F   UNL A   1      43.135  26.000  35.177  1.00  0.00    -0.206 F 
ATOM     90  C   UNL A   1      46.612  26.771  35.808  1.00  0.00     0.022 A 
BRANCH  87  91
ATOM     91  S   UNL A   1      48.423  28.622  34.773  1.00  0.00     0.124 S 
ATOM     92  O   UNL A   1      48.281  29.322  33.501  1.00  0.00    -0.237 OA
ATOM     93  O   UNL A   1      48.548  29.468  35.956  1.00  0.00    -0.237 OA
ATOM     94  O   UNL A   1      49.312  27.462  34.746  1.00  0.00    -0.744 OA
ENDBRANCH  87  91
ENDBRANCH  61  84
ENDBRANCH  35  36
ENDBRANCH  28  30
ENDBRANCH  27  28
ENDBRANCH  26  27
ENDBRANCH  25  26
ENDBRANCH   1  25
TORSDOF 20
ENDMDL
