MODEL 1
REMARK VINA RESULT:     -12.7      0.000      0.000
REMARK SMILES CC(=O)Nc1ccc(/C=C2/CCc3oc(C(=O)OCCOCCOC(=O)c4ccc(-c5c6nc(c(-c7cc(S(=O)(=O)[O-])ccc7F)c7ccc([nH]7)c(-c7cc(S(=O)(=O)[O-])ccc7F)c7nc(c(-c8cc(S(=O)(=O)[O-])ccc8F)c8ccc5[nH]8)C=C7)C=C6)cc4)c(C)c3C2=O)cc1
REMARK SMILES IDX 22 1 21 2 20 3 19 4 18 5 16 6 17 7 15 8 9 9 10 10 11 11
REMARK SMILES IDX 93 12 12 13 92 14 94 15 13 16 90 17 14 18 91 19 8 20 5 21
REMARK SMILES IDX 6 22 96 23 7 24 95 25 4 26 1 27 2 28 3 29 23 31 24 32 25 33
REMARK SMILES IDX 26 34 27 35 28 36 89 37 29 38 88 39 30 40 31 41 32 42 82 43
REMARK SMILES IDX 33 44 87 45 81 46 83 47 34 48 86 49 80 50 79 51 35 53 67 54
REMARK SMILES IDX 47 55 66 56 48 57 51 58 65 59 84 60 49 61 50 62 64 64 85 65
REMARK SMILES IDX 52 66 36 67 37 68 45 69 38 70 44 71 46 72 43 73 39 74 40 75
REMARK SMILES IDX 41 76 42 77 68 78 69 79 77 80 70 81 76 82 78 83 75 84 71 85
REMARK SMILES IDX 72 86 73 87 74 88 53 89 54 90 62 91 55 92 61 93 63 94 60 95
REMARK SMILES IDX 56 96 57 97 58 98 59 99
REMARK H PARENT 4 30 83 52 51 63
REMARK Flexibility Score: inf
ROOT
ATOM      1  C   UNL A   1      39.350  21.190  26.112  1.00  0.00     0.202 C 
ENDROOT
BRANCH   1   2
ATOM      2  O   UNL A   1      38.926  19.958  25.543  1.00  0.00    -0.374 OA
BRANCH   2   3
ATOM      3  C   UNL A   1      37.830  19.957  24.628  1.00  0.00     0.202 C 
BRANCH   3   4
ATOM      4  C   UNL A   1      36.575  20.739  25.028  1.00  0.00     0.261 C 
BRANCH   4   5
ATOM      5  O   UNL A   1      36.723  22.157  24.865  1.00  0.00    -0.457 OA
BRANCH   5   6
ATOM      6  C   UNL A   1      35.994  22.698  23.844  1.00  0.00     0.374 C 
ATOM      7  O   UNL A   1      36.405  22.891  22.712  1.00  0.00    -0.242 OA
BRANCH   6   8
ATOM      8  C   UNL A   1      34.616  22.872  24.259  1.00  0.00     0.215 A 
ATOM      9  C   UNL A   1      30.111  25.679  25.689  1.00  0.00     0.016 C 
ATOM     10  C   UNL A   1      30.579  24.419  25.570  1.00  0.00     0.001 C 
ATOM     11  C   UNL A   1      30.797  23.500  26.768  1.00  0.00     0.048 C 
ATOM     12  C   UNL A   1      31.067  23.807  24.289  1.00  0.00     0.192 C 
ATOM     13  C   UNL A   1      32.298  23.181  26.990  1.00  0.00     0.081 C 
ATOM     14  C   UNL A   1      32.438  23.369  24.435  1.00  0.00     0.067 A 
ATOM     15  O   UNL A   1      30.399  23.699  23.273  1.00  0.00    -0.289 OA
ATOM     16  C   UNL A   1      32.970  23.088  25.671  1.00  0.00     0.116 A 
ATOM     17  C   UNL A   1      33.489  23.178  23.499  1.00  0.00     0.014 A 
ATOM     18  O   UNL A   1      34.282  22.770  25.587  1.00  0.00    -0.453 OA
ATOM     19  C   UNL A   1      33.400  23.329  22.023  1.00  0.00     0.049 C 
BRANCH   9  20
ATOM     20  C   UNL A   1      29.989  26.796  24.719  1.00  0.00    -0.025 A 
ATOM     21  C   UNL A   1      29.529  28.944  22.909  1.00  0.00     0.041 A 
ATOM     22  C   UNL A   1      30.698  28.880  23.657  1.00  0.00     0.027 A 
ATOM     23  C   UNL A   1      28.604  27.911  23.027  1.00  0.00     0.027 A 
ATOM     24  C   UNL A   1      30.903  27.846  24.576  1.00  0.00     0.010 A 
ATOM     25  C   UNL A   1      28.839  26.846  23.913  1.00  0.00     0.010 A 
BRANCH  21  26
ATOM     26  N   UNL A   1      29.384  30.038  22.045  1.00  0.00    -0.326 N 
ATOM     27  C   UNL A   1      27.713  31.345  23.332  1.00  0.00     0.114 C 
ATOM     28  C   UNL A   1      28.516  31.091  22.085  1.00  0.00     0.221 C 
ATOM     29  O   UNL A   1      28.469  31.871  21.133  1.00  0.00    -0.275 OA
ATOM     30  H   UNL A   1      30.010  30.048  21.285  1.00  0.00     0.169 HD
ENDBRANCH  21  26
ENDBRANCH   9  20
ENDBRANCH   6   8
ENDBRANCH   5   6
ENDBRANCH   4   5
ENDBRANCH   3   4
ENDBRANCH   2   3
ENDBRANCH   1   2
BRANCH   1  31
ATOM     31  C   UNL A   1      40.441  21.183  27.173  1.00  0.00     0.261 C 
BRANCH  31  32
ATOM     32  O   UNL A   1      40.844  22.482  27.580  1.00  0.00    -0.460 OA
BRANCH  32  33
ATOM     33  C   UNL A   1      41.752  23.045  26.745  1.00  0.00     0.338 C 
ATOM     34  O   UNL A   1      42.475  22.463  25.956  1.00  0.00    -0.246 OA
BRANCH  33  35
ATOM     35  C   UNL A   1      41.857  24.474  27.059  1.00  0.00     0.060 A 
ATOM     36  C   UNL A   1      42.799  24.852  28.019  1.00  0.00     0.016 A 
ATOM     37  C   UNL A   1      40.877  25.364  26.597  1.00  0.00     0.016 A 
ATOM     38  C   UNL A   1      42.653  26.079  28.636  1.00  0.00     0.010 A 
ATOM     39  C   UNL A   1      40.719  26.575  27.232  1.00  0.00     0.010 A 
ATOM     40  C   UNL A   1      41.566  26.893  28.291  1.00  0.00    -0.014 A 
BRANCH  40  41
ATOM     41  C   UNL A   1      41.455  28.207  28.899  1.00  0.00     0.031 A 
ATOM     42  C   UNL A   1      42.476  29.129  28.346  1.00  0.00     0.074 A 
ATOM     43  C   UNL A   1      40.466  28.562  29.746  1.00  0.00     0.049 A 
ATOM     44  N   UNL A   1      43.549  29.538  28.935  1.00  0.00    -0.248 NA
ATOM     45  C   UNL A   1      42.452  29.416  26.898  1.00  0.00     0.031 C 
ATOM     46  C   UNL A   1      39.303  27.773  30.153  1.00  0.00     0.029 A 
ATOM     47  N   UNL A   1      40.247  29.753  30.373  1.00  0.00    -0.354 N 
ATOM     48  C   UNL A   1      44.161  30.388  28.023  1.00  0.00     0.074 A 
ATOM     49  C   UNL A   1      43.617  30.044  26.741  1.00  0.00     0.031 C 
ATOM     50  C   UNL A   1      38.401  28.579  30.765  1.00  0.00     0.029 A 
ATOM     51  C   UNL A   1      38.963  29.916  30.903  1.00  0.00     0.049 A 
ATOM     52  H   UNL A   1      40.942  30.448  30.448  1.00  0.00     0.167 HD
ATOM     53  C   UNL A   1      44.784  31.518  28.457  1.00  0.00     0.034 A 
ATOM     54  C   UNL A   1      38.397  31.070  31.370  1.00  0.00     0.034 A 
ATOM     55  C   UNL A   1      45.080  31.417  29.873  1.00  0.00     0.049 A 
ATOM     56  C   UNL A   1      39.518  31.990  31.693  1.00  0.00     0.074 A 
ATOM     57  C   UNL A   1      45.780  30.514  30.652  1.00  0.00     0.029 A 
ATOM     58  N   UNL A   1      44.276  32.115  30.750  1.00  0.00    -0.354 N 
ATOM     59  N   UNL A   1      40.360  31.768  32.664  1.00  0.00    -0.248 NA
ATOM     60  C   UNL A   1      40.016  32.849  30.627  1.00  0.00     0.031 C 
ATOM     61  C   UNL A   1      45.009  30.377  31.844  1.00  0.00     0.029 A 
ATOM     62  C   UNL A   1      43.947  31.281  31.790  1.00  0.00     0.049 A 
ATOM     63  H   UNL A   1      43.987  33.050  30.647  1.00  0.00     0.167 HD
ATOM     64  C   UNL A   1      41.606  32.053  32.126  1.00  0.00     0.074 A 
ATOM     65  C   UNL A   1      41.325  32.794  30.894  1.00  0.00     0.031 C 
ATOM     66  C   UNL A   1      42.726  31.405  32.566  1.00  0.00     0.034 A 
BRANCH  53  67
ATOM     67  C   UNL A   1      44.701  32.854  27.743  1.00  0.00     0.023 A 
ATOM     68  C   UNL A   1      44.015  33.880  28.417  1.00  0.00     0.031 A 
ATOM     69  C   UNL A   1      44.960  33.096  26.372  1.00  0.00     0.131 A 
ATOM     70  C   UNL A   1      43.497  34.983  27.720  1.00  0.00     0.055 A 
ATOM     71  C   UNL A   1      44.500  34.229  25.698  1.00  0.00     0.041 A 
ATOM     72  F   UNL A   1      45.599  32.231  25.578  1.00  0.00    -0.206 F 
ATOM     73  C   UNL A   1      43.729  35.163  26.361  1.00  0.00     0.022 A 
BRANCH  70  74
ATOM     74  S   UNL A   1      42.351  36.075  28.594  1.00  0.00     0.124 S 
ATOM     75  O   UNL A   1      42.761  35.868  29.979  1.00  0.00    -0.237 OA
ATOM     76  O   UNL A   1      42.674  37.373  28.010  1.00  0.00    -0.237 OA
ATOM     77  O   UNL A   1      41.040  35.539  28.239  1.00  0.00    -0.744 OA
ENDBRANCH  70  74
ENDBRANCH  53  67
BRANCH  54  78
ATOM     78  C   UNL A   1      36.982  31.547  31.222  1.00  0.00     0.023 A 
ATOM     79  C   UNL A   1      36.243  32.164  32.267  1.00  0.00     0.031 A 
ATOM     80  C   UNL A   1      36.420  31.638  29.930  1.00  0.00     0.131 A 
ATOM     81  C   UNL A   1      35.017  32.828  31.990  1.00  0.00     0.055 A 
ATOM     82  C   UNL A   1      35.219  32.300  29.662  1.00  0.00     0.041 A 
ATOM     83  F   UNL A   1      37.070  31.164  28.856  1.00  0.00    -0.206 F 
ATOM     84  C   UNL A   1      34.517  32.907  30.690  1.00  0.00     0.022 A 
BRANCH  81  85
ATOM     85  S   UNL A   1      34.073  33.686  33.302  1.00  0.00     0.124 S 
ATOM     86  O   UNL A   1      34.972  33.597  34.446  1.00  0.00    -0.237 OA
ATOM     87  O   UNL A   1      33.870  35.013  32.734  1.00  0.00    -0.237 OA
ATOM     88  O   UNL A   1      32.852  32.885  33.425  1.00  0.00    -0.744 OA
ENDBRANCH  81  85
ENDBRANCH  54  78
BRANCH  66  89
ATOM     89  C   UNL A   1      42.649  30.628  33.868  1.00  0.00     0.023 A 
ATOM     90  C   UNL A   1      42.322  29.257  33.997  1.00  0.00     0.031 A 
ATOM     91  C   UNL A   1      43.013  31.321  35.036  1.00  0.00     0.131 A 
ATOM     92  C   UNL A   1      42.347  28.644  35.268  1.00  0.00     0.055 A 
ATOM     93  C   UNL A   1      43.064  30.705  36.284  1.00  0.00     0.041 A 
ATOM     94  F   UNL A   1      43.353  32.619  34.981  1.00  0.00    -0.206 F 
ATOM     95  C   UNL A   1      42.721  29.365  36.407  1.00  0.00     0.022 A 
BRANCH  92  96
ATOM     96  S   UNL A   1      41.845  26.904  35.483  1.00  0.00     0.124 S 
ATOM     97  O   UNL A   1      43.062  26.156  35.195  1.00  0.00    -0.237 OA
ATOM     98  O   UNL A   1      41.392  26.878  36.871  1.00  0.00    -0.237 OA
ATOM     99  O   UNL A   1      40.777  26.735  34.494  1.00  0.00    -0.744 OA
ENDBRANCH  92  96
ENDBRANCH  66  89
ENDBRANCH  40  41
ENDBRANCH  33  35
ENDBRANCH  32  33
ENDBRANCH  31  32
ENDBRANCH   1  31
TORSDOF 19
ENDMDL
MODEL 2
REMARK VINA RESULT:     -12.5      3.430      4.482
REMARK SMILES CC(=O)Nc1ccc(/C=C2/CCc3oc(C(=O)OCCOCCOC(=O)c4ccc(-c5c6nc(c(-c7cc(S(=O)(=O)[O-])ccc7F)c7ccc([nH]7)c(-c7cc(S(=O)(=O)[O-])ccc7F)c7nc(c(-c8cc(S(=O)(=O)[O-])ccc8F)c8ccc5[nH]8)C=C7)C=C6)cc4)c(C)c3C2=O)cc1
REMARK SMILES IDX 22 1 21 2 20 3 19 4 18 5 16 6 17 7 15 8 9 9 10 10 11 11
REMARK SMILES IDX 93 12 12 13 92 14 94 15 13 16 90 17 14 18 91 19 8 20 5 21
REMARK SMILES IDX 6 22 96 23 7 24 95 25 4 26 1 27 2 28 3 29 23 31 24 32 25 33
REMARK SMILES IDX 26 34 27 35 28 36 89 37 29 38 88 39 30 40 31 41 32 42 82 43
REMARK SMILES IDX 33 44 87 45 81 46 83 47 34 48 86 49 80 50 79 51 35 53 67 54
REMARK SMILES IDX 47 55 66 56 48 57 51 58 65 59 84 60 49 61 50 62 64 64 85 65
REMARK SMILES IDX 52 66 36 67 37 68 45 69 38 70 44 71 46 72 43 73 39 74 40 75
REMARK SMILES IDX 41 76 42 77 68 78 69 79 77 80 70 81 76 82 78 83 75 84 71 85
REMARK SMILES IDX 72 86 73 87 74 88 53 89 54 90 62 91 55 92 61 93 63 94 60 95
REMARK SMILES IDX 56 96 57 97 58 98 59 99
REMARK H PARENT 4 30 83 52 51 63
REMARK Flexibility Score: inf
ROOT
ATOM      1  C   UNL A   1      41.863  19.733  27.047  1.00  0.00     0.202 C 
ENDROOT
BRANCH   1   2
ATOM      2  O   UNL A   1      41.831  21.076  27.515  1.00  0.00    -0.374 OA
BRANCH   2   3
ATOM      3  C   UNL A   1      40.594  21.789  27.494  1.00  0.00     0.202 C 
BRANCH   3   4
ATOM      4  C   UNL A   1      39.962  22.064  26.126  1.00  0.00     0.261 C 
BRANCH   4   5
ATOM      5  O   UNL A   1      38.546  21.831  26.106  1.00  0.00    -0.457 OA
BRANCH   5   6
ATOM      6  C   UNL A   1      38.149  20.770  25.343  1.00  0.00     0.374 C 
ATOM      7  O   UNL A   1      38.812  19.767  25.133  1.00  0.00    -0.242 OA
BRANCH   6   8
ATOM      8  C   UNL A   1      36.768  20.941  24.938  1.00  0.00     0.215 A 
ATOM      9  C   UNL A   1      31.634  22.882  25.264  1.00  0.00     0.016 C 
ATOM     10  C   UNL A   1      32.402  22.037  24.545  1.00  0.00     0.001 C 
ATOM     11  C   UNL A   1      32.191  20.526  24.540  1.00  0.00     0.048 C 
ATOM     12  C   UNL A   1      33.626  22.441  23.775  1.00  0.00     0.192 C 
ATOM     13  C   UNL A   1      33.377  19.771  25.194  1.00  0.00     0.081 C 
ATOM     14  C   UNL A   1      34.777  21.699  24.240  1.00  0.00     0.067 A 
ATOM     15  O   UNL A   1      33.643  23.278  22.887  1.00  0.00    -0.289 OA
ATOM     16  C   UNL A   1      34.636  20.489  24.878  1.00  0.00     0.116 A 
ATOM     17  C   UNL A   1      36.170  21.978  24.225  1.00  0.00     0.014 A 
ATOM     18  O   UNL A   1      35.828  20.004  25.294  1.00  0.00    -0.453 OA
ATOM     19  C   UNL A   1      36.829  23.163  23.617  1.00  0.00     0.049 C 
BRANCH   9  20
ATOM     20  C   UNL A   1      31.754  24.331  25.566  1.00  0.00    -0.025 A 
ATOM     21  C   UNL A   1      31.773  27.095  26.242  1.00  0.00     0.041 A 
ATOM     22  C   UNL A   1      32.937  26.338  26.305  1.00  0.00     0.027 A 
ATOM     23  C   UNL A   1      30.603  26.486  25.798  1.00  0.00     0.027 A 
ATOM     24  C   UNL A   1      32.915  24.970  26.011  1.00  0.00     0.010 A 
ATOM     25  C   UNL A   1      30.600  25.124  25.454  1.00  0.00     0.010 A 
BRANCH  21  26
ATOM     26  N   UNL A   1      31.873  28.448  26.596  1.00  0.00    -0.326 N 
ATOM     27  C   UNL A   1      32.803  29.346  24.478  1.00  0.00     0.114 C 
ATOM     28  C   UNL A   1      32.429  29.500  25.927  1.00  0.00     0.221 C 
ATOM     29  O   UNL A   1      32.535  30.589  26.495  1.00  0.00    -0.275 OA
ATOM     30  H   UNL A   1      31.479  28.676  27.469  1.00  0.00     0.169 HD
ENDBRANCH  21  26
ENDBRANCH   9  20
ENDBRANCH   6   8
ENDBRANCH   5   6
ENDBRANCH   4   5
ENDBRANCH   3   4
ENDBRANCH   2   3
ENDBRANCH   1   2
BRANCH   1  31
ATOM     31  C   UNL A   1      42.582  19.417  25.743  1.00  0.00     0.261 C 
BRANCH  31  32
ATOM     32  O   UNL A   1      43.948  19.803  25.742  1.00  0.00    -0.460 OA
BRANCH  32  33
ATOM     33  C   UNL A   1      44.282  20.578  24.681  1.00  0.00     0.338 C 
ATOM     34  O   UNL A   1      44.575  20.196  23.563  1.00  0.00    -0.246 OA
BRANCH  33  35
ATOM     35  C   UNL A   1      44.404  21.968  25.135  1.00  0.00     0.060 A 
ATOM     36  C   UNL A   1      45.297  22.226  26.177  1.00  0.00     0.016 A 
ATOM     37  C   UNL A   1      43.476  22.927  24.704  1.00  0.00     0.016 A 
ATOM     38  C   UNL A   1      45.147  23.394  26.898  1.00  0.00     0.010 A 
ATOM     39  C   UNL A   1      43.312  24.078  25.442  1.00  0.00     0.010 A 
ATOM     40  C   UNL A   1      44.103  24.269  26.572  1.00  0.00    -0.014 A 
BRANCH  40  41
ATOM     41  C   UNL A   1      43.989  25.524  27.294  1.00  0.00     0.031 A 
ATOM     42  C   UNL A   1      45.135  26.412  26.986  1.00  0.00     0.074 A 
ATOM     43  C   UNL A   1      42.914  25.872  28.032  1.00  0.00     0.049 A 
ATOM     44  N   UNL A   1      46.137  26.679  27.755  1.00  0.00    -0.248 NA
ATOM     45  C   UNL A   1      45.337  26.838  25.587  1.00  0.00     0.031 C 
ATOM     46  C   UNL A   1      41.657  25.141  28.192  1.00  0.00     0.029 A 
ATOM     47  N   UNL A   1      42.683  27.011  28.746  1.00  0.00    -0.354 N 
ATOM     48  C   UNL A   1      46.926  27.562  27.030  1.00  0.00     0.074 A 
ATOM     49  C   UNL A   1      46.550  27.386  25.657  1.00  0.00     0.031 C 
ATOM     50  C   UNL A   1      40.729  25.952  28.757  1.00  0.00     0.029 A 
ATOM     51  C   UNL A   1      41.350  27.221  29.110  1.00  0.00     0.049 A 
ATOM     52  H   UNL A   1      43.403  27.639  28.987  1.00  0.00     0.167 HD
ATOM     53  C   UNL A   1      47.550  28.593  27.662  1.00  0.00     0.034 A 
ATOM     54  C   UNL A   1      40.797  28.366  29.616  1.00  0.00     0.034 A 
ATOM     55  C   UNL A   1      47.634  28.335  29.086  1.00  0.00     0.049 A 
ATOM     56  C   UNL A   1      41.916  29.162  30.183  1.00  0.00     0.074 A 
ATOM     57  C   UNL A   1      48.157  27.310  29.853  1.00  0.00     0.029 A 
ATOM     58  N   UNL A   1      46.758  29.006  29.914  1.00  0.00    -0.354 N 
ATOM     59  N   UNL A   1      42.595  28.782  31.230  1.00  0.00    -0.248 NA
ATOM     60  C   UNL A   1      42.615  30.077  29.291  1.00  0.00     0.031 C 
ATOM     61  C   UNL A   1      47.216  27.120  30.908  1.00  0.00     0.029 A 
ATOM     62  C   UNL A   1      46.232  28.105  30.806  1.00  0.00     0.049 A 
ATOM     63  H   UNL A   1      46.547  29.966  29.873  1.00  0.00     0.167 HD
ATOM     64  C   UNL A   1      43.921  29.020  30.901  1.00  0.00     0.074 A 
ATOM     65  C   UNL A   1      43.866  29.895  29.727  1.00  0.00     0.031 C 
ATOM     66  C   UNL A   1      44.923  28.248  31.417  1.00  0.00     0.034 A 
BRANCH  53  67
ATOM     67  C   UNL A   1      47.656  29.994  27.088  1.00  0.00     0.023 A 
ATOM     68  C   UNL A   1      48.917  30.611  27.177  1.00  0.00     0.031 A 
ATOM     69  C   UNL A   1      46.581  30.854  26.758  1.00  0.00     0.131 A 
ATOM     70  C   UNL A   1      49.046  32.006  27.097  1.00  0.00     0.055 A 
ATOM     71  C   UNL A   1      46.727  32.236  26.613  1.00  0.00     0.041 A 
ATOM     72  F   UNL A   1      45.316  30.440  26.633  1.00  0.00    -0.206 F 
ATOM     73  C   UNL A   1      47.958  32.827  26.822  1.00  0.00     0.022 A 
BRANCH  70  74
ATOM     74  S   UNL A   1      50.636  32.738  27.553  1.00  0.00     0.124 S 
ATOM     75  O   UNL A   1      51.375  32.614  26.301  1.00  0.00    -0.237 OA
ATOM     76  O   UNL A   1      50.242  34.088  27.941  1.00  0.00    -0.237 OA
ATOM     77  O   UNL A   1      51.098  31.884  28.644  1.00  0.00    -0.744 OA
ENDBRANCH  70  74
ENDBRANCH  53  67
BRANCH  54  78
ATOM     78  C   UNL A   1      39.451  28.963  29.328  1.00  0.00     0.023 A 
ATOM     79  C   UNL A   1      38.638  29.589  30.311  1.00  0.00     0.031 A 
ATOM     80  C   UNL A   1      39.061  29.160  27.985  1.00  0.00     0.131 A 
ATOM     81  C   UNL A   1      37.509  30.364  29.927  1.00  0.00     0.055 A 
ATOM     82  C   UNL A   1      37.954  29.930  27.614  1.00  0.00     0.041 A 
ATOM     83  F   UNL A   1      39.800  28.685  26.970  1.00  0.00    -0.206 F 
ATOM     84  C   UNL A   1      37.179  30.544  28.583  1.00  0.00     0.022 A 
BRANCH  81  85
ATOM     85  S   UNL A   1      36.478  31.234  31.164  1.00  0.00     0.124 S 
ATOM     86  O   UNL A   1      37.394  32.240  31.685  1.00  0.00    -0.237 OA
ATOM     87  O   UNL A   1      35.362  31.722  30.363  1.00  0.00    -0.237 OA
ATOM     88  O   UNL A   1      36.125  30.180  32.118  1.00  0.00    -0.744 OA
ENDBRANCH  81  85
ENDBRANCH  54  78
BRANCH  66  89
ATOM     89  C   UNL A   1      44.611  27.358  32.607  1.00  0.00     0.023 A 
ATOM     90  C   UNL A   1      44.554  27.772  33.959  1.00  0.00     0.031 A 
ATOM     91  C   UNL A   1      44.274  26.023  32.324  1.00  0.00     0.131 A 
ATOM     92  C   UNL A   1      44.192  26.851  34.964  1.00  0.00     0.055 A 
ATOM     93  C   UNL A   1      43.889  25.123  33.315  1.00  0.00     0.041 A 
ATOM     94  F   UNL A   1      44.289  25.569  31.060  1.00  0.00    -0.206 F 
ATOM     95  C   UNL A   1      43.857  25.531  34.641  1.00  0.00     0.022 A 
BRANCH  92  96
ATOM     96  S   UNL A   1      44.195  27.327  36.724  1.00  0.00     0.124 S 
ATOM     97  O   UNL A   1      45.370  28.180  36.848  1.00  0.00    -0.237 OA
ATOM     98  O   UNL A   1      42.904  27.993  36.871  1.00  0.00    -0.237 OA
ATOM     99  O   UNL A   1      44.297  26.043  37.422  1.00  0.00    -0.744 OA
ENDBRANCH  92  96
ENDBRANCH  66  89
ENDBRANCH  40  41
ENDBRANCH  33  35
ENDBRANCH  32  33
ENDBRANCH  31  32
ENDBRANCH   1  31
TORSDOF 19
ENDMDL
MODEL 3
REMARK VINA RESULT:     -12.3      1.656      2.008
REMARK SMILES CC(=O)Nc1ccc(/C=C2/CCc3oc(C(=O)OCCOCCOC(=O)c4ccc(-c5c6nc(c(-c7cc(S(=O)(=O)[O-])ccc7F)c7ccc([nH]7)c(-c7cc(S(=O)(=O)[O-])ccc7F)c7nc(c(-c8cc(S(=O)(=O)[O-])ccc8F)c8ccc5[nH]8)C=C7)C=C6)cc4)c(C)c3C2=O)cc1
REMARK SMILES IDX 22 1 21 2 20 3 19 4 18 5 16 6 17 7 15 8 9 9 10 10 11 11
REMARK SMILES IDX 93 12 12 13 92 14 94 15 13 16 90 17 14 18 91 19 8 20 5 21
REMARK SMILES IDX 6 22 96 23 7 24 95 25 4 26 1 27 2 28 3 29 23 31 24 32 25 33
REMARK SMILES IDX 26 34 27 35 28 36 89 37 29 38 88 39 30 40 31 41 32 42 82 43
REMARK SMILES IDX 33 44 87 45 81 46 83 47 34 48 86 49 80 50 79 51 35 53 67 54
REMARK SMILES IDX 47 55 66 56 48 57 51 58 65 59 84 60 49 61 50 62 64 64 85 65
REMARK SMILES IDX 52 66 36 67 37 68 45 69 38 70 44 71 46 72 43 73 39 74 40 75
REMARK SMILES IDX 41 76 42 77 68 78 69 79 77 80 70 81 76 82 78 83 75 84 71 85
REMARK SMILES IDX 72 86 73 87 74 88 53 89 54 90 62 91 55 92 61 93 63 94 60 95
REMARK SMILES IDX 56 96 57 97 58 98 59 99
REMARK H PARENT 4 30 83 52 51 63
REMARK Flexibility Score: inf
ROOT
ATOM      1  C   UNL A   1      40.865  20.956  26.216  1.00  0.00     0.202 C 
ENDROOT
BRANCH   1   2
ATOM      2  O   UNL A   1      39.643  21.374  26.812  1.00  0.00    -0.374 OA
BRANCH   2   3
ATOM      3  C   UNL A   1      38.928  22.469  26.239  1.00  0.00     0.202 C 
BRANCH   3   4
ATOM      4  C   UNL A   1      37.803  22.138  25.254  1.00  0.00     0.261 C 
BRANCH   4   5
ATOM      5  O   UNL A   1      37.040  23.290  24.866  1.00  0.00    -0.457 OA
BRANCH   5   6
ATOM      6  C   UNL A   1      36.211  23.098  23.798  1.00  0.00     0.374 C 
ATOM      7  O   UNL A   1      36.574  22.810  22.669  1.00  0.00    -0.242 OA
BRANCH   6   8
ATOM      8  C   UNL A   1      34.829  23.140  24.230  1.00  0.00     0.215 A 
ATOM      9  C   UNL A   1      30.116  25.502  25.791  1.00  0.00     0.016 C 
ATOM     10  C   UNL A   1      30.689  24.291  25.628  1.00  0.00     0.001 C 
ATOM     11  C   UNL A   1      31.000  23.358  26.794  1.00  0.00     0.048 C 
ATOM     12  C   UNL A   1      31.213  23.764  24.324  1.00  0.00     0.192 C 
ATOM     13  C   UNL A   1      32.526  23.163  26.992  1.00  0.00     0.081 C 
ATOM     14  C   UNL A   1      32.618  23.441  24.443  1.00  0.00     0.067 A 
ATOM     15  O   UNL A   1      30.545  23.630  23.311  1.00  0.00    -0.289 OA
ATOM     16  C   UNL A   1      33.187  23.170  25.665  1.00  0.00     0.116 A 
ATOM     17  C   UNL A   1      33.670  23.371  23.491  1.00  0.00     0.014 A 
ATOM     18  O   UNL A   1      34.520  22.968  25.558  1.00  0.00    -0.453 OA
ATOM     19  C   UNL A   1      33.551  23.559  22.022  1.00  0.00     0.049 C 
BRANCH   9  20
ATOM     20  C   UNL A   1      29.887  26.634  24.858  1.00  0.00    -0.025 A 
ATOM     21  C   UNL A   1      29.675  28.799  23.024  1.00  0.00     0.041 A 
ATOM     22  C   UNL A   1      28.671  27.843  23.117  1.00  0.00     0.027 A 
ATOM     23  C   UNL A   1      30.770  28.704  23.879  1.00  0.00     0.027 A 
ATOM     24  C   UNL A   1      28.798  26.757  23.990  1.00  0.00     0.010 A 
ATOM     25  C   UNL A   1      30.865  27.640  24.791  1.00  0.00     0.010 A 
BRANCH  21  26
ATOM     26  N   UNL A   1      29.490  29.829  22.091  1.00  0.00    -0.326 N 
ATOM     27  C   UNL A   1      28.028  31.321  23.430  1.00  0.00     0.114 C 
ATOM     28  C   UNL A   1      28.681  30.928  22.133  1.00  0.00     0.221 C 
ATOM     29  O   UNL A   1      28.569  31.634  21.129  1.00  0.00    -0.275 OA
ATOM     30  H   UNL A   1      30.031  29.746  21.273  1.00  0.00     0.169 HD
ENDBRANCH  21  26
ENDBRANCH   9  20
ENDBRANCH   6   8
ENDBRANCH   5   6
ENDBRANCH   4   5
ENDBRANCH   3   4
ENDBRANCH   2   3
ENDBRANCH   1   2
BRANCH   1  31
ATOM     31  C   UNL A   1      42.145  20.999  27.036  1.00  0.00     0.261 C 
BRANCH  31  32
ATOM     32  O   UNL A   1      42.284  22.182  27.808  1.00  0.00    -0.460 OA
BRANCH  32  33
ATOM     33  C   UNL A   1      42.617  23.268  27.067  1.00  0.00     0.338 C 
ATOM     34  O   UNL A   1      43.238  23.271  26.019  1.00  0.00    -0.246 OA
BRANCH  33  35
ATOM     35  C   UNL A   1      42.257  24.477  27.815  1.00  0.00     0.060 A 
ATOM     36  C   UNL A   1      41.251  25.285  27.282  1.00  0.00     0.016 A 
ATOM     37  C   UNL A   1      43.069  24.912  28.873  1.00  0.00     0.016 A 
ATOM     38  C   UNL A   1      41.168  26.597  27.703  1.00  0.00     0.010 A 
ATOM     39  C   UNL A   1      43.002  26.227  29.272  1.00  0.00     0.010 A 
ATOM     40  C   UNL A   1      42.098  27.075  28.636  1.00  0.00    -0.014 A 
BRANCH  40  41
ATOM     41  C   UNL A   1      41.967  28.438  29.120  1.00  0.00     0.031 A 
ATOM     42  C   UNL A   1      43.017  29.306  28.536  1.00  0.00     0.074 A 
ATOM     43  C   UNL A   1      40.943  28.869  29.887  1.00  0.00     0.049 A 
ATOM     44  N   UNL A   1      44.065  29.763  29.135  1.00  0.00    -0.248 NA
ATOM     45  C   UNL A   1      43.061  29.465  27.069  1.00  0.00     0.031 C 
ATOM     46  C   UNL A   1      39.758  28.121  30.308  1.00  0.00     0.029 A 
ATOM     47  N   UNL A   1      40.702  30.111  30.396  1.00  0.00    -0.354 N 
ATOM     48  C   UNL A   1      44.723  30.529  28.181  1.00  0.00     0.074 A 
ATOM     49  C   UNL A   1      44.236  30.074  26.911  1.00  0.00     0.031 C 
ATOM     50  C   UNL A   1      38.833  28.979  30.805  1.00  0.00     0.029 A 
ATOM     51  C   UNL A   1      39.396  30.321  30.850  1.00  0.00     0.049 A 
ATOM     52  H   UNL A   1      41.397  30.808  30.441  1.00  0.00     0.167 HD
ATOM     53  C   UNL A   1      45.332  31.691  28.542  1.00  0.00     0.034 A 
ATOM     54  C   UNL A   1      38.817  31.513  31.188  1.00  0.00     0.034 A 
ATOM     55  C   UNL A   1      45.562  31.716  29.973  1.00  0.00     0.049 A 
ATOM     56  C   UNL A   1      39.927  32.457  31.479  1.00  0.00     0.074 A 
ATOM     57  C   UNL A   1      46.222  30.883  30.860  1.00  0.00     0.029 A 
ATOM     58  N   UNL A   1      44.723  32.489  30.748  1.00  0.00    -0.354 N 
ATOM     59  N   UNL A   1      40.723  32.319  32.503  1.00  0.00    -0.248 NA
ATOM     60  C   UNL A   1      40.477  33.217  30.366  1.00  0.00     0.031 C 
ATOM     61  C   UNL A   1      45.396  30.853  32.023  1.00  0.00     0.029 A 
ATOM     62  C   UNL A   1      44.343  31.751  31.841  1.00  0.00     0.049 A 
ATOM     63  H   UNL A   1      44.445  33.412  30.550  1.00  0.00     0.167 HD
ATOM     64  C   UNL A   1      41.994  32.554  32.001  1.00  0.00     0.074 A 
ATOM     65  C   UNL A   1      41.773  33.183  30.696  1.00  0.00     0.031 C 
ATOM     66  C   UNL A   1      43.089  31.944  32.546  1.00  0.00     0.034 A 
BRANCH  53  67
ATOM     67  C   UNL A   1      45.289  32.960  27.710  1.00  0.00     0.023 A 
ATOM     68  C   UNL A   1      46.498  33.349  27.106  1.00  0.00     0.031 A 
ATOM     69  C   UNL A   1      44.272  33.943  27.722  1.00  0.00     0.131 A 
ATOM     70  C   UNL A   1      46.706  34.675  26.695  1.00  0.00     0.055 A 
ATOM     71  C   UNL A   1      44.463  35.244  27.250  1.00  0.00     0.041 A 
ATOM     72  F   UNL A   1      43.062  33.747  28.255  1.00  0.00    -0.206 F 
ATOM     73  C   UNL A   1      45.699  35.630  26.769  1.00  0.00     0.022 A 
BRANCH  70  74
ATOM     74  S   UNL A   1      48.387  35.168  26.243  1.00  0.00     0.124 S 
ATOM     75  O   UNL A   1      48.435  34.760  24.843  1.00  0.00    -0.237 OA
ATOM     76  O   UNL A   1      48.354  36.605  26.497  1.00  0.00    -0.237 OA
ATOM     77  O   UNL A   1      49.222  34.391  27.154  1.00  0.00    -0.744 OA
ENDBRANCH  70  74
ENDBRANCH  53  67
BRANCH  54  78
ATOM     78  C   UNL A   1      37.412  31.978  30.934  1.00  0.00     0.023 A 
ATOM     79  C   UNL A   1      36.646  32.724  31.869  1.00  0.00     0.031 A 
ATOM     80  C   UNL A   1      36.895  31.912  29.621  1.00  0.00     0.131 A 
ATOM     81  C   UNL A   1      35.437  33.357  31.469  1.00  0.00     0.055 A 
ATOM     82  C   UNL A   1      35.710  32.544  29.233  1.00  0.00     0.041 A 
ATOM     83  F   UNL A   1      37.575  31.304  28.637  1.00  0.00    -0.206 F 
ATOM     84  C   UNL A   1      34.981  33.278  30.153  1.00  0.00     0.022 A 
BRANCH  81  85
ATOM     85  S   UNL A   1      34.459  34.377  32.633  1.00  0.00     0.124 S 
ATOM     86  O   UNL A   1      35.441  35.348  33.102  1.00  0.00    -0.237 OA
ATOM     87  O   UNL A   1      33.390  34.891  31.786  1.00  0.00    -0.237 OA
ATOM     88  O   UNL A   1      34.021  33.416  33.647  1.00  0.00    -0.744 OA
ENDBRANCH  81  85
ENDBRANCH  54  78
BRANCH  66  89
ATOM     89  C   UNL A   1      42.948  31.286  33.907  1.00  0.00     0.023 A 
ATOM     90  C   UNL A   1      42.597  29.935  34.142  1.00  0.00     0.031 A 
ATOM     91  C   UNL A   1      43.274  32.075  35.024  1.00  0.00     0.131 A 
ATOM     92  C   UNL A   1      42.561  29.435  35.460  1.00  0.00     0.055 A 
ATOM     93  C   UNL A   1      43.266  31.570  36.322  1.00  0.00     0.041 A 
ATOM     94  F   UNL A   1      43.634  33.359  34.870  1.00  0.00    -0.206 F 
ATOM     95  C   UNL A   1      42.899  30.250  36.547  1.00  0.00     0.022 A 
BRANCH  92  96
ATOM     96  S   UNL A   1      42.027  27.726  35.805  1.00  0.00     0.124 S 
ATOM     97  O   UNL A   1      40.905  27.894  36.719  1.00  0.00    -0.237 OA
ATOM     98  O   UNL A   1      41.697  27.226  34.473  1.00  0.00    -0.237 OA
ATOM     99  O   UNL A   1      43.216  27.115  36.404  1.00  0.00    -0.744 OA
ENDBRANCH  92  96
ENDBRANCH  66  89
ENDBRANCH  40  41
ENDBRANCH  33  35
ENDBRANCH  32  33
ENDBRANCH  31  32
ENDBRANCH   1  31
TORSDOF 19
ENDMDL
