MODEL 1
REMARK VINA RESULT:      -9.7      0.000      0.000
REMARK SMILES Cc1cc2c(c(C)c1Cl)C=C(C(=O)OCCOCCOC(=O)c1ccc(-c3c4nc(c(-c5cc(S(=O)(=O)[O-])ccc5F)c5ccc([nH]5)c(-c5cc(S(=O)(=O)[O-])ccc5F)c5nc(c(-c6cc(S(=O)(=O)[O-])ccc6F)c6ccc3[nH]6)C=C5)C=C4)cc1)[C@@H](C(F)(F)F)O2
REMARK SMILES IDX 18 1 17 2 16 3 15 4 14 5 12 6 13 7 11 8 1 9 2 10 3 11 8 12
REMARK SMILES IDX 4 13 6 14 9 15 5 16 91 17 7 18 10 19 86 20 87 21 88 22 89 23
REMARK SMILES IDX 90 24 19 25 20 26 21 27 22 28 23 29 24 30 85 31 25 32 84 33
REMARK SMILES IDX 26 34 27 35 28 36 78 37 29 38 83 39 77 40 79 41 30 42 82 43
REMARK SMILES IDX 76 44 75 45 31 47 63 48 43 49 62 50 44 51 47 52 61 53 80 54
REMARK SMILES IDX 45 55 46 56 60 58 81 59 48 60 32 61 33 62 41 63 34 64 40 65
REMARK SMILES IDX 42 66 39 67 35 68 36 69 37 70 38 71 64 72 65 73 73 74 66 75
REMARK SMILES IDX 72 76 74 77 71 78 67 79 68 80 69 81 70 82 49 83 50 84 58 85
REMARK SMILES IDX 51 86 57 87 59 88 56 89 52 90 53 91 54 92 55 93
REMARK H PARENT 79 46 47 57
REMARK Flexibility Score: inf
ROOT
ATOM      1  C   UNL A   1      33.605  34.828  29.033  1.00  0.00     0.202 C 
ENDROOT
BRANCH   1   2
ATOM      2  O   UNL A   1      32.664  34.977  30.097  1.00  0.00    -0.374 OA
BRANCH   2   3
ATOM      3  C   UNL A   1      33.005  35.848  31.173  1.00  0.00     0.202 C 
BRANCH   3   4
ATOM      4  C   UNL A   1      33.092  35.223  32.570  1.00  0.00     0.261 C 
BRANCH   4   5
ATOM      5  O   UNL A   1      34.428  35.274  33.093  1.00  0.00    -0.460 OA
BRANCH   5   6
ATOM      6  C   UNL A   1      35.125  34.123  32.962  1.00  0.00     0.338 C 
ATOM      7  O   UNL A   1      34.674  33.010  32.732  1.00  0.00    -0.246 OA
BRANCH   6   8
ATOM      8  C   UNL A   1      36.572  34.405  33.001  1.00  0.00     0.087 C 
ATOM      9  C   UNL A   1      42.944  34.078  32.101  1.00  0.00     0.046 C 
ATOM     10  C   UNL A   1      41.465  34.282  31.911  1.00  0.00    -0.028 A 
ATOM     11  C   UNL A   1      40.707  34.576  33.055  1.00  0.00     0.052 A 
ATOM     12  C   UNL A   1      40.800  34.121  30.679  1.00  0.00     0.047 A 
ATOM     13  C   UNL A   1      39.318  34.642  32.998  1.00  0.00     0.128 A 
ATOM     14  C   UNL A   1      39.392  34.231  30.594  1.00  0.00    -0.021 A 
ATOM     15  Cl  UNL A   1      41.730  33.744  29.259  1.00  0.00    -0.084 Cl
ATOM     16  C   UNL A   1      38.653  34.433  31.787  1.00  0.00     0.022 A 
ATOM     17  O   UNL A   1      38.694  34.917  34.183  1.00  0.00    -0.475 OA
ATOM     18  C   UNL A   1      38.659  34.113  29.278  1.00  0.00     0.047 C 
ATOM     19  C   UNL A   1      37.199  34.340  31.819  1.00  0.00     0.027 C 
ATOM     20  C   UNL A   1      37.262  34.697  34.300  1.00  0.00     0.316 C 
BRANCH  20  21
ATOM     21  C   UNL A   1      37.024  33.609  35.358  1.00  0.00     0.430 C 
ATOM     22  F   UNL A   1      38.018  33.600  36.280  1.00  0.00    -0.167 F 
ATOM     23  F   UNL A   1      35.868  33.803  36.030  1.00  0.00    -0.167 F 
ATOM     24  F   UNL A   1      36.973  32.375  34.805  1.00  0.00    -0.167 F 
ENDBRANCH  20  21
ENDBRANCH   6   8
ENDBRANCH   5   6
ENDBRANCH   4   5
ENDBRANCH   3   4
ENDBRANCH   2   3
ENDBRANCH   1   2
BRANCH   1  25
ATOM     25  C   UNL A   1      34.748  33.822  29.221  1.00  0.00     0.261 C 
BRANCH  25  26
ATOM     26  O   UNL A   1      34.276  32.484  29.460  1.00  0.00    -0.460 OA
BRANCH  26  27
ATOM     27  C   UNL A   1      34.505  31.614  28.447  1.00  0.00     0.338 C 
ATOM     28  O   UNL A   1      33.885  31.532  27.394  1.00  0.00    -0.246 OA
BRANCH  27  29
ATOM     29  C   UNL A   1      35.753  30.873  28.695  1.00  0.00     0.060 A 
ATOM     30  C   UNL A   1      35.780  29.980  29.774  1.00  0.00     0.016 A 
ATOM     31  C   UNL A   1      36.898  31.096  27.927  1.00  0.00     0.016 A 
ATOM     32  C   UNL A   1      36.964  29.328  30.108  1.00  0.00     0.010 A 
ATOM     33  C   UNL A   1      38.090  30.447  28.272  1.00  0.00     0.010 A 
ATOM     34  C   UNL A   1      38.134  29.580  29.378  1.00  0.00    -0.014 A 
BRANCH  34  35
ATOM     35  C   UNL A   1      39.422  29.018  29.851  1.00  0.00     0.031 A 
ATOM     36  C   UNL A   1      40.057  29.579  31.095  1.00  0.00     0.074 A 
ATOM     37  C   UNL A   1      39.989  27.979  29.210  1.00  0.00     0.049 A 
ATOM     38  N   UNL A   1      41.172  29.232  31.682  1.00  0.00    -0.248 NA
ATOM     39  C   UNL A   1      39.336  30.673  31.766  1.00  0.00     0.031 C 
ATOM     40  C   UNL A   1      39.437  27.319  28.027  1.00  0.00     0.029 A 
ATOM     41  N   UNL A   1      41.146  27.289  29.470  1.00  0.00    -0.354 N 
ATOM     42  C   UNL A   1      41.284  30.054  32.798  1.00  0.00     0.074 A 
ATOM     43  C   UNL A   1      40.143  30.945  32.782  1.00  0.00     0.031 C 
ATOM     44  C   UNL A   1      40.248  26.309  27.674  1.00  0.00     0.029 A 
ATOM     45  C   UNL A   1      41.395  26.271  28.580  1.00  0.00     0.049 A 
ATOM     46  H   UNL A   1      41.742  27.503  30.224  1.00  0.00     0.167 HD
ATOM     47  C   UNL A   1      42.241  30.053  33.756  1.00  0.00     0.034 A 
ATOM     48  C   UNL A   1      42.432  25.415  28.498  1.00  0.00     0.034 A 
ATOM     49  C   UNL A   1      43.375  29.165  33.760  1.00  0.00     0.049 A 
ATOM     50  C   UNL A   1      43.540  25.501  29.518  1.00  0.00     0.074 A 
ATOM     51  C   UNL A   1      44.403  29.087  34.684  1.00  0.00     0.029 A 
ATOM     52  N   UNL A   1      43.636  28.204  32.794  1.00  0.00    -0.354 N 
ATOM     53  N   UNL A   1      43.645  26.304  30.551  1.00  0.00    -0.248 NA
ATOM     54  C   UNL A   1      44.666  24.569  29.363  1.00  0.00     0.031 C 
ATOM     55  C   UNL A   1      45.316  28.125  34.244  1.00  0.00     0.029 A 
ATOM     56  C   UNL A   1      44.822  27.550  33.084  1.00  0.00     0.049 A 
ATOM     57  H   UNL A   1      43.062  28.014  32.016  1.00  0.00     0.167 HD
ATOM     58  C   UNL A   1      44.836  25.955  31.183  1.00  0.00     0.074 A 
ATOM     59  C   UNL A   1      45.414  24.871  30.416  1.00  0.00     0.031 C 
ATOM     60  C   UNL A   1      45.393  26.479  32.304  1.00  0.00     0.034 A 
BRANCH  47  61
ATOM     61  C   UNL A   1      42.119  31.062  34.867  1.00  0.00     0.023 A 
ATOM     62  C   UNL A   1      42.920  32.215  34.903  1.00  0.00     0.031 A 
ATOM     63  C   UNL A   1      41.170  30.881  35.888  1.00  0.00     0.131 A 
ATOM     64  C   UNL A   1      42.783  33.127  35.961  1.00  0.00     0.055 A 
ATOM     65  C   UNL A   1      40.996  31.822  36.904  1.00  0.00     0.041 A 
ATOM     66  F   UNL A   1      40.392  29.786  35.912  1.00  0.00    -0.206 F 
ATOM     67  C   UNL A   1      41.810  32.951  36.948  1.00  0.00     0.022 A 
BRANCH  64  68
ATOM     68  S   UNL A   1      43.948  34.512  36.072  1.00  0.00     0.124 S 
ATOM     69  O   UNL A   1      43.312  35.501  35.205  1.00  0.00    -0.237 OA
ATOM     70  O   UNL A   1      43.943  34.817  37.498  1.00  0.00    -0.237 OA
ATOM     71  O   UNL A   1      45.196  33.951  35.558  1.00  0.00    -0.744 OA
ENDBRANCH  64  68
ENDBRANCH  47  61
BRANCH  48  72
ATOM     72  C   UNL A   1      42.483  24.409  27.401  1.00  0.00     0.023 A 
ATOM     73  C   UNL A   1      41.702  23.245  27.450  1.00  0.00     0.031 A 
ATOM     74  C   UNL A   1      43.320  24.601  26.286  1.00  0.00     0.131 A 
ATOM     75  C   UNL A   1      41.786  22.305  26.411  1.00  0.00     0.055 A 
ATOM     76  C   UNL A   1      43.371  23.683  25.237  1.00  0.00     0.041 A 
ATOM     77  F   UNL A   1      44.083  25.702  26.192  1.00  0.00    -0.206 F 
ATOM     78  C   UNL A   1      42.604  22.522  25.299  1.00  0.00     0.022 A 
BRANCH  75  79
ATOM     79  S   UNL A   1      40.829  20.771  26.545  1.00  0.00     0.124 S 
ATOM     80  O   UNL A   1      40.866  20.524  27.982  1.00  0.00    -0.237 OA
ATOM     81  O   UNL A   1      39.538  21.168  25.994  1.00  0.00    -0.237 OA
ATOM     82  O   UNL A   1      41.586  19.825  25.728  1.00  0.00    -0.744 OA
ENDBRANCH  75  79
ENDBRANCH  48  72
BRANCH  60  83
ATOM     83  C   UNL A   1      46.679  25.871  32.797  1.00  0.00     0.023 A 
ATOM     84  C   UNL A   1      47.930  26.335  32.357  1.00  0.00     0.031 A 
ATOM     85  C   UNL A   1      46.649  24.858  33.774  1.00  0.00     0.131 A 
ATOM     86  C   UNL A   1      49.104  25.773  32.882  1.00  0.00     0.055 A 
ATOM     87  C   UNL A   1      47.820  24.334  34.323  1.00  0.00     0.041 A 
ATOM     88  F   UNL A   1      45.478  24.385  34.230  1.00  0.00    -0.206 F 
ATOM     89  C   UNL A   1      49.056  24.790  33.875  1.00  0.00     0.022 A 
BRANCH  86  90
ATOM     90  S   UNL A   1      50.704  26.331  32.236  1.00  0.00     0.124 S 
ATOM     91  O   UNL A   1      50.321  26.937  30.964  1.00  0.00    -0.237 OA
ATOM     92  O   UNL A   1      51.157  27.255  33.270  1.00  0.00    -0.237 OA
ATOM     93  O   UNL A   1      51.480  25.098  32.128  1.00  0.00    -0.744 OA
ENDBRANCH  86  90
ENDBRANCH  60  83
ENDBRANCH  34  35
ENDBRANCH  27  29
ENDBRANCH  26  27
ENDBRANCH  25  26
ENDBRANCH   1  25
TORSDOF 18
ENDMDL
MODEL 2
REMARK VINA RESULT:      -9.6      5.020      7.773
REMARK SMILES Cc1cc2c(c(C)c1Cl)C=C(C(=O)OCCOCCOC(=O)c1ccc(-c3c4nc(c(-c5cc(S(=O)(=O)[O-])ccc5F)c5ccc([nH]5)c(-c5cc(S(=O)(=O)[O-])ccc5F)c5nc(c(-c6cc(S(=O)(=O)[O-])ccc6F)c6ccc3[nH]6)C=C5)C=C4)cc1)[C@@H](C(F)(F)F)O2
REMARK SMILES IDX 18 1 17 2 16 3 15 4 14 5 12 6 13 7 11 8 1 9 2 10 3 11 8 12
REMARK SMILES IDX 4 13 6 14 9 15 5 16 91 17 7 18 10 19 86 20 87 21 88 22 89 23
REMARK SMILES IDX 90 24 19 25 20 26 21 27 22 28 23 29 24 30 85 31 25 32 84 33
REMARK SMILES IDX 26 34 27 35 28 36 78 37 29 38 83 39 77 40 79 41 30 42 82 43
REMARK SMILES IDX 76 44 75 45 31 47 63 48 43 49 62 50 44 51 47 52 61 53 80 54
REMARK SMILES IDX 45 55 46 56 60 58 81 59 48 60 32 61 33 62 41 63 34 64 40 65
REMARK SMILES IDX 42 66 39 67 35 68 36 69 37 70 38 71 64 72 65 73 73 74 66 75
REMARK SMILES IDX 72 76 74 77 71 78 67 79 68 80 69 81 70 82 49 83 50 84 58 85
REMARK SMILES IDX 51 86 57 87 59 88 56 89 52 90 53 91 54 92 55 93
REMARK H PARENT 79 46 47 57
REMARK Flexibility Score: inf
ROOT
ATOM      1  C   UNL A   1      31.287  31.787  26.541  1.00  0.00     0.202 C 
ENDROOT
BRANCH   1   2
ATOM      2  O   UNL A   1      31.862  30.540  26.932  1.00  0.00    -0.374 OA
BRANCH   2   3
ATOM      3  C   UNL A   1      33.041  30.107  26.257  1.00  0.00     0.202 C 
BRANCH   3   4
ATOM      4  C   UNL A   1      32.846  29.264  24.992  1.00  0.00     0.261 C 
BRANCH   4   5
ATOM      5  O   UNL A   1      32.938  27.858  25.271  1.00  0.00    -0.460 OA
BRANCH   5   6
ATOM      6  C   UNL A   1      33.348  27.105  24.226  1.00  0.00     0.338 C 
ATOM      7  O   UNL A   1      33.862  27.501  23.189  1.00  0.00    -0.246 OA
BRANCH   6   8
ATOM      8  C   UNL A   1      33.219  25.674  24.557  1.00  0.00     0.087 C 
ATOM      9  C   UNL A   1      33.992  19.278  24.674  1.00  0.00     0.046 C 
ATOM     10  C   UNL A   1      34.180  20.762  24.847  1.00  0.00    -0.028 A 
ATOM     11  C   UNL A   1      33.022  21.553  24.889  1.00  0.00     0.052 A 
ATOM     12  C   UNL A   1      35.438  21.395  24.892  1.00  0.00     0.047 A 
ATOM     13  C   UNL A   1      33.103  22.942  24.905  1.00  0.00     0.128 A 
ATOM     14  C   UNL A   1      35.539  22.805  24.956  1.00  0.00    -0.021 A 
ATOM     15  Cl  UNL A   1      36.877  20.422  24.827  1.00  0.00    -0.084 Cl
ATOM     16  C   UNL A   1      34.350  23.575  24.899  1.00  0.00     0.022 A 
ATOM     17  O   UNL A   1      31.905  23.600  24.927  1.00  0.00    -0.475 OA
ATOM     18  C   UNL A   1      36.873  23.507  25.056  1.00  0.00     0.047 C 
ATOM     19  C   UNL A   1      34.375  25.023  24.740  1.00  0.00     0.027 C 
ATOM     20  C   UNL A   1      31.870  25.023  24.628  1.00  0.00     0.316 C 
BRANCH  20  21
ATOM     21  C   UNL A   1      31.040  25.230  23.353  1.00  0.00     0.430 C 
ATOM     22  F   UNL A   1      30.429  26.440  23.358  1.00  0.00    -0.167 F 
ATOM     23  F   UNL A   1      31.806  25.182  22.240  1.00  0.00    -0.167 F 
ATOM     24  F   UNL A   1      30.076  24.289  23.225  1.00  0.00    -0.167 F 
ENDBRANCH  20  21
ENDBRANCH   6   8
ENDBRANCH   5   6
ENDBRANCH   4   5
ENDBRANCH   3   4
ENDBRANCH   2   3
ENDBRANCH   1   2
BRANCH   1  25
ATOM     25  C   UNL A   1      32.123  33.057  26.741  1.00  0.00     0.261 C 
BRANCH  25  26
ATOM     26  O   UNL A   1      32.741  33.116  28.039  1.00  0.00    -0.460 OA
BRANCH  26  27
ATOM     27  C   UNL A   1      33.809  33.945  28.121  1.00  0.00     0.338 C 
ATOM     28  O   UNL A   1      33.797  35.168  28.052  1.00  0.00    -0.246 OA
BRANCH  27  29
ATOM     29  C   UNL A   1      35.009  33.181  28.502  1.00  0.00     0.060 A 
ATOM     30  C   UNL A   1      34.825  31.934  29.111  1.00  0.00     0.016 A 
ATOM     31  C   UNL A   1      36.293  33.705  28.327  1.00  0.00     0.016 A 
ATOM     32  C   UNL A   1      35.924  31.217  29.575  1.00  0.00     0.010 A 
ATOM     33  C   UNL A   1      37.395  32.988  28.806  1.00  0.00     0.010 A 
ATOM     34  C   UNL A   1      37.214  31.753  29.453  1.00  0.00    -0.014 A 
BRANCH  34  35
ATOM     35  C   UNL A   1      38.352  31.064  30.108  1.00  0.00     0.031 A 
ATOM     36  C   UNL A   1      38.705  31.415  31.529  1.00  0.00     0.074 A 
ATOM     37  C   UNL A   1      39.026  30.096  29.461  1.00  0.00     0.049 A 
ATOM     38  N   UNL A   1      39.654  30.933  32.288  1.00  0.00    -0.248 NA
ATOM     39  C   UNL A   1      37.875  32.441  32.179  1.00  0.00     0.031 C 
ATOM     40  C   UNL A   1      38.738  29.635  28.103  1.00  0.00     0.029 A 
ATOM     41  N   UNL A   1      40.082  29.317  29.863  1.00  0.00    -0.354 N 
ATOM     42  C   UNL A   1      39.531  31.586  33.509  1.00  0.00     0.074 A 
ATOM     43  C   UNL A   1      38.441  32.528  33.374  1.00  0.00     0.031 C 
ATOM     44  C   UNL A   1      39.587  28.642  27.791  1.00  0.00     0.029 A 
ATOM     45  C   UNL A   1      40.502  28.420  28.909  1.00  0.00     0.049 A 
ATOM     46  H   UNL A   1      40.500  29.394  30.752  1.00  0.00     0.167 HD
ATOM     47  C   UNL A   1      40.251  31.402  34.641  1.00  0.00     0.034 A 
ATOM     48  C   UNL A   1      41.514  27.530  28.932  1.00  0.00     0.034 A 
ATOM     49  C   UNL A   1      41.337  30.465  34.762  1.00  0.00     0.049 A 
ATOM     50  C   UNL A   1      42.368  27.417  30.169  1.00  0.00     0.074 A 
ATOM     51  C   UNL A   1      42.132  30.207  35.866  1.00  0.00     0.029 A 
ATOM     52  N   UNL A   1      41.787  29.634  33.746  1.00  0.00    -0.354 N 
ATOM     53  N   UNL A   1      42.257  28.063  31.306  1.00  0.00    -0.248 NA
ATOM     54  C   UNL A   1      43.481  26.458  30.128  1.00  0.00     0.031 C 
ATOM     55  C   UNL A   1      43.099  29.268  35.499  1.00  0.00     0.029 A 
ATOM     56  C   UNL A   1      42.865  28.885  34.189  1.00  0.00     0.049 A 
ATOM     57  H   UNL A   1      41.397  29.583  32.843  1.00  0.00     0.167 HD
ATOM     58  C   UNL A   1      43.269  27.568  32.124  1.00  0.00     0.074 A 
ATOM     59  C   UNL A   1      43.982  26.573  31.352  1.00  0.00     0.031 C 
ATOM     60  C   UNL A   1      43.573  27.903  33.404  1.00  0.00     0.034 A 
BRANCH  47  61
ATOM     61  C   UNL A   1      39.904  32.254  35.834  1.00  0.00     0.023 A 
ATOM     62  C   UNL A   1      38.904  31.872  36.743  1.00  0.00     0.031 A 
ATOM     63  C   UNL A   1      40.604  33.448  36.080  1.00  0.00     0.131 A 
ATOM     64  C   UNL A   1      38.604  32.698  37.837  1.00  0.00     0.055 A 
ATOM     65  C   UNL A   1      40.343  34.234  37.204  1.00  0.00     0.041 A 
ATOM     66  F   UNL A   1      41.557  33.868  35.232  1.00  0.00    -0.206 F 
ATOM     67  C   UNL A   1      39.333  33.863  38.087  1.00  0.00     0.022 A 
BRANCH  64  68
ATOM     68  S   UNL A   1      37.193  32.267  38.891  1.00  0.00     0.124 S 
ATOM     69  O   UNL A   1      36.077  32.823  38.129  1.00  0.00    -0.237 OA
ATOM     70  O   UNL A   1      37.268  30.812  38.943  1.00  0.00    -0.237 OA
ATOM     71  O   UNL A   1      37.483  32.951  40.149  1.00  0.00    -0.744 OA
ENDBRANCH  64  68
ENDBRANCH  47  61
BRANCH  48  72
ATOM     72  C   UNL A   1      41.788  26.684  27.737  1.00  0.00     0.023 A 
ATOM     73  C   UNL A   1      41.438  25.326  27.717  1.00  0.00     0.031 A 
ATOM     74  C   UNL A   1      42.407  27.227  26.596  1.00  0.00     0.131 A 
ATOM     75  C   UNL A   1      41.726  24.548  26.584  1.00  0.00     0.055 A 
ATOM     76  C   UNL A   1      42.658  26.459  25.459  1.00  0.00     0.041 A 
ATOM     77  F   UNL A   1      42.758  28.523  26.566  1.00  0.00    -0.206 F 
ATOM     78  C   UNL A   1      42.322  25.108  25.451  1.00  0.00     0.022 A 
BRANCH  75  79
ATOM     79  S   UNL A   1      41.340  22.777  26.623  1.00  0.00     0.124 S 
ATOM     80  O   UNL A   1      41.883  22.383  27.918  1.00  0.00    -0.237 OA
ATOM     81  O   UNL A   1      39.885  22.780  26.509  1.00  0.00    -0.237 OA
ATOM     82  O   UNL A   1      42.050  22.249  25.460  1.00  0.00    -0.744 OA
ENDBRANCH  75  79
ENDBRANCH  48  72
BRANCH  60  83
ATOM     83  C   UNL A   1      44.704  27.167  34.071  1.00  0.00     0.023 A 
ATOM     84  C   UNL A   1      44.498  25.947  34.737  1.00  0.00     0.031 A 
ATOM     85  C   UNL A   1      46.018  27.663  33.978  1.00  0.00     0.131 A 
ATOM     86  C   UNL A   1      45.590  25.269  35.301  1.00  0.00     0.055 A 
ATOM     87  C   UNL A   1      47.105  26.962  34.503  1.00  0.00     0.041 A 
ATOM     88  F   UNL A   1      46.267  28.822  33.348  1.00  0.00    -0.206 F 
ATOM     89  C   UNL A   1      46.893  25.760  35.171  1.00  0.00     0.022 A 
BRANCH  86  90
ATOM     90  S   UNL A   1      45.286  23.740  36.226  1.00  0.00     0.124 S 
ATOM     91  O   UNL A   1      44.950  24.251  37.552  1.00  0.00    -0.237 OA
ATOM     92  O   UNL A   1      44.188  23.132  35.482  1.00  0.00    -0.237 OA
ATOM     93  O   UNL A   1      46.559  23.027  36.139  1.00  0.00    -0.744 OA
ENDBRANCH  86  90
ENDBRANCH  60  83
ENDBRANCH  34  35
ENDBRANCH  27  29
ENDBRANCH  26  27
ENDBRANCH  25  26
ENDBRANCH   1  25
TORSDOF 18
ENDMDL
MODEL 3
REMARK VINA RESULT:      -9.5      5.486     11.428
REMARK SMILES Cc1cc2c(c(C)c1Cl)C=C(C(=O)OCCOCCOC(=O)c1ccc(-c3c4nc(c(-c5cc(S(=O)(=O)[O-])ccc5F)c5ccc([nH]5)c(-c5cc(S(=O)(=O)[O-])ccc5F)c5nc(c(-c6cc(S(=O)(=O)[O-])ccc6F)c6ccc3[nH]6)C=C5)C=C4)cc1)[C@@H](C(F)(F)F)O2
REMARK SMILES IDX 18 1 17 2 16 3 15 4 14 5 12 6 13 7 11 8 1 9 2 10 3 11 8 12
REMARK SMILES IDX 4 13 6 14 9 15 5 16 91 17 7 18 10 19 86 20 87 21 88 22 89 23
REMARK SMILES IDX 90 24 19 25 20 26 21 27 22 28 23 29 24 30 85 31 25 32 84 33
REMARK SMILES IDX 26 34 27 35 28 36 78 37 29 38 83 39 77 40 79 41 30 42 82 43
REMARK SMILES IDX 76 44 75 45 31 47 63 48 43 49 62 50 44 51 47 52 61 53 80 54
REMARK SMILES IDX 45 55 46 56 60 58 81 59 48 60 32 61 33 62 41 63 34 64 40 65
REMARK SMILES IDX 42 66 39 67 35 68 36 69 37 70 38 71 64 72 65 73 73 74 66 75
REMARK SMILES IDX 72 76 74 77 71 78 67 79 68 80 69 81 70 82 49 83 50 84 58 85
REMARK SMILES IDX 51 86 57 87 59 88 56 89 52 90 53 91 54 92 55 93
REMARK H PARENT 79 46 47 57
REMARK Flexibility Score: inf
ROOT
ATOM      1  C   UNL A   1      36.174  19.918  25.080  1.00  0.00     0.202 C 
ENDROOT
BRANCH   1   2
ATOM      2  O   UNL A   1      34.928  20.563  24.816  1.00  0.00    -0.374 OA
BRANCH   2   3
ATOM      3  C   UNL A   1      33.779  19.741  24.618  1.00  0.00     0.202 C 
BRANCH   3   4
ATOM      4  C   UNL A   1      32.526  20.424  24.058  1.00  0.00     0.261 C 
BRANCH   4   5
ATOM      5  O   UNL A   1      32.295  21.699  24.677  1.00  0.00    -0.460 OA
BRANCH   5   6
ATOM      6  C   UNL A   1      32.511  22.762  23.870  1.00  0.00     0.338 C 
ATOM      7  O   UNL A   1      32.632  22.750  22.653  1.00  0.00    -0.246 OA
BRANCH   6   8
ATOM      8  C   UNL A   1      32.449  24.009  24.654  1.00  0.00     0.087 C 
ATOM      9  C   UNL A   1      32.331  30.222  26.357  1.00  0.00     0.046 C 
ATOM     10  C   UNL A   1      31.968  28.859  25.831  1.00  0.00    -0.028 A 
ATOM     11  C   UNL A   1      32.628  27.758  26.399  1.00  0.00     0.052 A 
ATOM     12  C   UNL A   1      31.074  28.640  24.765  1.00  0.00     0.047 A 
ATOM     13  C   UNL A   1      32.461  26.477  25.881  1.00  0.00     0.128 A 
ATOM     14  C   UNL A   1      30.856  27.337  24.257  1.00  0.00    -0.021 A 
ATOM     15  Cl  UNL A   1      30.263  30.000  24.048  1.00  0.00    -0.084 Cl
ATOM     16  C   UNL A   1      31.612  26.264  24.791  1.00  0.00     0.022 A 
ATOM     17  O   UNL A   1      33.171  25.492  26.509  1.00  0.00    -0.475 OA
ATOM     18  C   UNL A   1      29.865  27.067  23.148  1.00  0.00     0.047 C 
ATOM     19  C   UNL A   1      31.610  24.939  24.182  1.00  0.00     0.027 C 
ATOM     20  C   UNL A   1      33.316  24.198  25.863  1.00  0.00     0.316 C 
BRANCH  20  21
ATOM     21  C   UNL A   1      34.806  23.967  25.570  1.00  0.00     0.430 C 
ATOM     22  F   UNL A   1      35.520  25.106  25.745  1.00  0.00    -0.167 F 
ATOM     23  F   UNL A   1      35.343  23.038  26.392  1.00  0.00    -0.167 F 
ATOM     24  F   UNL A   1      35.008  23.553  24.298  1.00  0.00    -0.167 F 
ENDBRANCH  20  21
ENDBRANCH   6   8
ENDBRANCH   5   6
ENDBRANCH   4   5
ENDBRANCH   3   4
ENDBRANCH   2   3
ENDBRANCH   1   2
BRANCH   1  25
ATOM     25  C   UNL A   1      37.458  20.625  24.627  1.00  0.00     0.261 C 
BRANCH  25  26
ATOM     26  O   UNL A   1      37.874  21.658  25.539  1.00  0.00    -0.460 OA
BRANCH  26  27
ATOM     27  C   UNL A   1      39.076  21.445  26.126  1.00  0.00     0.338 C 
ATOM     28  O   UNL A   1      39.770  20.439  26.036  1.00  0.00    -0.246 OA
BRANCH  27  29
ATOM     29  C   UNL A   1      39.552  22.686  26.759  1.00  0.00     0.060 A 
ATOM     30  C   UNL A   1      38.903  23.881  26.426  1.00  0.00     0.016 A 
ATOM     31  C   UNL A   1      40.658  22.691  27.613  1.00  0.00     0.016 A 
ATOM     32  C   UNL A   1      39.376  25.093  26.923  1.00  0.00     0.010 A 
ATOM     33  C   UNL A   1      41.138  23.912  28.102  1.00  0.00     0.010 A 
ATOM     34  C   UNL A   1      40.514  25.119  27.740  1.00  0.00    -0.014 A 
BRANCH  34  35
ATOM     35  C   UNL A   1      41.110  26.424  28.116  1.00  0.00     0.031 A 
ATOM     36  C   UNL A   1      42.540  26.713  27.747  1.00  0.00     0.074 A 
ATOM     37  C   UNL A   1      40.364  27.362  28.728  1.00  0.00     0.049 A 
ATOM     38  N   UNL A   1      43.250  27.787  27.973  1.00  0.00    -0.248 NA
ATOM     39  C   UNL A   1      43.261  25.654  27.024  1.00  0.00     0.031 C 
ATOM     40  C   UNL A   1      38.953  27.213  29.085  1.00  0.00     0.029 A 
ATOM     41  N   UNL A   1      40.684  28.629  29.146  1.00  0.00    -0.354 N 
ATOM     42  C   UNL A   1      44.499  27.540  27.412  1.00  0.00     0.074 A 
ATOM     43  C   UNL A   1      44.460  26.199  26.872  1.00  0.00     0.031 C 
ATOM     44  C   UNL A   1      38.526  28.352  29.654  1.00  0.00     0.029 A 
ATOM     45  C   UNL A   1      39.637  29.298  29.736  1.00  0.00     0.049 A 
ATOM     46  H   UNL A   1      41.580  29.023  29.033  1.00  0.00     0.167 HD
ATOM     47  C   UNL A   1      45.571  28.365  27.341  1.00  0.00     0.034 A 
ATOM     48  C   UNL A   1      39.585  30.526  30.288  1.00  0.00     0.034 A 
ATOM     49  C   UNL A   1      45.600  29.697  27.887  1.00  0.00     0.049 A 
ATOM     50  C   UNL A   1      40.823  31.387  30.288  1.00  0.00     0.074 A 
ATOM     51  C   UNL A   1      46.640  30.611  27.870  1.00  0.00     0.029 A 
ATOM     52  N   UNL A   1      44.546  30.307  28.553  1.00  0.00    -0.354 N 
ATOM     53  N   UNL A   1      42.004  31.128  29.779  1.00  0.00    -0.248 NA
ATOM     54  C   UNL A   1      40.722  32.703  30.935  1.00  0.00     0.031 C 
ATOM     55  C   UNL A   1      46.237  31.746  28.578  1.00  0.00     0.029 A 
ATOM     56  C   UNL A   1      44.921  31.572  28.975  1.00  0.00     0.049 A 
ATOM     57  H   UNL A   1      43.662  29.901  28.702  1.00  0.00     0.167 HD
ATOM     58  C   UNL A   1      42.779  32.259  30.022  1.00  0.00     0.074 A 
ATOM     59  C   UNL A   1      41.933  33.202  30.723  1.00  0.00     0.031 C 
ATOM     60  C   UNL A   1      44.071  32.497  29.684  1.00  0.00     0.034 A 
BRANCH  47  61
ATOM     61  C   UNL A   1      46.813  27.839  26.671  1.00  0.00     0.023 A 
ATOM     62  C   UNL A   1      47.018  27.981  25.289  1.00  0.00     0.031 A 
ATOM     63  C   UNL A   1      47.816  27.212  27.430  1.00  0.00     0.131 A 
ATOM     64  C   UNL A   1      48.184  27.469  24.700  1.00  0.00     0.055 A 
ATOM     65  C   UNL A   1      49.002  26.759  26.848  1.00  0.00     0.041 A 
ATOM     66  F   UNL A   1      47.662  27.034  28.752  1.00  0.00    -0.206 F 
ATOM     67  C   UNL A   1      49.188  26.881  25.474  1.00  0.00     0.022 A 
BRANCH  64  68
ATOM     68  S   UNL A   1      48.338  27.512  22.894  1.00  0.00     0.124 S 
ATOM     69  O   UNL A   1      48.316  26.089  22.563  1.00  0.00    -0.237 OA
ATOM     70  O   UNL A   1      47.164  28.278  22.494  1.00  0.00    -0.237 OA
ATOM     71  O   UNL A   1      49.621  28.177  22.676  1.00  0.00    -0.744 OA
ENDBRANCH  64  68
ENDBRANCH  47  61
BRANCH  48  72
ATOM     72  C   UNL A   1      38.318  31.013  30.902  1.00  0.00     0.023 A 
ATOM     73  C   UNL A   1      37.348  31.672  30.133  1.00  0.00     0.031 A 
ATOM     74  C   UNL A   1      38.063  30.824  32.273  1.00  0.00     0.131 A 
ATOM     75  C   UNL A   1      36.172  32.137  30.743  1.00  0.00     0.055 A 
ATOM     76  C   UNL A   1      36.876  31.254  32.867  1.00  0.00     0.041 A 
ATOM     77  F   UNL A   1      38.960  30.195  33.049  1.00  0.00    -0.206 F 
ATOM     78  C   UNL A   1      35.924  31.922  32.101  1.00  0.00     0.022 A 
BRANCH  75  79
ATOM     79  S   UNL A   1      34.977  33.062  29.740  1.00  0.00     0.124 S 
ATOM     80  O   UNL A   1      34.053  33.551  30.757  1.00  0.00    -0.237 OA
ATOM     81  O   UNL A   1      35.824  34.065  29.105  1.00  0.00    -0.237 OA
ATOM     82  O   UNL A   1      34.434  32.048  28.838  1.00  0.00    -0.744 OA
ENDBRANCH  75  79
ENDBRANCH  48  72
BRANCH  60  83
ATOM     83  C   UNL A   1      44.650  33.842  30.033  1.00  0.00     0.023 A 
ATOM     84  C   UNL A   1      44.511  34.949  29.180  1.00  0.00     0.031 A 
ATOM     85  C   UNL A   1      45.291  34.031  31.272  1.00  0.00     0.131 A 
ATOM     86  C   UNL A   1      45.023  36.197  29.569  1.00  0.00     0.055 A 
ATOM     87  C   UNL A   1      45.760  35.284  31.672  1.00  0.00     0.041 A 
ATOM     88  F   UNL A   1      45.445  33.005  32.124  1.00  0.00    -0.206 F 
ATOM     89  C   UNL A   1      45.628  36.374  30.817  1.00  0.00     0.022 A 
BRANCH  86  90
ATOM     90  S   UNL A   1      44.902  37.589  28.414  1.00  0.00     0.124 S 
ATOM     91  O   UNL A   1      46.159  37.481  27.679  1.00  0.00    -0.237 OA
ATOM     92  O   UNL A   1      43.695  37.273  27.660  1.00  0.00    -0.237 OA
ATOM     93  O   UNL A   1      44.795  38.754  29.291  1.00  0.00    -0.744 OA
ENDBRANCH  86  90
ENDBRANCH  60  83
ENDBRANCH  34  35
ENDBRANCH  27  29
ENDBRANCH  26  27
ENDBRANCH  25  26
ENDBRANCH   1  25
TORSDOF 18
ENDMDL
