MODEL 1
REMARK VINA RESULT:     -13.2      0.000      0.000
REMARK SMILES Cc1ccc(NC(=O)[C@H]2CC=CC[C@H]2C(=O)OCCOCCOC(=O)c2ccc(-c3c4nc(c(-c5cc(S(=O)(=O)[O-])ccc5F)c5ccc([nH]5)c(-c5cc(S(=O)(=O)[O-])ccc5F)c5nc(c(-c6cc(S(=O)(=O)[O-])ccc6F)c6ccc3[nH]6)C=C5)C=C4)cc2)cc1F
REMARK SMILES IDX 21 1 20 2 19 3 18 4 17 5 15 6 16 7 14 8 9 9 10 10 11 11
REMARK SMILES IDX 13 12 12 13 7 14 6 15 8 17 5 18 1 19 2 20 3 21 90 22 4 23
REMARK SMILES IDX 89 24 91 25 22 26 23 27 24 28 25 29 26 30 27 31 88 32 28 33
REMARK SMILES IDX 87 34 29 35 30 36 31 37 81 38 32 39 86 40 80 41 82 42 33 43
REMARK SMILES IDX 85 44 79 45 78 46 34 48 66 49 46 50 65 51 47 52 50 53 64 54
REMARK SMILES IDX 83 55 48 56 49 57 63 59 84 60 51 61 35 62 36 63 44 64 37 65
REMARK SMILES IDX 43 66 45 67 42 68 38 69 39 70 40 71 41 72 67 73 68 74 76 75
REMARK SMILES IDX 69 76 75 77 77 78 74 79 70 80 71 81 72 82 73 83 52 84 53 85
REMARK SMILES IDX 61 86 54 87 60 88 62 89 59 90 55 91 56 92 57 93 58 94
REMARK H PARENT 6 16 82 47 50 58
REMARK Flexibility Score: inf
ROOT
ATOM      1  C   UNL A   1      39.149  21.845  26.019  1.00  0.00     0.202 C 
ENDROOT
BRANCH   1   2
ATOM      2  O   UNL A   1      37.941  21.349  25.012  1.00  0.00    -0.374 OA
BRANCH   2   3
ATOM      3  C   UNL A   1      36.768  22.081  24.556  1.00  0.00     0.202 C 
BRANCH   3   4
ATOM      4  C   UNL A   1      35.689  22.611  25.506  1.00  0.00     0.261 C 
BRANCH   4   5
ATOM      5  O   UNL A   1      35.606  24.042  25.599  1.00  0.00    -0.463 OA
BRANCH   5   6
ATOM      6  C   UNL A   1      34.384  24.595  25.413  1.00  0.00     0.310 C 
ATOM      7  O   UNL A   1      33.564  24.754  26.309  1.00  0.00    -0.252 OA
BRANCH   6   8
ATOM      8  C   UNL A   1      34.063  24.906  23.947  1.00  0.00     0.116 C 
ATOM      9  C   UNL A   1      32.956  24.149  23.185  1.00  0.00     0.097 C 
ATOM     10  C   UNL A   1      32.717  24.666  21.756  1.00  0.00     0.041 C 
ATOM     11  C   UNL A   1      33.076  26.097  21.525  1.00  0.00    -0.030 C 
ATOM     12  C   UNL A   1      33.804  26.413  23.882  1.00  0.00     0.043 C 
ATOM     13  C   UNL A   1      33.556  26.892  22.488  1.00  0.00    -0.030 C 
BRANCH   9  14
ATOM     14  C   UNL A   1      31.768  23.916  24.067  1.00  0.00     0.228 C 
ATOM     15  N   UNL A   1      31.648  22.675  24.649  1.00  0.00    -0.326 N 
ATOM     16  H   UNL A   1      31.096  22.671  25.464  1.00  0.00     0.169 HD
ATOM     17  O   UNL A   1      30.984  24.819  24.350  1.00  0.00    -0.274 OA
BRANCH  15  18
ATOM     18  C   UNL A   1      32.166  21.397  24.302  1.00  0.00     0.044 A 
ATOM     19  C   UNL A   1      33.912  16.755  23.144  1.00  0.00     0.047 C 
ATOM     20  C   UNL A   1      33.280  18.036  23.597  1.00  0.00    -0.015 A 
ATOM     21  C   UNL A   1      33.555  18.694  25.223  1.00  0.00     0.008 A 
ATOM     22  C   UNL A   1      32.531  19.013  22.349  1.00  0.00     0.128 A 
ATOM     23  C   UNL A   1      32.944  20.346  25.624  1.00  0.00     0.026 A 
ATOM     24  C   UNL A   1      31.922  20.637  22.676  1.00  0.00     0.065 A 
ATOM     25  F   UNL A   1      32.401  18.521  21.109  1.00  0.00    -0.207 F 
ENDBRANCH  15  18
ENDBRANCH   9  14
ENDBRANCH   6   8
ENDBRANCH   5   6
ENDBRANCH   4   5
ENDBRANCH   3   4
ENDBRANCH   2   3
ENDBRANCH   1   2
BRANCH   1  26
ATOM     26  C   UNL A   1      41.248  21.263  26.183  1.00  0.00     0.261 C 
BRANCH  26  27
ATOM     27  O   UNL A   1      42.535  22.313  26.496  1.00  0.00    -0.460 OA
BRANCH  27  28
ATOM     28  C   UNL A   1      42.527  23.611  26.061  1.00  0.00     0.338 C 
ATOM     29  O   UNL A   1      42.949  23.973  24.980  1.00  0.00    -0.246 OA
BRANCH  28  30
ATOM     30  C   UNL A   1      41.732  24.541  26.960  1.00  0.00     0.060 A 
ATOM     31  C   UNL A   1      41.987  25.888  26.663  1.00  0.00     0.016 A 
ATOM     32  C   UNL A   1      41.831  24.096  28.261  1.00  0.00     0.016 A 
ATOM     33  C   UNL A   1      43.098  26.395  27.270  1.00  0.00     0.010 A 
ATOM     34  C   UNL A   1      42.928  24.572  28.899  1.00  0.00     0.010 A 
ATOM     35  C   UNL A   1      43.645  25.599  28.264  1.00  0.00    -0.014 A 
BRANCH  35  36
ATOM     36  C   UNL A   1      44.939  25.863  28.804  1.00  0.00     0.031 A 
ATOM     37  C   UNL A   1      46.005  25.352  27.924  1.00  0.00     0.074 A 
ATOM     38  C   UNL A   1      44.922  26.747  29.831  1.00  0.00     0.049 A 
ATOM     39  N   UNL A   1      47.199  25.046  28.286  1.00  0.00    -0.248 NA
ATOM     40  C   UNL A   1      45.722  24.924  26.528  1.00  0.00     0.031 C 
ATOM     41  C   UNL A   1      45.849  27.838  30.076  1.00  0.00     0.029 A 
ATOM     42  N   UNL A   1      43.977  26.941  30.847  1.00  0.00    -0.354 N 
ATOM     43  C   UNL A   1      47.889  24.965  27.089  1.00  0.00     0.074 A 
ATOM     44  C   UNL A   1      46.927  24.533  26.119  1.00  0.00     0.031 C 
ATOM     45  C   UNL A   1      45.598  28.372  31.288  1.00  0.00     0.029 A 
ATOM     46  C   UNL A   1      44.611  27.533  31.946  1.00  0.00     0.049 A 
ATOM     47  H   UNL A   1      43.024  26.701  30.797  1.00  0.00     0.167 HD
ATOM     48  C   UNL A   1      49.010  25.728  26.946  1.00  0.00     0.034 A 
ATOM     49  C   UNL A   1      44.850  26.909  33.146  1.00  0.00     0.034 A 
ATOM     50  C   UNL A   1      49.293  26.406  28.222  1.00  0.00     0.049 A 
ATOM     51  C   UNL A   1      46.310  26.538  33.287  1.00  0.00     0.074 A 
ATOM     52  C   UNL A   1      49.050  27.700  28.652  1.00  0.00     0.029 A 
ATOM     53  N   UNL A   1      49.473  25.647  29.378  1.00  0.00    -0.354 N 
ATOM     54  N   UNL A   1      47.141  26.482  32.286  1.00  0.00    -0.248 NA
ATOM     55  C   UNL A   1      46.931  26.190  34.558  1.00  0.00     0.031 C 
ATOM     56  C   UNL A   1      49.048  27.700  30.075  1.00  0.00     0.029 A 
ATOM     57  C   UNL A   1      49.279  26.409  30.521  1.00  0.00     0.049 A 
ATOM     58  H   UNL A   1      49.708  24.690  29.383  1.00  0.00     0.167 HD
ATOM     59  C   UNL A   1      48.361  26.060  32.722  1.00  0.00     0.074 A 
ATOM     60  C   UNL A   1      48.193  25.955  34.162  1.00  0.00     0.031 C 
ATOM     61  C   UNL A   1      49.390  25.809  31.858  1.00  0.00     0.034 A 
BRANCH  48  62
ATOM     62  C   UNL A   1      49.591  26.149  25.600  1.00  0.00     0.023 A 
ATOM     63  C   UNL A   1      48.850  26.651  24.497  1.00  0.00     0.031 A 
ATOM     64  C   UNL A   1      50.982  26.068  25.387  1.00  0.00     0.131 A 
ATOM     65  C   UNL A   1      49.476  27.070  23.304  1.00  0.00     0.055 A 
ATOM     66  C   UNL A   1      51.602  26.466  24.197  1.00  0.00     0.041 A 
ATOM     67  F   UNL A   1      51.812  25.610  26.335  1.00  0.00    -0.206 F 
ATOM     68  C   UNL A   1      50.854  26.976  23.149  1.00  0.00     0.022 A 
BRANCH  65  69
ATOM     69  S   UNL A   1      48.532  27.779  21.917  1.00  0.00     0.124 S 
ATOM     70  O   UNL A   1      47.296  28.211  22.568  1.00  0.00    -0.237 OA
ATOM     71  O   UNL A   1      49.404  28.861  21.467  1.00  0.00    -0.237 OA
ATOM     72  O   UNL A   1      48.379  26.667  20.984  1.00  0.00    -0.744 OA
ENDBRANCH  65  69
ENDBRANCH  48  62
BRANCH  49  73
ATOM     73  C   UNL A   1      43.766  26.011  33.612  1.00  0.00     0.023 A 
ATOM     74  C   UNL A   1      42.856  26.493  34.561  1.00  0.00     0.031 A 
ATOM     75  C   UNL A   1      44.021  24.630  33.525  1.00  0.00     0.131 A 
ATOM     76  C   UNL A   1      42.484  25.641  35.599  1.00  0.00     0.055 A 
ATOM     77  C   UNL A   1      43.631  23.782  34.548  1.00  0.00     0.041 A 
ATOM     78  F   UNL A   1      44.804  24.140  32.548  1.00  0.00    -0.206 F 
ATOM     79  C   UNL A   1      42.881  24.299  35.604  1.00  0.00     0.022 A 
BRANCH  76  80
ATOM     80  S   UNL A   1      41.595  26.301  37.038  1.00  0.00     0.124 S 
ATOM     81  O   UNL A   1      41.320  27.677  36.629  1.00  0.00    -0.237 OA
ATOM     82  O   UNL A   1      40.420  25.444  37.135  1.00  0.00    -0.237 OA
ATOM     83  O   UNL A   1      42.569  26.165  38.115  1.00  0.00    -0.744 OA
ENDBRANCH  76  80
ENDBRANCH  49  73
BRANCH  61  84
ATOM     84  C   UNL A   1      50.655  25.071  32.231  1.00  0.00     0.023 A 
ATOM     85  C   UNL A   1      50.574  23.689  32.513  1.00  0.00     0.031 A 
ATOM     86  C   UNL A   1      51.921  25.653  32.420  1.00  0.00     0.131 A 
ATOM     87  C   UNL A   1      51.690  22.957  32.921  1.00  0.00     0.055 A 
ATOM     88  C   UNL A   1      53.062  24.895  32.694  1.00  0.00     0.041 A 
ATOM     89  F   UNL A   1      52.112  26.978  32.418  1.00  0.00    -0.206 F 
ATOM     90  C   UNL A   1      52.950  23.540  32.953  1.00  0.00     0.022 A 
BRANCH  87  91
ATOM     91  S   UNL A   1      51.510  21.269  33.546  1.00  0.00     0.124 S 
ATOM     92  O   UNL A   1      51.620  21.475  34.988  1.00  0.00    -0.237 OA
ATOM     93  O   UNL A   1      50.177  20.910  33.065  1.00  0.00    -0.237 OA
ATOM     94  O   UNL A   1      52.609  20.541  32.924  1.00  0.00    -0.744 OA
ENDBRANCH  87  91
ENDBRANCH  61  84
ENDBRANCH  35  36
ENDBRANCH  28  30
ENDBRANCH  27  28
ENDBRANCH  26  27
ENDBRANCH   1  26
TORSDOF 19
ENDMDL
MODEL 2
REMARK VINA RESULT:     -12.9      1.699      3.173
REMARK SMILES Cc1ccc(NC(=O)[C@H]2CC=CC[C@H]2C(=O)OCCOCCOC(=O)c2ccc(-c3c4nc(c(-c5cc(S(=O)(=O)[O-])ccc5F)c5ccc([nH]5)c(-c5cc(S(=O)(=O)[O-])ccc5F)c5nc(c(-c6cc(S(=O)(=O)[O-])ccc6F)c6ccc3[nH]6)C=C5)C=C4)cc2)cc1F
REMARK SMILES IDX 21 1 20 2 19 3 18 4 17 5 15 6 16 7 14 8 9 9 10 10 11 11
REMARK SMILES IDX 13 12 12 13 7 14 6 15 8 17 5 18 1 19 2 20 3 21 90 22 4 23
REMARK SMILES IDX 89 24 91 25 22 26 23 27 24 28 25 29 26 30 27 31 88 32 28 33
REMARK SMILES IDX 87 34 29 35 30 36 31 37 81 38 32 39 86 40 80 41 82 42 33 43
REMARK SMILES IDX 85 44 79 45 78 46 34 48 66 49 46 50 65 51 47 52 50 53 64 54
REMARK SMILES IDX 83 55 48 56 49 57 63 59 84 60 51 61 35 62 36 63 44 64 37 65
REMARK SMILES IDX 43 66 45 67 42 68 38 69 39 70 40 71 41 72 67 73 68 74 76 75
REMARK SMILES IDX 69 76 75 77 77 78 74 79 70 80 71 81 72 82 73 83 52 84 53 85
REMARK SMILES IDX 61 86 54 87 60 88 62 89 59 90 55 91 56 92 57 93 58 94
REMARK H PARENT 6 16 82 47 50 58
REMARK Flexibility Score: inf
ROOT
ATOM      1  C   UNL A   1      39.162  21.781  26.153  1.00  0.00     0.202 C 
ENDROOT
BRANCH   1   2
ATOM      2  O   UNL A   1      37.879  21.906  25.123  1.00  0.00    -0.374 OA
BRANCH   2   3
ATOM      3  C   UNL A   1      36.936  23.002  24.962  1.00  0.00     0.202 C 
BRANCH   3   4
ATOM      4  C   UNL A   1      36.118  23.582  26.121  1.00  0.00     0.261 C 
BRANCH   4   5
ATOM      5  O   UNL A   1      34.878  22.909  26.391  1.00  0.00    -0.463 OA
BRANCH   5   6
ATOM      6  C   UNL A   1      33.763  23.436  25.831  1.00  0.00     0.310 C 
ATOM      7  O   UNL A   1      33.339  24.557  26.082  1.00  0.00    -0.252 OA
BRANCH   6   8
ATOM      8  C   UNL A   1      33.001  22.456  24.931  1.00  0.00     0.116 C 
ATOM      9  C   UNL A   1      32.542  22.853  23.513  1.00  0.00     0.097 C 
ATOM     10  C   UNL A   1      31.879  21.707  22.730  1.00  0.00     0.041 C 
ATOM     11  C   UNL A   1      32.299  20.331  23.129  1.00  0.00    -0.030 C 
ATOM     12  C   UNL A   1      33.857  21.189  24.868  1.00  0.00     0.043 C 
ATOM     13  C   UNL A   1      33.202  20.095  24.087  1.00  0.00    -0.030 C 
BRANCH   9  14
ATOM     14  C   UNL A   1      33.590  23.674  22.827  1.00  0.00     0.228 C 
ATOM     15  N   UNL A   1      33.378  25.031  22.752  1.00  0.00    -0.326 N 
ATOM     16  H   UNL A   1      34.203  25.554  22.633  1.00  0.00     0.169 HD
ATOM     17  O   UNL A   1      34.645  23.181  22.435  1.00  0.00    -0.274 OA
BRANCH  15  18
ATOM     18  C   UNL A   1      32.201  25.825  22.812  1.00  0.00     0.044 A 
ATOM     19  C   UNL A   1      28.008  28.694  23.176  1.00  0.00     0.047 C 
ATOM     20  C   UNL A   1      29.256  27.868  23.251  1.00  0.00    -0.015 A 
ATOM     21  C   UNL A   1      29.253  26.224  23.924  1.00  0.00     0.008 A 
ATOM     22  C   UNL A   1      30.636  28.465  22.351  1.00  0.00     0.128 A 
ATOM     23  C   UNL A   1      30.740  25.207  23.781  1.00  0.00     0.026 A 
ATOM     24  C   UNL A   1      32.113  27.516  22.169  1.00  0.00     0.065 A 
ATOM     25  F   UNL A   1      30.587  29.681  21.790  1.00  0.00    -0.207 F 
ENDBRANCH  15  18
ENDBRANCH   9  14
ENDBRANCH   6   8
ENDBRANCH   5   6
ENDBRANCH   4   5
ENDBRANCH   3   4
ENDBRANCH   2   3
ENDBRANCH   1   2
BRANCH   1  26
ATOM     26  C   UNL A   1      41.304  21.546  25.799  1.00  0.00     0.261 C 
BRANCH  26  27
ATOM     27  O   UNL A   1      42.511  22.584  26.368  1.00  0.00    -0.460 OA
BRANCH  27  28
ATOM     28  C   UNL A   1      42.540  23.909  26.028  1.00  0.00     0.338 C 
ATOM     29  O   UNL A   1      42.974  24.336  24.975  1.00  0.00    -0.246 OA
BRANCH  28  30
ATOM     30  C   UNL A   1      41.770  24.794  26.991  1.00  0.00     0.060 A 
ATOM     31  C   UNL A   1      42.056  26.152  26.784  1.00  0.00     0.016 A 
ATOM     32  C   UNL A   1      41.863  24.260  28.259  1.00  0.00     0.016 A 
ATOM     33  C   UNL A   1      43.180  26.592  27.418  1.00  0.00     0.010 A 
ATOM     34  C   UNL A   1      42.973  24.667  28.922  1.00  0.00     0.010 A 
ATOM     35  C   UNL A   1      43.712  25.718  28.354  1.00  0.00    -0.014 A 
BRANCH  35  36
ATOM     36  C   UNL A   1      45.014  25.915  28.903  1.00  0.00     0.031 A 
ATOM     37  C   UNL A   1      46.062  25.387  28.011  1.00  0.00     0.074 A 
ATOM     38  C   UNL A   1      45.029  26.770  29.954  1.00  0.00     0.049 A 
ATOM     39  N   UNL A   1      47.242  25.024  28.366  1.00  0.00    -0.248 NA
ATOM     40  C   UNL A   1      45.766  25.010  26.603  1.00  0.00     0.031 C 
ATOM     41  C   UNL A   1      45.997  27.816  30.232  1.00  0.00     0.029 A 
ATOM     42  N   UNL A   1      44.089  26.972  30.974  1.00  0.00    -0.354 N 
ATOM     43  C   UNL A   1      47.931  24.949  27.170  1.00  0.00     0.074 A 
ATOM     44  C   UNL A   1      46.956  24.583  26.185  1.00  0.00     0.031 C 
ATOM     45  C   UNL A   1      45.764  28.325  31.458  1.00  0.00     0.029 A 
ATOM     46  C   UNL A   1      44.743  27.507  32.091  1.00  0.00     0.049 A 
ATOM     47  H   UNL A   1      43.128  26.771  30.915  1.00  0.00     0.167 HD
ATOM     48  C   UNL A   1      49.083  25.671  27.050  1.00  0.00     0.034 A 
ATOM     49  C   UNL A   1      44.953  26.841  33.273  1.00  0.00     0.034 A 
ATOM     50  C   UNL A   1      49.388  26.301  28.345  1.00  0.00     0.049 A 
ATOM     51  C   UNL A   1      46.397  26.408  33.406  1.00  0.00     0.074 A 
ATOM     52  C   UNL A   1      49.195  27.591  28.811  1.00  0.00     0.029 A 
ATOM     53  N   UNL A   1      49.534  25.503  29.480  1.00  0.00    -0.354 N 
ATOM     54  N   UNL A   1      47.228  26.347  32.405  1.00  0.00    -0.248 NA
ATOM     55  C   UNL A   1      47.000  26.000  34.668  1.00  0.00     0.031 C 
ATOM     56  C   UNL A   1      49.189  27.551  30.234  1.00  0.00     0.029 A 
ATOM     57  C   UNL A   1      49.367  26.240  30.644  1.00  0.00     0.049 A 
ATOM     58  H   UNL A   1      49.731  24.538  29.458  1.00  0.00     0.167 HD
ATOM     59  C   UNL A   1      48.429  25.865  32.832  1.00  0.00     0.074 A 
ATOM     60  C   UNL A   1      48.252  25.727  34.268  1.00  0.00     0.031 C 
ATOM     61  C   UNL A   1      49.450  25.598  31.963  1.00  0.00     0.034 A 
BRANCH  48  62
ATOM     62  C   UNL A   1      49.683  26.107  25.717  1.00  0.00     0.023 A 
ATOM     63  C   UNL A   1      48.954  26.563  24.588  1.00  0.00     0.031 A 
ATOM     64  C   UNL A   1      51.083  26.089  25.548  1.00  0.00     0.131 A 
ATOM     65  C   UNL A   1      49.596  27.000  23.409  1.00  0.00     0.055 A 
ATOM     66  C   UNL A   1      51.719  26.505  24.372  1.00  0.00     0.041 A 
ATOM     67  F   UNL A   1      51.904  25.679  26.525  1.00  0.00    -0.206 F 
ATOM     68  C   UNL A   1      50.980  26.969  23.297  1.00  0.00     0.022 A 
BRANCH  65  69
ATOM     69  S   UNL A   1      48.662  27.651  21.987  1.00  0.00     0.124 S 
ATOM     70  O   UNL A   1      47.392  28.040  22.598  1.00  0.00    -0.237 OA
ATOM     71  O   UNL A   1      49.501  28.761  21.546  1.00  0.00    -0.237 OA
ATOM     72  O   UNL A   1      48.580  26.521  21.067  1.00  0.00    -0.744 OA
ENDBRANCH  65  69
ENDBRANCH  48  62
BRANCH  49  73
ATOM     73  C   UNL A   1      43.834  25.974  33.711  1.00  0.00     0.023 A 
ATOM     74  C   UNL A   1      42.954  26.455  34.689  1.00  0.00     0.031 A 
ATOM     75  C   UNL A   1      44.023  24.588  33.561  1.00  0.00     0.131 A 
ATOM     76  C   UNL A   1      42.552  25.576  35.694  1.00  0.00     0.055 A 
ATOM     77  C   UNL A   1      43.603  23.714  34.552  1.00  0.00     0.041 A 
ATOM     78  F   UNL A   1      44.774  24.106  32.556  1.00  0.00    -0.206 F 
ATOM     79  C   UNL A   1      42.887  24.219  35.636  1.00  0.00     0.022 A 
BRANCH  76  80
ATOM     80  S   UNL A   1      41.707  26.212  37.169  1.00  0.00     0.124 S 
ATOM     81  O   UNL A   1      40.706  25.177  37.423  1.00  0.00    -0.237 OA
ATOM     82  O   UNL A   1      42.770  26.294  38.163  1.00  0.00    -0.237 OA
ATOM     83  O   UNL A   1      41.167  27.488  36.712  1.00  0.00    -0.744 OA
ENDBRANCH  76  80
ENDBRANCH  49  73
BRANCH  61  84
ATOM     84  C   UNL A   1      50.684  24.801  32.318  1.00  0.00     0.023 A 
ATOM     85  C   UNL A   1      50.521  23.487  32.812  1.00  0.00     0.031 A 
ATOM     86  C   UNL A   1      52.006  25.277  32.291  1.00  0.00     0.131 A 
ATOM     87  C   UNL A   1      51.612  22.715  33.214  1.00  0.00     0.055 A 
ATOM     88  C   UNL A   1      53.105  24.458  32.564  1.00  0.00     0.041 A 
ATOM     89  F   UNL A   1      52.304  26.563  32.070  1.00  0.00    -0.206 F 
ATOM     90  C   UNL A   1      52.911  23.171  33.034  1.00  0.00     0.022 A 
BRANCH  87  91
ATOM     91  S   UNL A   1      51.364  21.158  34.103  1.00  0.00     0.124 S 
ATOM     92  O   UNL A   1      50.468  20.442  33.199  1.00  0.00    -0.237 OA
ATOM     93  O   UNL A   1      52.726  20.634  34.180  1.00  0.00    -0.237 OA
ATOM     94  O   UNL A   1      50.785  21.567  35.377  1.00  0.00    -0.744 OA
ENDBRANCH  87  91
ENDBRANCH  61  84
ENDBRANCH  35  36
ENDBRANCH  28  30
ENDBRANCH  27  28
ENDBRANCH  26  27
ENDBRANCH   1  26
TORSDOF 19
ENDMDL
MODEL 3
REMARK VINA RESULT:     -12.3      4.686      7.200
REMARK SMILES Cc1ccc(NC(=O)[C@H]2CC=CC[C@H]2C(=O)OCCOCCOC(=O)c2ccc(-c3c4nc(c(-c5cc(S(=O)(=O)[O-])ccc5F)c5ccc([nH]5)c(-c5cc(S(=O)(=O)[O-])ccc5F)c5nc(c(-c6cc(S(=O)(=O)[O-])ccc6F)c6ccc3[nH]6)C=C5)C=C4)cc2)cc1F
REMARK SMILES IDX 21 1 20 2 19 3 18 4 17 5 15 6 16 7 14 8 9 9 10 10 11 11
REMARK SMILES IDX 13 12 12 13 7 14 6 15 8 17 5 18 1 19 2 20 3 21 90 22 4 23
REMARK SMILES IDX 89 24 91 25 22 26 23 27 24 28 25 29 26 30 27 31 88 32 28 33
REMARK SMILES IDX 87 34 29 35 30 36 31 37 81 38 32 39 86 40 80 41 82 42 33 43
REMARK SMILES IDX 85 44 79 45 78 46 34 48 66 49 46 50 65 51 47 52 50 53 64 54
REMARK SMILES IDX 83 55 48 56 49 57 63 59 84 60 51 61 35 62 36 63 44 64 37 65
REMARK SMILES IDX 43 66 45 67 42 68 38 69 39 70 40 71 41 72 67 73 68 74 76 75
REMARK SMILES IDX 69 76 75 77 77 78 74 79 70 80 71 81 72 82 73 83 52 84 53 85
REMARK SMILES IDX 61 86 54 87 60 88 62 89 59 90 55 91 56 92 57 93 58 94
REMARK H PARENT 6 16 82 47 50 58
REMARK Flexibility Score: inf
ROOT
ATOM      1  C   UNL A   1      34.015  33.639  28.795  1.00  0.00     0.202 C 
ENDROOT
BRANCH   1   2
ATOM      2  O   UNL A   1      33.306  32.613  27.715  1.00  0.00    -0.374 OA
BRANCH   2   3
ATOM      3  C   UNL A   1      33.606  31.215  27.445  1.00  0.00     0.202 C 
BRANCH   3   4
ATOM      4  C   UNL A   1      32.560  30.216  26.940  1.00  0.00     0.261 C 
BRANCH   4   5
ATOM      5  O   UNL A   1      32.748  29.766  25.588  1.00  0.00    -0.463 OA
BRANCH   5   6
ATOM      6  C   UNL A   1      33.040  28.455  25.417  1.00  0.00     0.310 C 
ATOM      7  O   UNL A   1      33.958  27.881  25.989  1.00  0.00    -0.252 OA
BRANCH   6   8
ATOM      8  C   UNL A   1      32.186  27.767  24.346  1.00  0.00     0.116 C 
ATOM      9  C   UNL A   1      31.815  26.273  24.446  1.00  0.00     0.097 C 
ATOM     10  C   UNL A   1      30.876  25.787  23.329  1.00  0.00     0.041 C 
ATOM     11  C   UNL A   1      30.002  26.837  22.726  1.00  0.00    -0.030 C 
ATOM     12  C   UNL A   1      30.918  28.612  24.209  1.00  0.00     0.043 C 
ATOM     13  C   UNL A   1      30.011  28.112  23.131  1.00  0.00    -0.030 C 
BRANCH   9  14
ATOM     14  C   UNL A   1      31.494  25.900  25.861  1.00  0.00     0.228 C 
ATOM     15  N   UNL A   1      32.421  25.144  26.540  1.00  0.00    -0.326 N 
ATOM     16  H   UNL A   1      32.358  25.224  27.519  1.00  0.00     0.169 HD
ATOM     17  O   UNL A   1      30.497  26.331  26.434  1.00  0.00    -0.274 OA
BRANCH  15  18
ATOM     18  C   UNL A   1      33.454  24.271  26.104  1.00  0.00     0.044 A 
ATOM     19  C   UNL A   1      37.105  21.152  24.402  1.00  0.00     0.047 C 
ATOM     20  C   UNL A   1      35.963  22.065  24.732  1.00  0.00    -0.015 A 
ATOM     21  C   UNL A   1      34.295  21.471  24.862  1.00  0.00     0.008 A 
ATOM     22  C   UNL A   1      36.391  23.666  25.304  1.00  0.00     0.128 A 
ATOM     23  C   UNL A   1      33.007  22.578  25.478  1.00  0.00     0.026 A 
ATOM     24  C   UNL A   1      35.181  24.790  25.925  1.00  0.00     0.065 A 
ATOM     25  F   UNL A   1      37.670  24.065  25.264  1.00  0.00    -0.207 F 
ENDBRANCH  15  18
ENDBRANCH   9  14
ENDBRANCH   6   8
ENDBRANCH   5   6
ENDBRANCH   4   5
ENDBRANCH   3   4
ENDBRANCH   2   3
ENDBRANCH   1   2
BRANCH   1  26
ATOM     26  C   UNL A   1      35.448  33.304  30.409  1.00  0.00     0.261 C 
BRANCH  26  27
ATOM     27  O   UNL A   1      36.705  32.175  30.384  1.00  0.00    -0.460 OA
BRANCH  27  28
ATOM     28  C   UNL A   1      37.346  31.836  29.223  1.00  0.00     0.338 C 
ATOM     29  O   UNL A   1      38.322  32.414  28.786  1.00  0.00    -0.246 OA
BRANCH  28  30
ATOM     30  C   UNL A   1      36.866  30.522  28.634  1.00  0.00     0.060 A 
ATOM     31  C   UNL A   1      36.731  29.534  29.621  1.00  0.00     0.016 A 
ATOM     32  C   UNL A   1      37.590  30.254  27.491  1.00  0.00     0.016 A 
ATOM     33  C   UNL A   1      37.888  28.876  29.918  1.00  0.00     0.010 A 
ATOM     34  C   UNL A   1      38.753  29.606  27.744  1.00  0.00     0.010 A 
ATOM     35  C   UNL A   1      38.938  29.099  29.041  1.00  0.00    -0.014 A 
BRANCH  35  36
ATOM     36  C   UNL A   1      40.271  28.700  29.356  1.00  0.00     0.031 A 
ATOM     37  C   UNL A   1      40.451  27.246  29.192  1.00  0.00     0.074 A 
ATOM     38  C   UNL A   1      41.133  29.741  29.456  1.00  0.00     0.049 A 
ATOM     39  N   UNL A   1      41.344  26.528  29.772  1.00  0.00    -0.248 NA
ATOM     40  C   UNL A   1      39.445  26.413  28.483  1.00  0.00     0.031 C 
ATOM     41  C   UNL A   1      42.491  29.819  28.948  1.00  0.00     0.029 A 
ATOM     42  N   UNL A   1      40.938  31.038  29.950  1.00  0.00    -0.354 N 
ATOM     43  C   UNL A   1      41.331  25.349  29.049  1.00  0.00     0.074 A 
ATOM     44  C   UNL A   1      39.985  25.200  28.580  1.00  0.00     0.031 C 
ATOM     45  C   UNL A   1      43.074  30.946  29.404  1.00  0.00     0.029 A 
ATOM     46  C   UNL A   1      42.171  31.552  30.367  1.00  0.00     0.049 A 
ATOM     47  H   UNL A   1      40.075  31.509  29.996  1.00  0.00     0.167 HD
ATOM     48  C   UNL A   1      42.508  24.914  28.515  1.00  0.00     0.034 A 
ATOM     49  C   UNL A   1      42.526  31.782  31.674  1.00  0.00     0.034 A 
ATOM     50  C   UNL A   1      43.594  25.802  28.964  1.00  0.00     0.049 A 
ATOM     51  C   UNL A   1      43.495  30.730  32.169  1.00  0.00     0.074 A 
ATOM     52  C   UNL A   1      44.249  26.848  28.335  1.00  0.00     0.029 A 
ATOM     53  N   UNL A   1      43.816  25.978  30.330  1.00  0.00    -0.354 N 
ATOM     54  N   UNL A   1      43.681  29.585  31.579  1.00  0.00    -0.248 NA
ATOM     55  C   UNL A   1      44.309  30.889  33.367  1.00  0.00     0.031 C 
ATOM     56  C   UNL A   1      44.833  27.670  29.339  1.00  0.00     0.029 A 
ATOM     57  C   UNL A   1      44.530  27.141  30.582  1.00  0.00     0.049 A 
ATOM     58  H   UNL A   1      43.507  25.355  31.027  1.00  0.00     0.167 HD
ATOM     59  C   UNL A   1      44.565  28.835  32.295  1.00  0.00     0.074 A 
ATOM     60  C   UNL A   1      44.977  29.724  33.369  1.00  0.00     0.031 C 
ATOM     61  C   UNL A   1      44.857  27.544  31.957  1.00  0.00     0.034 A 
BRANCH  48  62
ATOM     62  C   UNL A   1      42.608  23.968  27.323  1.00  0.00     0.023 A 
ATOM     63  C   UNL A   1      42.319  22.578  27.340  1.00  0.00     0.031 A 
ATOM     64  C   UNL A   1      43.001  24.472  26.066  1.00  0.00     0.131 A 
ATOM     65  C   UNL A   1      42.384  21.785  26.175  1.00  0.00     0.055 A 
ATOM     66  C   UNL A   1      43.084  23.683  24.913  1.00  0.00     0.041 A 
ATOM     67  F   UNL A   1      43.310  25.765  25.894  1.00  0.00    -0.206 F 
ATOM     68  C   UNL A   1      42.770  22.334  24.959  1.00  0.00     0.022 A 
BRANCH  65  69
ATOM     69  S   UNL A   1      41.945  20.017  26.185  1.00  0.00     0.124 S 
ATOM     70  O   UNL A   1      40.502  20.051  25.953  1.00  0.00    -0.237 OA
ATOM     71  O   UNL A   1      42.737  19.493  25.075  1.00  0.00    -0.237 OA
ATOM     72  O   UNL A   1      42.344  19.558  27.512  1.00  0.00    -0.744 OA
ENDBRANCH  65  69
ENDBRANCH  48  62
BRANCH  49  73
ATOM     73  C   UNL A   1      41.441  32.312  32.534  1.00  0.00     0.023 A 
ATOM     74  C   UNL A   1      40.637  31.405  33.238  1.00  0.00     0.031 A 
ATOM     75  C   UNL A   1      40.930  33.575  32.186  1.00  0.00     0.131 A 
ATOM     76  C   UNL A   1      39.266  31.646  33.280  1.00  0.00     0.055 A 
ATOM     77  C   UNL A   1      39.568  33.819  32.250  1.00  0.00     0.041 A 
ATOM     78  F   UNL A   1      41.722  34.498  31.613  1.00  0.00    -0.206 F 
ATOM     79  C   UNL A   1      38.730  32.837  32.775  1.00  0.00     0.022 A 
BRANCH  76  80
ATOM     80  S   UNL A   1      38.135  30.351  33.863  1.00  0.00     0.124 S 
ATOM     81  O   UNL A   1      38.239  30.480  35.315  1.00  0.00    -0.237 OA
ATOM     82  O   UNL A   1      36.848  30.743  33.303  1.00  0.00    -0.237 OA
ATOM     83  O   UNL A   1      38.721  29.133  33.312  1.00  0.00    -0.744 OA
ENDBRANCH  76  80
ENDBRANCH  49  73
BRANCH  61  84
ATOM     84  C   UNL A   1      45.588  26.572  32.855  1.00  0.00     0.023 A 
ATOM     85  C   UNL A   1      44.833  25.622  33.580  1.00  0.00     0.031 A 
ATOM     86  C   UNL A   1      46.969  26.576  33.119  1.00  0.00     0.131 A 
ATOM     87  C   UNL A   1      45.435  24.734  34.472  1.00  0.00     0.055 A 
ATOM     88  C   UNL A   1      47.585  25.599  33.906  1.00  0.00     0.041 A 
ATOM     89  F   UNL A   1      47.780  27.551  32.695  1.00  0.00    -0.206 F 
ATOM     90  C   UNL A   1      46.817  24.674  34.593  1.00  0.00     0.022 A 
BRANCH  87  91
ATOM     91  S   UNL A   1      44.431  23.729  35.593  1.00  0.00     0.124 S 
ATOM     92  O   UNL A   1      43.126  23.773  34.939  1.00  0.00    -0.237 OA
ATOM     93  O   UNL A   1      45.117  22.439  35.537  1.00  0.00    -0.237 OA
ATOM     94  O   UNL A   1      44.524  24.424  36.871  1.00  0.00    -0.744 OA
ENDBRANCH  87  91
ENDBRANCH  61  84
ENDBRANCH  35  36
ENDBRANCH  28  30
ENDBRANCH  27  28
ENDBRANCH  26  27
ENDBRANCH   1  26
TORSDOF 19
ENDMDL
