MODEL 1
REMARK VINA RESULT:     -10.5      0.000      0.000
REMARK SMILES Nc1cc([N+](=O)[O-])ccc1[C@H]([NH3+])C(=O)OCCOCCOC(=O)c1ccc(-c2c3nc(c(-c4cc(S(=O)(=O)[O-])ccc4F)c4ccc([nH]4)c(-c4cc(S(=O)(=O)[O-])ccc4F)c4nc(c(-c5cc(S(=O)(=O)[O-])ccc5F)c5ccc2[nH]5)C=C4)C=C3)cc1
REMARK SMILES IDX 19 1 18 2 17 3 16 4 15 5 13 6 14 7 11 8 10 9 2 10 3 11 4 12
REMARK SMILES IDX 9 13 8 14 1 15 5 18 6 19 7 20 12 21 20 25 21 26 22 27 23 28
REMARK SMILES IDX 24 29 25 30 86 31 26 32 85 33 27 34 28 35 29 36 79 37 30 38
REMARK SMILES IDX 84 39 78 40 80 41 31 42 83 43 77 44 76 45 32 47 64 48 44 49
REMARK SMILES IDX 63 50 45 51 48 52 62 53 81 54 46 55 47 56 61 58 82 59 49 60
REMARK SMILES IDX 33 61 34 62 42 63 35 64 41 65 43 66 40 67 36 68 37 69 38 70
REMARK SMILES IDX 39 71 65 72 66 73 74 74 67 75 73 76 75 77 72 78 68 79 69 80
REMARK SMILES IDX 70 81 71 82 50 83 51 84 59 85 52 86 58 87 60 88 57 89 53 90
REMARK SMILES IDX 54 91 55 92 56 93
REMARK H PARENT 1 16 1 17 12 22 12 23 12 24 80 46 48 57
REMARK Flexibility Score: inf
ROOT
ATOM      1  C   UNL A   1      36.348  20.828  24.950  1.00  0.00     0.202 C 
ENDROOT
BRANCH   1   2
ATOM      2  O   UNL A   1      35.839  21.510  26.095  1.00  0.00    -0.374 OA
BRANCH   2   3
ATOM      3  C   UNL A   1      35.881  22.938  26.077  1.00  0.00     0.202 C 
BRANCH   3   4
ATOM      4  C   UNL A   1      35.429  23.615  24.780  1.00  0.00     0.261 C 
BRANCH   4   5
ATOM      5  O   UNL A   1      33.997  23.652  24.671  1.00  0.00    -0.459 OA
BRANCH   5   6
ATOM      6  C   UNL A   1      33.470  23.185  23.502  1.00  0.00     0.369 C 
ATOM      7  O   UNL A   1      33.962  23.357  22.390  1.00  0.00    -0.245 OA
BRANCH   6   8
ATOM      8  C   UNL A   1      32.126  22.441  23.728  1.00  0.00     0.325 C 
BRANCH   8   9
ATOM      9  C   UNL A   1      32.303  20.933  23.965  1.00  0.00     0.044 A 
ATOM     10  C   UNL A   1      32.614  20.358  25.220  1.00  0.00     0.048 A 
ATOM     11  C   UNL A   1      32.895  18.981  25.299  1.00  0.00     0.111 A 
ATOM     12  C   UNL A   1      32.821  18.161  24.169  1.00  0.00     0.271 A 
ATOM     13  C   UNL A   1      32.258  20.073  22.837  1.00  0.00     0.020 A 
ATOM     14  C   UNL A   1      32.497  18.703  22.932  1.00  0.00     0.086 A 
BRANCH  10  15
ATOM     15  N   UNL A   1      32.820  21.105  26.376  1.00  0.00    -0.398 N 
ATOM     16  H   UNL A   1      32.475  20.780  27.239  1.00  0.00     0.156 HD
ATOM     17  H   UNL A   1      33.310  21.958  26.331  1.00  0.00     0.156 HD
ENDBRANCH  10  15
BRANCH  12  18
ATOM     18  N   UNL A   1      33.124  16.732  24.282  1.00  0.00     0.062 N 
ATOM     19  O   UNL A   1      32.845  16.165  25.348  1.00  0.00    -0.258 OA
ATOM     20  O   UNL A   1      33.662  16.178  23.313  1.00  0.00    -0.258 OA
ENDBRANCH  12  18
ENDBRANCH   8   9
BRANCH   8  21
ATOM     21  N   UNL A   1      31.191  22.814  22.642  1.00  0.00    -0.342 N 
ATOM     22  H   UNL A   1      30.467  22.101  22.556  1.00  0.00     0.345 HD
ATOM     23  H   UNL A   1      31.704  22.885  21.762  1.00  0.00     0.345 HD
ATOM     24  H   UNL A   1      30.760  23.713  22.858  1.00  0.00     0.345 HD
ENDBRANCH   8  21
ENDBRANCH   6   8
ENDBRANCH   5   6
ENDBRANCH   4   5
ENDBRANCH   3   4
ENDBRANCH   2   3
ENDBRANCH   1   2
BRANCH   1  25
ATOM     25  C   UNL A   1      37.719  20.154  25.087  1.00  0.00     0.261 C 
BRANCH  25  26
ATOM     26  O   UNL A   1      38.799  21.099  25.177  1.00  0.00    -0.460 OA
BRANCH  26  27
ATOM     27  C   UNL A   1      39.628  20.903  26.231  1.00  0.00     0.338 C 
ATOM     28  O   UNL A   1      40.136  19.845  26.575  1.00  0.00    -0.246 OA
BRANCH  27  29
ATOM     29  C   UNL A   1      40.007  22.196  26.829  1.00  0.00     0.060 A 
ATOM     30  C   UNL A   1      39.407  23.347  26.302  1.00  0.00     0.016 A 
ATOM     31  C   UNL A   1      40.978  22.295  27.829  1.00  0.00     0.016 A 
ATOM     32  C   UNL A   1      39.819  24.607  26.728  1.00  0.00     0.010 A 
ATOM     33  C   UNL A   1      41.395  23.563  28.251  1.00  0.00     0.010 A 
ATOM     34  C   UNL A   1      40.847  24.723  27.673  1.00  0.00    -0.014 A 
BRANCH  34  35
ATOM     35  C   UNL A   1      41.458  26.053  27.915  1.00  0.00     0.031 A 
ATOM     36  C   UNL A   1      42.856  26.308  27.421  1.00  0.00     0.074 A 
ATOM     37  C   UNL A   1      40.766  27.031  28.525  1.00  0.00     0.049 A 
ATOM     38  N   UNL A   1      43.599  27.378  27.537  1.00  0.00    -0.248 NA
ATOM     39  C   UNL A   1      43.502  25.197  26.707  1.00  0.00     0.031 C 
ATOM     40  C   UNL A   1      39.394  26.912  29.011  1.00  0.00     0.029 A 
ATOM     41  N   UNL A   1      41.130  28.313  28.846  1.00  0.00    -0.354 N 
ATOM     42  C   UNL A   1      44.801  27.073  26.906  1.00  0.00     0.074 A 
ATOM     43  C   UNL A   1      44.702  25.698  26.461  1.00  0.00     0.031 C 
ATOM     44  C   UNL A   1      39.035  28.071  29.588  1.00  0.00     0.029 A 
ATOM     45  C   UNL A   1      40.164  29.001  29.540  1.00  0.00     0.049 A 
ATOM     46  H   UNL A   1      42.000  28.704  28.602  1.00  0.00     0.167 HD
ATOM     47  C   UNL A   1      45.880  27.870  26.703  1.00  0.00     0.034 A 
ATOM     48  C   UNL A   1      40.196  30.227  30.099  1.00  0.00     0.034 A 
ATOM     49  C   UNL A   1      45.970  29.231  27.178  1.00  0.00     0.049 A 
ATOM     50  C   UNL A   1      41.437  31.070  29.943  1.00  0.00     0.074 A 
ATOM     51  C   UNL A   1      47.009  30.132  27.028  1.00  0.00     0.029 A 
ATOM     52  N   UNL A   1      44.986  29.882  27.912  1.00  0.00    -0.354 N 
ATOM     53  N   UNL A   1      42.564  30.778  29.335  1.00  0.00    -0.248 NA
ATOM     54  C   UNL A   1      41.404  32.413  30.538  1.00  0.00     0.031 C 
ATOM     55  C   UNL A   1      46.685  31.297  27.733  1.00  0.00     0.029 A 
ATOM     56  C   UNL A   1      45.408  31.157  28.255  1.00  0.00     0.049 A 
ATOM     57  H   UNL A   1      44.114  29.493  28.155  1.00  0.00     0.167 HD
ATOM     58  C   UNL A   1      43.367  31.910  29.457  1.00  0.00     0.074 A 
ATOM     59  C   UNL A   1      42.587  32.893  30.182  1.00  0.00     0.031 C 
ATOM     60  C   UNL A   1      44.630  32.120  29.002  1.00  0.00     0.034 A 
BRANCH  47  61
ATOM     61  C   UNL A   1      47.061  27.255  25.985  1.00  0.00     0.023 A 
ATOM     62  C   UNL A   1      48.058  26.545  26.678  1.00  0.00     0.031 A 
ATOM     63  C   UNL A   1      47.231  27.442  24.601  1.00  0.00     0.131 A 
ATOM     64  C   UNL A   1      49.222  26.135  26.007  1.00  0.00     0.055 A 
ATOM     65  C   UNL A   1      48.348  26.951  23.923  1.00  0.00     0.041 A 
ATOM     66  F   UNL A   1      46.326  28.130  23.888  1.00  0.00    -0.206 F 
ATOM     67  C   UNL A   1      49.363  26.312  24.630  1.00  0.00     0.022 A 
BRANCH  64  68
ATOM     68  S   UNL A   1      50.624  25.540  26.994  1.00  0.00     0.124 S 
ATOM     69  O   UNL A   1      50.083  24.308  27.563  1.00  0.00    -0.237 OA
ATOM     70  O   UNL A   1      51.668  25.377  25.990  1.00  0.00    -0.237 OA
ATOM     71  O   UNL A   1      50.845  26.616  27.957  1.00  0.00    -0.744 OA
ENDBRANCH  64  68
ENDBRANCH  47  61
BRANCH  48  72
ATOM     72  C   UNL A   1      39.035  30.707  30.901  1.00  0.00     0.023 A 
ATOM     73  C   UNL A   1      38.057  31.546  30.349  1.00  0.00     0.031 A 
ATOM     74  C   UNL A   1      38.902  30.334  32.251  1.00  0.00     0.131 A 
ATOM     75  C   UNL A   1      37.001  32.008  31.152  1.00  0.00     0.055 A 
ATOM     76  C   UNL A   1      37.828  30.759  33.032  1.00  0.00     0.041 A 
ATOM     77  F   UNL A   1      39.811  29.529  32.826  1.00  0.00    -0.206 F 
ATOM     78  C   UNL A   1      36.873  31.610  32.484  1.00  0.00     0.022 A 
BRANCH  75  79
ATOM     79  S   UNL A   1      35.816  33.184  30.441  1.00  0.00     0.124 S 
ATOM     80  O   UNL A   1      34.658  32.330  30.202  1.00  0.00    -0.237 OA
ATOM     81  O   UNL A   1      35.682  34.164  31.514  1.00  0.00    -0.237 OA
ATOM     82  O   UNL A   1      36.496  33.667  29.242  1.00  0.00    -0.744 OA
ENDBRANCH  75  79
ENDBRANCH  48  72
BRANCH  60  83
ATOM     83  C   UNL A   1      45.232  33.484  29.251  1.00  0.00     0.023 A 
ATOM     84  C   UNL A   1      45.094  34.536  28.329  1.00  0.00     0.031 A 
ATOM     85  C   UNL A   1      45.961  33.729  30.429  1.00  0.00     0.131 A 
ATOM     86  C   UNL A   1      45.720  35.768  28.574  1.00  0.00     0.055 A 
ATOM     87  C   UNL A   1      46.532  34.975  30.695  1.00  0.00     0.041 A 
ATOM     88  F   UNL A   1      46.129  32.760  31.343  1.00  0.00    -0.206 F 
ATOM     89  C   UNL A   1      46.423  35.999  29.759  1.00  0.00     0.022 A 
BRANCH  86  90
ATOM     90  S   UNL A   1      45.681  37.040  27.282  1.00  0.00     0.124 S 
ATOM     91  O   UNL A   1      44.261  37.088  26.947  1.00  0.00    -0.237 OA
ATOM     92  O   UNL A   1      46.213  38.208  27.975  1.00  0.00    -0.237 OA
ATOM     93  O   UNL A   1      46.545  36.494  26.237  1.00  0.00    -0.744 OA
ENDBRANCH  86  90
ENDBRANCH  60  83
ENDBRANCH  34  35
ENDBRANCH  27  29
ENDBRANCH  26  27
ENDBRANCH  25  26
ENDBRANCH   1  25
TORSDOF 21
ENDMDL
MODEL 2
REMARK VINA RESULT:     -10.5      5.379     10.755
REMARK SMILES Nc1cc([N+](=O)[O-])ccc1[C@H]([NH3+])C(=O)OCCOCCOC(=O)c1ccc(-c2c3nc(c(-c4cc(S(=O)(=O)[O-])ccc4F)c4ccc([nH]4)c(-c4cc(S(=O)(=O)[O-])ccc4F)c4nc(c(-c5cc(S(=O)(=O)[O-])ccc5F)c5ccc2[nH]5)C=C4)C=C3)cc1
REMARK SMILES IDX 19 1 18 2 17 3 16 4 15 5 13 6 14 7 11 8 10 9 2 10 3 11 4 12
REMARK SMILES IDX 9 13 8 14 1 15 5 18 6 19 7 20 12 21 20 25 21 26 22 27 23 28
REMARK SMILES IDX 24 29 25 30 86 31 26 32 85 33 27 34 28 35 29 36 79 37 30 38
REMARK SMILES IDX 84 39 78 40 80 41 31 42 83 43 77 44 76 45 32 47 64 48 44 49
REMARK SMILES IDX 63 50 45 51 48 52 62 53 81 54 46 55 47 56 61 58 82 59 49 60
REMARK SMILES IDX 33 61 34 62 42 63 35 64 41 65 43 66 40 67 36 68 37 69 38 70
REMARK SMILES IDX 39 71 65 72 66 73 74 74 67 75 73 76 75 77 72 78 68 79 69 80
REMARK SMILES IDX 70 81 71 82 50 83 51 84 59 85 52 86 58 87 60 88 57 89 53 90
REMARK SMILES IDX 54 91 55 92 56 93
REMARK H PARENT 1 16 1 17 12 22 12 23 12 24 80 46 48 57
REMARK Flexibility Score: inf
ROOT
ATOM      1  C   UNL A   1      31.805  29.589  25.662  1.00  0.00     0.202 C 
ENDROOT
BRANCH   1   2
ATOM      2  O   UNL A   1      33.030  28.931  25.345  1.00  0.00    -0.374 OA
BRANCH   2   3
ATOM      3  C   UNL A   1      33.336  27.736  26.066  1.00  0.00     0.202 C 
BRANCH   3   4
ATOM      4  C   UNL A   1      33.427  26.449  25.243  1.00  0.00     0.261 C 
BRANCH   4   5
ATOM      5  O   UNL A   1      32.481  25.464  25.691  1.00  0.00    -0.459 OA
BRANCH   5   6
ATOM      6  C   UNL A   1      31.168  25.725  25.422  1.00  0.00     0.369 C 
ATOM      7  O   UNL A   1      30.309  25.958  26.268  1.00  0.00    -0.245 OA
BRANCH   6   8
ATOM      8  C   UNL A   1      30.862  25.644  23.902  1.00  0.00     0.325 C 
BRANCH   8   9
ATOM      9  C   UNL A   1      30.099  26.867  23.374  1.00  0.00     0.044 A 
ATOM     10  C   UNL A   1      30.702  27.937  22.671  1.00  0.00     0.048 A 
ATOM     11  C   UNL A   1      29.939  29.077  22.356  1.00  0.00     0.111 A 
ATOM     12  C   UNL A   1      28.581  29.149  22.678  1.00  0.00     0.271 A 
ATOM     13  C   UNL A   1      28.723  26.986  23.701  1.00  0.00     0.020 A 
ATOM     14  C   UNL A   1      27.964  28.100  23.349  1.00  0.00     0.086 A 
BRANCH  10  15
ATOM     15  N   UNL A   1      32.068  28.007  22.406  1.00  0.00    -0.398 N 
ATOM     16  H   UNL A   1      32.425  27.633  21.568  1.00  0.00     0.156 HD
ATOM     17  H   UNL A   1      32.674  28.429  23.055  1.00  0.00     0.156 HD
ENDBRANCH  10  15
BRANCH  12  18
ATOM     18  N   UNL A   1      27.813  30.351  22.342  1.00  0.00     0.062 N 
ATOM     19  O   UNL A   1      27.172  30.899  23.250  1.00  0.00    -0.258 OA
ATOM     20  O   UNL A   1      27.830  30.737  21.164  1.00  0.00    -0.258 OA
ENDBRANCH  12  18
ENDBRANCH   8   9
BRANCH   8  21
ATOM     21  N   UNL A   1      30.244  24.329  23.615  1.00  0.00    -0.342 N 
ATOM     22  H   UNL A   1      29.902  24.316  22.654  1.00  0.00     0.345 HD
ATOM     23  H   UNL A   1      29.464  24.174  24.255  1.00  0.00     0.345 HD
ATOM     24  H   UNL A   1      30.938  23.592  23.740  1.00  0.00     0.345 HD
ENDBRANCH   8  21
ENDBRANCH   6   8
ENDBRANCH   5   6
ENDBRANCH   4   5
ENDBRANCH   3   4
ENDBRANCH   2   3
ENDBRANCH   1   2
BRANCH   1  25
ATOM     25  C   UNL A   1      31.895  31.039  26.153  1.00  0.00     0.261 C 
BRANCH  25  26
ATOM     26  O   UNL A   1      32.505  31.152  27.449  1.00  0.00    -0.460 OA
BRANCH  26  27
ATOM     27  C   UNL A   1      33.364  32.193  27.574  1.00  0.00     0.338 C 
ATOM     28  O   UNL A   1      33.083  33.383  27.538  1.00  0.00    -0.246 OA
BRANCH  27  29
ATOM     29  C   UNL A   1      34.703  31.707  27.955  1.00  0.00     0.060 A 
ATOM     30  C   UNL A   1      34.843  30.334  28.193  1.00  0.00     0.016 A 
ATOM     31  C   UNL A   1      35.781  32.574  28.149  1.00  0.00     0.016 A 
ATOM     32  C   UNL A   1      36.043  29.828  28.686  1.00  0.00     0.010 A 
ATOM     33  C   UNL A   1      36.984  32.065  28.651  1.00  0.00     0.010 A 
ATOM     34  C   UNL A   1      37.106  30.698  28.959  1.00  0.00    -0.014 A 
BRANCH  34  35
ATOM     35  C   UNL A   1      38.270  30.195  29.730  1.00  0.00     0.031 A 
ATOM     36  C   UNL A   1      38.477  30.689  31.136  1.00  0.00     0.074 A 
ATOM     37  C   UNL A   1      39.105  29.282  29.203  1.00  0.00     0.049 A 
ATOM     38  N   UNL A   1      39.429  30.410  31.986  1.00  0.00    -0.248 NA
ATOM     39  C   UNL A   1      37.472  31.635  31.642  1.00  0.00     0.031 C 
ATOM     40  C   UNL A   1      38.983  28.703  27.868  1.00  0.00     0.029 A 
ATOM     41  N   UNL A   1      40.225  28.690  29.728  1.00  0.00    -0.354 N 
ATOM     42  C   UNL A   1      39.138  31.141  33.133  1.00  0.00     0.074 A 
ATOM     43  C   UNL A   1      37.950  31.917  32.843  1.00  0.00     0.031 C 
ATOM     44  C   UNL A   1      40.002  27.850  27.669  1.00  0.00     0.029 A 
ATOM     45  C   UNL A   1      40.864  27.849  28.851  1.00  0.00     0.049 A 
ATOM     46  H   UNL A   1      40.540  28.853  30.647  1.00  0.00     0.167 HD
ATOM     47  C   UNL A   1      39.791  31.152  34.323  1.00  0.00     0.034 A 
ATOM     48  C   UNL A   1      42.027  27.178  28.974  1.00  0.00     0.034 A 
ATOM     49  C   UNL A   1      40.990  30.391  34.584  1.00  0.00     0.049 A 
ATOM     50  C   UNL A   1      42.791  27.270  30.272  1.00  0.00     0.074 A 
ATOM     51  C   UNL A   1      41.733  30.321  35.748  1.00  0.00     0.029 A 
ATOM     52  N   UNL A   1      41.632  29.579  33.657  1.00  0.00    -0.354 N 
ATOM     53  N   UNL A   1      42.502  27.954  31.354  1.00  0.00    -0.248 NA
ATOM     54  C   UNL A   1      44.031  26.489  30.367  1.00  0.00     0.031 C 
ATOM     55  C   UNL A   1      42.861  29.529  35.503  1.00  0.00     0.029 A 
ATOM     56  C   UNL A   1      42.781  29.035  34.211  1.00  0.00     0.049 A 
ATOM     57  H   UNL A   1      41.317  29.413  32.738  1.00  0.00     0.167 HD
ATOM     58  C   UNL A   1      43.514  27.669  32.267  1.00  0.00     0.074 A 
ATOM     59  C   UNL A   1      44.411  26.738  31.611  1.00  0.00     0.031 C 
ATOM     60  C   UNL A   1      43.682  28.127  33.536  1.00  0.00     0.034 A 
BRANCH  47  61
ATOM     61  C   UNL A   1      39.242  32.063  35.397  1.00  0.00     0.023 A 
ATOM     62  C   UNL A   1      39.643  33.408  35.502  1.00  0.00     0.031 A 
ATOM     63  C   UNL A   1      38.360  31.565  36.374  1.00  0.00     0.131 A 
ATOM     64  C   UNL A   1      39.245  34.175  36.609  1.00  0.00     0.055 A 
ATOM     65  C   UNL A   1      37.895  32.361  37.422  1.00  0.00     0.041 A 
ATOM     66  F   UNL A   1      37.958  30.285  36.342  1.00  0.00    -0.206 F 
ATOM     67  C   UNL A   1      38.354  33.668  37.557  1.00  0.00     0.022 A 
BRANCH  64  68
ATOM     68  S   UNL A   1      40.057  35.773  36.890  1.00  0.00     0.124 S 
ATOM     69  O   UNL A   1      39.669  36.516  35.692  1.00  0.00    -0.237 OA
ATOM     70  O   UNL A   1      39.454  36.216  38.141  1.00  0.00    -0.237 OA
ATOM     71  O   UNL A   1      41.475  35.428  36.967  1.00  0.00    -0.744 OA
ENDBRANCH  64  68
ENDBRANCH  47  61
BRANCH  48  72
ATOM     72  C   UNL A   1      42.563  26.405  27.818  1.00  0.00     0.023 A 
ATOM     73  C   UNL A   1      42.157  25.087  27.564  1.00  0.00     0.031 A 
ATOM     74  C   UNL A   1      43.512  26.983  26.955  1.00  0.00     0.131 A 
ATOM     75  C   UNL A   1      42.718  24.380  26.487  1.00  0.00     0.055 A 
ATOM     76  C   UNL A   1      44.032  26.293  25.861  1.00  0.00     0.041 A 
ATOM     77  F   UNL A   1      43.930  28.244  27.154  1.00  0.00    -0.206 F 
ATOM     78  C   UNL A   1      43.641  24.979  25.627  1.00  0.00     0.022 A 
BRANCH  75  79
ATOM     79  S   UNL A   1      42.258  22.641  26.253  1.00  0.00     0.124 S 
ATOM     80  O   UNL A   1      42.904  22.007  27.397  1.00  0.00    -0.237 OA
ATOM     81  O   UNL A   1      40.801  22.705  26.292  1.00  0.00    -0.237 OA
ATOM     82  O   UNL A   1      42.829  22.311  24.950  1.00  0.00    -0.744 OA
ENDBRANCH  75  79
ENDBRANCH  48  72
BRANCH  60  83
ATOM     83  C   UNL A   1      44.869  27.597  34.306  1.00  0.00     0.023 A 
ATOM     84  C   UNL A   1      44.802  26.401  35.044  1.00  0.00     0.031 A 
ATOM     85  C   UNL A   1      46.084  28.305  34.308  1.00  0.00     0.131 A 
ATOM     86  C   UNL A   1      45.910  25.977  35.793  1.00  0.00     0.055 A 
ATOM     87  C   UNL A   1      47.203  27.848  35.006  1.00  0.00     0.041 A 
ATOM     88  F   UNL A   1      46.206  29.455  33.625  1.00  0.00    -0.206 F 
ATOM     89  C   UNL A   1      47.115  26.684  35.764  1.00  0.00     0.022 A 
BRANCH  86  90
ATOM     90  S   UNL A   1      45.731  24.536  36.879  1.00  0.00     0.124 S 
ATOM     91  O   UNL A   1      44.886  23.656  36.078  1.00  0.00    -0.237 OA
ATOM     92  O   UNL A   1      47.113  24.105  37.058  1.00  0.00    -0.237 OA
ATOM     93  O   UNL A   1      45.095  25.086  38.075  1.00  0.00    -0.744 OA
ENDBRANCH  86  90
ENDBRANCH  60  83
ENDBRANCH  34  35
ENDBRANCH  27  29
ENDBRANCH  26  27
ENDBRANCH  25  26
ENDBRANCH   1  25
TORSDOF 21
ENDMDL
MODEL 3
REMARK VINA RESULT:     -10.4      1.582      7.795
REMARK SMILES Nc1cc([N+](=O)[O-])ccc1[C@H]([NH3+])C(=O)OCCOCCOC(=O)c1ccc(-c2c3nc(c(-c4cc(S(=O)(=O)[O-])ccc4F)c4ccc([nH]4)c(-c4cc(S(=O)(=O)[O-])ccc4F)c4nc(c(-c5cc(S(=O)(=O)[O-])ccc5F)c5ccc2[nH]5)C=C4)C=C3)cc1
REMARK SMILES IDX 19 1 18 2 17 3 16 4 15 5 13 6 14 7 11 8 10 9 2 10 3 11 4 12
REMARK SMILES IDX 9 13 8 14 1 15 5 18 6 19 7 20 12 21 20 25 21 26 22 27 23 28
REMARK SMILES IDX 24 29 25 30 86 31 26 32 85 33 27 34 28 35 29 36 79 37 30 38
REMARK SMILES IDX 84 39 78 40 80 41 31 42 83 43 77 44 76 45 32 47 64 48 44 49
REMARK SMILES IDX 63 50 45 51 48 52 62 53 81 54 46 55 47 56 61 58 82 59 49 60
REMARK SMILES IDX 33 61 34 62 42 63 35 64 41 65 43 66 40 67 36 68 37 69 38 70
REMARK SMILES IDX 39 71 65 72 66 73 74 74 67 75 73 76 75 77 72 78 68 79 69 80
REMARK SMILES IDX 70 81 71 82 50 83 51 84 59 85 52 86 58 87 60 88 57 89 53 90
REMARK SMILES IDX 54 91 55 92 56 93
REMARK H PARENT 1 16 1 17 12 22 12 23 12 24 80 46 48 57
REMARK Flexibility Score: inf
ROOT
ATOM      1  C   UNL A   1      36.744  19.703  24.916  1.00  0.00     0.202 C 
ENDROOT
BRANCH   1   2
ATOM      2  O   UNL A   1      36.120  20.859  25.472  1.00  0.00    -0.374 OA
BRANCH   2   3
ATOM      3  C   UNL A   1      35.992  22.002  24.624  1.00  0.00     0.202 C 
BRANCH   3   4
ATOM      4  C   UNL A   1      36.009  23.368  25.316  1.00  0.00     0.261 C 
BRANCH   4   5
ATOM      5  O   UNL A   1      34.746  23.664  25.936  1.00  0.00    -0.459 OA
BRANCH   5   6
ATOM      6  C   UNL A   1      33.683  23.817  25.094  1.00  0.00     0.369 C 
ATOM      7  O   UNL A   1      33.657  24.570  24.124  1.00  0.00    -0.245 OA
BRANCH   6   8
ATOM      8  C   UNL A   1      32.469  22.955  25.531  1.00  0.00     0.325 C 
BRANCH   8   9
ATOM      9  C   UNL A   1      32.439  21.571  24.865  1.00  0.00     0.044 A 
ATOM     10  C   UNL A   1      32.833  20.372  25.506  1.00  0.00     0.048 A 
ATOM     11  C   UNL A   1      32.902  19.180  24.762  1.00  0.00     0.111 A 
ATOM     12  C   UNL A   1      32.539  19.147  23.413  1.00  0.00     0.271 A 
ATOM     13  C   UNL A   1      32.098  21.502  23.489  1.00  0.00     0.020 A 
ATOM     14  C   UNL A   1      32.130  20.309  22.770  1.00  0.00     0.086 A 
BRANCH  10  15
ATOM     15  N   UNL A   1      33.318  20.324  26.810  1.00  0.00    -0.398 N 
ATOM     16  H   UNL A   1      33.789  19.521  27.130  1.00  0.00     0.156 HD
ATOM     17  H   UNL A   1      33.189  21.092  27.412  1.00  0.00     0.156 HD
ENDBRANCH  10  15
BRANCH  12  18
ATOM     18  N   UNL A   1      32.627  17.892  22.662  1.00  0.00     0.062 N 
ATOM     19  O   UNL A   1      32.086  17.846  21.549  1.00  0.00    -0.258 OA
ATOM     20  O   UNL A   1      33.220  16.941  23.194  1.00  0.00    -0.258 OA
ENDBRANCH  12  18
ENDBRANCH   8   9
BRANCH   8  21
ATOM     21  N   UNL A   1      31.238  23.764  25.383  1.00  0.00    -0.342 N 
ATOM     22  H   UNL A   1      31.487  24.715  25.109  1.00  0.00     0.345 HD
ATOM     23  H   UNL A   1      30.737  23.787  26.271  1.00  0.00     0.345 HD
ATOM     24  H   UNL A   1      30.642  23.349  24.667  1.00  0.00     0.345 HD
ENDBRANCH   8  21
ENDBRANCH   6   8
ENDBRANCH   5   6
ENDBRANCH   4   5
ENDBRANCH   3   4
ENDBRANCH   2   3
ENDBRANCH   1   2
BRANCH   1  25
ATOM     25  C   UNL A   1      38.268  19.594  25.055  1.00  0.00     0.261 C 
BRANCH  25  26
ATOM     26  O   UNL A   1      38.878  20.823  25.482  1.00  0.00    -0.460 OA
BRANCH  26  27
ATOM     27  C   UNL A   1      39.894  20.666  26.364  1.00  0.00     0.338 C 
ATOM     28  O   UNL A   1      40.533  19.642  26.571  1.00  0.00    -0.246 OA
BRANCH  27  29
ATOM     29  C   UNL A   1      40.278  21.969  26.938  1.00  0.00     0.060 A 
ATOM     30  C   UNL A   1      39.689  23.112  26.383  1.00  0.00     0.016 A 
ATOM     31  C   UNL A   1      41.242  22.083  27.943  1.00  0.00     0.016 A 
ATOM     32  C   UNL A   1      40.106  24.378  26.786  1.00  0.00     0.010 A 
ATOM     33  C   UNL A   1      41.665  23.356  28.341  1.00  0.00     0.010 A 
ATOM     34  C   UNL A   1      41.128  24.507  27.735  1.00  0.00    -0.014 A 
BRANCH  34  35
ATOM     35  C   UNL A   1      41.746  25.838  27.953  1.00  0.00     0.031 A 
ATOM     36  C   UNL A   1      40.949  26.900  28.661  1.00  0.00     0.074 A 
ATOM     37  C   UNL A   1      43.010  26.085  27.566  1.00  0.00     0.049 A 
ATOM     38  N   UNL A   1      41.270  28.136  28.941  1.00  0.00    -0.248 NA
ATOM     39  C   UNL A   1      39.603  26.509  29.103  1.00  0.00     0.031 C 
ATOM     40  C   UNL A   1      43.891  25.123  26.907  1.00  0.00     0.029 A 
ATOM     41  N   UNL A   1      43.766  27.224  27.666  1.00  0.00    -0.354 N 
ATOM     42  C   UNL A   1      40.167  28.672  29.598  1.00  0.00     0.074 A 
ATOM     43  C   UNL A   1      39.152  27.640  29.621  1.00  0.00     0.031 C 
ATOM     44  C   UNL A   1      45.066  25.721  26.643  1.00  0.00     0.029 A 
ATOM     45  C   UNL A   1      45.006  27.113  27.085  1.00  0.00     0.049 A 
ATOM     46  H   UNL A   1      43.451  28.044  28.112  1.00  0.00     0.167 HD
ATOM     47  C   UNL A   1      40.021  29.906  30.144  1.00  0.00     0.034 A 
ATOM     48  C   UNL A   1      45.972  28.037  26.904  1.00  0.00     0.034 A 
ATOM     49  C   UNL A   1      41.037  30.931  30.088  1.00  0.00     0.049 A 
ATOM     50  C   UNL A   1      45.760  29.432  27.438  1.00  0.00     0.074 A 
ATOM     51  C   UNL A   1      41.001  32.212  30.608  1.00  0.00     0.029 A 
ATOM     52  N   UNL A   1      42.267  30.796  29.455  1.00  0.00    -0.354 N 
ATOM     53  N   UNL A   1      44.719  29.927  28.067  1.00  0.00    -0.248 NA
ATOM     54  C   UNL A   1      46.859  30.387  27.247  1.00  0.00     0.031 C 
ATOM     55  C   UNL A   1      42.175  32.873  30.227  1.00  0.00     0.029 A 
ATOM     56  C   UNL A   1      42.982  31.980  29.540  1.00  0.00     0.049 A 
ATOM     57  H   UNL A   1      42.585  29.976  29.011  1.00  0.00     0.167 HD
ATOM     58  C   UNL A   1      45.048  31.247  28.367  1.00  0.00     0.074 A 
ATOM     59  C   UNL A   1      46.389  31.463  27.862  1.00  0.00     0.031 C 
ATOM     60  C   UNL A   1      44.311  32.191  29.009  1.00  0.00     0.034 A 
BRANCH  47  61
ATOM     61  C   UNL A   1      38.691  30.214  30.793  1.00  0.00     0.023 A 
ATOM     62  C   UNL A   1      37.651  30.843  30.085  1.00  0.00     0.031 A 
ATOM     63  C   UNL A   1      38.483  29.942  32.158  1.00  0.00     0.131 A 
ATOM     64  C   UNL A   1      36.496  31.267  30.762  1.00  0.00     0.055 A 
ATOM     65  C   UNL A   1      37.293  30.283  32.805  1.00  0.00     0.041 A 
ATOM     66  F   UNL A   1      39.444  29.364  32.894  1.00  0.00    -0.206 F 
ATOM     67  C   UNL A   1      36.299  30.969  32.112  1.00  0.00     0.022 A 
BRANCH  64  68
ATOM     68  S   UNL A   1      35.345  32.373  29.899  1.00  0.00     0.124 S 
ATOM     69  O   UNL A   1      36.215  33.497  29.559  1.00  0.00    -0.237 OA
ATOM     70  O   UNL A   1      34.896  31.551  28.783  1.00  0.00    -0.237 OA
ATOM     71  O   UNL A   1      34.330  32.665  30.908  1.00  0.00    -0.744 OA
ENDBRANCH  64  68
ENDBRANCH  47  61
BRANCH  48  72
ATOM     72  C   UNL A   1      47.200  27.684  26.138  1.00  0.00     0.023 A 
ATOM     73  C   UNL A   1      47.277  27.863  24.749  1.00  0.00     0.031 A 
ATOM     74  C   UNL A   1      48.319  27.144  26.798  1.00  0.00     0.131 A 
ATOM     75  C   UNL A   1      48.440  27.479  24.060  1.00  0.00     0.055 A 
ATOM     76  C   UNL A   1      49.487  26.806  26.117  1.00  0.00     0.041 A 
ATOM     77  F   UNL A   1      48.296  26.957  28.129  1.00  0.00    -0.206 F 
ATOM     78  C   UNL A   1      49.548  26.965  24.736  1.00  0.00     0.022 A 
BRANCH  75  79
ATOM     79  S   UNL A   1      48.465  27.615  22.251  1.00  0.00     0.124 S 
ATOM     80  O   UNL A   1      49.599  28.508  22.037  1.00  0.00    -0.237 OA
ATOM     81  O   UNL A   1      48.656  26.226  21.846  1.00  0.00    -0.237 OA
ATOM     82  O   UNL A   1      47.155  28.179  21.935  1.00  0.00    -0.744 OA
ENDBRANCH  75  79
ENDBRANCH  48  72
BRANCH  60  83
ATOM     83  C   UNL A   1      44.960  33.538  29.228  1.00  0.00     0.023 A 
ATOM     84  C   UNL A   1      44.795  34.598  28.320  1.00  0.00     0.031 A 
ATOM     85  C   UNL A   1      45.762  33.760  30.362  1.00  0.00     0.131 A 
ATOM     86  C   UNL A   1      45.465  35.813  28.532  1.00  0.00     0.055 A 
ATOM     87  C   UNL A   1      46.378  34.989  30.600  1.00  0.00     0.041 A 
ATOM     88  F   UNL A   1      45.959  32.782  31.262  1.00  0.00    -0.206 F 
ATOM     89  C   UNL A   1      46.241  36.021  29.676  1.00  0.00     0.022 A 
BRANCH  86  90
ATOM     90  S   UNL A   1      45.382  37.092  27.249  1.00  0.00     0.124 S 
ATOM     91  O   UNL A   1      43.965  37.080  26.900  1.00  0.00    -0.237 OA
ATOM     92  O   UNL A   1      45.855  38.277  27.957  1.00  0.00    -0.237 OA
ATOM     93  O   UNL A   1      46.281  36.593  26.209  1.00  0.00    -0.744 OA
ENDBRANCH  86  90
ENDBRANCH  60  83
ENDBRANCH  34  35
ENDBRANCH  27  29
ENDBRANCH  26  27
ENDBRANCH  25  26
ENDBRANCH   1  25
TORSDOF 21
ENDMDL
