MODEL 1
REMARK VINA RESULT:     -11.5      0.000      0.000
REMARK SMILES O=C(OCCOCCOC(=O)[C@H]1C[C@@H]2N=CN=C2C[NH2+]1)c1ccc(-c2c3nc(c(-c4cc(S(=O)(=O)[O-])ccc4F)c4ccc([nH]4)c(-c4cc(S(=O)(=O)[O-])ccc4F)c4nc(c(-c5cc(S(=O)(=O)[O-])ccc5F)c5ccc2[nH]5)C=C4)C=C3)cc1
REMARK SMILES IDX 4 1 3 2 2 3 1 4 21 5 22 6 83 7 23 8 82 9 24 10 25 11 26 12
REMARK SMILES IDX 76 13 27 14 81 15 75 16 77 17 28 18 80 19 74 20 73 21 29 23
REMARK SMILES IDX 61 24 41 25 60 26 42 27 45 28 59 29 78 30 43 31 44 32 58 34
REMARK SMILES IDX 79 35 46 36 30 37 31 38 39 39 32 40 38 41 40 42 37 43 33 44
REMARK SMILES IDX 34 45 35 46 36 47 62 48 63 49 71 50 64 51 70 52 72 53 69 54
REMARK SMILES IDX 65 55 66 56 67 57 68 58 47 59 48 60 56 61 49 62 55 63 57 64
REMARK SMILES IDX 54 65 50 66 51 67 52 68 53 69 5 70 6 71 7 72 8 73 9 74 10 75
REMARK SMILES IDX 11 76 12 77 13 78 20 79 14 80 19 81 15 84 18 85 16 86 17 87
REMARK H PARENT 77 22 45 33 20 82 20 83
REMARK Flexibility Score: inf
ROOT
ATOM      1  C   UNL A   1      37.580  31.985  30.448  1.00  0.00     0.261 C 
ENDROOT
BRANCH   1   2
ATOM      2  O   UNL A   1      36.569  31.121  29.918  1.00  0.00    -0.460 OA
BRANCH   2   3
ATOM      3  C   UNL A   1      36.633  30.437  28.755  1.00  0.00     0.338 C 
ATOM      4  O   UNL A   1      35.851  30.731  27.851  1.00  0.00    -0.246 OA
BRANCH   3   5
ATOM      5  C   UNL A   1      37.663  29.390  28.504  1.00  0.00     0.060 A 
ATOM      6  C   UNL A   1      37.950  28.307  29.339  1.00  0.00     0.016 A 
ATOM      7  C   UNL A   1      38.462  29.599  27.374  1.00  0.00     0.016 A 
ATOM      8  C   UNL A   1      39.187  27.717  29.300  1.00  0.00     0.010 A 
ATOM      9  C   UNL A   1      39.658  28.926  27.253  1.00  0.00     0.010 A 
ATOM     10  C   UNL A   1      40.064  28.115  28.308  1.00  0.00    -0.014 A 
BRANCH  10  11
ATOM     11  C   UNL A   1      41.424  27.633  28.407  1.00  0.00     0.031 A 
ATOM     12  C   UNL A   1      41.642  26.289  27.808  1.00  0.00     0.074 A 
ATOM     13  C   UNL A   1      42.357  28.453  28.927  1.00  0.00     0.049 A 
ATOM     14  N   UNL A   1      42.209  25.249  28.322  1.00  0.00    -0.248 NA
ATOM     15  C   UNL A   1      40.995  26.027  26.506  1.00  0.00     0.031 C 
ATOM     16  C   UNL A   1      42.191  29.853  29.340  1.00  0.00     0.029 A 
ATOM     17  N   UNL A   1      43.695  28.272  29.032  1.00  0.00    -0.354 N 
ATOM     18  C   UNL A   1      42.193  24.280  27.322  1.00  0.00     0.074 A 
ATOM     19  C   UNL A   1      41.274  24.739  26.319  1.00  0.00     0.031 C 
ATOM     20  C   UNL A   1      43.396  30.462  29.327  1.00  0.00     0.029 A 
ATOM     21  C   UNL A   1      44.411  29.464  29.038  1.00  0.00     0.049 A 
ATOM     22  H   UNL A   1      44.120  27.385  29.096  1.00  0.00     0.167 HD
ATOM     23  C   UNL A   1      43.133  23.299  27.263  1.00  0.00     0.034 A 
ATOM     24  C   UNL A   1      45.710  29.628  28.674  1.00  0.00     0.034 A 
ATOM     25  C   UNL A   1      43.727  23.058  28.552  1.00  0.00     0.049 A 
ATOM     26  C   UNL A   1      46.340  28.283  28.738  1.00  0.00     0.074 A 
ATOM     27  C   UNL A   1      43.228  22.656  29.777  1.00  0.00     0.029 A 
ATOM     28  N   UNL A   1      44.962  23.603  28.820  1.00  0.00    -0.354 N 
ATOM     29  N   UNL A   1      46.456  27.600  29.848  1.00  0.00    -0.248 NA
ATOM     30  C   UNL A   1      46.365  27.479  27.522  1.00  0.00     0.031 C 
ATOM     31  C   UNL A   1      43.936  23.439  30.734  1.00  0.00     0.029 A 
ATOM     32  C   UNL A   1      44.872  24.216  30.049  1.00  0.00     0.049 A 
ATOM     33  H   UNL A   1      45.758  23.562  28.243  1.00  0.00     0.167 HD
ATOM     34  C   UNL A   1      46.140  26.292  29.507  1.00  0.00     0.074 A 
ATOM     35  C   UNL A   1      46.189  26.261  28.045  1.00  0.00     0.031 C 
ATOM     36  C   UNL A   1      45.578  25.432  30.409  1.00  0.00     0.034 A 
BRANCH  23  37
ATOM     37  C   UNL A   1      43.752  22.828  25.966  1.00  0.00     0.023 A 
ATOM     38  C   UNL A   1      43.896  21.444  25.773  1.00  0.00     0.031 A 
ATOM     39  C   UNL A   1      44.459  23.655  25.058  1.00  0.00     0.131 A 
ATOM     40  C   UNL A   1      44.763  20.943  24.786  1.00  0.00     0.055 A 
ATOM     41  C   UNL A   1      45.263  23.151  24.036  1.00  0.00     0.041 A 
ATOM     42  F   UNL A   1      44.499  24.988  25.168  1.00  0.00    -0.206 F 
ATOM     43  C   UNL A   1      45.445  21.787  23.914  1.00  0.00     0.022 A 
BRANCH  40  44
ATOM     44  S   UNL A   1      45.134  19.170  24.784  1.00  0.00     0.124 S 
ATOM     45  O   UNL A   1      46.212  19.090  25.763  1.00  0.00    -0.237 OA
ATOM     46  O   UNL A   1      43.853  18.598  25.187  1.00  0.00    -0.237 OA
ATOM     47  O   UNL A   1      45.528  18.909  23.402  1.00  0.00    -0.744 OA
ENDBRANCH  40  44
ENDBRANCH  23  37
BRANCH  24  48
ATOM     48  C   UNL A   1      46.226  30.777  27.874  1.00  0.00     0.023 A 
ATOM     49  C   UNL A   1      45.408  31.557  27.035  1.00  0.00     0.031 A 
ATOM     50  C   UNL A   1      47.548  31.244  28.076  1.00  0.00     0.131 A 
ATOM     51  C   UNL A   1      45.927  32.724  26.420  1.00  0.00     0.055 A 
ATOM     52  C   UNL A   1      48.060  32.383  27.454  1.00  0.00     0.041 A 
ATOM     53  F   UNL A   1      48.373  30.644  28.950  1.00  0.00    -0.206 F 
ATOM     54  C   UNL A   1      47.247  33.134  26.624  1.00  0.00     0.022 A 
BRANCH  51  55
ATOM     55  S   UNL A   1      44.853  33.778  25.395  1.00  0.00     0.124 S 
ATOM     56  O   UNL A   1      45.819  34.620  24.697  1.00  0.00    -0.237 OA
ATOM     57  O   UNL A   1      44.140  32.800  24.583  1.00  0.00    -0.237 OA
ATOM     58  O   UNL A   1      44.024  34.480  26.377  1.00  0.00    -0.744 OA
ENDBRANCH  51  55
ENDBRANCH  24  48
BRANCH  36  59
ATOM     59  C   UNL A   1      45.468  25.876  31.858  1.00  0.00     0.023 A 
ATOM     60  C   UNL A   1      44.276  26.337  32.466  1.00  0.00     0.031 A 
ATOM     61  C   UNL A   1      46.580  25.668  32.691  1.00  0.00     0.131 A 
ATOM     62  C   UNL A   1      44.234  26.580  33.855  1.00  0.00     0.055 A 
ATOM     63  C   UNL A   1      46.530  25.894  34.067  1.00  0.00     0.041 A 
ATOM     64  F   UNL A   1      47.729  25.190  32.183  1.00  0.00    -0.206 F 
ATOM     65  C   UNL A   1      45.358  26.355  34.654  1.00  0.00     0.022 A 
BRANCH  62  66
ATOM     66  S   UNL A   1      42.707  27.185  34.650  1.00  0.00     0.124 S 
ATOM     67  O   UNL A   1      42.007  27.866  33.567  1.00  0.00    -0.237 OA
ATOM     68  O   UNL A   1      42.091  25.954  35.138  1.00  0.00    -0.237 OA
ATOM     69  O   UNL A   1      43.201  28.073  35.704  1.00  0.00    -0.744 OA
ENDBRANCH  62  66
ENDBRANCH  36  59
ENDBRANCH  10  11
ENDBRANCH   3   5
ENDBRANCH   2   3
ENDBRANCH   1   2
BRANCH   1  70
ATOM     70  C   UNL A   1      38.310  31.331  31.631  1.00  0.00     0.202 C 
BRANCH  70  71
ATOM     71  O   UNL A   1      38.346  31.962  32.905  1.00  0.00    -0.374 OA
BRANCH  71  72
ATOM     72  C   UNL A   1      37.161  31.989  33.714  1.00  0.00     0.202 C 
BRANCH  72  73
ATOM     73  C   UNL A   1      36.499  33.334  34.033  1.00  0.00     0.261 C 
BRANCH  73  74
ATOM     74  O   UNL A   1      35.078  33.212  34.244  1.00  0.00    -0.459 OA
BRANCH  74  75
ATOM     75  C   UNL A   1      34.291  33.668  33.224  1.00  0.00     0.365 C 
ATOM     76  O   UNL A   1      33.097  33.455  33.123  1.00  0.00    -0.245 OA
BRANCH  75  77
ATOM     77  C   UNL A   1      35.088  34.605  32.289  1.00  0.00     0.296 C 
ATOM     78  C   UNL A   1      34.672  34.372  30.826  1.00  0.00     0.111 C 
ATOM     79  N   UNL A   1      34.951  36.045  32.642  1.00  0.00    -0.330 N 
ATOM     80  C   UNL A   1      33.279  34.919  30.545  1.00  0.00     0.164 C 
ATOM     81  C   UNL A   1      33.596  36.586  32.471  1.00  0.00     0.316 C 
ATOM     82  H   UNL A   1      35.586  36.581  32.049  1.00  0.00     0.347 HD
ATOM     83  H   UNL A   1      35.173  36.124  33.635  1.00  0.00     0.347 HD
ATOM     84  N   UNL A   1      33.029  35.132  29.105  1.00  0.00    -0.264 NA
ATOM     85  C   UNL A   1      33.203  36.314  31.060  1.00  0.00     0.098 C 
ATOM     86  C   UNL A   1      32.769  36.403  29.016  1.00  0.00     0.216 C 
ATOM     87  N   UNL A   1      32.853  37.164  30.154  1.00  0.00    -0.238 NA
ENDBRANCH  75  77
ENDBRANCH  74  75
ENDBRANCH  73  74
ENDBRANCH  72  73
ENDBRANCH  71  72
ENDBRANCH  70  71
ENDBRANCH   1  70
TORSDOF 17
ENDMDL
MODEL 2
REMARK VINA RESULT:     -11.0      3.592      5.298
REMARK SMILES O=C(OCCOCCOC(=O)[C@H]1C[C@@H]2N=CN=C2C[NH2+]1)c1ccc(-c2c3nc(c(-c4cc(S(=O)(=O)[O-])ccc4F)c4ccc([nH]4)c(-c4cc(S(=O)(=O)[O-])ccc4F)c4nc(c(-c5cc(S(=O)(=O)[O-])ccc5F)c5ccc2[nH]5)C=C4)C=C3)cc1
REMARK SMILES IDX 4 1 3 2 2 3 1 4 21 5 22 6 83 7 23 8 82 9 24 10 25 11 26 12
REMARK SMILES IDX 76 13 27 14 81 15 75 16 77 17 28 18 80 19 74 20 73 21 29 23
REMARK SMILES IDX 61 24 41 25 60 26 42 27 45 28 59 29 78 30 43 31 44 32 58 34
REMARK SMILES IDX 79 35 46 36 30 37 31 38 39 39 32 40 38 41 40 42 37 43 33 44
REMARK SMILES IDX 34 45 35 46 36 47 62 48 63 49 71 50 64 51 70 52 72 53 69 54
REMARK SMILES IDX 65 55 66 56 67 57 68 58 47 59 48 60 56 61 49 62 55 63 57 64
REMARK SMILES IDX 54 65 50 66 51 67 52 68 53 69 5 70 6 71 7 72 8 73 9 74 10 75
REMARK SMILES IDX 11 76 12 77 13 78 20 79 14 80 19 81 15 84 18 85 16 86 17 87
REMARK H PARENT 77 22 45 33 20 82 20 83
REMARK Flexibility Score: inf
ROOT
ATOM      1  C   UNL A   1      34.504  31.588  27.954  1.00  0.00     0.261 C 
ENDROOT
BRANCH   1   2
ATOM      2  O   UNL A   1      35.898  31.358  28.186  1.00  0.00    -0.460 OA
BRANCH   2   3
ATOM      3  C   UNL A   1      36.431  30.626  29.189  1.00  0.00     0.338 C 
ATOM      4  O   UNL A   1      35.998  30.783  30.330  1.00  0.00    -0.246 OA
BRANCH   3   5
ATOM      5  C   UNL A   1      37.474  29.590  28.949  1.00  0.00     0.060 A 
ATOM      6  C   UNL A   1      37.842  28.577  29.839  1.00  0.00     0.016 A 
ATOM      7  C   UNL A   1      38.197  29.737  27.760  1.00  0.00     0.016 A 
ATOM      8  C   UNL A   1      39.091  28.016  29.764  1.00  0.00     0.010 A 
ATOM      9  C   UNL A   1      39.403  29.087  27.612  1.00  0.00     0.010 A 
ATOM     10  C   UNL A   1      39.895  28.363  28.694  1.00  0.00    -0.014 A 
BRANCH  10  11
ATOM     11  C   UNL A   1      41.272  27.923  28.742  1.00  0.00     0.031 A 
ATOM     12  C   UNL A   1      41.510  26.592  28.122  1.00  0.00     0.074 A 
ATOM     13  C   UNL A   1      42.196  28.767  29.238  1.00  0.00     0.049 A 
ATOM     14  N   UNL A   1      42.127  25.566  28.607  1.00  0.00    -0.248 NA
ATOM     15  C   UNL A   1      40.827  26.321  26.841  1.00  0.00     0.031 C 
ATOM     16  C   UNL A   1      42.001  30.158  29.670  1.00  0.00     0.029 A 
ATOM     17  N   UNL A   1      43.542  28.627  29.296  1.00  0.00    -0.354 N 
ATOM     18  C   UNL A   1      42.106  24.606  27.599  1.00  0.00     0.074 A 
ATOM     19  C   UNL A   1      41.140  25.045  26.632  1.00  0.00     0.031 C 
ATOM     20  C   UNL A   1      43.185  30.804  29.623  1.00  0.00     0.029 A 
ATOM     21  C   UNL A   1      44.220  29.842  29.289  1.00  0.00     0.049 A 
ATOM     22  H   UNL A   1      43.996  27.754  29.337  1.00  0.00     0.167 HD
ATOM     23  C   UNL A   1      43.074  23.655  27.498  1.00  0.00     0.034 A 
ATOM     24  C   UNL A   1      45.500  30.049  28.883  1.00  0.00     0.034 A 
ATOM     25  C   UNL A   1      43.719  23.422  28.764  1.00  0.00     0.049 A 
ATOM     26  C   UNL A   1      46.174  28.724  28.912  1.00  0.00     0.074 A 
ATOM     27  C   UNL A   1      43.275  22.993  30.001  1.00  0.00     0.029 A 
ATOM     28  N   UNL A   1      44.945  24.003  28.995  1.00  0.00    -0.354 N 
ATOM     29  N   UNL A   1      46.348  28.035  30.011  1.00  0.00    -0.248 NA
ATOM     30  C   UNL A   1      46.182  27.932  27.688  1.00  0.00     0.031 C 
ATOM     31  C   UNL A   1      43.990  23.790  30.941  1.00  0.00     0.029 A 
ATOM     32  C   UNL A   1      44.878  24.602  30.232  1.00  0.00     0.049 A 
ATOM     33  H   UNL A   1      45.722  23.992  28.391  1.00  0.00     0.167 HD
ATOM     34  C   UNL A   1      46.062  26.721  29.668  1.00  0.00     0.074 A 
ATOM     35  C   UNL A   1      46.062  26.705  28.205  1.00  0.00     0.031 C 
ATOM     36  C   UNL A   1      45.557  25.837  30.580  1.00  0.00     0.034 A 
BRANCH  23  37
ATOM     37  C   UNL A   1      43.662  23.215  26.176  1.00  0.00     0.023 A 
ATOM     38  C   UNL A   1      43.654  21.842  25.880  1.00  0.00     0.031 A 
ATOM     39  C   UNL A   1      44.476  24.022  25.343  1.00  0.00     0.131 A 
ATOM     40  C   UNL A   1      44.479  21.321  24.868  1.00  0.00     0.055 A 
ATOM     41  C   UNL A   1      45.239  23.508  24.294  1.00  0.00     0.041 A 
ATOM     42  F   UNL A   1      44.662  25.330  25.555  1.00  0.00    -0.206 F 
ATOM     43  C   UNL A   1      45.269  22.145  24.070  1.00  0.00     0.022 A 
BRANCH  40  44
ATOM     44  S   UNL A   1      44.649  19.523  24.735  1.00  0.00     0.124 S 
ATOM     45  O   UNL A   1      45.956  19.301  25.344  1.00  0.00    -0.237 OA
ATOM     46  O   UNL A   1      43.495  19.057  25.497  1.00  0.00    -0.237 OA
ATOM     47  O   UNL A   1      44.585  19.283  23.295  1.00  0.00    -0.744 OA
ENDBRANCH  40  44
ENDBRANCH  23  37
BRANCH  24  48
ATOM     48  C   UNL A   1      45.952  31.221  28.077  1.00  0.00     0.023 A 
ATOM     49  C   UNL A   1      45.153  31.828  27.090  1.00  0.00     0.031 A 
ATOM     50  C   UNL A   1      47.157  31.888  28.412  1.00  0.00     0.131 A 
ATOM     51  C   UNL A   1      45.581  33.027  26.466  1.00  0.00     0.055 A 
ATOM     52  C   UNL A   1      47.582  33.059  27.782  1.00  0.00     0.041 A 
ATOM     53  F   UNL A   1      47.932  31.462  29.422  1.00  0.00    -0.206 F 
ATOM     54  C   UNL A   1      46.791  33.638  26.806  1.00  0.00     0.022 A 
BRANCH  51  55
ATOM     55  S   UNL A   1      44.517  33.858  25.244  1.00  0.00     0.124 S 
ATOM     56  O   UNL A   1      43.672  34.697  26.087  1.00  0.00    -0.237 OA
ATOM     57  O   UNL A   1      45.489  34.550  24.406  1.00  0.00    -0.237 OA
ATOM     58  O   UNL A   1      43.821  32.750  24.586  1.00  0.00    -0.744 OA
ENDBRANCH  51  55
ENDBRANCH  24  48
BRANCH  36  59
ATOM     59  C   UNL A   1      45.484  26.264  32.036  1.00  0.00     0.023 A 
ATOM     60  C   UNL A   1      44.359  26.882  32.634  1.00  0.00     0.031 A 
ATOM     61  C   UNL A   1      46.537  25.882  32.883  1.00  0.00     0.131 A 
ATOM     62  C   UNL A   1      44.325  27.102  34.026  1.00  0.00     0.055 A 
ATOM     63  C   UNL A   1      46.493  26.086  34.263  1.00  0.00     0.041 A 
ATOM     64  F   UNL A   1      47.615  25.252  32.385  1.00  0.00    -0.206 F 
ATOM     65  C   UNL A   1      45.388  26.701  34.839  1.00  0.00     0.022 A 
BRANCH  62  66
ATOM     66  S   UNL A   1      42.885  27.907  34.807  1.00  0.00     0.124 S 
ATOM     67  O   UNL A   1      43.097  27.673  36.231  1.00  0.00    -0.237 OA
ATOM     68  O   UNL A   1      43.011  29.290  34.359  1.00  0.00    -0.237 OA
ATOM     69  O   UNL A   1      41.743  27.188  34.238  1.00  0.00    -0.744 OA
ENDBRANCH  62  66
ENDBRANCH  36  59
ENDBRANCH  10  11
ENDBRANCH   3   5
ENDBRANCH   2   3
ENDBRANCH   1   2
BRANCH   1  70
ATOM     70  C   UNL A   1      33.881  30.456  27.124  1.00  0.00     0.202 C 
BRANCH  70  71
ATOM     71  O   UNL A   1      32.470  30.282  27.072  1.00  0.00    -0.374 OA
BRANCH  71  72
ATOM     72  C   UNL A   1      31.787  30.415  25.818  1.00  0.00     0.202 C 
BRANCH  72  73
ATOM     73  C   UNL A   1      31.308  29.158  25.084  1.00  0.00     0.261 C 
BRANCH  73  74
ATOM     74  O   UNL A   1      32.017  27.973  25.499  1.00  0.00    -0.459 OA
BRANCH  74  75
ATOM     75  C   UNL A   1      31.305  27.103  26.276  1.00  0.00     0.365 C 
ATOM     76  O   UNL A   1      31.324  27.088  27.493  1.00  0.00    -0.245 OA
BRANCH  75  77
ATOM     77  C   UNL A   1      30.368  26.233  25.411  1.00  0.00     0.296 C 
ATOM     78  C   UNL A   1      31.135  25.668  24.202  1.00  0.00     0.111 C 
ATOM     79  N   UNL A   1      29.718  25.129  26.172  1.00  0.00    -0.330 N 
ATOM     80  C   UNL A   1      32.116  24.581  24.619  1.00  0.00     0.164 C 
ATOM     81  C   UNL A   1      30.649  24.107  26.671  1.00  0.00     0.316 C 
ATOM     82  H   UNL A   1      29.042  24.674  25.559  1.00  0.00     0.347 HD
ATOM     83  H   UNL A   1      29.288  25.556  26.993  1.00  0.00     0.347 HD
ATOM     84  N   UNL A   1      32.523  23.716  23.493  1.00  0.00    -0.264 NA
ATOM     85  C   UNL A   1      31.404  23.605  25.488  1.00  0.00     0.098 C 
ATOM     86  C   UNL A   1      32.151  22.526  23.861  1.00  0.00     0.216 C 
ATOM     87  N   UNL A   1      31.479  22.394  25.050  1.00  0.00    -0.238 NA
ENDBRANCH  75  77
ENDBRANCH  74  75
ENDBRANCH  73  74
ENDBRANCH  72  73
ENDBRANCH  71  72
ENDBRANCH  70  71
ENDBRANCH   1  70
TORSDOF 17
ENDMDL
MODEL 3
REMARK VINA RESULT:     -10.8      1.488      2.806
REMARK SMILES O=C(OCCOCCOC(=O)[C@H]1C[C@@H]2N=CN=C2C[NH2+]1)c1ccc(-c2c3nc(c(-c4cc(S(=O)(=O)[O-])ccc4F)c4ccc([nH]4)c(-c4cc(S(=O)(=O)[O-])ccc4F)c4nc(c(-c5cc(S(=O)(=O)[O-])ccc5F)c5ccc2[nH]5)C=C4)C=C3)cc1
REMARK SMILES IDX 4 1 3 2 2 3 1 4 21 5 22 6 83 7 23 8 82 9 24 10 25 11 26 12
REMARK SMILES IDX 76 13 27 14 81 15 75 16 77 17 28 18 80 19 74 20 73 21 29 23
REMARK SMILES IDX 61 24 41 25 60 26 42 27 45 28 59 29 78 30 43 31 44 32 58 34
REMARK SMILES IDX 79 35 46 36 30 37 31 38 39 39 32 40 38 41 40 42 37 43 33 44
REMARK SMILES IDX 34 45 35 46 36 47 62 48 63 49 71 50 64 51 70 52 72 53 69 54
REMARK SMILES IDX 65 55 66 56 67 57 68 58 47 59 48 60 56 61 49 62 55 63 57 64
REMARK SMILES IDX 54 65 50 66 51 67 52 68 53 69 5 70 6 71 7 72 8 73 9 74 10 75
REMARK SMILES IDX 11 76 12 77 13 78 20 79 14 80 19 81 15 84 18 85 16 86 17 87
REMARK H PARENT 77 22 45 33 20 82 20 83
REMARK Flexibility Score: inf
ROOT
ATOM      1  C   UNL A   1      36.705  33.121  28.780  1.00  0.00     0.261 C 
ENDROOT
BRANCH   1   2
ATOM      2  O   UNL A   1      36.755  31.857  29.450  1.00  0.00    -0.460 OA
BRANCH   2   3
ATOM      3  C   UNL A   1      36.467  30.654  28.908  1.00  0.00     0.338 C 
ATOM      4  O   UNL A   1      35.318  30.436  28.526  1.00  0.00    -0.246 OA
BRANCH   3   5
ATOM      5  C   UNL A   1      37.508  29.609  28.694  1.00  0.00     0.060 A 
ATOM      6  C   UNL A   1      37.833  28.582  29.583  1.00  0.00     0.016 A 
ATOM      7  C   UNL A   1      38.276  29.764  27.534  1.00  0.00     0.016 A 
ATOM      8  C   UNL A   1      39.078  28.009  29.548  1.00  0.00     0.010 A 
ATOM      9  C   UNL A   1      39.480  29.103  27.423  1.00  0.00     0.010 A 
ATOM     10  C   UNL A   1      39.925  28.361  28.512  1.00  0.00    -0.014 A 
BRANCH  10  11
ATOM     11  C   UNL A   1      41.294  27.906  28.606  1.00  0.00     0.031 A 
ATOM     12  C   UNL A   1      41.539  26.575  27.992  1.00  0.00     0.074 A 
ATOM     13  C   UNL A   1      42.211  28.740  29.135  1.00  0.00     0.049 A 
ATOM     14  N   UNL A   1      42.128  25.541  28.494  1.00  0.00    -0.248 NA
ATOM     15  C   UNL A   1      40.897  26.313  26.687  1.00  0.00     0.031 C 
ATOM     16  C   UNL A   1      42.015  30.132  29.563  1.00  0.00     0.029 A 
ATOM     17  N   UNL A   1      43.552  28.585  29.237  1.00  0.00    -0.354 N 
ATOM     18  C   UNL A   1      42.132  24.583  27.484  1.00  0.00     0.074 A 
ATOM     19  C   UNL A   1      41.203  25.034  26.486  1.00  0.00     0.031 C 
ATOM     20  C   UNL A   1      43.207  30.765  29.557  1.00  0.00     0.029 A 
ATOM     21  C   UNL A   1      44.242  29.792  29.255  1.00  0.00     0.049 A 
ATOM     22  H   UNL A   1      43.995  27.707  29.291  1.00  0.00     0.167 HD
ATOM     23  C   UNL A   1      43.092  23.622  27.413  1.00  0.00     0.034 A 
ATOM     24  C   UNL A   1      45.538  29.987  28.893  1.00  0.00     0.034 A 
ATOM     25  C   UNL A   1      43.692  23.380  28.700  1.00  0.00     0.049 A 
ATOM     26  C   UNL A   1      46.196  28.655  28.942  1.00  0.00     0.074 A 
ATOM     27  C   UNL A   1      43.202  22.953  29.920  1.00  0.00     0.029 A 
ATOM     28  N   UNL A   1      44.916  23.947  28.973  1.00  0.00    -0.354 N 
ATOM     29  N   UNL A   1      46.326  27.962  30.044  1.00  0.00    -0.248 NA
ATOM     30  C   UNL A   1      46.237  27.865  27.717  1.00  0.00     0.031 C 
ATOM     31  C   UNL A   1      43.894  23.740  30.886  1.00  0.00     0.029 A 
ATOM     32  C   UNL A   1      44.814  24.545  30.208  1.00  0.00     0.049 A 
ATOM     33  H   UNL A   1      45.712  23.929  28.395  1.00  0.00     0.167 HD
ATOM     34  C   UNL A   1      46.038  26.652  29.689  1.00  0.00     0.074 A 
ATOM     35  C   UNL A   1      46.087  26.638  28.227  1.00  0.00     0.031 C 
ATOM     36  C   UNL A   1      45.494  25.771  30.582  1.00  0.00     0.034 A 
BRANCH  23  37
ATOM     37  C   UNL A   1      43.719  23.179  26.111  1.00  0.00     0.023 A 
ATOM     38  C   UNL A   1      43.739  21.802  25.828  1.00  0.00     0.031 A 
ATOM     39  C   UNL A   1      44.542  23.989  25.290  1.00  0.00     0.131 A 
ATOM     40  C   UNL A   1      44.597  21.284  24.842  1.00  0.00     0.055 A 
ATOM     41  C   UNL A   1      45.338  23.477  24.266  1.00  0.00     0.041 A 
ATOM     42  F   UNL A   1      44.704  25.302  25.494  1.00  0.00    -0.206 F 
ATOM     43  C   UNL A   1      45.394  22.113  24.056  1.00  0.00     0.022 A 
BRANCH  40  44
ATOM     44  S   UNL A   1      44.797  19.488  24.731  1.00  0.00     0.124 S 
ATOM     45  O   UNL A   1      46.143  19.304  25.261  1.00  0.00    -0.237 OA
ATOM     46  O   UNL A   1      43.702  19.014  25.572  1.00  0.00    -0.237 OA
ATOM     47  O   UNL A   1      44.649  19.218  23.303  1.00  0.00    -0.744 OA
ENDBRANCH  40  44
ENDBRANCH  23  37
BRANCH  24  48
ATOM     48  C   UNL A   1      46.029  31.156  28.106  1.00  0.00     0.023 A 
ATOM     49  C   UNL A   1      45.252  31.803  27.127  1.00  0.00     0.031 A 
ATOM     50  C   UNL A   1      47.254  31.778  28.451  1.00  0.00     0.131 A 
ATOM     51  C   UNL A   1      45.719  32.997  26.523  1.00  0.00     0.055 A 
ATOM     52  C   UNL A   1      47.719  32.943  27.840  1.00  0.00     0.041 A 
ATOM     53  F   UNL A   1      48.014  31.311  29.456  1.00  0.00    -0.206 F 
ATOM     54  C   UNL A   1      46.948  33.563  26.872  1.00  0.00     0.022 A 
BRANCH  51  55
ATOM     55  S   UNL A   1      44.685  33.881  25.312  1.00  0.00     0.124 S 
ATOM     56  O   UNL A   1      43.789  34.648  26.171  1.00  0.00    -0.237 OA
ATOM     57  O   UNL A   1      45.672  34.644  24.558  1.00  0.00    -0.237 OA
ATOM     58  O   UNL A   1      44.040  32.803  24.560  1.00  0.00    -0.744 OA
ENDBRANCH  51  55
ENDBRANCH  24  48
BRANCH  36  59
ATOM     59  C   UNL A   1      45.376  26.196  32.036  1.00  0.00     0.023 A 
ATOM     60  C   UNL A   1      44.218  26.773  32.610  1.00  0.00     0.031 A 
ATOM     61  C   UNL A   1      46.425  25.853  32.904  1.00  0.00     0.131 A 
ATOM     62  C   UNL A   1      44.148  26.993  34.001  1.00  0.00     0.055 A 
ATOM     63  C   UNL A   1      46.346  26.056  34.282  1.00  0.00     0.041 A 
ATOM     64  F   UNL A   1      47.535  25.262  32.428  1.00  0.00    -0.206 F 
ATOM     65  C   UNL A   1      45.209  26.631  34.836  1.00  0.00     0.022 A 
BRANCH  62  66
ATOM     66  S   UNL A   1      42.665  27.746  34.752  1.00  0.00     0.124 S 
ATOM     67  O   UNL A   1      41.677  27.693  33.681  1.00  0.00    -0.237 OA
ATOM     68  O   UNL A   1      42.414  26.879  35.901  1.00  0.00    -0.237 OA
ATOM     69  O   UNL A   1      43.110  29.097  35.101  1.00  0.00    -0.744 OA
ENDBRANCH  62  66
ENDBRANCH  36  59
ENDBRANCH  10  11
ENDBRANCH   3   5
ENDBRANCH   2   3
ENDBRANCH   1   2
BRANCH   1  70
ATOM     70  C   UNL A   1      35.563  33.995  29.319  1.00  0.00     0.202 C 
BRANCH  70  71
ATOM     71  O   UNL A   1      34.945  33.699  30.566  1.00  0.00    -0.374 OA
BRANCH  71  72
ATOM     72  C   UNL A   1      34.073  34.664  31.169  1.00  0.00     0.202 C 
BRANCH  72  73
ATOM     73  C   UNL A   1      34.262  35.032  32.645  1.00  0.00     0.261 C 
BRANCH  73  74
ATOM     74  O   UNL A   1      35.648  35.228  32.990  1.00  0.00    -0.459 OA
BRANCH  74  75
ATOM     75  C   UNL A   1      36.195  34.270  33.797  1.00  0.00     0.365 C 
ATOM     76  O   UNL A   1      35.638  33.776  34.759  1.00  0.00    -0.245 OA
BRANCH  75  77
ATOM     77  C   UNL A   1      37.557  33.796  33.245  1.00  0.00     0.296 C 
ATOM     78  C   UNL A   1      38.519  33.484  34.405  1.00  0.00     0.111 C 
ATOM     79  N   UNL A   1      37.449  32.623  32.334  1.00  0.00    -0.330 N 
ATOM     80  C   UNL A   1      38.124  32.206  35.133  1.00  0.00     0.164 C 
ATOM     81  C   UNL A   1      36.980  31.391  32.984  1.00  0.00     0.316 C 
ATOM     82  H   UNL A   1      38.370  32.442  31.935  1.00  0.00     0.347 HD
ATOM     83  H   UNL A   1      36.751  32.864  31.631  1.00  0.00     0.347 HD
ATOM     84  N   UNL A   1      39.232  31.633  35.923  1.00  0.00    -0.264 NA
ATOM     85  C   UNL A   1      37.904  31.133  34.125  1.00  0.00     0.098 C 
ATOM     86  C   UNL A   1      39.397  30.446  35.417  1.00  0.00     0.216 C 
ATOM     87  N   UNL A   1      38.628  30.087  34.340  1.00  0.00    -0.238 NA
ENDBRANCH  75  77
ENDBRANCH  74  75
ENDBRANCH  73  74
ENDBRANCH  72  73
ENDBRANCH  71  72
ENDBRANCH  70  71
ENDBRANCH   1  70
TORSDOF 17
ENDMDL
