MODEL 1
REMARK VINA RESULT:     -11.6      0.000      0.000
REMARK SMILES C[C@H](NC(=O)c1c(C(=O)OCCOCCOC(=O)c2ccc(-c3c4nc(c(-c5cc(S(=O)(=O)[O-])ccc5F)c5ccc([nH]5)c(-c5cc(S(=O)(=O)[O-])ccc5F)c5nc(c(-c6cc(S(=O)(=O)[O-])ccc6F)c6ccc3[nH]6)C=C5)C=C4)cc2)cnn1C)[C@]12C[C@H]3C[C@H](C[C@H](C3)C1)C2
REMARK SMILES IDX 13 1 12 2 11 3 10 4 8 5 9 6 7 7 6 8 84 9 82 10 83 11 85 12
REMARK SMILES IDX 4 13 3 14 5 16 2 17 1 18 86 19 87 20 94 21 95 22 88 23 92 24
REMARK SMILES IDX 90 25 89 26 93 27 91 28 14 29 15 30 16 31 17 32 18 33 19 34
REMARK SMILES IDX 20 35 81 36 21 37 80 38 22 39 23 40 24 41 74 42 25 43 79 44
REMARK SMILES IDX 73 45 75 46 26 47 78 48 72 49 71 50 27 52 59 53 39 54 58 55
REMARK SMILES IDX 40 56 43 57 57 58 76 59 41 60 42 61 56 63 77 64 44 65 28 66
REMARK SMILES IDX 29 67 37 68 30 69 36 70 38 71 35 72 31 73 32 74 33 75 34 76
REMARK SMILES IDX 60 77 61 78 69 79 62 80 68 81 70 82 67 83 63 84 64 85 65 86
REMARK SMILES IDX 66 87 45 88 46 89 54 90 47 91 53 92 55 93 52 94 48 95 49 96
REMARK SMILES IDX 50 97 51 98
REMARK H PARENT 3 15 75 51 43 62
REMARK Flexibility Score: inf
ROOT
ATOM      1  O   UNL A   1      32.834  30.685  26.615  1.00  0.00    -0.374 OA
ENDROOT
BRANCH   1   2
ATOM      2  C   UNL A   1      32.752  29.395  27.228  1.00  0.00     0.202 C 
BRANCH   2   3
ATOM      3  C   UNL A   1      31.590  28.533  26.731  1.00  0.00     0.261 C 
BRANCH   3   4
ATOM      4  O   UNL A   1      31.601  27.251  27.383  1.00  0.00    -0.460 OA
BRANCH   4   5
ATOM      5  C   UNL A   1      31.162  26.208  26.631  1.00  0.00     0.342 C 
ATOM      6  O   UNL A   1      30.018  25.762  26.662  1.00  0.00    -0.246 OA
BRANCH   5   7
ATOM      7  C   UNL A   1      32.129  25.715  25.668  1.00  0.00     0.111 A 
ATOM      8  C   UNL A   1      32.027  25.436  24.302  1.00  0.00     0.140 A 
ATOM      9  N   UNL A   1      33.323  25.185  23.916  1.00  0.00    -0.262 N 
ATOM     10  C   UNL A   1      33.460  25.382  26.000  1.00  0.00     0.151 A 
ATOM     11  N   UNL A   1      34.172  24.994  24.946  1.00  0.00    -0.180 NA
ATOM     12  C   UNL A   1      33.903  25.265  22.595  1.00  0.00     0.174 C 
BRANCH   8  13
ATOM     13  C   UNL A   1      30.881  25.575  23.437  1.00  0.00     0.270 C 
ATOM     14  N   UNL A   1      30.446  26.818  23.033  1.00  0.00    -0.348 N 
ATOM     15  H   UNL A   1      29.660  26.789  22.441  1.00  0.00     0.164 HD
ATOM     16  O   UNL A   1      30.269  24.600  23.008  1.00  0.00    -0.267 OA
BRANCH  14  17
ATOM     17  C   UNL A   1      30.926  28.179  23.314  1.00  0.00     0.085 C 
ATOM     18  C   UNL A   1      32.265  28.423  22.608  1.00  0.00     0.031 C 
BRANCH  17  19
ATOM     19  C   UNL A   1      29.843  29.289  23.016  1.00  0.00    -0.009 C 
ATOM     20  C   UNL A   1      30.130  29.942  21.627  1.00  0.00     0.012 C 
ATOM     21  C   UNL A   1      29.883  30.445  24.065  1.00  0.00     0.012 C 
ATOM     22  C   UNL A   1      28.399  28.717  22.990  1.00  0.00     0.012 C 
ATOM     23  C   UNL A   1      29.099  31.035  21.290  1.00  0.00    -0.010 C 
ATOM     24  C   UNL A   1      28.847  31.539  23.736  1.00  0.00    -0.010 C 
ATOM     25  C   UNL A   1      27.371  29.813  22.653  1.00  0.00    -0.010 C 
ATOM     26  C   UNL A   1      27.695  30.412  21.275  1.00  0.00     0.007 C 
ATOM     27  C   UNL A   1      29.155  32.137  22.357  1.00  0.00     0.007 C 
ATOM     28  C   UNL A   1      27.440  30.921  23.715  1.00  0.00     0.007 C 
ENDBRANCH  17  19
ENDBRANCH  14  17
ENDBRANCH   8  13
ENDBRANCH   5   7
ENDBRANCH   4   5
ENDBRANCH   3   4
ENDBRANCH   2   3
ENDBRANCH   1   2
BRANCH   1  29
ATOM     29  C   UNL A   1      31.696  31.537  26.784  1.00  0.00     0.202 C 
BRANCH  29  30
ATOM     30  C   UNL A   1      32.019  33.025  26.949  1.00  0.00     0.261 C 
BRANCH  30  31
ATOM     31  O   UNL A   1      32.691  33.271  28.199  1.00  0.00    -0.460 OA
BRANCH  31  32
ATOM     32  C   UNL A   1      33.815  34.025  28.105  1.00  0.00     0.338 C 
ATOM     33  O   UNL A   1      33.871  35.229  27.920  1.00  0.00    -0.246 OA
BRANCH  32  34
ATOM     34  C   UNL A   1      35.001  33.209  28.445  1.00  0.00     0.060 A 
ATOM     35  C   UNL A   1      34.771  31.971  29.059  1.00  0.00     0.016 A 
ATOM     36  C   UNL A   1      36.308  33.651  28.215  1.00  0.00     0.016 A 
ATOM     37  C   UNL A   1      35.844  31.193  29.491  1.00  0.00     0.010 A 
ATOM     38  C   UNL A   1      37.383  32.872  28.660  1.00  0.00     0.010 A 
ATOM     39  C   UNL A   1      37.157  31.656  29.330  1.00  0.00    -0.014 A 
BRANCH  39  40
ATOM     40  C   UNL A   1      38.270  30.936  29.997  1.00  0.00     0.031 A 
ATOM     41  C   UNL A   1      38.577  31.250  31.437  1.00  0.00     0.074 A 
ATOM     42  C   UNL A   1      38.973  29.992  29.345  1.00  0.00     0.049 A 
ATOM     43  N   UNL A   1      39.508  30.760  32.214  1.00  0.00    -0.248 NA
ATOM     44  C   UNL A   1      37.718  32.253  32.085  1.00  0.00     0.031 C 
ATOM     45  C   UNL A   1      38.740  29.567  27.965  1.00  0.00     0.029 A 
ATOM     46  N   UNL A   1      40.030  29.219  29.759  1.00  0.00    -0.354 N 
ATOM     47  C   UNL A   1      39.353  31.397  33.441  1.00  0.00     0.074 A 
ATOM     48  C   UNL A   1      38.254  32.328  33.295  1.00  0.00     0.031 C 
ATOM     49  C   UNL A   1      39.633  28.615  27.644  1.00  0.00     0.029 A 
ATOM     50  C   UNL A   1      40.523  28.386  28.782  1.00  0.00     0.049 A 
ATOM     51  H   UNL A   1      40.400  29.258  30.670  1.00  0.00     0.167 HD
ATOM     52  C   UNL A   1      40.057  31.218  34.585  1.00  0.00     0.034 A 
ATOM     53  C   UNL A   1      41.582  27.551  28.800  1.00  0.00     0.034 A 
ATOM     54  C   UNL A   1      41.149  30.287  34.722  1.00  0.00     0.049 A 
ATOM     55  C   UNL A   1      42.401  27.429  30.064  1.00  0.00     0.074 A 
ATOM     56  C   UNL A   1      41.907  30.005  35.845  1.00  0.00     0.029 A 
ATOM     57  N   UNL A   1      41.651  29.496  33.697  1.00  0.00    -0.354 N 
ATOM     58  N   UNL A   1      42.227  28.022  31.223  1.00  0.00    -0.248 NA
ATOM     59  C   UNL A   1      43.555  26.520  30.023  1.00  0.00     0.031 C 
ATOM     60  C   UNL A   1      42.906  29.093  35.485  1.00  0.00     0.029 A 
ATOM     61  C   UNL A   1      42.730  28.754  34.153  1.00  0.00     0.049 A 
ATOM     62  H   UNL A   1      41.292  29.464  32.781  1.00  0.00     0.167 HD
ATOM     63  C   UNL A   1      43.229  27.528  32.055  1.00  0.00     0.074 A 
ATOM     64  C   UNL A   1      43.997  26.585  31.270  1.00  0.00     0.031 C 
ATOM     65  C   UNL A   1      43.489  27.821  33.355  1.00  0.00     0.034 A 
BRANCH  52  66
ATOM     66  C   UNL A   1      39.700  32.087  35.764  1.00  0.00     0.023 A 
ATOM     67  C   UNL A   1      38.749  31.691  36.719  1.00  0.00     0.031 A 
ATOM     68  C   UNL A   1      40.316  33.341  35.924  1.00  0.00     0.131 A 
ATOM     69  C   UNL A   1      38.402  32.564  37.762  1.00  0.00     0.055 A 
ATOM     70  C   UNL A   1      40.015  34.177  37.000  1.00  0.00     0.041 A 
ATOM     71  F   UNL A   1      41.214  33.779  35.027  1.00  0.00    -0.206 F 
ATOM     72  C   UNL A   1      39.045  33.794  37.921  1.00  0.00     0.022 A 
BRANCH  69  73
ATOM     73  S   UNL A   1      37.018  32.118  38.847  1.00  0.00     0.124 S 
ATOM     74  O   UNL A   1      36.939  30.673  38.646  1.00  0.00    -0.237 OA
ATOM     75  O   UNL A   1      37.489  32.557  40.156  1.00  0.00    -0.237 OA
ATOM     76  O   UNL A   1      35.897  32.879  38.301  1.00  0.00    -0.744 OA
ENDBRANCH  69  73
ENDBRANCH  52  66
BRANCH  53  77
ATOM     77  C   UNL A   1      41.974  26.791  27.578  1.00  0.00     0.023 A 
ATOM     78  C   UNL A   1      41.773  25.404  27.488  1.00  0.00     0.031 A 
ATOM     79  C   UNL A   1      42.636  27.430  26.514  1.00  0.00     0.131 A 
ATOM     80  C   UNL A   1      42.275  24.693  26.388  1.00  0.00     0.055 A 
ATOM     81  C   UNL A   1      43.086  26.727  25.395  1.00  0.00     0.041 A 
ATOM     82  F   UNL A   1      42.860  28.753  26.550  1.00  0.00    -0.206 F 
ATOM     83  C   UNL A   1      42.920  25.346  25.335  1.00  0.00     0.022 A 
BRANCH  80  84
ATOM     84  S   UNL A   1      42.166  22.882  26.400  1.00  0.00     0.124 S 
ATOM     85  O   UNL A   1      43.252  22.525  27.305  1.00  0.00    -0.237 OA
ATOM     86  O   UNL A   1      40.813  22.665  26.902  1.00  0.00    -0.237 OA
ATOM     87  O   UNL A   1      42.375  22.519  24.999  1.00  0.00    -0.744 OA
ENDBRANCH  80  84
ENDBRANCH  53  77
BRANCH  65  88
ATOM     88  C   UNL A   1      44.616  27.070  34.016  1.00  0.00     0.023 A 
ATOM     89  C   UNL A   1      44.421  25.807  34.602  1.00  0.00     0.031 A 
ATOM     90  C   UNL A   1      45.904  27.633  34.069  1.00  0.00     0.131 A 
ATOM     91  C   UNL A   1      45.485  25.171  35.260  1.00  0.00     0.055 A 
ATOM     92  C   UNL A   1      46.970  26.972  34.679  1.00  0.00     0.041 A 
ATOM     93  F   UNL A   1      46.145  28.836  33.524  1.00  0.00    -0.206 F 
ATOM     94  C   UNL A   1      46.761  25.739  35.290  1.00  0.00     0.022 A 
BRANCH  91  95
ATOM     95  S   UNL A   1      45.159  23.622  36.148  1.00  0.00     0.124 S 
ATOM     96  O   UNL A   1      46.376  22.860  35.888  1.00  0.00    -0.237 OA
ATOM     97  O   UNL A   1      44.978  24.082  37.521  1.00  0.00    -0.237 OA
ATOM     98  O   UNL A   1      43.953  23.104  35.505  1.00  0.00    -0.744 OA
ENDBRANCH  91  95
ENDBRANCH  65  88
ENDBRANCH  39  40
ENDBRANCH  32  34
ENDBRANCH  31  32
ENDBRANCH  30  31
ENDBRANCH  29  30
ENDBRANCH   1  29
TORSDOF 20
ENDMDL
MODEL 2
REMARK VINA RESULT:     -11.2      5.015     10.306
REMARK SMILES C[C@H](NC(=O)c1c(C(=O)OCCOCCOC(=O)c2ccc(-c3c4nc(c(-c5cc(S(=O)(=O)[O-])ccc5F)c5ccc([nH]5)c(-c5cc(S(=O)(=O)[O-])ccc5F)c5nc(c(-c6cc(S(=O)(=O)[O-])ccc6F)c6ccc3[nH]6)C=C5)C=C4)cc2)cnn1C)[C@]12C[C@H]3C[C@H](C[C@H](C3)C1)C2
REMARK SMILES IDX 13 1 12 2 11 3 10 4 8 5 9 6 7 7 6 8 84 9 82 10 83 11 85 12
REMARK SMILES IDX 4 13 3 14 5 16 2 17 1 18 86 19 87 20 94 21 95 22 88 23 92 24
REMARK SMILES IDX 90 25 89 26 93 27 91 28 14 29 15 30 16 31 17 32 18 33 19 34
REMARK SMILES IDX 20 35 81 36 21 37 80 38 22 39 23 40 24 41 74 42 25 43 79 44
REMARK SMILES IDX 73 45 75 46 26 47 78 48 72 49 71 50 27 52 59 53 39 54 58 55
REMARK SMILES IDX 40 56 43 57 57 58 76 59 41 60 42 61 56 63 77 64 44 65 28 66
REMARK SMILES IDX 29 67 37 68 30 69 36 70 38 71 35 72 31 73 32 74 33 75 34 76
REMARK SMILES IDX 60 77 61 78 69 79 62 80 68 81 70 82 67 83 63 84 64 85 65 86
REMARK SMILES IDX 66 87 45 88 46 89 54 90 47 91 53 92 55 93 52 94 48 95 49 96
REMARK SMILES IDX 50 97 51 98
REMARK H PARENT 3 15 75 51 43 62
REMARK Flexibility Score: inf
ROOT
ATOM      1  O   UNL A   1      37.739  21.882  25.600  1.00  0.00    -0.374 OA
ENDROOT
BRANCH   1   2
ATOM      2  C   UNL A   1      37.016  22.862  24.850  1.00  0.00     0.202 C 
BRANCH   2   3
ATOM      3  C   UNL A   1      35.763  23.393  25.548  1.00  0.00     0.261 C 
BRANCH   3   4
ATOM      4  O   UNL A   1      35.530  22.680  26.774  1.00  0.00    -0.460 OA
BRANCH   4   5
ATOM      5  C   UNL A   1      34.258  22.241  26.964  1.00  0.00     0.342 C 
ATOM      6  O   UNL A   1      33.541  22.573  27.903  1.00  0.00    -0.246 OA
BRANCH   5   7
ATOM      7  C   UNL A   1      33.741  21.420  25.883  1.00  0.00     0.111 A 
ATOM      8  C   UNL A   1      32.533  21.457  25.180  1.00  0.00     0.140 A 
ATOM      9  N   UNL A   1      32.716  20.552  24.160  1.00  0.00    -0.262 N 
ATOM     10  C   UNL A   1      34.441  20.326  25.332  1.00  0.00     0.151 A 
ATOM     11  N   UNL A   1      33.789  19.753  24.324  1.00  0.00    -0.180 NA
ATOM     12  C   UNL A   1      32.024  20.468  22.894  1.00  0.00     0.174 C 
BRANCH   8  13
ATOM     13  C   UNL A   1      31.425  22.366  25.339  1.00  0.00     0.270 C 
ATOM     14  N   UNL A   1      31.513  23.672  24.910  1.00  0.00    -0.348 N 
ATOM     15  H   UNL A   1      30.694  24.196  25.065  1.00  0.00     0.164 HD
ATOM     16  O   UNL A   1      30.358  22.009  25.834  1.00  0.00    -0.267 OA
BRANCH  14  17
ATOM     17  C   UNL A   1      32.592  24.435  24.265  1.00  0.00     0.085 C 
ATOM     18  C   UNL A   1      32.557  24.220  22.748  1.00  0.00     0.031 C 
BRANCH  17  19
ATOM     19  C   UNL A   1      32.607  25.957  24.687  1.00  0.00    -0.009 C 
ATOM     20  C   UNL A   1      33.466  26.775  23.671  1.00  0.00     0.012 C 
ATOM     21  C   UNL A   1      33.259  26.171  26.090  1.00  0.00     0.012 C 
ATOM     22  C   UNL A   1      31.183  26.577  24.722  1.00  0.00     0.012 C 
ATOM     23  C   UNL A   1      33.513  28.268  24.040  1.00  0.00    -0.010 C 
ATOM     24  C   UNL A   1      33.302  27.665  26.468  1.00  0.00    -0.010 C 
ATOM     25  C   UNL A   1      31.234  28.071  25.092  1.00  0.00    -0.010 C 
ATOM     26  C   UNL A   1      32.081  28.826  24.055  1.00  0.00     0.007 C 
ATOM     27  C   UNL A   1      34.137  28.431  25.432  1.00  0.00     0.007 C 
ATOM     28  C   UNL A   1      31.873  28.231  26.480  1.00  0.00     0.007 C 
ENDBRANCH  17  19
ENDBRANCH  14  17
ENDBRANCH   8  13
ENDBRANCH   5   7
ENDBRANCH   4   5
ENDBRANCH   3   4
ENDBRANCH   2   3
ENDBRANCH   1   2
BRANCH   1  29
ATOM     29  C   UNL A   1      37.902  20.605  24.975  1.00  0.00     0.202 C 
BRANCH  29  30
ATOM     30  C   UNL A   1      38.884  19.661  25.676  1.00  0.00     0.261 C 
BRANCH  30  31
ATOM     31  O   UNL A   1      40.231  20.166  25.597  1.00  0.00    -0.460 OA
BRANCH  31  32
ATOM     32  C   UNL A   1      40.885  20.239  26.784  1.00  0.00     0.338 C 
ATOM     33  O   UNL A   1      41.424  19.321  27.377  1.00  0.00    -0.246 OA
BRANCH  32  34
ATOM     34  C   UNL A   1      41.023  21.653  27.198  1.00  0.00     0.060 A 
ATOM     35  C   UNL A   1      40.618  22.632  26.281  1.00  0.00     0.016 A 
ATOM     36  C   UNL A   1      41.572  22.024  28.429  1.00  0.00     0.016 A 
ATOM     37  C   UNL A   1      40.808  23.982  26.567  1.00  0.00     0.010 A 
ATOM     38  C   UNL A   1      41.771  23.382  28.710  1.00  0.00     0.010 A 
ATOM     39  C   UNL A   1      41.421  24.366  27.768  1.00  0.00    -0.014 A 
BRANCH  39  40
ATOM     40  C   UNL A   1      41.827  25.781  27.958  1.00  0.00     0.031 A 
ATOM     41  C   UNL A   1      43.140  26.242  27.383  1.00  0.00     0.074 A 
ATOM     42  C   UNL A   1      41.026  26.650  28.600  1.00  0.00     0.049 A 
ATOM     43  N   UNL A   1      43.703  27.422  27.440  1.00  0.00    -0.248 NA
ATOM     44  C   UNL A   1      43.921  25.236  26.648  1.00  0.00     0.031 C 
ATOM     45  C   UNL A   1      39.712  26.334  29.159  1.00  0.00     0.029 A 
ATOM     46  N   UNL A   1      41.201  27.981  28.891  1.00  0.00    -0.354 N 
ATOM     47  C   UNL A   1      44.907  27.301  26.754  1.00  0.00     0.074 A 
ATOM     48  C   UNL A   1      45.003  25.925  26.313  1.00  0.00     0.031 C 
ATOM     49  C   UNL A   1      39.204  27.438  29.732  1.00  0.00     0.029 A 
ATOM     50  C   UNL A   1      40.168  28.532  29.611  1.00  0.00     0.049 A 
ATOM     51  H   UNL A   1      41.993  28.492  28.608  1.00  0.00     0.167 HD
ATOM     52  C   UNL A   1      45.843  28.250  26.508  1.00  0.00     0.034 A 
ATOM     53  C   UNL A   1      40.028  29.768  30.131  1.00  0.00     0.034 A 
ATOM     54  C   UNL A   1      45.737  29.619  26.950  1.00  0.00     0.049 A 
ATOM     55  C   UNL A   1      41.123  30.786  29.911  1.00  0.00     0.074 A 
ATOM     56  C   UNL A   1      46.613  30.666  26.726  1.00  0.00     0.029 A 
ATOM     57  N   UNL A   1      44.699  30.127  27.719  1.00  0.00    -0.354 N 
ATOM     58  N   UNL A   1      42.246  30.662  29.241  1.00  0.00    -0.248 NA
ATOM     59  C   UNL A   1      40.928  32.112  30.515  1.00  0.00     0.031 C 
ATOM     60  C   UNL A   1      46.139  31.790  27.414  1.00  0.00     0.029 A 
ATOM     61  C   UNL A   1      44.932  31.462  28.009  1.00  0.00     0.049 A 
ATOM     62  H   UNL A   1      43.913  29.614  28.015  1.00  0.00     0.167 HD
ATOM     63  C   UNL A   1      42.869  31.905  29.314  1.00  0.00     0.074 A 
ATOM     64  C   UNL A   1      41.997  32.766  30.086  1.00  0.00     0.031 C 
ATOM     65  C   UNL A   1      44.054  32.305  28.785  1.00  0.00     0.034 A 
BRANCH  52  66
ATOM     66  C   UNL A   1      47.088  27.825  25.772  1.00  0.00     0.023 A 
ATOM     67  C   UNL A   1      47.241  28.031  24.390  1.00  0.00     0.031 A 
ATOM     68  C   UNL A   1      48.132  27.190  26.467  1.00  0.00     0.131 A 
ATOM     69  C   UNL A   1      48.390  27.557  23.738  1.00  0.00     0.055 A 
ATOM     70  C   UNL A   1      49.301  26.781  25.824  1.00  0.00     0.041 A 
ATOM     71  F   UNL A   1      48.027  26.948  27.783  1.00  0.00    -0.206 F 
ATOM     72  C   UNL A   1      49.431  26.954  24.450  1.00  0.00     0.022 A 
BRANCH  69  73
ATOM     73  S   UNL A   1      48.460  27.640  21.928  1.00  0.00     0.124 S 
ATOM     74  O   UNL A   1      49.574  28.561  21.716  1.00  0.00    -0.237 OA
ATOM     75  O   UNL A   1      48.701  26.249  21.557  1.00  0.00    -0.237 OA
ATOM     76  O   UNL A   1      47.147  28.164  21.558  1.00  0.00    -0.744 OA
ENDBRANCH  69  73
ENDBRANCH  52  66
BRANCH  53  77
ATOM     77  C   UNL A   1      38.832  30.120  30.952  1.00  0.00     0.023 A 
ATOM     78  C   UNL A   1      37.758  30.837  30.401  1.00  0.00     0.031 A 
ATOM     79  C   UNL A   1      38.787  29.816  32.324  1.00  0.00     0.131 A 
ATOM     80  C   UNL A   1      36.711  31.273  31.227  1.00  0.00     0.055 A 
ATOM     81  C   UNL A   1      37.717  30.206  33.131  1.00  0.00     0.041 A 
ATOM     82  F   UNL A   1      39.790  29.138  32.903  1.00  0.00    -0.206 F 
ATOM     83  C   UNL A   1      36.678  30.953  32.586  1.00  0.00     0.022 A 
BRANCH  80  84
ATOM     84  S   UNL A   1      35.442  32.359  30.520  1.00  0.00     0.124 S 
ATOM     85  O   UNL A   1      35.198  31.730  29.227  1.00  0.00    -0.237 OA
ATOM     86  O   UNL A   1      34.368  32.247  31.502  1.00  0.00    -0.237 OA
ATOM     87  O   UNL A   1      36.100  33.663  30.466  1.00  0.00    -0.744 OA
ENDBRANCH  80  84
ENDBRANCH  53  77
BRANCH  65  88
ATOM     88  C   UNL A   1      44.441  33.749  28.981  1.00  0.00     0.023 A 
ATOM     89  C   UNL A   1      45.182  34.172  30.098  1.00  0.00     0.031 A 
ATOM     90  C   UNL A   1      44.051  34.719  28.040  1.00  0.00     0.131 A 
ATOM     91  C   UNL A   1      45.467  35.535  30.272  1.00  0.00     0.055 A 
ATOM     92  C   UNL A   1      44.382  36.064  28.191  1.00  0.00     0.041 A 
ATOM     93  F   UNL A   1      43.342  34.369  26.954  1.00  0.00    -0.206 F 
ATOM     94  C   UNL A   1      45.084  36.482  29.319  1.00  0.00     0.022 A 
BRANCH  91  95
ATOM     95  S   UNL A   1      46.279  36.068  31.805  1.00  0.00     0.124 S 
ATOM     96  O   UNL A   1      45.852  37.459  31.909  1.00  0.00    -0.237 OA
ATOM     97  O   UNL A   1      45.714  35.153  32.791  1.00  0.00    -0.237 OA
ATOM     98  O   UNL A   1      47.701  35.875  31.525  1.00  0.00    -0.744 OA
ENDBRANCH  91  95
ENDBRANCH  65  88
ENDBRANCH  39  40
ENDBRANCH  32  34
ENDBRANCH  31  32
ENDBRANCH  30  31
ENDBRANCH  29  30
ENDBRANCH   1  29
TORSDOF 20
ENDMDL
MODEL 3
REMARK VINA RESULT:     -11.1      2.079      4.171
REMARK SMILES C[C@H](NC(=O)c1c(C(=O)OCCOCCOC(=O)c2ccc(-c3c4nc(c(-c5cc(S(=O)(=O)[O-])ccc5F)c5ccc([nH]5)c(-c5cc(S(=O)(=O)[O-])ccc5F)c5nc(c(-c6cc(S(=O)(=O)[O-])ccc6F)c6ccc3[nH]6)C=C5)C=C4)cc2)cnn1C)[C@]12C[C@H]3C[C@H](C[C@H](C3)C1)C2
REMARK SMILES IDX 13 1 12 2 11 3 10 4 8 5 9 6 7 7 6 8 84 9 82 10 83 11 85 12
REMARK SMILES IDX 4 13 3 14 5 16 2 17 1 18 86 19 87 20 94 21 95 22 88 23 92 24
REMARK SMILES IDX 90 25 89 26 93 27 91 28 14 29 15 30 16 31 17 32 18 33 19 34
REMARK SMILES IDX 20 35 81 36 21 37 80 38 22 39 23 40 24 41 74 42 25 43 79 44
REMARK SMILES IDX 73 45 75 46 26 47 78 48 72 49 71 50 27 52 59 53 39 54 58 55
REMARK SMILES IDX 40 56 43 57 57 58 76 59 41 60 42 61 56 63 77 64 44 65 28 66
REMARK SMILES IDX 29 67 37 68 30 69 36 70 38 71 35 72 31 73 32 74 33 75 34 76
REMARK SMILES IDX 60 77 61 78 69 79 62 80 68 81 70 82 67 83 63 84 64 85 65 86
REMARK SMILES IDX 66 87 45 88 46 89 54 90 47 91 53 92 55 93 52 94 48 95 49 96
REMARK SMILES IDX 50 97 51 98
REMARK H PARENT 3 15 75 51 43 62
REMARK Flexibility Score: inf
ROOT
ATOM      1  O   UNL A   1      32.312  30.990  26.412  1.00  0.00    -0.374 OA
ENDROOT
BRANCH   1   2
ATOM      2  C   UNL A   1      32.227  29.738  27.100  1.00  0.00     0.202 C 
BRANCH   2   3
ATOM      3  C   UNL A   1      31.931  28.540  26.197  1.00  0.00     0.261 C 
BRANCH   3   4
ATOM      4  O   UNL A   1      31.784  27.344  26.981  1.00  0.00    -0.460 OA
BRANCH   4   5
ATOM      5  C   UNL A   1      31.366  26.245  26.300  1.00  0.00     0.342 C 
ATOM      6  O   UNL A   1      31.129  25.156  26.816  1.00  0.00    -0.246 OA
BRANCH   5   7
ATOM      7  C   UNL A   1      31.091  26.481  24.894  1.00  0.00     0.111 A 
ATOM      8  C   UNL A   1      31.930  26.538  23.777  1.00  0.00     0.140 A 
ATOM      9  N   UNL A   1      31.061  26.602  22.713  1.00  0.00    -0.262 N 
ATOM     10  C   UNL A   1      29.801  26.741  24.385  1.00  0.00     0.151 A 
ATOM     11  N   UNL A   1      29.789  26.881  23.062  1.00  0.00    -0.180 NA
ATOM     12  C   UNL A   1      31.299  26.251  21.331  1.00  0.00     0.174 C 
BRANCH   8  13
ATOM     13  C   UNL A   1      33.360  26.363  23.714  1.00  0.00     0.270 C 
ATOM     14  N   UNL A   1      33.914  25.113  23.539  1.00  0.00    -0.348 N 
ATOM     15  H   UNL A   1      34.897  25.117  23.505  1.00  0.00     0.164 HD
ATOM     16  O   UNL A   1      34.135  27.314  23.786  1.00  0.00    -0.267 OA
BRANCH  14  17
ATOM     17  C   UNL A   1      33.321  23.776  23.393  1.00  0.00     0.085 C 
ATOM     18  C   UNL A   1      33.336  23.349  21.920  1.00  0.00     0.031 C 
BRANCH  17  19
ATOM     19  C   UNL A   1      33.960  22.708  24.366  1.00  0.00    -0.009 C 
ATOM     20  C   UNL A   1      33.058  21.435  24.413  1.00  0.00     0.012 C 
ATOM     21  C   UNL A   1      34.059  23.235  25.832  1.00  0.00     0.012 C 
ATOM     22  C   UNL A   1      35.383  22.274  23.917  1.00  0.00     0.012 C 
ATOM     23  C   UNL A   1      33.639  20.362  25.351  1.00  0.00    -0.010 C 
ATOM     24  C   UNL A   1      34.648  22.167  26.775  1.00  0.00    -0.010 C 
ATOM     25  C   UNL A   1      35.961  21.201  24.858  1.00  0.00    -0.010 C 
ATOM     26  C   UNL A   1      35.041  19.970  24.857  1.00  0.00     0.007 C 
ATOM     27  C   UNL A   1      33.741  20.928  26.774  1.00  0.00     0.007 C 
ATOM     28  C   UNL A   1      36.048  21.767  26.283  1.00  0.00     0.007 C 
ENDBRANCH  17  19
ENDBRANCH  14  17
ENDBRANCH   8  13
ENDBRANCH   5   7
ENDBRANCH   4   5
ENDBRANCH   3   4
ENDBRANCH   2   3
ENDBRANCH   1   2
BRANCH   1  29
ATOM     29  C   UNL A   1      31.349  31.981  26.785  1.00  0.00     0.202 C 
BRANCH  29  30
ATOM     30  C   UNL A   1      31.897  33.407  26.897  1.00  0.00     0.261 C 
BRANCH  30  31
ATOM     31  O   UNL A   1      32.219  33.730  28.264  1.00  0.00    -0.460 OA
BRANCH  31  32
ATOM     32  C   UNL A   1      33.295  34.541  28.420  1.00  0.00     0.338 C 
ATOM     33  O   UNL A   1      33.290  35.760  28.451  1.00  0.00    -0.246 OA
BRANCH  32  34
ATOM     34  C   UNL A   1      34.494  33.735  28.739  1.00  0.00     0.060 A 
ATOM     35  C   UNL A   1      34.283  32.460  29.281  1.00  0.00     0.016 A 
ATOM     36  C   UNL A   1      35.794  34.218  28.560  1.00  0.00     0.016 A 
ATOM     37  C   UNL A   1      35.365  31.685  29.693  1.00  0.00     0.010 A 
ATOM     38  C   UNL A   1      36.879  33.441  28.984  1.00  0.00     0.010 A 
ATOM     39  C   UNL A   1      36.669  32.186  29.582  1.00  0.00    -0.014 A 
BRANCH  39  40
ATOM     40  C   UNL A   1      37.787  31.456  30.232  1.00  0.00     0.031 A 
ATOM     41  C   UNL A   1      38.113  31.761  31.670  1.00  0.00     0.074 A 
ATOM     42  C   UNL A   1      38.477  30.512  29.567  1.00  0.00     0.049 A 
ATOM     43  N   UNL A   1      39.051  31.262  32.433  1.00  0.00    -0.248 NA
ATOM     44  C   UNL A   1      37.268  32.765  32.334  1.00  0.00     0.031 C 
ATOM     45  C   UNL A   1      38.224  30.096  28.188  1.00  0.00     0.029 A 
ATOM     46  N   UNL A   1      39.534  29.731  29.964  1.00  0.00    -0.354 N 
ATOM     47  C   UNL A   1      38.914  31.893  33.665  1.00  0.00     0.074 A 
ATOM     48  C   UNL A   1      37.819  32.831  33.537  1.00  0.00     0.031 C 
ATOM     49  C   UNL A   1      39.108  29.141  27.851  1.00  0.00     0.029 A 
ATOM     50  C   UNL A   1      40.011  28.900  28.977  1.00  0.00     0.049 A 
ATOM     51  H   UNL A   1      39.915  29.763  30.871  1.00  0.00     0.167 HD
ATOM     52  C   UNL A   1      39.631  31.705  34.799  1.00  0.00     0.034 A 
ATOM     53  C   UNL A   1      41.066  28.060  28.977  1.00  0.00     0.034 A 
ATOM     54  C   UNL A   1      40.720  30.767  34.918  1.00  0.00     0.049 A 
ATOM     55  C   UNL A   1      41.899  27.926  30.231  1.00  0.00     0.074 A 
ATOM     56  C   UNL A   1      41.490  30.475  36.031  1.00  0.00     0.029 A 
ATOM     57  N   UNL A   1      41.205  29.978  33.883  1.00  0.00    -0.354 N 
ATOM     58  N   UNL A   1      41.743  28.515  31.394  1.00  0.00    -0.248 NA
ATOM     59  C   UNL A   1      43.048  27.012  30.170  1.00  0.00     0.031 C 
ATOM     60  C   UNL A   1      42.480  29.560  35.653  1.00  0.00     0.029 A 
ATOM     61  C   UNL A   1      42.285  29.229  34.322  1.00  0.00     0.049 A 
ATOM     62  H   UNL A   1      40.835  29.954  32.971  1.00  0.00     0.167 HD
ATOM     63  C   UNL A   1      42.752  28.011  32.212  1.00  0.00     0.074 A 
ATOM     64  C   UNL A   1      43.505  27.068  31.412  1.00  0.00     0.031 C 
ATOM     65  C   UNL A   1      43.029  28.296  33.510  1.00  0.00     0.034 A 
BRANCH  52  66
ATOM     66  C   UNL A   1      39.294  32.570  35.987  1.00  0.00     0.023 A 
ATOM     67  C   UNL A   1      39.798  33.875  36.124  1.00  0.00     0.031 A 
ATOM     68  C   UNL A   1      38.463  32.071  37.006  1.00  0.00     0.131 A 
ATOM     69  C   UNL A   1      39.510  34.616  37.280  1.00  0.00     0.055 A 
ATOM     70  C   UNL A   1      38.126  32.838  38.121  1.00  0.00     0.041 A 
ATOM     71  F   UNL A   1      37.974  30.823  36.937  1.00  0.00    -0.206 F 
ATOM     72  C   UNL A   1      38.659  34.115  38.269  1.00  0.00     0.022 A 
BRANCH  69  73
ATOM     73  S   UNL A   1      40.351  36.203  37.529  1.00  0.00     0.124 S 
ATOM     74  O   UNL A   1      40.591  36.630  36.152  1.00  0.00    -0.237 OA
ATOM     75  O   UNL A   1      39.361  36.973  38.273  1.00  0.00    -0.237 OA
ATOM     76  O   UNL A   1      41.551  35.841  38.280  1.00  0.00    -0.744 OA
ENDBRANCH  69  73
ENDBRANCH  52  66
BRANCH  53  77
ATOM     77  C   UNL A   1      41.438  27.304  27.746  1.00  0.00     0.023 A 
ATOM     78  C   UNL A   1      41.257  25.914  27.664  1.00  0.00     0.031 A 
ATOM     79  C   UNL A   1      42.062  27.951  26.665  1.00  0.00     0.131 A 
ATOM     80  C   UNL A   1      41.742  25.209  26.551  1.00  0.00     0.055 A 
ATOM     81  C   UNL A   1      42.494  27.254  25.536  1.00  0.00     0.041 A 
ATOM     82  F   UNL A   1      42.265  29.278  26.694  1.00  0.00    -0.206 F 
ATOM     83  C   UNL A   1      42.350  25.871  25.482  1.00  0.00     0.022 A 
BRANCH  80  84
ATOM     84  S   UNL A   1      41.663  23.397  26.569  1.00  0.00     0.124 S 
ATOM     85  O   UNL A   1      42.294  23.084  27.847  1.00  0.00    -0.237 OA
ATOM     86  O   UNL A   1      40.226  23.157  26.486  1.00  0.00    -0.237 OA
ATOM     87  O   UNL A   1      42.427  23.011  25.384  1.00  0.00    -0.744 OA
ENDBRANCH  80  84
ENDBRANCH  53  77
BRANCH  65  88
ATOM     88  C   UNL A   1      44.161  27.535  34.153  1.00  0.00     0.023 A 
ATOM     89  C   UNL A   1      43.988  26.231  34.651  1.00  0.00     0.031 A 
ATOM     90  C   UNL A   1      45.429  28.129  34.279  1.00  0.00     0.131 A 
ATOM     91  C   UNL A   1      45.052  25.584  35.297  1.00  0.00     0.055 A 
ATOM     92  C   UNL A   1      46.497  27.460  34.875  1.00  0.00     0.041 A 
ATOM     93  F   UNL A   1      45.649  29.372  33.820  1.00  0.00    -0.206 F 
ATOM     94  C   UNL A   1      46.309  26.184  35.399  1.00  0.00     0.022 A 
BRANCH  91  95
ATOM     95  S   UNL A   1      44.749  23.972  36.074  1.00  0.00     0.124 S 
ATOM     96  O   UNL A   1      45.851  23.170  35.552  1.00  0.00    -0.237 OA
ATOM     97  O   UNL A   1      44.813  24.294  37.495  1.00  0.00    -0.237 OA
ATOM     98  O   UNL A   1      43.424  23.597  35.583  1.00  0.00    -0.744 OA
ENDBRANCH  91  95
ENDBRANCH  65  88
ENDBRANCH  39  40
ENDBRANCH  32  34
ENDBRANCH  31  32
ENDBRANCH  30  31
ENDBRANCH  29  30
ENDBRANCH   1  29
TORSDOF 20
ENDMDL
