MODEL 1
REMARK VINA RESULT:     -10.5      0.000      0.000
REMARK SMILES O=C(OCCOCCOC(=O)c1noc(-c2ccccc2Cl)n1)c1ccc(-c2c3nc(c(-c4cc(S(=O)(=O)[O-])ccc4F)c4ccc([nH]4)c(-c4cc(S(=O)(=O)[O-])ccc4F)c4nc(c(-c5cc(S(=O)(=O)[O-])ccc5F)c5ccc2[nH]5)C=C4)C=C3)cc1
REMARK SMILES IDX 5 1 4 2 3 3 2 4 1 5 24 6 25 7 86 8 26 9 85 10 27 11 28 12
REMARK SMILES IDX 29 13 79 14 30 15 84 16 78 17 80 18 31 19 83 20 77 21 76 22
REMARK SMILES IDX 32 24 64 25 44 26 63 27 45 28 48 29 62 30 81 31 46 32 47 33
REMARK SMILES IDX 61 35 82 36 49 37 33 38 34 39 42 40 35 41 41 42 43 43 40 44
REMARK SMILES IDX 36 45 37 46 38 47 39 48 65 49 66 50 74 51 67 52 73 53 75 54
REMARK SMILES IDX 72 55 68 56 69 57 70 58 71 59 50 60 51 61 59 62 52 63 58 64
REMARK SMILES IDX 60 65 57 66 53 67 54 68 55 69 56 70 6 71 7 72 8 73 9 74
REMARK SMILES IDX 10 75 11 76 12 77 13 78 23 79 14 80 15 81 16 82 17 83 21 84
REMARK SMILES IDX 18 85 20 86 22 87 19 88
REMARK H PARENT 80 23 48 34
REMARK Flexibility Score: inf
ROOT
ATOM      1  C   UNL A   1      41.235  19.827  26.683  1.00  0.00     0.202 C 
ENDROOT
BRANCH   1   2
ATOM      2  C   UNL A   1      40.557  21.094  27.209  1.00  0.00     0.261 C 
BRANCH   2   3
ATOM      3  O   UNL A   1      39.661  21.627  26.220  1.00  0.00    -0.460 OA
BRANCH   3   4
ATOM      4  C   UNL A   1      38.943  22.773  26.278  1.00  0.00     0.338 C 
ATOM      5  O   UNL A   1      37.776  22.749  25.886  1.00  0.00    -0.246 OA
BRANCH   4   6
ATOM      6  C   UNL A   1      39.493  24.076  26.765  1.00  0.00     0.060 A 
ATOM      7  C   UNL A   1      40.176  25.001  25.971  1.00  0.00     0.016 A 
ATOM      8  C   UNL A   1      39.195  24.441  28.088  1.00  0.00     0.016 A 
ATOM      9  C   UNL A   1      40.575  26.233  26.462  1.00  0.00     0.010 A 
ATOM     10  C   UNL A   1      39.558  25.698  28.583  1.00  0.00     0.010 A 
ATOM     11  C   UNL A   1      40.244  26.597  27.761  1.00  0.00    -0.014 A 
BRANCH  11  12
ATOM     12  C   UNL A   1      40.662  27.928  28.226  1.00  0.00     0.031 A 
ATOM     13  C   UNL A   1      42.112  28.278  28.175  1.00  0.00     0.074 A 
ATOM     14  C   UNL A   1      39.717  28.819  28.581  1.00  0.00     0.049 A 
ATOM     15  N   UNL A   1      42.714  29.352  28.601  1.00  0.00    -0.248 NA
ATOM     16  C   UNL A   1      43.004  27.288  27.548  1.00  0.00     0.031 C 
ATOM     17  C   UNL A   1      38.270  28.578  28.521  1.00  0.00     0.029 A 
ATOM     18  N   UNL A   1      39.817  30.102  29.045  1.00  0.00    -0.354 N 
ATOM     19  C   UNL A   1      44.061  29.156  28.327  1.00  0.00     0.074 A 
ATOM     20  C   UNL A   1      44.188  27.866  27.686  1.00  0.00     0.031 C 
ATOM     21  C   UNL A   1      37.623  29.679  28.936  1.00  0.00     0.029 A 
ATOM     22  C   UNL A   1      38.604  30.665  29.371  1.00  0.00     0.049 A 
ATOM     23  H   UNL A   1      40.675  30.577  29.138  1.00  0.00     0.167 HD
ATOM     24  C   UNL A   1      45.091  29.986  28.613  1.00  0.00     0.034 A 
ATOM     25  C   UNL A   1      38.332  31.821  30.008  1.00  0.00     0.034 A 
ATOM     26  C   UNL A   1      44.904  31.259  29.261  1.00  0.00     0.049 A 
ATOM     27  C   UNL A   1      39.513  32.669  30.423  1.00  0.00     0.074 A 
ATOM     28  C   UNL A   1      45.858  32.188  29.629  1.00  0.00     0.029 A 
ATOM     29  N   UNL A   1      43.671  31.772  29.651  1.00  0.00    -0.354 N 
ATOM     30  N   UNL A   1      40.791  32.470  30.189  1.00  0.00    -0.248 NA
ATOM     31  C   UNL A   1      39.224  33.880  31.197  1.00  0.00     0.031 C 
ATOM     32  C   UNL A   1      45.211  33.221  30.316  1.00  0.00     0.029 A 
ATOM     33  C   UNL A   1      43.845  32.979  30.305  1.00  0.00     0.049 A 
ATOM     34  H   UNL A   1      42.803  31.339  29.487  1.00  0.00     0.167 HD
ATOM     35  C   UNL A   1      41.457  33.537  30.780  1.00  0.00     0.074 A 
ATOM     36  C   UNL A   1      40.435  34.394  31.350  1.00  0.00     0.031 C 
ATOM     37  C   UNL A   1      42.788  33.791  30.861  1.00  0.00     0.034 A 
BRANCH  24  38
ATOM     38  C   UNL A   1      46.484  29.487  28.340  1.00  0.00     0.023 A 
ATOM     39  C   UNL A   1      47.192  28.686  29.252  1.00  0.00     0.031 A 
ATOM     40  C   UNL A   1      47.131  29.864  27.150  1.00  0.00     0.131 A 
ATOM     41  C   UNL A   1      48.523  28.329  28.979  1.00  0.00     0.055 A 
ATOM     42  C   UNL A   1      48.430  29.450  26.853  1.00  0.00     0.041 A 
ATOM     43  F   UNL A   1      46.515  30.659  26.261  1.00  0.00    -0.206 F 
ATOM     44  C   UNL A   1      49.137  28.685  27.775  1.00  0.00     0.022 A 
BRANCH  41  45
ATOM     45  S   UNL A   1      49.485  27.489  30.267  1.00  0.00     0.124 S 
ATOM     46  O   UNL A   1      50.827  28.012  30.022  1.00  0.00    -0.237 OA
ATOM     47  O   UNL A   1      48.838  27.943  31.493  1.00  0.00    -0.237 OA
ATOM     48  O   UNL A   1      49.310  26.071  29.959  1.00  0.00    -0.744 OA
ENDBRANCH  41  45
ENDBRANCH  24  38
BRANCH  25  49
ATOM     49  C   UNL A   1      36.936  32.186  30.400  1.00  0.00     0.023 A 
ATOM     50  C   UNL A   1      36.053  32.787  29.489  1.00  0.00     0.031 A 
ATOM     51  C   UNL A   1      36.491  32.023  31.727  1.00  0.00     0.131 A 
ATOM     52  C   UNL A   1      34.804  33.261  29.929  1.00  0.00     0.055 A 
ATOM     53  C   UNL A   1      35.221  32.428  32.141  1.00  0.00     0.041 A 
ATOM     54  F   UNL A   1      37.291  31.471  32.653  1.00  0.00    -0.206 F 
ATOM     55  C   UNL A   1      34.376  33.071  31.245  1.00  0.00     0.022 A 
BRANCH  52  56
ATOM     56  S   UNL A   1      33.806  34.264  28.793  1.00  0.00     0.124 S 
ATOM     57  O   UNL A   1      34.789  35.220  28.299  1.00  0.00    -0.237 OA
ATOM     58  O   UNL A   1      33.343  33.264  27.835  1.00  0.00    -0.237 OA
ATOM     59  O   UNL A   1      32.769  34.825  29.657  1.00  0.00    -0.744 OA
ENDBRANCH  52  56
ENDBRANCH  25  49
BRANCH  37  60
ATOM     60  C   UNL A   1      43.191  35.052  31.576  1.00  0.00     0.023 A 
ATOM     61  C   UNL A   1      43.226  35.115  32.979  1.00  0.00     0.031 A 
ATOM     62  C   UNL A   1      43.561  36.193  30.844  1.00  0.00     0.131 A 
ATOM     63  C   UNL A   1      43.585  36.314  33.610  1.00  0.00     0.055 A 
ATOM     64  C   UNL A   1      43.979  37.362  31.478  1.00  0.00     0.041 A 
ATOM     65  F   UNL A   1      43.542  36.181  29.502  1.00  0.00    -0.206 F 
ATOM     66  C   UNL A   1      43.983  37.430  32.868  1.00  0.00     0.022 A 
BRANCH  63  67
ATOM     67  S   UNL A   1      43.460  36.414  35.414  1.00  0.00     0.124 S 
ATOM     68  O   UNL A   1      44.079  35.160  35.831  1.00  0.00    -0.237 OA
ATOM     69  O   UNL A   1      44.213  37.627  35.715  1.00  0.00    -0.237 OA
ATOM     70  O   UNL A   1      42.021  36.505  35.653  1.00  0.00    -0.744 OA
ENDBRANCH  63  67
ENDBRANCH  37  60
ENDBRANCH  11  12
ENDBRANCH   4   6
ENDBRANCH   3   4
ENDBRANCH   2   3
ENDBRANCH   1   2
BRANCH   1  71
ATOM     71  O   UNL A   1      42.210  19.264  27.560  1.00  0.00    -0.374 OA
BRANCH  71  72
ATOM     72  C   UNL A   1      43.061  18.247  27.016  1.00  0.00     0.202 C 
BRANCH  72  73
ATOM     73  C   UNL A   1      43.092  18.397  25.491  1.00  0.00     0.261 C 
BRANCH  73  74
ATOM     74  O   UNL A   1      44.463  18.465  25.079  1.00  0.00    -0.457 OA
BRANCH  74  75
ATOM     75  C   UNL A   1      44.710  19.484  24.187  1.00  0.00     0.380 C 
ATOM     76  O   UNL A   1      44.568  19.393  22.980  1.00  0.00    -0.242 OA
BRANCH  75  77
ATOM     77  C   UNL A   1      45.091  20.704  24.900  1.00  0.00     0.281 A 
ATOM     78  N   UNL A   1      46.367  21.060  25.152  1.00  0.00    -0.049 NA
ATOM     79  N   UNL A   1      44.160  21.605  25.377  1.00  0.00    -0.181 NA
ATOM     80  O   UNL A   1      46.234  22.176  25.984  1.00  0.00    -0.333 OA
ATOM     81  C   UNL A   1      44.896  22.388  26.123  1.00  0.00     0.259 A 
BRANCH  81  82
ATOM     82  C   UNL A   1      44.480  23.111  27.302  1.00  0.00     0.058 A 
ATOM     83  C   UNL A   1      43.201  22.950  27.847  1.00  0.00     0.015 A 
ATOM     84  C   UNL A   1      45.403  23.959  27.941  1.00  0.00     0.053 A 
ATOM     85  C   UNL A   1      42.859  23.622  29.025  1.00  0.00     0.001 A 
ATOM     86  C   UNL A   1      45.056  24.625  29.114  1.00  0.00     0.021 A 
ATOM     87  Cl  UNL A   1      46.998  24.241  27.319  1.00  0.00    -0.083 Cl
ATOM     88  C   UNL A   1      43.785  24.452  29.657  1.00  0.00     0.002 A 
ENDBRANCH  81  82
ENDBRANCH  75  77
ENDBRANCH  74  75
ENDBRANCH  73  74
ENDBRANCH  72  73
ENDBRANCH  71  72
ENDBRANCH   1  71
TORSDOF 18
ENDMDL
MODEL 2
REMARK VINA RESULT:     -10.5      4.615     10.244
REMARK SMILES O=C(OCCOCCOC(=O)c1noc(-c2ccccc2Cl)n1)c1ccc(-c2c3nc(c(-c4cc(S(=O)(=O)[O-])ccc4F)c4ccc([nH]4)c(-c4cc(S(=O)(=O)[O-])ccc4F)c4nc(c(-c5cc(S(=O)(=O)[O-])ccc5F)c5ccc2[nH]5)C=C4)C=C3)cc1
REMARK SMILES IDX 5 1 4 2 3 3 2 4 1 5 24 6 25 7 86 8 26 9 85 10 27 11 28 12
REMARK SMILES IDX 29 13 79 14 30 15 84 16 78 17 80 18 31 19 83 20 77 21 76 22
REMARK SMILES IDX 32 24 64 25 44 26 63 27 45 28 48 29 62 30 81 31 46 32 47 33
REMARK SMILES IDX 61 35 82 36 49 37 33 38 34 39 42 40 35 41 41 42 43 43 40 44
REMARK SMILES IDX 36 45 37 46 38 47 39 48 65 49 66 50 74 51 67 52 73 53 75 54
REMARK SMILES IDX 72 55 68 56 69 57 70 58 71 59 50 60 51 61 59 62 52 63 58 64
REMARK SMILES IDX 60 65 57 66 53 67 54 68 55 69 56 70 6 71 7 72 8 73 9 74
REMARK SMILES IDX 10 75 11 76 12 77 13 78 23 79 14 80 15 81 16 82 17 83 21 84
REMARK SMILES IDX 18 85 20 86 22 87 19 88
REMARK H PARENT 80 23 48 34
REMARK Flexibility Score: inf
ROOT
ATOM      1  C   UNL A   1      35.127  20.712  25.015  1.00  0.00     0.202 C 
ENDROOT
BRANCH   1   2
ATOM      2  C   UNL A   1      36.116  21.569  25.809  1.00  0.00     0.261 C 
BRANCH   2   3
ATOM      3  O   UNL A   1      37.415  21.527  25.197  1.00  0.00    -0.460 OA
BRANCH   3   4
ATOM      4  C   UNL A   1      38.621  21.454  25.808  1.00  0.00     0.338 C 
ATOM      5  O   UNL A   1      39.172  20.355  25.878  1.00  0.00    -0.246 OA
BRANCH   4   6
ATOM      6  C   UNL A   1      39.312  22.627  26.429  1.00  0.00     0.060 A 
ATOM      7  C   UNL A   1      40.368  22.541  27.339  1.00  0.00     0.016 A 
ATOM      8  C   UNL A   1      38.945  23.901  25.968  1.00  0.00     0.016 A 
ATOM      9  C   UNL A   1      41.028  23.667  27.802  1.00  0.00     0.010 A 
ATOM     10  C   UNL A   1      39.629  25.043  26.398  1.00  0.00     0.010 A 
ATOM     11  C   UNL A   1      40.679  24.920  27.313  1.00  0.00    -0.014 A 
BRANCH  11  12
ATOM     12  C   UNL A   1      41.430  26.082  27.811  1.00  0.00     0.031 A 
ATOM     13  C   UNL A   1      40.732  27.050  28.709  1.00  0.00     0.074 A 
ATOM     14  C   UNL A   1      42.743  26.177  27.528  1.00  0.00     0.049 A 
ATOM     15  N   UNL A   1      41.167  28.175  29.200  1.00  0.00    -0.248 NA
ATOM     16  C   UNL A   1      39.364  26.695  29.119  1.00  0.00     0.031 C 
ATOM     17  C   UNL A   1      43.513  25.186  26.766  1.00  0.00     0.029 A 
ATOM     18  N   UNL A   1      43.667  27.132  27.852  1.00  0.00    -0.354 N 
ATOM     19  C   UNL A   1      40.116  28.684  29.950  1.00  0.00     0.074 A 
ATOM     20  C   UNL A   1      39.025  27.739  29.861  1.00  0.00     0.031 C 
ATOM     21  C   UNL A   1      44.790  25.591  26.682  1.00  0.00     0.029 A 
ATOM     22  C   UNL A   1      44.910  26.903  27.305  1.00  0.00     0.049 A 
ATOM     23  H   UNL A   1      43.464  27.910  28.422  1.00  0.00     0.167 HD
ATOM     24  C   UNL A   1      40.076  29.854  30.629  1.00  0.00     0.034 A 
ATOM     25  C   UNL A   1      45.995  27.701  27.263  1.00  0.00     0.034 A 
ATOM     26  C   UNL A   1      41.194  30.762  30.677  1.00  0.00     0.049 A 
ATOM     27  C   UNL A   1      45.878  29.052  27.930  1.00  0.00     0.074 A 
ATOM     28  C   UNL A   1      41.285  31.987  31.308  1.00  0.00     0.029 A 
ATOM     29  N   UNL A   1      42.415  30.541  30.048  1.00  0.00    -0.354 N 
ATOM     30  N   UNL A   1      44.871  29.548  28.616  1.00  0.00    -0.248 NA
ATOM     31  C   UNL A   1      47.025  29.958  27.805  1.00  0.00     0.031 C 
ATOM     32  C   UNL A   1      42.528  32.544  30.992  1.00  0.00     0.029 A 
ATOM     33  C   UNL A   1      43.247  31.632  30.232  1.00  0.00     0.049 A 
ATOM     34  H   UNL A   1      42.654  29.729  29.547  1.00  0.00     0.167 HD
ATOM     35  C   UNL A   1      45.269  30.819  29.012  1.00  0.00     0.074 A 
ATOM     36  C   UNL A   1      46.620  30.999  28.518  1.00  0.00     0.031 C 
ATOM     37  C   UNL A   1      44.587  31.763  29.709  1.00  0.00     0.034 A 
BRANCH  24  38
ATOM     38  C   UNL A   1      38.767  30.253  31.255  1.00  0.00     0.023 A 
ATOM     39  C   UNL A   1      37.793  30.993  30.563  1.00  0.00     0.031 A 
ATOM     40  C   UNL A   1      38.511  29.915  32.596  1.00  0.00     0.131 A 
ATOM     41  C   UNL A   1      36.631  31.412  31.231  1.00  0.00     0.055 A 
ATOM     42  C   UNL A   1      37.325  30.276  33.235  1.00  0.00     0.041 A 
ATOM     43  F   UNL A   1      39.422  29.240  33.314  1.00  0.00    -0.206 F 
ATOM     44  C   UNL A   1      36.380  31.038  32.554  1.00  0.00     0.022 A 
BRANCH  41  45
ATOM     45  S   UNL A   1      35.501  32.553  30.387  1.00  0.00     0.124 S 
ATOM     46  O   UNL A   1      36.340  33.738  30.230  1.00  0.00    -0.237 OA
ATOM     47  O   UNL A   1      35.180  31.832  29.161  1.00  0.00    -0.237 OA
ATOM     48  O   UNL A   1      34.395  32.702  31.330  1.00  0.00    -0.744 OA
ENDBRANCH  41  45
ENDBRANCH  24  38
BRANCH  25  49
ATOM     49  C   UNL A   1      47.214  27.319  26.485  1.00  0.00     0.023 A 
ATOM     50  C   UNL A   1      47.379  27.705  25.146  1.00  0.00     0.031 A 
ATOM     51  C   UNL A   1      48.195  26.478  27.046  1.00  0.00     0.131 A 
ATOM     52  C   UNL A   1      48.456  27.199  24.397  1.00  0.00     0.055 A 
ATOM     53  C   UNL A   1      49.304  26.040  26.319  1.00  0.00     0.041 A 
ATOM     54  F   UNL A   1      48.090  26.058  28.317  1.00  0.00    -0.206 F 
ATOM     55  C   UNL A   1      49.428  26.383  24.979  1.00  0.00     0.022 A 
BRANCH  52  56
ATOM     56  S   UNL A   1      48.489  27.504  22.608  1.00  0.00     0.124 S 
ATOM     57  O   UNL A   1      49.738  28.241  22.455  1.00  0.00    -0.237 OA
ATOM     58  O   UNL A   1      48.474  26.146  22.070  1.00  0.00    -0.237 OA
ATOM     59  O   UNL A   1      47.274  28.280  22.373  1.00  0.00    -0.744 OA
ENDBRANCH  52  56
ENDBRANCH  25  49
BRANCH  37  60
ATOM     60  C   UNL A   1      45.312  33.053  29.983  1.00  0.00     0.023 A 
ATOM     61  C   UNL A   1      45.194  34.152  29.116  1.00  0.00     0.031 A 
ATOM     62  C   UNL A   1      46.109  33.187  31.132  1.00  0.00     0.131 A 
ATOM     63  C   UNL A   1      45.901  35.330  29.392  1.00  0.00     0.055 A 
ATOM     64  C   UNL A   1      46.759  34.382  31.433  1.00  0.00     0.041 A 
ATOM     65  F   UNL A   1      46.252  32.163  31.988  1.00  0.00    -0.206 F 
ATOM     66  C   UNL A   1      46.664  35.459  30.556  1.00  0.00     0.022 A 
BRANCH  63  67
ATOM     67  S   UNL A   1      45.863  36.669  28.172  1.00  0.00     0.124 S 
ATOM     68  O   UNL A   1      46.638  37.709  28.841  1.00  0.00    -0.237 OA
ATOM     69  O   UNL A   1      46.493  36.053  27.009  1.00  0.00    -0.237 OA
ATOM     70  O   UNL A   1      44.438  36.956  28.024  1.00  0.00    -0.744 OA
ENDBRANCH  63  67
ENDBRANCH  37  60
ENDBRANCH  11  12
ENDBRANCH   4   6
ENDBRANCH   3   4
ENDBRANCH   2   3
ENDBRANCH   1   2
BRANCH   1  71
ATOM     71  O   UNL A   1      34.079  21.444  24.380  1.00  0.00    -0.374 OA
BRANCH  71  72
ATOM     72  C   UNL A   1      32.735  21.071  24.710  1.00  0.00     0.202 C 
BRANCH  72  73
ATOM     73  C   UNL A   1      32.248  21.959  25.861  1.00  0.00     0.261 C 
BRANCH  73  74
ATOM     74  O   UNL A   1      30.876  22.292  25.614  1.00  0.00    -0.457 OA
BRANCH  74  75
ATOM     75  C   UNL A   1      30.375  23.214  26.503  1.00  0.00     0.380 C 
ATOM     76  O   UNL A   1      29.866  22.934  27.575  1.00  0.00    -0.242 OA
BRANCH  75  77
ATOM     77  C   UNL A   1      30.608  24.574  26.013  1.00  0.00     0.281 A 
ATOM     78  N   UNL A   1      30.611  24.912  24.707  1.00  0.00    -0.049 NA
ATOM     79  N   UNL A   1      30.844  25.637  26.861  1.00  0.00    -0.181 NA
ATOM     80  O   UNL A   1      31.038  26.243  24.718  1.00  0.00    -0.333 OA
ATOM     81  C   UNL A   1      31.221  26.572  26.028  1.00  0.00     0.259 A 
BRANCH  81  82
ATOM     82  C   UNL A   1      32.128  27.663  26.294  1.00  0.00     0.058 A 
ATOM     83  C   UNL A   1      31.665  28.911  26.729  1.00  0.00     0.015 A 
ATOM     84  C   UNL A   1      33.511  27.448  26.158  1.00  0.00     0.053 A 
ATOM     85  C   UNL A   1      32.581  29.923  27.034  1.00  0.00     0.001 A 
ATOM     86  C   UNL A   1      34.418  28.459  26.465  1.00  0.00     0.021 A 
ATOM     87  Cl  UNL A   1      34.170  25.944  25.597  1.00  0.00    -0.083 Cl
ATOM     88  C   UNL A   1      33.952  29.695  26.907  1.00  0.00     0.002 A 
ENDBRANCH  81  82
ENDBRANCH  75  77
ENDBRANCH  74  75
ENDBRANCH  73  74
ENDBRANCH  72  73
ENDBRANCH  71  72
ENDBRANCH   1  71
TORSDOF 18
ENDMDL
MODEL 3
REMARK VINA RESULT:     -10.5      5.292      9.028
REMARK SMILES O=C(OCCOCCOC(=O)c1noc(-c2ccccc2Cl)n1)c1ccc(-c2c3nc(c(-c4cc(S(=O)(=O)[O-])ccc4F)c4ccc([nH]4)c(-c4cc(S(=O)(=O)[O-])ccc4F)c4nc(c(-c5cc(S(=O)(=O)[O-])ccc5F)c5ccc2[nH]5)C=C4)C=C3)cc1
REMARK SMILES IDX 5 1 4 2 3 3 2 4 1 5 24 6 25 7 86 8 26 9 85 10 27 11 28 12
REMARK SMILES IDX 29 13 79 14 30 15 84 16 78 17 80 18 31 19 83 20 77 21 76 22
REMARK SMILES IDX 32 24 64 25 44 26 63 27 45 28 48 29 62 30 81 31 46 32 47 33
REMARK SMILES IDX 61 35 82 36 49 37 33 38 34 39 42 40 35 41 41 42 43 43 40 44
REMARK SMILES IDX 36 45 37 46 38 47 39 48 65 49 66 50 74 51 67 52 73 53 75 54
REMARK SMILES IDX 72 55 68 56 69 57 70 58 71 59 50 60 51 61 59 62 52 63 58 64
REMARK SMILES IDX 60 65 57 66 53 67 54 68 55 69 56 70 6 71 7 72 8 73 9 74
REMARK SMILES IDX 10 75 11 76 12 77 13 78 23 79 14 80 15 81 16 82 17 83 21 84
REMARK SMILES IDX 18 85 20 86 22 87 19 88
REMARK H PARENT 80 23 48 34
REMARK Flexibility Score: inf
ROOT
ATOM      1  C   UNL A   1      30.931  29.599  24.668  1.00  0.00     0.202 C 
ENDROOT
BRANCH   1   2
ATOM      2  C   UNL A   1      31.724  29.573  25.978  1.00  0.00     0.261 C 
BRANCH   2   3
ATOM      3  O   UNL A   1      32.822  30.497  25.913  1.00  0.00    -0.460 OA
BRANCH   3   4
ATOM      4  C   UNL A   1      33.326  31.262  26.910  1.00  0.00     0.338 C 
ATOM      5  O   UNL A   1      32.691  32.258  27.257  1.00  0.00    -0.246 OA
BRANCH   4   6
ATOM      6  C   UNL A   1      34.626  30.984  27.597  1.00  0.00     0.060 A 
ATOM      7  C   UNL A   1      35.548  31.959  27.985  1.00  0.00     0.016 A 
ATOM      8  C   UNL A   1      34.874  29.656  27.980  1.00  0.00     0.016 A 
ATOM      9  C   UNL A   1      36.688  31.640  28.705  1.00  0.00     0.010 A 
ATOM     10  C   UNL A   1      36.002  29.329  28.739  1.00  0.00     0.010 A 
ATOM     11  C   UNL A   1      36.906  30.329  29.108  1.00  0.00    -0.014 A 
BRANCH  11  12
ATOM     12  C   UNL A   1      38.115  30.048  29.897  1.00  0.00     0.031 A 
ATOM     13  C   UNL A   1      39.155  29.151  29.311  1.00  0.00     0.074 A 
ATOM     14  C   UNL A   1      38.289  30.687  31.069  1.00  0.00     0.049 A 
ATOM     15  N   UNL A   1      40.253  28.705  29.851  1.00  0.00    -0.248 NA
ATOM     16  C   UNL A   1      38.934  28.709  27.924  1.00  0.00     0.031 C 
ATOM     17  C   UNL A   1      37.366  31.682  31.629  1.00  0.00     0.029 A 
ATOM     18  N   UNL A   1      39.296  30.617  31.992  1.00  0.00    -0.354 N 
ATOM     19  C   UNL A   1      40.841  27.899  28.885  1.00  0.00     0.074 A 
ATOM     20  C   UNL A   1      39.984  27.927  27.720  1.00  0.00     0.031 C 
ATOM     21  C   UNL A   1      37.853  32.123  32.800  1.00  0.00     0.029 A 
ATOM     22  C   UNL A   1      39.070  31.384  33.112  1.00  0.00     0.049 A 
ATOM     23  H   UNL A   1      40.106  30.069  31.867  1.00  0.00     0.167 HD
ATOM     24  C   UNL A   1      41.987  27.187  28.990  1.00  0.00     0.034 A 
ATOM     25  C   UNL A   1      39.742  31.426  34.279  1.00  0.00     0.034 A 
ATOM     26  C   UNL A   1      42.798  27.192  30.180  1.00  0.00     0.049 A 
ATOM     27  C   UNL A   1      40.951  30.528  34.407  1.00  0.00     0.074 A 
ATOM     28  C   UNL A   1      43.968  26.502  30.431  1.00  0.00     0.029 A 
ATOM     29  N   UNL A   1      42.504  27.917  31.331  1.00  0.00    -0.354 N 
ATOM     30  N   UNL A   1      41.491  29.741  33.503  1.00  0.00    -0.248 NA
ATOM     31  C   UNL A   1      41.628  30.504  35.707  1.00  0.00     0.031 C 
ATOM     32  C   UNL A   1      44.336  26.745  31.758  1.00  0.00     0.029 A 
ATOM     33  C   UNL A   1      43.442  27.650  32.312  1.00  0.00     0.049 A 
ATOM     34  H   UNL A   1      41.741  28.530  31.432  1.00  0.00     0.167 HD
ATOM     35  C   UNL A   1      42.578  29.137  34.123  1.00  0.00     0.074 A 
ATOM     36  C   UNL A   1      42.636  29.678  35.468  1.00  0.00     0.031 C 
ATOM     37  C   UNL A   1      43.448  28.213  33.642  1.00  0.00     0.034 A 
BRANCH  24  38
ATOM     38  C   UNL A   1      42.346  26.274  27.848  1.00  0.00     0.023 A 
ATOM     39  C   UNL A   1      41.855  24.961  27.747  1.00  0.00     0.031 A 
ATOM     40  C   UNL A   1      43.240  26.723  26.860  1.00  0.00     0.131 A 
ATOM     41  C   UNL A   1      42.301  24.129  26.707  1.00  0.00     0.055 A 
ATOM     42  C   UNL A   1      43.627  25.914  25.792  1.00  0.00     0.041 A 
ATOM     43  F   UNL A   1      43.768  27.956  26.928  1.00  0.00    -0.206 F 
ATOM     44  C   UNL A   1      43.163  24.605  25.716  1.00  0.00     0.022 A 
BRANCH  41  45
ATOM     45  S   UNL A   1      41.830  22.377  26.727  1.00  0.00     0.124 S 
ATOM     46  O   UNL A   1      42.197  21.957  25.377  1.00  0.00    -0.237 OA
ATOM     47  O   UNL A   1      42.652  21.840  27.807  1.00  0.00    -0.237 OA
ATOM     48  O   UNL A   1      40.394  22.409  26.994  1.00  0.00    -0.744 OA
ENDBRANCH  41  45
ENDBRANCH  24  38
BRANCH  25  49
ATOM     49  C   UNL A   1      39.243  32.230  35.437  1.00  0.00     0.023 A 
ATOM     50  C   UNL A   1      39.619  33.570  35.616  1.00  0.00     0.031 A 
ATOM     51  C   UNL A   1      38.451  31.636  36.441  1.00  0.00     0.131 A 
ATOM     52  C   UNL A   1      39.262  34.249  36.795  1.00  0.00     0.055 A 
ATOM     53  C   UNL A   1      38.036  32.338  37.574  1.00  0.00     0.041 A 
ATOM     54  F   UNL A   1      38.070  30.353  36.341  1.00  0.00    -0.206 F 
ATOM     55  C   UNL A   1      38.460  33.647  37.767  1.00  0.00     0.022 A 
BRANCH  52  56
ATOM     56  S   UNL A   1      39.986  35.883  37.109  1.00  0.00     0.124 S 
ATOM     57  O   UNL A   1      41.391  35.552  37.310  1.00  0.00    -0.237 OA
ATOM     58  O   UNL A   1      39.664  36.598  35.878  1.00  0.00    -0.237 OA
ATOM     59  O   UNL A   1      39.278  36.345  38.301  1.00  0.00    -0.744 OA
ENDBRANCH  52  56
ENDBRANCH  25  49
BRANCH  37  60
ATOM     60  C   UNL A   1      44.533  27.757  34.580  1.00  0.00     0.023 A 
ATOM     61  C   UNL A   1      44.352  26.644  35.417  1.00  0.00     0.031 A 
ATOM     62  C   UNL A   1      45.765  28.432  34.618  1.00  0.00     0.131 A 
ATOM     63  C   UNL A   1      45.377  26.262  36.293  1.00  0.00     0.055 A 
ATOM     64  C   UNL A   1      46.803  28.008  35.445  1.00  0.00     0.041 A 
ATOM     65  F   UNL A   1      45.983  29.502  33.836  1.00  0.00    -0.206 F 
ATOM     66  C   UNL A   1      46.609  26.924  36.296  1.00  0.00     0.022 A 
BRANCH  63  67
ATOM     67  S   UNL A   1      45.054  24.930  37.477  1.00  0.00     0.124 S 
ATOM     68  O   UNL A   1      45.934  25.290  38.584  1.00  0.00    -0.237 OA
ATOM     69  O   UNL A   1      43.624  25.072  37.728  1.00  0.00    -0.237 OA
ATOM     70  O   UNL A   1      45.437  23.723  36.747  1.00  0.00    -0.744 OA
ENDBRANCH  63  67
ENDBRANCH  37  60
ENDBRANCH  11  12
ENDBRANCH   4   6
ENDBRANCH   3   4
ENDBRANCH   2   3
ENDBRANCH   1   2
BRANCH   1  71
ATOM     71  O   UNL A   1      30.750  28.323  24.055  1.00  0.00    -0.374 OA
BRANCH  71  72
ATOM     72  C   UNL A   1      31.922  27.519  23.872  1.00  0.00     0.202 C 
BRANCH  72  73
ATOM     73  C   UNL A   1      32.258  27.475  22.377  1.00  0.00     0.261 C 
BRANCH  73  74
ATOM     74  O   UNL A   1      31.630  26.316  21.815  1.00  0.00    -0.457 OA
BRANCH  74  75
ATOM     75  C   UNL A   1      32.524  25.438  21.245  1.00  0.00     0.380 C 
ATOM     76  O   UNL A   1      33.018  25.578  20.140  1.00  0.00    -0.242 OA
BRANCH  75  77
ATOM     77  C   UNL A   1      32.850  24.363  22.182  1.00  0.00     0.281 A 
ATOM     78  N   UNL A   1      32.069  24.008  23.222  1.00  0.00    -0.049 NA
ATOM     79  N   UNL A   1      34.003  23.610  22.074  1.00  0.00    -0.181 NA
ATOM     80  O   UNL A   1      32.851  23.079  23.915  1.00  0.00    -0.333 OA
ATOM     81  C   UNL A   1      34.009  22.955  23.206  1.00  0.00     0.259 A 
BRANCH  81  82
ATOM     82  C   UNL A   1      35.163  22.491  23.940  1.00  0.00     0.058 A 
ATOM     83  C   UNL A   1      36.327  23.262  24.039  1.00  0.00     0.015 A 
ATOM     84  C   UNL A   1      35.093  21.254  24.607  1.00  0.00     0.053 A 
ATOM     85  C   UNL A   1      37.400  22.803  24.809  1.00  0.00     0.001 A 
ATOM     86  C   UNL A   1      36.164  20.804  25.374  1.00  0.00     0.021 A 
ATOM     87  Cl  UNL A   1      33.703  20.221  24.514  1.00  0.00    -0.083 Cl
ATOM     88  C   UNL A   1      37.316  21.581  25.477  1.00  0.00     0.002 A 
ENDBRANCH  81  82
ENDBRANCH  75  77
ENDBRANCH  74  75
ENDBRANCH  73  74
ENDBRANCH  72  73
ENDBRANCH  71  72
ENDBRANCH   1  71
TORSDOF 18
ENDMDL
