MODEL 1
REMARK VINA RESULT:     -10.9      0.000      0.000
REMARK SMILES CCC1(C(=O)N[C@H]2C=C[C@H](C(=O)OCCOCCOC(=O)c3ccc(-c4c5nc(c(-c6cc(S(=O)(=O)[O-])ccc6F)c6ccc([nH]6)c(-c6cc(S(=O)(=O)[O-])ccc6F)c6nc(c(-c7cc(S(=O)(=O)[O-])ccc7F)c7ccc4[nH]7)C=C6)C=C5)cc3)C2)CC[NH2+]CC1
REMARK SMILES IDX 16 1 15 2 14 3 13 4 11 5 12 6 10 7 7 8 8 9 85 10 9 11 6 12
REMARK SMILES IDX 4 13 5 14 3 16 86 17 90 18 87 19 89 20 88 21 2 24 1 25 17 26
REMARK SMILES IDX 18 27 19 28 20 29 21 30 22 31 23 32 84 33 24 34 83 35 25 36
REMARK SMILES IDX 26 37 27 38 77 39 28 40 82 41 76 42 78 43 29 44 81 45 75 46
REMARK SMILES IDX 74 47 30 49 62 50 42 51 61 52 43 53 46 54 60 55 79 56 44 57
REMARK SMILES IDX 45 58 59 60 80 61 47 62 31 63 32 64 40 65 33 66 39 67 41 68
REMARK SMILES IDX 38 69 34 70 35 71 36 72 37 73 63 74 64 75 72 76 65 77 71 78
REMARK SMILES IDX 73 79 70 80 66 81 67 82 68 83 69 84 48 85 49 86 57 87 50 88
REMARK SMILES IDX 56 89 58 90 55 91 51 92 52 93 53 94 54 95
REMARK H PARENT 6 15 88 22 88 23 78 48 46 59
REMARK Flexibility Score: inf
ROOT
ATOM      1  O   UNL A   1      35.426  18.793  24.956  1.00  0.00    -0.374 OA
ENDROOT
BRANCH   1   2
ATOM      2  C   UNL A   1      34.100  18.583  24.473  1.00  0.00     0.202 C 
BRANCH   2   3
ATOM      3  C   UNL A   1      32.970  18.871  25.463  1.00  0.00     0.261 C 
BRANCH   3   4
ATOM      4  O   UNL A   1      31.960  19.714  24.879  1.00  0.00    -0.463 OA
BRANCH   4   5
ATOM      5  C   UNL A   1      32.322  20.993  24.601  1.00  0.00     0.312 C 
ATOM      6  O   UNL A   1      32.767  21.375  23.524  1.00  0.00    -0.252 OA
BRANCH   5   7
ATOM      7  C   UNL A   1      32.115  21.930  25.789  1.00  0.00     0.124 C 
ATOM      8  C   UNL A   1      32.336  24.402  25.569  1.00  0.00     0.106 C 
ATOM      9  C   UNL A   1      33.532  23.771  26.204  1.00  0.00    -0.006 C 
ATOM     10  C   UNL A   1      31.325  23.231  25.559  1.00  0.00     0.048 C 
ATOM     11  C   UNL A   1      33.432  22.441  26.290  1.00  0.00    -0.014 C 
BRANCH   8  12
ATOM     12  N   UNL A   1      31.838  25.503  26.383  1.00  0.00    -0.349 N 
ATOM     13  C   UNL A   1      31.476  26.798  26.191  1.00  0.00     0.227 C 
ATOM     14  O   UNL A   1      30.939  27.307  27.184  1.00  0.00    -0.274 OA
ATOM     15  H   UNL A   1      31.736  25.237  27.327  1.00  0.00     0.164 HD
BRANCH  13  16
ATOM     16  C   UNL A   1      31.717  27.635  24.892  1.00  0.00     0.060 C 
ATOM     17  C   UNL A   1      31.367  26.726  23.688  1.00  0.00     0.078 C 
ATOM     18  C   UNL A   1      30.823  28.900  24.889  1.00  0.00     0.078 C 
ATOM     19  C   UNL A   1      31.215  27.479  22.376  1.00  0.00     0.261 C 
ATOM     20  C   UNL A   1      30.572  29.503  23.503  1.00  0.00     0.261 C 
ATOM     21  N   UNL A   1      30.180  28.497  22.518  1.00  0.00    -0.346 N 
ATOM     22  H   UNL A   1      29.314  28.052  22.819  1.00  0.00     0.346 HD
ATOM     23  H   UNL A   1      30.050  28.957  21.616  1.00  0.00     0.346 HD
BRANCH  16  24
ATOM     24  C   UNL A   1      33.269  27.969  24.778  1.00  0.00     0.014 C 
ATOM     25  C   UNL A   1      34.089  28.194  26.043  1.00  0.00     0.005 C 
ENDBRANCH  16  24
ENDBRANCH  13  16
ENDBRANCH   8  12
ENDBRANCH   5   7
ENDBRANCH   4   5
ENDBRANCH   3   4
ENDBRANCH   2   3
ENDBRANCH   1   2
BRANCH   1  26
ATOM     26  C   UNL A   1      35.904  20.136  24.986  1.00  0.00     0.202 C 
BRANCH  26  27
ATOM     27  C   UNL A   1      37.406  20.336  24.749  1.00  0.00     0.261 C 
BRANCH  27  28
ATOM     28  O   UNL A   1      37.959  21.379  25.573  1.00  0.00    -0.460 OA
BRANCH  28  29
ATOM     29  C   UNL A   1      39.166  21.095  26.123  1.00  0.00     0.338 C 
ATOM     30  O   UNL A   1      39.772  20.035  26.065  1.00  0.00    -0.246 OA
BRANCH  29  31
ATOM     31  C   UNL A   1      39.763  22.330  26.662  1.00  0.00     0.060 A 
ATOM     32  C   UNL A   1      39.303  23.555  26.161  1.00  0.00     0.016 A 
ATOM     33  C   UNL A   1      40.786  22.291  27.610  1.00  0.00     0.016 A 
ATOM     34  C   UNL A   1      39.871  24.749  26.604  1.00  0.00     0.010 A 
ATOM     35  C   UNL A   1      41.363  23.491  28.043  1.00  0.00     0.010 A 
ATOM     36  C   UNL A   1      40.918  24.726  27.535  1.00  0.00    -0.014 A 
BRANCH  36  37
ATOM     37  C   UNL A   1      41.592  25.989  27.931  1.00  0.00     0.031 A 
ATOM     38  C   UNL A   1      40.820  27.036  28.683  1.00  0.00     0.074 A 
ATOM     39  C   UNL A   1      42.883  26.195  27.616  1.00  0.00     0.049 A 
ATOM     40  N   UNL A   1      41.189  28.237  29.046  1.00  0.00    -0.248 NA
ATOM     41  C   UNL A   1      39.447  26.683  29.075  1.00  0.00     0.031 C 
ATOM     42  C   UNL A   1      43.745  25.233  26.929  1.00  0.00     0.029 A 
ATOM     43  N   UNL A   1      43.693  27.285  27.819  1.00  0.00    -0.354 N 
ATOM     44  C   UNL A   1      40.094  28.790  29.702  1.00  0.00     0.074 A 
ATOM     45  C   UNL A   1      39.039  27.799  29.662  1.00  0.00     0.031 C 
ATOM     46  C   UNL A   1      44.959  25.783  26.752  1.00  0.00     0.029 A 
ATOM     47  C   UNL A   1      44.946  27.150  27.265  1.00  0.00     0.049 A 
ATOM     48  H   UNL A   1      43.405  28.086  28.312  1.00  0.00     0.167 HD
ATOM     49  C   UNL A   1      39.985  30.011  30.284  1.00  0.00     0.034 A 
ATOM     50  C   UNL A   1      45.951  28.043  27.146  1.00  0.00     0.034 A 
ATOM     51  C   UNL A   1      41.047  30.989  30.305  1.00  0.00     0.049 A 
ATOM     52  C   UNL A   1      45.768  29.431  27.713  1.00  0.00     0.074 A 
ATOM     53  C   UNL A   1      41.052  32.239  30.900  1.00  0.00     0.029 A 
ATOM     54  N   UNL A   1      42.283  30.840  29.689  1.00  0.00    -0.354 N 
ATOM     55  N   UNL A   1      44.737  29.933  28.353  1.00  0.00    -0.248 NA
ATOM     56  C   UNL A   1      46.885  30.370  27.543  1.00  0.00     0.031 C 
ATOM     57  C   UNL A   1      42.252  32.878  30.569  1.00  0.00     0.029 A 
ATOM     58  C   UNL A   1      43.035  31.994  29.844  1.00  0.00     0.049 A 
ATOM     59  H   UNL A   1      42.580  30.032  29.210  1.00  0.00     0.167 HD
ATOM     60  C   UNL A   1      45.093  31.240  28.680  1.00  0.00     0.074 A 
ATOM     61  C   UNL A   1      46.440  31.438  28.188  1.00  0.00     0.031 C 
ATOM     62  C   UNL A   1      44.372  32.190  29.330  1.00  0.00     0.034 A 
BRANCH  49  63
ATOM     63  C   UNL A   1      38.655  30.379  30.895  1.00  0.00     0.023 A 
ATOM     64  C   UNL A   1      37.661  31.057  30.166  1.00  0.00     0.031 A 
ATOM     65  C   UNL A   1      38.377  30.045  32.233  1.00  0.00     0.131 A 
ATOM     66  C   UNL A   1      36.463  31.428  30.795  1.00  0.00     0.055 A 
ATOM     67  C   UNL A   1      37.153  30.351  32.830  1.00  0.00     0.041 A 
ATOM     68  F   UNL A   1      39.296  29.420  32.986  1.00  0.00    -0.206 F 
ATOM     69  C   UNL A   1      36.192  31.057  32.114  1.00  0.00     0.022 A 
BRANCH  66  70
ATOM     70  S   UNL A   1      35.315  32.515  29.907  1.00  0.00     0.124 S 
ATOM     71  O   UNL A   1      34.259  32.703  30.898  1.00  0.00    -0.237 OA
ATOM     72  O   UNL A   1      36.142  33.683  29.624  1.00  0.00    -0.237 OA
ATOM     73  O   UNL A   1      34.929  31.726  28.738  1.00  0.00    -0.744 OA
ENDBRANCH  66  70
ENDBRANCH  49  63
BRANCH  50  74
ATOM     74  C   UNL A   1      47.198  27.684  26.408  1.00  0.00     0.023 A 
ATOM     75  C   UNL A   1      47.317  27.907  25.027  1.00  0.00     0.031 A 
ATOM     76  C   UNL A   1      48.268  27.050  27.066  1.00  0.00     0.131 A 
ATOM     77  C   UNL A   1      48.456  27.457  24.342  1.00  0.00     0.055 A 
ATOM     78  C   UNL A   1      49.424  26.658  26.391  1.00  0.00     0.041 A 
ATOM     79  F   UNL A   1      48.206  26.805  28.385  1.00  0.00    -0.206 F 
ATOM     80  C   UNL A   1      49.517  26.848  25.016  1.00  0.00     0.022 A 
BRANCH  77  81
ATOM     81  S   UNL A   1      48.488  27.586  22.532  1.00  0.00     0.124 S 
ATOM     82  O   UNL A   1      47.278  28.355  22.269  1.00  0.00    -0.237 OA
ATOM     83  O   UNL A   1      49.752  28.278  22.303  1.00  0.00    -0.237 OA
ATOM     84  O   UNL A   1      48.453  26.193  22.091  1.00  0.00    -0.744 OA
ENDBRANCH  77  81
ENDBRANCH  50  74
BRANCH  62  85
ATOM     85  C   UNL A   1      45.044  33.521  29.571  1.00  0.00     0.023 A 
ATOM     86  C   UNL A   1      44.833  34.620  28.719  1.00  0.00     0.031 A 
ATOM     87  C   UNL A   1      45.911  33.691  30.665  1.00  0.00     0.131 A 
ATOM     88  C   UNL A   1      45.521  35.823  28.945  1.00  0.00     0.055 A 
ATOM     89  C   UNL A   1      46.543  34.910  30.921  1.00  0.00     0.041 A 
ATOM     90  F   UNL A   1      46.156  32.676  31.509  1.00  0.00    -0.206 F 
ATOM     91  C   UNL A   1      46.359  35.980  30.052  1.00  0.00     0.022 A 
BRANCH  88  92
ATOM     92  S   UNL A   1      45.378  37.152  27.719  1.00  0.00     0.124 S 
ATOM     93  O   UNL A   1      44.355  36.627  26.821  1.00  0.00    -0.237 OA
ATOM     94  O   UNL A   1      44.983  38.292  28.539  1.00  0.00    -0.237 OA
ATOM     95  O   UNL A   1      46.721  37.237  27.147  1.00  0.00    -0.744 OA
ENDBRANCH  88  92
ENDBRANCH  62  85
ENDBRANCH  36  37
ENDBRANCH  29  31
ENDBRANCH  28  29
ENDBRANCH  27  28
ENDBRANCH  26  27
ENDBRANCH   1  26
TORSDOF 20
ENDMDL
MODEL 2
REMARK VINA RESULT:     -10.6      5.622     10.823
REMARK SMILES CCC1(C(=O)N[C@H]2C=C[C@H](C(=O)OCCOCCOC(=O)c3ccc(-c4c5nc(c(-c6cc(S(=O)(=O)[O-])ccc6F)c6ccc([nH]6)c(-c6cc(S(=O)(=O)[O-])ccc6F)c6nc(c(-c7cc(S(=O)(=O)[O-])ccc7F)c7ccc4[nH]7)C=C6)C=C5)cc3)C2)CC[NH2+]CC1
REMARK SMILES IDX 16 1 15 2 14 3 13 4 11 5 12 6 10 7 7 8 8 9 85 10 9 11 6 12
REMARK SMILES IDX 4 13 5 14 3 16 86 17 90 18 87 19 89 20 88 21 2 24 1 25 17 26
REMARK SMILES IDX 18 27 19 28 20 29 21 30 22 31 23 32 84 33 24 34 83 35 25 36
REMARK SMILES IDX 26 37 27 38 77 39 28 40 82 41 76 42 78 43 29 44 81 45 75 46
REMARK SMILES IDX 74 47 30 49 62 50 42 51 61 52 43 53 46 54 60 55 79 56 44 57
REMARK SMILES IDX 45 58 59 60 80 61 47 62 31 63 32 64 40 65 33 66 39 67 41 68
REMARK SMILES IDX 38 69 34 70 35 71 36 72 37 73 63 74 64 75 72 76 65 77 71 78
REMARK SMILES IDX 73 79 70 80 66 81 67 82 68 83 69 84 48 85 49 86 57 87 50 88
REMARK SMILES IDX 56 89 58 90 55 91 51 92 52 93 53 94 54 95
REMARK H PARENT 6 15 88 22 88 23 78 48 46 59
REMARK Flexibility Score: inf
ROOT
ATOM      1  O   UNL A   1      32.080  30.460  26.722  1.00  0.00    -0.374 OA
ENDROOT
BRANCH   1   2
ATOM      2  C   UNL A   1      32.417  29.096  26.971  1.00  0.00     0.202 C 
BRANCH   2   3
ATOM      3  C   UNL A   1      31.685  28.055  26.123  1.00  0.00     0.261 C 
BRANCH   3   4
ATOM      4  O   UNL A   1      32.274  27.930  24.816  1.00  0.00    -0.463 OA
BRANCH   4   5
ATOM      5  C   UNL A   1      31.448  28.129  23.756  1.00  0.00     0.312 C 
ATOM      6  O   UNL A   1      30.663  29.065  23.648  1.00  0.00    -0.252 OA
BRANCH   5   7
ATOM      7  C   UNL A   1      31.598  27.047  22.689  1.00  0.00     0.124 C 
ATOM      8  C   UNL A   1      32.250  24.712  23.263  1.00  0.00     0.106 C 
ATOM      9  C   UNL A   1      33.385  25.505  22.700  1.00  0.00    -0.006 C 
ATOM     10  C   UNL A   1      31.045  25.644  22.993  1.00  0.00     0.048 C 
ATOM     11  C   UNL A   1      33.047  26.769  22.425  1.00  0.00    -0.014 C 
BRANCH   8  12
ATOM     12  N   UNL A   1      32.095  23.451  22.550  1.00  0.00    -0.349 N 
ATOM     13  C   UNL A   1      32.169  22.127  22.842  1.00  0.00     0.227 C 
ATOM     14  O   UNL A   1      31.783  21.401  21.916  1.00  0.00    -0.274 OA
ATOM     15  H   UNL A   1      31.878  23.599  21.600  1.00  0.00     0.164 HD
BRANCH  13  16
ATOM     16  C   UNL A   1      32.712  21.510  24.173  1.00  0.00     0.060 C 
ATOM     17  C   UNL A   1      32.560  19.973  24.061  1.00  0.00     0.078 C 
ATOM     18  C   UNL A   1      34.198  21.891  24.380  1.00  0.00     0.078 C 
ATOM     19  C   UNL A   1      33.345  19.202  25.111  1.00  0.00     0.261 C 
ATOM     20  C   UNL A   1      34.973  20.960  25.319  1.00  0.00     0.261 C 
ATOM     21  N   UNL A   1      34.758  19.547  25.009  1.00  0.00    -0.346 N 
ATOM     22  H   UNL A   1      35.081  19.361  24.060  1.00  0.00     0.346 HD
ATOM     23  H   UNL A   1      35.281  18.984  25.681  1.00  0.00     0.346 HD
BRANCH  16  24
ATOM     24  C   UNL A   1      31.776  21.977  25.373  1.00  0.00     0.014 C 
ATOM     25  C   UNL A   1      32.274  23.030  26.355  1.00  0.00     0.005 C 
ENDBRANCH  16  24
ENDBRANCH  13  16
ENDBRANCH   8  12
ENDBRANCH   5   7
ENDBRANCH   4   5
ENDBRANCH   3   4
ENDBRANCH   2   3
ENDBRANCH   1   2
BRANCH   1  26
ATOM     26  C   UNL A   1      32.942  31.455  27.272  1.00  0.00     0.202 C 
BRANCH  26  27
ATOM     27  C   UNL A   1      32.403  32.890  27.298  1.00  0.00     0.261 C 
BRANCH  27  28
ATOM     28  O   UNL A   1      33.428  33.857  27.594  1.00  0.00    -0.460 OA
BRANCH  28  29
ATOM     29  C   UNL A   1      33.410  34.341  28.861  1.00  0.00     0.338 C 
ATOM     30  O   UNL A   1      32.511  34.975  29.397  1.00  0.00    -0.246 OA
BRANCH  29  31
ATOM     31  C   UNL A   1      34.578  33.829  29.600  1.00  0.00     0.060 A 
ATOM     32  C   UNL A   1      35.852  34.189  29.143  1.00  0.00     0.016 A 
ATOM     33  C   UNL A   1      34.432  32.977  30.695  1.00  0.00     0.016 A 
ATOM     34  C   UNL A   1      36.990  33.691  29.780  1.00  0.00     0.010 A 
ATOM     35  C   UNL A   1      35.575  32.468  31.323  1.00  0.00     0.010 A 
ATOM     36  C   UNL A   1      36.860  32.812  30.862  1.00  0.00    -0.014 A 
BRANCH  36  37
ATOM     37  C   UNL A   1      38.067  32.202  31.476  1.00  0.00     0.031 A 
ATOM     38  C   UNL A   1      38.745  31.049  30.790  1.00  0.00     0.074 A 
ATOM     39  C   UNL A   1      38.549  32.676  32.639  1.00  0.00     0.049 A 
ATOM     40  N   UNL A   1      39.752  30.320  31.195  1.00  0.00    -0.248 NA
ATOM     41  C   UNL A   1      38.213  30.666  29.473  1.00  0.00     0.031 C 
ATOM     42  C   UNL A   1      38.003  33.818  33.372  1.00  0.00     0.029 A 
ATOM     43  N   UNL A   1      39.597  32.249  33.416  1.00  0.00    -0.354 N 
ATOM     44  C   UNL A   1      39.973  29.384  30.189  1.00  0.00     0.074 A 
ATOM     45  C   UNL A   1      38.974  29.624  29.168  1.00  0.00     0.031 C 
ATOM     46  C   UNL A   1      38.710  33.990  34.502  1.00  0.00     0.029 A 
ATOM     47  C   UNL A   1      39.723  32.942  34.598  1.00  0.00     0.049 A 
ATOM     48  H   UNL A   1      40.199  31.517  33.154  1.00  0.00     0.167 HD
ATOM     49  C   UNL A   1      40.923  28.417  30.128  1.00  0.00     0.034 A 
ATOM     50  C   UNL A   1      40.533  32.730  35.656  1.00  0.00     0.034 A 
ATOM     51  C   UNL A   1      41.904  28.188  31.162  1.00  0.00     0.049 A 
ATOM     52  C   UNL A   1      41.515  31.583  35.607  1.00  0.00     0.074 A 
ATOM     53  C   UNL A   1      42.933  27.261  31.180  1.00  0.00     0.029 A 
ATOM     54  N   UNL A   1      41.969  28.874  32.367  1.00  0.00    -0.354 N 
ATOM     55  N   UNL A   1      41.730  30.720  34.640  1.00  0.00    -0.248 NA
ATOM     56  C   UNL A   1      42.363  31.382  36.790  1.00  0.00     0.031 C 
ATOM     57  C   UNL A   1      43.560  27.326  32.429  1.00  0.00     0.029 A 
ATOM     58  C   UNL A   1      42.985  28.355  33.157  1.00  0.00     0.049 A 
ATOM     59  H   UNL A   1      41.379  29.619  32.625  1.00  0.00     0.167 HD
ATOM     60  C   UNL A   1      42.754  29.890  35.092  1.00  0.00     0.074 A 
ATOM     61  C   UNL A   1      43.127  30.371  36.406  1.00  0.00     0.031 C 
ATOM     62  C   UNL A   1      43.335  28.829  34.477  1.00  0.00     0.034 A 
BRANCH  49  63
ATOM     63  C   UNL A   1      40.910  27.498  28.930  1.00  0.00     0.023 A 
ATOM     64  C   UNL A   1      41.869  27.594  27.906  1.00  0.00     0.031 A 
ATOM     65  C   UNL A   1      39.918  26.508  28.812  1.00  0.00     0.131 A 
ATOM     66  C   UNL A   1      41.781  26.754  26.785  1.00  0.00     0.055 A 
ATOM     67  C   UNL A   1      39.881  25.626  27.731  1.00  0.00     0.041 A 
ATOM     68  F   UNL A   1      38.961  26.385  29.746  1.00  0.00    -0.206 F 
ATOM     69  C   UNL A   1      40.810  25.754  26.703  1.00  0.00     0.022 A 
BRANCH  66  70
ATOM     70  S   UNL A   1      42.875  27.071  25.374  1.00  0.00     0.124 S 
ATOM     71  O   UNL A   1      44.149  27.333  26.040  1.00  0.00    -0.237 OA
ATOM     72  O   UNL A   1      42.792  25.824  24.623  1.00  0.00    -0.237 OA
ATOM     73  O   UNL A   1      42.271  28.233  24.725  1.00  0.00    -0.744 OA
ENDBRANCH  66  70
ENDBRANCH  49  63
BRANCH  50  74
ATOM     74  C   UNL A   1      40.415  33.573  36.882  1.00  0.00     0.023 A 
ATOM     75  C   UNL A   1      39.801  33.086  38.046  1.00  0.00     0.031 A 
ATOM     76  C   UNL A   1      40.860  34.909  36.883  1.00  0.00     0.131 A 
ATOM     77  C   UNL A   1      39.605  33.939  39.143  1.00  0.00     0.055 A 
ATOM     78  C   UNL A   1      40.716  35.736  37.997  1.00  0.00     0.041 A 
ATOM     79  F   UNL A   1      41.448  35.430  35.794  1.00  0.00    -0.206 F 
ATOM     80  C   UNL A   1      40.071  35.256  39.132  1.00  0.00     0.022 A 
BRANCH  77  81
ATOM     81  S   UNL A   1      38.635  33.333  40.551  1.00  0.00     0.124 S 
ATOM     82  O   UNL A   1      39.052  34.243  41.612  1.00  0.00    -0.237 OA
ATOM     83  O   UNL A   1      37.268  33.493  40.067  1.00  0.00    -0.237 OA
ATOM     84  O   UNL A   1      39.084  31.950  40.702  1.00  0.00    -0.744 OA
ENDBRANCH  77  81
ENDBRANCH  50  74
BRANCH  62  85
ATOM     85  C   UNL A   1      44.458  28.134  35.211  1.00  0.00     0.023 A 
ATOM     86  C   UNL A   1      44.207  27.200  36.232  1.00  0.00     0.031 A 
ATOM     87  C   UNL A   1      45.798  28.416  34.889  1.00  0.00     0.131 A 
ATOM     88  C   UNL A   1      45.278  26.620  36.929  1.00  0.00     0.055 A 
ATOM     89  C   UNL A   1      46.859  27.787  35.543  1.00  0.00     0.041 A 
ATOM     90  F   UNL A   1      46.099  29.303  33.928  1.00  0.00    -0.206 F 
ATOM     91  C   UNL A   1      46.603  26.894  36.578  1.00  0.00     0.022 A 
BRANCH  88  92
ATOM     92  S   UNL A   1      44.919  25.573  38.366  1.00  0.00     0.124 S 
ATOM     93  O   UNL A   1      45.424  24.276  37.929  1.00  0.00    -0.237 OA
ATOM     94  O   UNL A   1      45.675  26.228  39.428  1.00  0.00    -0.237 OA
ATOM     95  O   UNL A   1      43.465  25.661  38.499  1.00  0.00    -0.744 OA
ENDBRANCH  88  92
ENDBRANCH  62  85
ENDBRANCH  36  37
ENDBRANCH  29  31
ENDBRANCH  28  29
ENDBRANCH  27  28
ENDBRANCH  26  27
ENDBRANCH   1  26
TORSDOF 20
ENDMDL
MODEL 3
REMARK VINA RESULT:     -10.4      1.487      7.707
REMARK SMILES CCC1(C(=O)N[C@H]2C=C[C@H](C(=O)OCCOCCOC(=O)c3ccc(-c4c5nc(c(-c6cc(S(=O)(=O)[O-])ccc6F)c6ccc([nH]6)c(-c6cc(S(=O)(=O)[O-])ccc6F)c6nc(c(-c7cc(S(=O)(=O)[O-])ccc7F)c7ccc4[nH]7)C=C6)C=C5)cc3)C2)CC[NH2+]CC1
REMARK SMILES IDX 16 1 15 2 14 3 13 4 11 5 12 6 10 7 7 8 8 9 85 10 9 11 6 12
REMARK SMILES IDX 4 13 5 14 3 16 86 17 90 18 87 19 89 20 88 21 2 24 1 25 17 26
REMARK SMILES IDX 18 27 19 28 20 29 21 30 22 31 23 32 84 33 24 34 83 35 25 36
REMARK SMILES IDX 26 37 27 38 77 39 28 40 82 41 76 42 78 43 29 44 81 45 75 46
REMARK SMILES IDX 74 47 30 49 62 50 42 51 61 52 43 53 46 54 60 55 79 56 44 57
REMARK SMILES IDX 45 58 59 60 80 61 47 62 31 63 32 64 40 65 33 66 39 67 41 68
REMARK SMILES IDX 38 69 34 70 35 71 36 72 37 73 63 74 64 75 72 76 65 77 71 78
REMARK SMILES IDX 73 79 70 80 66 81 67 82 68 83 69 84 48 85 49 86 57 87 50 88
REMARK SMILES IDX 56 89 58 90 55 91 51 92 52 93 53 94 54 95
REMARK H PARENT 6 15 88 22 88 23 78 48 46 59
REMARK Flexibility Score: inf
ROOT
ATOM      1  O   UNL A   1      37.047  20.654  24.874  1.00  0.00    -0.374 OA
ENDROOT
BRANCH   1   2
ATOM      2  C   UNL A   1      36.036  21.394  25.556  1.00  0.00     0.202 C 
BRANCH   2   3
ATOM      3  C   UNL A   1      34.692  20.688  25.741  1.00  0.00     0.261 C 
BRANCH   3   4
ATOM      4  O   UNL A   1      33.952  20.630  24.509  1.00  0.00    -0.463 OA
BRANCH   4   5
ATOM      5  C   UNL A   1      32.927  21.512  24.374  1.00  0.00     0.312 C 
ATOM      6  O   UNL A   1      31.842  21.413  24.938  1.00  0.00    -0.252 OA
BRANCH   5   7
ATOM      7  C   UNL A   1      33.267  22.664  23.432  1.00  0.00     0.124 C 
ATOM      8  C   UNL A   1      32.793  25.037  24.029  1.00  0.00     0.106 C 
ATOM      9  C   UNL A   1      31.795  24.473  23.071  1.00  0.00    -0.006 C 
ATOM     10  C   UNL A   1      33.884  23.939  24.036  1.00  0.00     0.048 C 
ATOM     11  C   UNL A   1      32.026  23.190  22.777  1.00  0.00    -0.014 C 
BRANCH   8  12
ATOM     12  N   UNL A   1      33.334  26.295  23.534  1.00  0.00    -0.349 N 
ATOM     13  C   UNL A   1      33.330  27.598  23.916  1.00  0.00     0.227 C 
ATOM     14  O   UNL A   1      34.092  28.306  23.243  1.00  0.00    -0.274 OA
ATOM     15  H   UNL A   1      33.839  26.166  22.697  1.00  0.00     0.164 HD
BRANCH  13  16
ATOM     16  C   UNL A   1      32.452  28.220  25.051  1.00  0.00     0.060 C 
ATOM     17  C   UNL A   1      32.835  27.507  26.371  1.00  0.00     0.078 C 
ATOM     18  C   UNL A   1      32.713  29.742  25.165  1.00  0.00     0.078 C 
ATOM     19  C   UNL A   1      32.331  28.216  27.618  1.00  0.00     0.261 C 
ATOM     20  C   UNL A   1      32.341  30.355  26.520  1.00  0.00     0.261 C 
ATOM     21  N   UNL A   1      32.854  29.577  27.646  1.00  0.00    -0.346 N 
ATOM     22  H   UNL A   1      33.872  29.546  27.594  1.00  0.00     0.346 HD
ATOM     23  H   UNL A   1      32.555  30.024  28.513  1.00  0.00     0.346 HD
BRANCH  16  24
ATOM     24  C   UNL A   1      30.925  27.869  24.766  1.00  0.00     0.014 C 
ATOM     25  C   UNL A   1      30.289  28.278  23.444  1.00  0.00     0.005 C 
ENDBRANCH  16  24
ENDBRANCH  13  16
ENDBRANCH   8  12
ENDBRANCH   5   7
ENDBRANCH   4   5
ENDBRANCH   3   4
ENDBRANCH   2   3
ENDBRANCH   1   2
BRANCH   1  26
ATOM     26  C   UNL A   1      38.381  20.766  25.366  1.00  0.00     0.202 C 
BRANCH  26  27
ATOM     27  C   UNL A   1      39.094  19.456  25.719  1.00  0.00     0.261 C 
BRANCH  27  28
ATOM     28  O   UNL A   1      40.520  19.540  25.537  1.00  0.00    -0.460 OA
BRANCH  28  29
ATOM     29  C   UNL A   1      41.231  19.744  26.674  1.00  0.00     0.338 C 
ATOM     30  O   UNL A   1      41.788  18.897  27.359  1.00  0.00    -0.246 OA
BRANCH  29  31
ATOM     31  C   UNL A   1      41.412  21.191  26.888  1.00  0.00     0.060 A 
ATOM     32  C   UNL A   1      41.720  21.985  25.776  1.00  0.00     0.016 A 
ATOM     33  C   UNL A   1      41.324  21.756  28.160  1.00  0.00     0.016 A 
ATOM     34  C   UNL A   1      41.948  23.352  25.935  1.00  0.00     0.010 A 
ATOM     35  C   UNL A   1      41.566  23.126  28.319  1.00  0.00     0.010 A 
ATOM     36  C   UNL A   1      41.892  23.930  27.210  1.00  0.00    -0.014 A 
BRANCH  36  37
ATOM     37  C   UNL A   1      42.233  25.363  27.395  1.00  0.00     0.031 A 
ATOM     38  C   UNL A   1      43.553  25.881  26.897  1.00  0.00     0.074 A 
ATOM     39  C   UNL A   1      41.368  26.193  28.006  1.00  0.00     0.049 A 
ATOM     40  N   UNL A   1      44.082  27.069  27.032  1.00  0.00    -0.248 NA
ATOM     41  C   UNL A   1      44.390  24.930  26.149  1.00  0.00     0.031 C 
ATOM     42  C   UNL A   1      40.040  25.814  28.489  1.00  0.00     0.029 A 
ATOM     43  N   UNL A   1      41.480  27.520  28.339  1.00  0.00    -0.354 N 
ATOM     44  C   UNL A   1      45.318  27.011  26.396  1.00  0.00     0.074 A 
ATOM     45  C   UNL A   1      45.468  25.659  25.898  1.00  0.00     0.031 C 
ATOM     46  C   UNL A   1      39.467  26.881  29.073  1.00  0.00     0.029 A 
ATOM     47  C   UNL A   1      40.405  28.001  29.050  1.00  0.00     0.049 A 
ATOM     48  H   UNL A   1      42.255  28.074  28.092  1.00  0.00     0.167 HD
ATOM     49  C   UNL A   1      46.237  27.997  26.242  1.00  0.00     0.034 A 
ATOM     50  C   UNL A   1      40.217  29.194  29.652  1.00  0.00     0.034 A 
ATOM     51  C   UNL A   1      46.073  29.337  26.755  1.00  0.00     0.049 A 
ATOM     52  C   UNL A   1      41.300  30.243  29.554  1.00  0.00     0.074 A 
ATOM     53  C   UNL A   1      46.925  30.419  26.621  1.00  0.00     0.029 A 
ATOM     54  N   UNL A   1      44.996  29.774  27.516  1.00  0.00    -0.354 N 
ATOM     55  N   UNL A   1      42.453  30.183  28.928  1.00  0.00    -0.248 NA
ATOM     56  C   UNL A   1      41.054  31.518  30.240  1.00  0.00     0.031 C 
ATOM     57  C   UNL A   1      46.410  31.480  27.373  1.00  0.00     0.029 A 
ATOM     58  C   UNL A   1      45.189  31.091  27.902  1.00  0.00     0.049 A 
ATOM     59  H   UNL A   1      44.211  29.227  27.748  1.00  0.00     0.167 HD
ATOM     60  C   UNL A   1      43.058  31.422  29.129  1.00  0.00     0.074 A 
ATOM     61  C   UNL A   1      42.133  32.213  29.912  1.00  0.00     0.031 C 
ATOM     62  C   UNL A   1      44.269  31.866  28.703  1.00  0.00     0.034 A 
BRANCH  49  63
ATOM     63  C   UNL A   1      47.528  27.648  25.540  1.00  0.00     0.023 A 
ATOM     64  C   UNL A   1      47.661  27.720  24.143  1.00  0.00     0.031 A 
ATOM     65  C   UNL A   1      48.646  27.235  26.287  1.00  0.00     0.131 A 
ATOM     66  C   UNL A   1      48.863  27.331  23.533  1.00  0.00     0.055 A 
ATOM     67  C   UNL A   1      49.863  26.921  25.680  1.00  0.00     0.041 A 
ATOM     68  F   UNL A   1      48.572  27.123  27.623  1.00  0.00    -0.206 F 
ATOM     69  C   UNL A   1      49.973  26.957  24.294  1.00  0.00     0.022 A 
BRANCH  66  70
ATOM     70  S   UNL A   1      48.917  27.194  21.726  1.00  0.00     0.124 S 
ATOM     71  O   UNL A   1      50.217  27.787  21.423  1.00  0.00    -0.237 OA
ATOM     72  O   UNL A   1      48.805  25.756  21.514  1.00  0.00    -0.237 OA
ATOM     73  O   UNL A   1      47.766  27.982  21.287  1.00  0.00    -0.744 OA
ENDBRANCH  66  70
ENDBRANCH  49  63
BRANCH  50  74
ATOM     74  C   UNL A   1      38.987  29.449  30.459  1.00  0.00     0.023 A 
ATOM     75  C   UNL A   1      37.978  30.309  29.998  1.00  0.00     0.031 A 
ATOM     76  C   UNL A   1      38.834  28.883  31.739  1.00  0.00     0.131 A 
ATOM     77  C   UNL A   1      36.888  30.617  30.827  1.00  0.00     0.055 A 
ATOM     78  C   UNL A   1      37.719  29.144  32.535  1.00  0.00     0.041 A 
ATOM     79  F   UNL A   1      39.771  28.058  32.233  1.00  0.00    -0.206 F 
ATOM     80  C   UNL A   1      36.744  30.028  32.086  1.00  0.00     0.022 A 
BRANCH  77  81
ATOM     81  S   UNL A   1      35.708  31.881  30.277  1.00  0.00     0.124 S 
ATOM     82  O   UNL A   1      34.896  32.069  31.474  1.00  0.00    -0.237 OA
ATOM     83  O   UNL A   1      36.594  32.984  29.921  1.00  0.00    -0.237 OA
ATOM     84  O   UNL A   1      35.026  31.242  29.153  1.00  0.00    -0.744 OA
ENDBRANCH  77  81
ENDBRANCH  50  74
BRANCH  62  85
ATOM     85  C   UNL A   1      44.645  33.286  29.053  1.00  0.00     0.023 A 
ATOM     86  C   UNL A   1      44.287  34.370  28.231  1.00  0.00     0.031 A 
ATOM     87  C   UNL A   1      45.376  33.559  30.224  1.00  0.00     0.131 A 
ATOM     88  C   UNL A   1      44.707  35.668  28.562  1.00  0.00     0.055 A 
ATOM     89  C   UNL A   1      45.734  34.860  30.581  1.00  0.00     0.041 A 
ATOM     90  F   UNL A   1      45.751  32.565  31.043  1.00  0.00    -0.206 F 
ATOM     91  C   UNL A   1      45.411  35.922  29.743  1.00  0.00     0.022 A 
BRANCH  88  92
ATOM     92  S   UNL A   1      44.399  37.011  27.383  1.00  0.00     0.124 S 
ATOM     93  O   UNL A   1      45.663  37.074  26.658  1.00  0.00    -0.237 OA
ATOM     94  O   UNL A   1      43.255  36.509  26.628  1.00  0.00    -0.237 OA
ATOM     95  O   UNL A   1      44.116  38.162  28.240  1.00  0.00    -0.744 OA
ENDBRANCH  88  92
ENDBRANCH  62  85
ENDBRANCH  36  37
ENDBRANCH  29  31
ENDBRANCH  28  29
ENDBRANCH  27  28
ENDBRANCH  26  27
ENDBRANCH   1  26
TORSDOF 20
ENDMDL
