MODEL 1
REMARK VINA RESULT:     -11.9      0.000      0.000
REMARK SMILES Cc1ccc(-c2cc(OCC(=O)OCCOCCOC(=O)c3ccc(-c4c5nc(c(-c6cc(S(=O)(=O)[O-])ccc6F)c6ccc([nH]6)c(-c6cc(S(=O)(=O)[O-])ccc6F)c6nc(c(-c7cc(S(=O)(=O)[O-])ccc7F)c7ccc4[nH]7)C=C6)C=C5)cc3)nc(NCc3ccc4c(c3)OCO4)n2)cc1
REMARK SMILES IDX 15 1 14 2 13 3 11 4 12 5 10 6 9 7 8 8 6 9 7 10 98 11 86 12
REMARK SMILES IDX 85 13 5 14 1 15 2 16 3 17 100 18 4 19 99 20 87 21 88 23
REMARK SMILES IDX 89 24 90 25 94 26 91 27 93 28 92 29 95 30 97 31 96 32 16 33
REMARK SMILES IDX 17 34 18 35 19 36 20 37 21 38 22 39 23 40 84 41 24 42 83 43
REMARK SMILES IDX 25 44 26 45 27 46 77 47 28 48 82 49 76 50 78 51 29 52 81 53
REMARK SMILES IDX 75 54 74 55 30 57 62 58 42 59 61 60 43 61 46 62 60 63 79 64
REMARK SMILES IDX 44 65 45 66 59 68 80 69 47 70 31 71 32 72 40 73 33 74 39 75
REMARK SMILES IDX 41 76 38 77 34 78 35 79 36 80 37 81 63 82 64 83 72 84 65 85
REMARK SMILES IDX 71 86 73 87 70 88 66 89 67 90 68 91 69 92 48 93 49 94 57 95
REMARK SMILES IDX 50 96 56 97 58 98 55 99 51 100 52 101 53 102 54 103
REMARK H PARENT 87 22 78 56 46 67
REMARK Flexibility Score: inf
ROOT
ATOM      1  C   UNL A   1      35.232  31.661  28.710  1.00  0.00     0.202 C 
ENDROOT
BRANCH   1   2
ATOM      2  C   UNL A   1      34.776  30.583  27.774  1.00  0.00     0.261 C 
BRANCH   2   3
ATOM      3  O   UNL A   1      33.380  30.462  27.559  1.00  0.00    -0.461 OA
BRANCH   3   4
ATOM      4  C   UNL A   1      33.059  29.962  26.337  1.00  0.00     0.344 C 
ATOM      5  O   UNL A   1      32.115  30.290  25.626  1.00  0.00    -0.248 OA
BRANCH   4   6
ATOM      6  C   UNL A   1      34.002  28.844  25.949  1.00  0.00     0.353 C 
BRANCH   6   7
ATOM      7  O   UNL A   1      34.241  28.544  24.587  1.00  0.00    -0.466 OA
BRANCH   7   8
ATOM      8  C   UNL A   1      33.485  27.539  24.052  1.00  0.00     0.219 A 
ATOM      9  C   UNL A   1      32.937  25.333  23.499  1.00  0.00     0.080 A 
ATOM     10  C   UNL A   1      33.779  26.202  24.178  1.00  0.00     0.097 A 
ATOM     11  N   UNL A   1      31.884  25.769  22.771  1.00  0.00    -0.213 NA
ATOM     12  C   UNL A   1      31.651  27.090  22.763  1.00  0.00     0.226 A 
ATOM     13  N   UNL A   1      32.437  27.989  23.353  1.00  0.00    -0.177 NA
BRANCH   9  14
ATOM     14  C   UNL A   1      33.042  23.869  23.648  1.00  0.00     0.000 A 
ATOM     15  C   UNL A   1      33.033  19.567  24.218  1.00  0.00     0.044 C 
ATOM     16  C   UNL A   1      33.061  21.051  24.024  1.00  0.00    -0.051 A 
ATOM     17  C   UNL A   1      33.986  21.874  24.680  1.00  0.00     0.004 A 
ATOM     18  C   UNL A   1      32.177  21.629  23.126  1.00  0.00     0.004 A 
ATOM     19  C   UNL A   1      33.965  23.270  24.509  1.00  0.00     0.010 A 
ATOM     20  C   UNL A   1      32.202  23.004  22.927  1.00  0.00     0.010 A 
ENDBRANCH   9  14
BRANCH  12  21
ATOM     21  N   UNL A   1      30.466  27.581  22.272  1.00  0.00    -0.350 N 
ATOM     22  H   UNL A   1      30.266  27.507  21.311  1.00  0.00     0.164 HD
BRANCH  21  23
ATOM     23  C   UNL A   1      29.518  28.206  23.156  1.00  0.00     0.152 C 
BRANCH  23  24
ATOM     24  C   UNL A   1      29.320  29.675  22.825  1.00  0.00    -0.025 A 
ATOM     25  C   UNL A   1      29.256  30.624  23.874  1.00  0.00     0.009 A 
ATOM     26  C   UNL A   1      29.129  30.103  21.498  1.00  0.00     0.056 A 
ATOM     27  C   UNL A   1      28.882  31.948  23.626  1.00  0.00     0.051 A 
ATOM     28  C   UNL A   1      28.701  31.392  21.293  1.00  0.00     0.166 A 
ATOM     29  C   UNL A   1      28.557  32.283  22.330  1.00  0.00     0.165 A 
ATOM     30  O   UNL A   1      28.281  31.908  20.106  1.00  0.00    -0.454 OA
ATOM     31  O   UNL A   1      28.008  33.460  21.914  1.00  0.00    -0.454 OA
ATOM     32  C   UNL A   1      27.588  33.072  20.586  1.00  0.00     0.468 C 
ENDBRANCH  23  24
ENDBRANCH  21  23
ENDBRANCH  12  21
ENDBRANCH   7   8
ENDBRANCH   6   7
ENDBRANCH   4   6
ENDBRANCH   3   4
ENDBRANCH   2   3
ENDBRANCH   1   2
BRANCH   1  33
ATOM     33  O   UNL A   1      35.734  32.683  27.887  1.00  0.00    -0.374 OA
BRANCH  33  34
ATOM     34  C   UNL A   1      34.979  33.856  27.982  1.00  0.00     0.202 C 
BRANCH  34  35
ATOM     35  C   UNL A   1      34.083  33.740  29.209  1.00  0.00     0.261 C 
BRANCH  35  36
ATOM     36  O   UNL A   1      34.521  34.650  30.251  1.00  0.00    -0.460 OA
BRANCH  36  37
ATOM     37  C   UNL A   1      34.621  34.085  31.487  1.00  0.00     0.338 C 
ATOM     38  O   UNL A   1      33.669  33.904  32.247  1.00  0.00    -0.246 OA
BRANCH  37  39
ATOM     39  C   UNL A   1      36.043  33.842  31.852  1.00  0.00     0.060 A 
ATOM     40  C   UNL A   1      37.061  34.406  31.060  1.00  0.00     0.016 A 
ATOM     41  C   UNL A   1      36.332  32.790  32.722  1.00  0.00     0.016 A 
ATOM     42  C   UNL A   1      38.315  33.788  30.994  1.00  0.00     0.010 A 
ATOM     43  C   UNL A   1      37.520  32.108  32.544  1.00  0.00     0.010 A 
ATOM     44  C   UNL A   1      38.507  32.585  31.670  1.00  0.00    -0.014 A 
BRANCH  44  45
ATOM     45  C   UNL A   1      39.708  31.755  31.570  1.00  0.00     0.031 A 
ATOM     46  C   UNL A   1      39.650  30.600  30.657  1.00  0.00     0.074 A 
ATOM     47  C   UNL A   1      40.877  32.072  32.173  1.00  0.00     0.049 A 
ATOM     48  N   UNL A   1      40.355  29.539  30.805  1.00  0.00    -0.248 NA
ATOM     49  C   UNL A   1      38.744  30.511  29.514  1.00  0.00     0.031 C 
ATOM     50  C   UNL A   1      42.213  31.507  31.982  1.00  0.00     0.029 A 
ATOM     51  N   UNL A   1      41.107  33.012  33.179  1.00  0.00    -0.354 N 
ATOM     52  C   UNL A   1      40.294  28.840  29.622  1.00  0.00     0.074 A 
ATOM     53  C   UNL A   1      39.159  29.387  28.932  1.00  0.00     0.031 C 
ATOM     54  C   UNL A   1      42.982  31.820  33.048  1.00  0.00     0.029 A 
ATOM     55  C   UNL A   1      42.142  32.549  33.991  1.00  0.00     0.049 A 
ATOM     56  H   UNL A   1      40.619  33.859  33.296  1.00  0.00     0.167 HD
ATOM     57  C   UNL A   1      41.334  28.017  29.306  1.00  0.00     0.034 A 
ATOM     58  C   UNL A   1      41.936  32.347  35.314  1.00  0.00     0.034 A 
ATOM     59  C   UNL A   1      42.333  28.024  30.393  1.00  0.00     0.049 A 
ATOM     60  C   UNL A   1      42.086  30.866  35.524  1.00  0.00     0.074 A 
ATOM     61  C   UNL A   1      43.606  28.558  30.516  1.00  0.00     0.029 A 
ATOM     62  N   UNL A   1      41.928  27.703  31.689  1.00  0.00    -0.354 N 
ATOM     63  N   UNL A   1      41.922  29.999  34.555  1.00  0.00    -0.248 NA
ATOM     64  C   UNL A   1      42.614  30.263  36.738  1.00  0.00     0.031 C 
ATOM     65  C   UNL A   1      43.927  28.615  31.906  1.00  0.00     0.029 A 
ATOM     66  C   UNL A   1      42.860  28.100  32.629  1.00  0.00     0.049 A 
ATOM     67  H   UNL A   1      41.083  27.248  31.909  1.00  0.00     0.167 HD
ATOM     68  C   UNL A   1      42.477  28.809  34.917  1.00  0.00     0.074 A 
ATOM     69  C   UNL A   1      42.840  29.005  36.317  1.00  0.00     0.031 C 
ATOM     70  C   UNL A   1      42.670  27.777  34.040  1.00  0.00     0.034 A 
BRANCH  57  71
ATOM     71  C   UNL A   1      41.601  27.434  27.929  1.00  0.00     0.023 A 
ATOM     72  C   UNL A   1      41.769  26.039  27.809  1.00  0.00     0.031 A 
ATOM     73  C   UNL A   1      41.721  28.144  26.714  1.00  0.00     0.131 A 
ATOM     74  C   UNL A   1      42.094  25.431  26.580  1.00  0.00     0.055 A 
ATOM     75  C   UNL A   1      42.080  27.547  25.496  1.00  0.00     0.041 A 
ATOM     76  F   UNL A   1      41.439  29.444  26.604  1.00  0.00    -0.206 F 
ATOM     77  C   UNL A   1      42.271  26.181  25.424  1.00  0.00     0.022 A 
BRANCH  74  78
ATOM     78  S   UNL A   1      42.258  23.629  26.510  1.00  0.00     0.124 S 
ATOM     79  O   UNL A   1      42.750  23.420  25.153  1.00  0.00    -0.237 OA
ATOM     80  O   UNL A   1      43.200  23.360  27.590  1.00  0.00    -0.237 OA
ATOM     81  O   UNL A   1      40.895  23.157  26.752  1.00  0.00    -0.744 OA
ENDBRANCH  74  78
ENDBRANCH  57  71
BRANCH  58  82
ATOM     82  C   UNL A   1      40.996  33.357  35.913  1.00  0.00     0.023 A 
ATOM     83  C   UNL A   1      39.699  32.901  36.290  1.00  0.00     0.031 A 
ATOM     84  C   UNL A   1      41.437  34.550  36.499  1.00  0.00     0.131 A 
ATOM     85  C   UNL A   1      38.942  33.560  37.285  1.00  0.00     0.055 A 
ATOM     86  C   UNL A   1      40.679  35.210  37.487  1.00  0.00     0.041 A 
ATOM     87  F   UNL A   1      42.658  35.033  36.227  1.00  0.00    -0.206 F 
ATOM     88  C   UNL A   1      39.444  34.704  37.905  1.00  0.00     0.022 A 
BRANCH  85  89
ATOM     89  S   UNL A   1      37.440  32.752  37.971  1.00  0.00     0.124 S 
ATOM     90  O   UNL A   1      36.384  33.291  37.125  1.00  0.00    -0.237 OA
ATOM     91  O   UNL A   1      37.734  31.333  37.798  1.00  0.00    -0.237 OA
ATOM     92  O   UNL A   1      37.410  33.203  39.360  1.00  0.00    -0.744 OA
ENDBRANCH  85  89
ENDBRANCH  58  82
BRANCH  70  93
ATOM     93  C   UNL A   1      42.771  26.335  34.463  1.00  0.00     0.023 A 
ATOM     94  C   UNL A   1      43.843  25.528  34.081  1.00  0.00     0.031 A 
ATOM     95  C   UNL A   1      41.864  25.756  35.383  1.00  0.00     0.131 A 
ATOM     96  C   UNL A   1      43.935  24.197  34.498  1.00  0.00     0.055 A 
ATOM     97  C   UNL A   1      42.023  24.469  35.894  1.00  0.00     0.041 A 
ATOM     98  F   UNL A   1      40.797  26.417  35.854  1.00  0.00    -0.206 F 
ATOM     99  C   UNL A   1      43.055  23.667  35.433  1.00  0.00     0.022 A 
BRANCH  96 100
ATOM    100  S   UNL A   1      45.187  23.173  33.698  1.00  0.00     0.124 S 
ATOM    101  O   UNL A   1      44.923  21.864  34.294  1.00  0.00    -0.237 OA
ATOM    102  O   UNL A   1      44.844  23.301  32.285  1.00  0.00    -0.237 OA
ATOM    103  O   UNL A   1      46.445  23.796  34.096  1.00  0.00    -0.744 OA
ENDBRANCH  96 100
ENDBRANCH  70  93
ENDBRANCH  44  45
ENDBRANCH  37  39
ENDBRANCH  36  37
ENDBRANCH  35  36
ENDBRANCH  34  35
ENDBRANCH  33  34
ENDBRANCH   1  33
TORSDOF 23
ENDMDL
MODEL 2
REMARK VINA RESULT:     -11.5      5.510      9.636
REMARK SMILES Cc1ccc(-c2cc(OCC(=O)OCCOCCOC(=O)c3ccc(-c4c5nc(c(-c6cc(S(=O)(=O)[O-])ccc6F)c6ccc([nH]6)c(-c6cc(S(=O)(=O)[O-])ccc6F)c6nc(c(-c7cc(S(=O)(=O)[O-])ccc7F)c7ccc4[nH]7)C=C6)C=C5)cc3)nc(NCc3ccc4c(c3)OCO4)n2)cc1
REMARK SMILES IDX 15 1 14 2 13 3 11 4 12 5 10 6 9 7 8 8 6 9 7 10 98 11 86 12
REMARK SMILES IDX 85 13 5 14 1 15 2 16 3 17 100 18 4 19 99 20 87 21 88 23
REMARK SMILES IDX 89 24 90 25 94 26 91 27 93 28 92 29 95 30 97 31 96 32 16 33
REMARK SMILES IDX 17 34 18 35 19 36 20 37 21 38 22 39 23 40 84 41 24 42 83 43
REMARK SMILES IDX 25 44 26 45 27 46 77 47 28 48 82 49 76 50 78 51 29 52 81 53
REMARK SMILES IDX 75 54 74 55 30 57 62 58 42 59 61 60 43 61 46 62 60 63 79 64
REMARK SMILES IDX 44 65 45 66 59 68 80 69 47 70 31 71 32 72 40 73 33 74 39 75
REMARK SMILES IDX 41 76 38 77 34 78 35 79 36 80 37 81 63 82 64 83 72 84 65 85
REMARK SMILES IDX 71 86 73 87 70 88 66 89 67 90 68 91 69 92 48 93 49 94 57 95
REMARK SMILES IDX 50 96 56 97 58 98 55 99 51 100 52 101 53 102 54 103
REMARK H PARENT 87 22 78 56 46 67
REMARK Flexibility Score: inf
ROOT
ATOM      1  C   UNL A   1      34.071  34.044  29.609  1.00  0.00     0.202 C 
ENDROOT
BRANCH   1   2
ATOM      2  C   UNL A   1      33.487  35.337  30.092  1.00  0.00     0.261 C 
BRANCH   2   3
ATOM      3  O   UNL A   1      32.668  35.283  31.247  1.00  0.00    -0.461 OA
BRANCH   3   4
ATOM      4  C   UNL A   1      32.930  36.268  32.146  1.00  0.00     0.344 C 
ATOM      5  O   UNL A   1      32.202  37.207  32.452  1.00  0.00    -0.248 OA
BRANCH   4   6
ATOM      6  C   UNL A   1      34.324  36.117  32.717  1.00  0.00     0.353 C 
BRANCH   6   7
ATOM      7  O   UNL A   1      34.551  35.310  33.857  1.00  0.00    -0.466 OA
BRANCH   7   8
ATOM      8  C   UNL A   1      35.716  34.594  33.863  1.00  0.00     0.219 A 
ATOM      9  C   UNL A   1      37.682  33.696  32.970  1.00  0.00     0.080 A 
ATOM     10  C   UNL A   1      36.592  34.538  32.805  1.00  0.00     0.097 A 
ATOM     11  N   UNL A   1      37.882  32.986  34.103  1.00  0.00    -0.213 NA
ATOM     12  C   UNL A   1      36.999  33.160  35.098  1.00  0.00     0.226 A 
ATOM     13  N   UNL A   1      35.906  33.915  35.000  1.00  0.00    -0.177 NA
BRANCH   9  14
ATOM     14  C   UNL A   1      38.776  33.633  31.981  1.00  0.00     0.000 A 
ATOM     15  C   UNL A   1      42.194  33.601  29.309  1.00  0.00     0.044 C 
ATOM     16  C   UNL A   1      41.000  33.613  30.211  1.00  0.00    -0.051 A 
ATOM     17  C   UNL A   1      39.831  34.317  29.894  1.00  0.00     0.004 A 
ATOM     18  C   UNL A   1      41.029  32.863  31.375  1.00  0.00     0.004 A 
ATOM     19  C   UNL A   1      38.737  34.342  30.779  1.00  0.00     0.010 A 
ATOM     20  C   UNL A   1      39.922  32.855  32.215  1.00  0.00     0.010 A 
ENDBRANCH   9  14
BRANCH  12  21
ATOM     21  N   UNL A   1      37.271  32.685  36.357  1.00  0.00    -0.350 N 
ATOM     22  H   UNL A   1      37.747  31.830  36.466  1.00  0.00     0.164 HD
BRANCH  21  23
ATOM     23  C   UNL A   1      36.863  33.432  37.517  1.00  0.00     0.152 C 
BRANCH  23  24
ATOM     24  C   UNL A   1      38.007  33.617  38.500  1.00  0.00    -0.025 A 
ATOM     25  C   UNL A   1      38.967  34.632  38.269  1.00  0.00     0.009 A 
ATOM     26  C   UNL A   1      38.170  32.754  39.599  1.00  0.00     0.056 A 
ATOM     27  C   UNL A   1      40.134  34.708  39.036  1.00  0.00     0.051 A 
ATOM     28  C   UNL A   1      39.354  32.811  40.293  1.00  0.00     0.166 A 
ATOM     29  C   UNL A   1      40.321  33.745  40.004  1.00  0.00     0.165 A 
ATOM     30  O   UNL A   1      39.757  31.927  41.246  1.00  0.00    -0.454 OA
ATOM     31  O   UNL A   1      41.455  33.542  40.732  1.00  0.00    -0.454 OA
ATOM     32  C   UNL A   1      41.161  32.234  41.272  1.00  0.00     0.468 C 
ENDBRANCH  23  24
ENDBRANCH  21  23
ENDBRANCH  12  21
ENDBRANCH   7   8
ENDBRANCH   6   7
ENDBRANCH   4   6
ENDBRANCH   3   4
ENDBRANCH   2   3
ENDBRANCH   1   2
BRANCH   1  33
ATOM     33  O   UNL A   1      35.246  34.396  28.924  1.00  0.00    -0.374 OA
BRANCH  33  34
ATOM     34  C   UNL A   1      35.966  33.274  28.500  1.00  0.00     0.202 C 
BRANCH  34  35
ATOM     35  C   UNL A   1      35.595  32.107  29.407  1.00  0.00     0.261 C 
BRANCH  35  36
ATOM     36  O   UNL A   1      36.306  30.906  29.012  1.00  0.00    -0.460 OA
BRANCH  36  37
ATOM     37  C   UNL A   1      36.691  30.111  30.050  1.00  0.00     0.338 C 
ATOM     38  O   UNL A   1      35.913  29.594  30.854  1.00  0.00    -0.246 OA
BRANCH  37  39
ATOM     39  C   UNL A   1      38.173  30.061  30.167  1.00  0.00     0.060 A 
ATOM     40  C   UNL A   1      38.960  30.317  29.029  1.00  0.00     0.016 A 
ATOM     41  C   UNL A   1      38.728  29.417  31.274  1.00  0.00     0.016 A 
ATOM     42  C   UNL A   1      40.237  29.755  28.924  1.00  0.00     0.010 A 
ATOM     43  C   UNL A   1      39.926  28.750  31.104  1.00  0.00     0.010 A 
ATOM     44  C   UNL A   1      40.677  28.895  29.929  1.00  0.00    -0.014 A 
BRANCH  44  45
ATOM     45  C   UNL A   1      41.918  28.122  29.880  1.00  0.00     0.031 A 
ATOM     46  C   UNL A   1      41.848  26.782  29.269  1.00  0.00     0.074 A 
ATOM     47  C   UNL A   1      43.118  28.625  30.251  1.00  0.00     0.049 A 
ATOM     48  N   UNL A   1      42.640  25.819  29.572  1.00  0.00    -0.248 NA
ATOM     49  C   UNL A   1      40.837  26.384  28.293  1.00  0.00     0.031 C 
ATOM     50  C   UNL A   1      44.464  28.093  30.038  1.00  0.00     0.029 A 
ATOM     51  N   UNL A   1      43.382  29.785  30.980  1.00  0.00    -0.354 N 
ATOM     52  C   UNL A   1      42.507  24.859  28.597  1.00  0.00     0.074 A 
ATOM     53  C   UNL A   1      41.269  25.175  27.939  1.00  0.00     0.031 C 
ATOM     54  C   UNL A   1      45.315  28.684  30.904  1.00  0.00     0.029 A 
ATOM     55  C   UNL A   1      44.528  29.576  31.748  1.00  0.00     0.049 A 
ATOM     56  H   UNL A   1      42.849  30.613  30.956  1.00  0.00     0.167 HD
ATOM     57  C   UNL A   1      43.565  24.034  28.357  1.00  0.00     0.034 A 
ATOM     58  C   UNL A   1      44.477  29.683  33.096  1.00  0.00     0.034 A 
ATOM     59  C   UNL A   1      44.669  24.343  29.287  1.00  0.00     0.049 A 
ATOM     60  C   UNL A   1      44.754  28.301  33.622  1.00  0.00     0.074 A 
ATOM     61  C   UNL A   1      45.906  24.949  29.132  1.00  0.00     0.029 A 
ATOM     62  N   UNL A   1      44.426  24.318  30.661  1.00  0.00    -0.354 N 
ATOM     63  N   UNL A   1      44.553  27.223  32.904  1.00  0.00    -0.248 NA
ATOM     64  C   UNL A   1      45.449  28.027  34.869  1.00  0.00     0.031 C 
ATOM     65  C   UNL A   1      46.366  25.347  30.424  1.00  0.00     0.029 A 
ATOM     66  C   UNL A   1      45.419  24.969  31.367  1.00  0.00     0.049 A 
ATOM     67  H   UNL A   1      43.643  23.890  31.077  1.00  0.00     0.167 HD
ATOM     68  C   UNL A   1      45.228  26.179  33.461  1.00  0.00     0.074 A 
ATOM     69  C   UNL A   1      45.720  26.717  34.725  1.00  0.00     0.031 C 
ATOM     70  C   UNL A   1      45.402  24.979  32.827  1.00  0.00     0.034 A 
BRANCH  57  71
ATOM     71  C   UNL A   1      43.728  23.155  27.128  1.00  0.00     0.023 A 
ATOM     72  C   UNL A   1      43.163  21.863  27.145  1.00  0.00     0.031 A 
ATOM     73  C   UNL A   1      44.412  23.479  25.936  1.00  0.00     0.131 A 
ATOM     74  C   UNL A   1      43.335  20.961  26.076  1.00  0.00     0.055 A 
ATOM     75  C   UNL A   1      44.617  22.572  24.886  1.00  0.00     0.041 A 
ATOM     76  F   UNL A   1      44.872  24.705  25.676  1.00  0.00    -0.206 F 
ATOM     77  C   UNL A   1      44.078  21.301  24.952  1.00  0.00     0.022 A 
BRANCH  74  78
ATOM     78  S   UNL A   1      42.547  19.333  26.167  1.00  0.00     0.124 S 
ATOM     79  O   UNL A   1      42.358  19.166  27.603  1.00  0.00    -0.237 OA
ATOM     80  O   UNL A   1      41.340  19.527  25.371  1.00  0.00    -0.237 OA
ATOM     81  O   UNL A   1      43.542  18.443  25.567  1.00  0.00    -0.744 OA
ENDBRANCH  74  78
ENDBRANCH  57  71
BRANCH  58  82
ATOM     82  C   UNL A   1      43.534  30.761  33.555  1.00  0.00     0.023 A 
ATOM     83  C   UNL A   1      42.263  30.350  34.056  1.00  0.00     0.031 A 
ATOM     84  C   UNL A   1      43.964  32.045  33.914  1.00  0.00     0.131 A 
ATOM     85  C   UNL A   1      41.527  31.154  34.956  1.00  0.00     0.055 A 
ATOM     86  C   UNL A   1      43.228  32.847  34.807  1.00  0.00     0.041 A 
ATOM     87  F   UNL A   1      45.162  32.498  33.515  1.00  0.00    -0.206 F 
ATOM     88  C   UNL A   1      42.022  32.395  35.355  1.00  0.00     0.022 A 
BRANCH  85  89
ATOM     89  S   UNL A   1      40.073  30.445  35.829  1.00  0.00     0.124 S 
ATOM     90  O   UNL A   1      39.094  30.328  34.756  1.00  0.00    -0.237 OA
ATOM     91  O   UNL A   1      40.597  29.188  36.353  1.00  0.00    -0.237 OA
ATOM     92  O   UNL A   1      39.759  31.445  36.846  1.00  0.00    -0.744 OA
ENDBRANCH  85  89
ENDBRANCH  58  82
BRANCH  70  93
ATOM     93  C   UNL A   1      45.651  23.684  33.554  1.00  0.00     0.023 A 
ATOM     94  C   UNL A   1      46.912  23.347  34.048  1.00  0.00     0.031 A 
ATOM     95  C   UNL A   1      44.599  22.804  33.903  1.00  0.00     0.131 A 
ATOM     96  C   UNL A   1      47.125  22.151  34.740  1.00  0.00     0.055 A 
ATOM     97  C   UNL A   1      44.791  21.674  34.697  1.00  0.00     0.041 A 
ATOM     98  F   UNL A   1      43.332  23.008  33.516  1.00  0.00    -0.206 F 
ATOM     99  C   UNL A   1      46.068  21.326  35.103  1.00  0.00     0.022 A 
BRANCH  96 100
ATOM    100  S   UNL A   1      48.838  21.681  35.055  1.00  0.00     0.124 S 
ATOM    101  O   UNL A   1      49.488  22.986  35.160  1.00  0.00    -0.237 OA
ATOM    102  O   UNL A   1      48.735  20.927  36.301  1.00  0.00    -0.237 OA
ATOM    103  O   UNL A   1      49.200  20.898  33.878  1.00  0.00    -0.744 OA
ENDBRANCH  96 100
ENDBRANCH  70  93
ENDBRANCH  44  45
ENDBRANCH  37  39
ENDBRANCH  36  37
ENDBRANCH  35  36
ENDBRANCH  34  35
ENDBRANCH  33  34
ENDBRANCH   1  33
TORSDOF 23
ENDMDL
MODEL 3
REMARK VINA RESULT:     -11.0      3.980      9.945
REMARK SMILES Cc1ccc(-c2cc(OCC(=O)OCCOCCOC(=O)c3ccc(-c4c5nc(c(-c6cc(S(=O)(=O)[O-])ccc6F)c6ccc([nH]6)c(-c6cc(S(=O)(=O)[O-])ccc6F)c6nc(c(-c7cc(S(=O)(=O)[O-])ccc7F)c7ccc4[nH]7)C=C6)C=C5)cc3)nc(NCc3ccc4c(c3)OCO4)n2)cc1
REMARK SMILES IDX 15 1 14 2 13 3 11 4 12 5 10 6 9 7 8 8 6 9 7 10 98 11 86 12
REMARK SMILES IDX 85 13 5 14 1 15 2 16 3 17 100 18 4 19 99 20 87 21 88 23
REMARK SMILES IDX 89 24 90 25 94 26 91 27 93 28 92 29 95 30 97 31 96 32 16 33
REMARK SMILES IDX 17 34 18 35 19 36 20 37 21 38 22 39 23 40 84 41 24 42 83 43
REMARK SMILES IDX 25 44 26 45 27 46 77 47 28 48 82 49 76 50 78 51 29 52 81 53
REMARK SMILES IDX 75 54 74 55 30 57 62 58 42 59 61 60 43 61 46 62 60 63 79 64
REMARK SMILES IDX 44 65 45 66 59 68 80 69 47 70 31 71 32 72 40 73 33 74 39 75
REMARK SMILES IDX 41 76 38 77 34 78 35 79 36 80 37 81 63 82 64 83 72 84 65 85
REMARK SMILES IDX 71 86 73 87 70 88 66 89 67 90 68 91 69 92 48 93 49 94 57 95
REMARK SMILES IDX 50 96 56 97 58 98 55 99 51 100 52 101 53 102 54 103
REMARK H PARENT 87 22 78 56 46 67
REMARK Flexibility Score: inf
ROOT
ATOM      1  C   UNL A   1      35.450  22.675  26.532  1.00  0.00     0.202 C 
ENDROOT
BRANCH   1   2
ATOM      2  C   UNL A   1      34.006  22.889  26.871  1.00  0.00     0.261 C 
BRANCH   2   3
ATOM      3  O   UNL A   1      33.149  21.763  26.784  1.00  0.00    -0.461 OA
BRANCH   3   4
ATOM      4  C   UNL A   1      31.976  22.021  26.148  1.00  0.00     0.344 C 
ATOM      5  O   UNL A   1      31.364  21.276  25.390  1.00  0.00    -0.248 OA
BRANCH   4   6
ATOM      6  C   UNL A   1      31.507  23.431  26.436  1.00  0.00     0.353 C 
BRANCH   6   7
ATOM      7  O   UNL A   1      30.287  23.907  25.901  1.00  0.00    -0.466 OA
BRANCH   7   8
ATOM      8  C   UNL A   1      30.390  24.792  24.865  1.00  0.00     0.219 A 
ATOM      9  C   UNL A   1      29.862  26.699  23.617  1.00  0.00     0.080 A 
ATOM     10  C   UNL A   1      29.683  25.969  24.782  1.00  0.00     0.097 A 
ATOM     11  N   UNL A   1      30.690  26.291  22.628  1.00  0.00    -0.213 NA
ATOM     12  C   UNL A   1      31.379  25.159  22.836  1.00  0.00     0.226 A 
ATOM     13  N   UNL A   1      31.229  24.381  23.907  1.00  0.00    -0.177 NA
BRANCH   9  14
ATOM     14  C   UNL A   1      29.278  28.043  23.441  1.00  0.00     0.000 A 
ATOM     15  C   UNL A   1      27.640  32.057  23.255  1.00  0.00     0.044 C 
ATOM     16  C   UNL A   1      28.189  30.666  23.301  1.00  0.00    -0.051 A 
ATOM     17  C   UNL A   1      27.387  29.537  23.086  1.00  0.00     0.004 A 
ATOM     18  C   UNL A   1      29.547  30.485  23.513  1.00  0.00     0.004 A 
ATOM     19  C   UNL A   1      27.921  28.239  23.174  1.00  0.00     0.010 A 
ATOM     20  C   UNL A   1      30.071  29.198  23.546  1.00  0.00     0.010 A 
ENDBRANCH   9  14
BRANCH  12  21
ATOM     21  N   UNL A   1      32.421  24.821  22.009  1.00  0.00    -0.350 N 
ATOM     22  H   UNL A   1      32.338  24.046  21.408  1.00  0.00     0.164 HD
BRANCH  21  23
ATOM     23  C   UNL A   1      33.635  25.594  22.019  1.00  0.00     0.152 C 
BRANCH  23  24
ATOM     24  C   UNL A   1      33.797  26.373  23.313  1.00  0.00    -0.025 A 
ATOM     25  C   UNL A   1      34.039  25.675  24.521  1.00  0.00     0.009 A 
ATOM     26  C   UNL A   1      33.642  27.771  23.346  1.00  0.00     0.056 A 
ATOM     27  C   UNL A   1      33.998  26.334  25.754  1.00  0.00     0.051 A 
ATOM     28  C   UNL A   1      33.544  28.379  24.573  1.00  0.00     0.166 A 
ATOM     29  C   UNL A   1      33.693  27.677  25.747  1.00  0.00     0.165 A 
ATOM     30  O   UNL A   1      33.198  29.678  24.789  1.00  0.00    -0.454 OA
ATOM     31  O   UNL A   1      33.437  28.453  26.837  1.00  0.00    -0.454 OA
ATOM     32  C   UNL A   1      32.854  29.602  26.182  1.00  0.00     0.468 C 
ENDBRANCH  23  24
ENDBRANCH  21  23
ENDBRANCH  12  21
ENDBRANCH   7   8
ENDBRANCH   6   7
ENDBRANCH   4   6
ENDBRANCH   3   4
ENDBRANCH   2   3
ENDBRANCH   1   2
BRANCH   1  33
ATOM     33  O   UNL A   1      35.456  22.167  25.223  1.00  0.00    -0.374 OA
BRANCH  33  34
ATOM     34  C   UNL A   1      36.673  22.397  24.572  1.00  0.00     0.202 C 
BRANCH  34  35
ATOM     35  C   UNL A   1      37.785  21.822  25.440  1.00  0.00     0.261 C 
BRANCH  35  36
ATOM     36  O   UNL A   1      38.627  22.882  25.962  1.00  0.00    -0.460 OA
BRANCH  36  37
ATOM     37  C   UNL A   1      39.803  22.454  26.501  1.00  0.00     0.338 C 
ATOM     38  O   UNL A   1      40.073  21.274  26.731  1.00  0.00    -0.246 OA
BRANCH  37  39
ATOM     39  C   UNL A   1      40.661  23.603  26.900  1.00  0.00     0.060 A 
ATOM     40  C   UNL A   1      41.516  23.467  28.010  1.00  0.00     0.016 A 
ATOM     41  C   UNL A   1      40.339  24.870  26.412  1.00  0.00     0.016 A 
ATOM     42  C   UNL A   1      41.885  24.598  28.747  1.00  0.00     0.010 A 
ATOM     43  C   UNL A   1      40.588  25.960  27.223  1.00  0.00     0.010 A 
ATOM     44  C   UNL A   1      41.340  25.833  28.399  1.00  0.00    -0.014 A 
BRANCH  44  45
ATOM     45  C   UNL A   1      41.515  27.066  29.167  1.00  0.00     0.031 A 
ATOM     46  C   UNL A   1      40.407  28.037  29.136  1.00  0.00     0.074 A 
ATOM     47  C   UNL A   1      42.574  27.287  29.980  1.00  0.00     0.049 A 
ATOM     48  N   UNL A   1      40.561  29.299  29.303  1.00  0.00    -0.248 NA
ATOM     49  C   UNL A   1      39.018  27.678  28.857  1.00  0.00     0.031 C 
ATOM     50  C   UNL A   1      42.782  28.327  30.987  1.00  0.00     0.029 A 
ATOM     51  N   UNL A   1      43.781  26.588  30.040  1.00  0.00    -0.354 N 
ATOM     52  C   UNL A   1      39.317  29.835  29.542  1.00  0.00     0.074 A 
ATOM     53  C   UNL A   1      38.394  28.833  29.085  1.00  0.00     0.031 C 
ATOM     54  C   UNL A   1      44.101  28.421  31.261  1.00  0.00     0.029 A 
ATOM     55  C   UNL A   1      44.795  27.481  30.388  1.00  0.00     0.049 A 
ATOM     56  H   UNL A   1      43.897  25.626  29.865  1.00  0.00     0.167 HD
ATOM     57  C   UNL A   1      39.239  30.982  30.273  1.00  0.00     0.034 A 
ATOM     58  C   UNL A   1      45.852  27.671  29.565  1.00  0.00     0.034 A 
ATOM     59  C   UNL A   1      40.594  31.450  30.626  1.00  0.00     0.049 A 
ATOM     60  C   UNL A   1      45.752  29.098  29.101  1.00  0.00     0.074 A 
ATOM     61  C   UNL A   1      41.314  31.482  31.810  1.00  0.00     0.029 A 
ATOM     62  N   UNL A   1      41.524  31.668  29.609  1.00  0.00    -0.354 N 
ATOM     63  N   UNL A   1      44.621  29.759  29.104  1.00  0.00    -0.248 NA
ATOM     64  C   UNL A   1      46.899  29.941  28.804  1.00  0.00     0.031 C 
ATOM     65  C   UNL A   1      42.693  31.652  31.482  1.00  0.00     0.029 A 
ATOM     66  C   UNL A   1      42.812  31.741  30.102  1.00  0.00     0.049 A 
ATOM     67  H   UNL A   1      41.292  31.758  28.656  1.00  0.00     0.167 HD
ATOM     68  C   UNL A   1      44.879  31.093  29.009  1.00  0.00     0.074 A 
ATOM     69  C   UNL A   1      46.315  31.153  28.757  1.00  0.00     0.031 C 
ATOM     70  C   UNL A   1      43.926  32.055  29.212  1.00  0.00     0.034 A 
BRANCH  57  71
ATOM     71  C   UNL A   1      37.972  31.530  30.909  1.00  0.00     0.023 A 
ATOM     72  C   UNL A   1      37.013  32.145  30.078  1.00  0.00     0.031 A 
ATOM     73  C   UNL A   1      37.633  31.512  32.279  1.00  0.00     0.131 A 
ATOM     74  C   UNL A   1      35.850  32.744  30.601  1.00  0.00     0.055 A 
ATOM     75  C   UNL A   1      36.495  32.139  32.808  1.00  0.00     0.041 A 
ATOM     76  F   UNL A   1      38.339  30.838  33.191  1.00  0.00    -0.206 F 
ATOM     77  C   UNL A   1      35.594  32.763  31.966  1.00  0.00     0.022 A 
BRANCH  74  78
ATOM     78  S   UNL A   1      34.654  33.482  29.458  1.00  0.00     0.124 S 
ATOM     79  O   UNL A   1      33.726  34.140  30.371  1.00  0.00    -0.237 OA
ATOM     80  O   UNL A   1      35.496  34.354  28.647  1.00  0.00    -0.237 OA
ATOM     81  O   UNL A   1      34.107  32.324  28.750  1.00  0.00    -0.744 OA
ENDBRANCH  74  78
ENDBRANCH  57  71
BRANCH  58  82
ATOM     82  C   UNL A   1      46.265  26.411  28.855  1.00  0.00     0.023 A 
ATOM     83  C   UNL A   1      45.871  26.269  27.491  1.00  0.00     0.031 A 
ATOM     84  C   UNL A   1      47.328  25.608  29.288  1.00  0.00     0.131 A 
ATOM     85  C   UNL A   1      46.587  25.441  26.596  1.00  0.00     0.055 A 
ATOM     86  C   UNL A   1      48.038  24.780  28.396  1.00  0.00     0.041 A 
ATOM     87  F   UNL A   1      47.784  25.703  30.545  1.00  0.00    -0.206 F 
ATOM     88  C   UNL A   1      47.690  24.714  27.043  1.00  0.00     0.022 A 
BRANCH  85  89
ATOM     89  S   UNL A   1      46.254  25.550  24.792  1.00  0.00     0.124 S 
ATOM     90  O   UNL A   1      47.545  25.195  24.216  1.00  0.00    -0.237 OA
ATOM     91  O   UNL A   1      45.183  24.577  24.605  1.00  0.00    -0.237 OA
ATOM     92  O   UNL A   1      45.854  26.942  24.598  1.00  0.00    -0.744 OA
ENDBRANCH  85  89
ENDBRANCH  58  82
BRANCH  70  93
ATOM     93  C   UNL A   1      44.007  33.440  28.628  1.00  0.00     0.023 A 
ATOM     94  C   UNL A   1      44.330  34.552  29.408  1.00  0.00     0.031 A 
ATOM     95  C   UNL A   1      43.901  33.677  27.236  1.00  0.00     0.131 A 
ATOM     96  C   UNL A   1      44.423  35.830  28.848  1.00  0.00     0.055 A 
ATOM     97  C   UNL A   1      44.114  34.930  26.663  1.00  0.00     0.041 A 
ATOM     98  F   UNL A   1      43.614  32.703  26.361  1.00  0.00    -0.206 F 
ATOM     99  C   UNL A   1      44.354  36.026  27.475  1.00  0.00     0.022 A 
BRANCH  96 100
ATOM    100  S   UNL A   1      44.539  37.218  29.994  1.00  0.00     0.124 S 
ATOM    101  O   UNL A   1      44.226  38.348  29.121  1.00  0.00    -0.237 OA
ATOM    102  O   UNL A   1      43.521  36.892  30.989  1.00  0.00    -0.237 OA
ATOM    103  O   UNL A   1      45.918  37.158  30.466  1.00  0.00    -0.744 OA
ENDBRANCH  96 100
ENDBRANCH  70  93
ENDBRANCH  44  45
ENDBRANCH  37  39
ENDBRANCH  36  37
ENDBRANCH  35  36
ENDBRANCH  34  35
ENDBRANCH  33  34
ENDBRANCH   1  33
TORSDOF 23
ENDMDL
