MODEL 1
REMARK VINA RESULT:     -10.0      0.000      0.000
REMARK SMILES O=C(OCCOCCOC(=O)c1ccc(-n2cnc3ccccc32)nc1)c1ccc(-c2c3nc(c(-c4cc(S(=O)(=O)[O-])ccc4F)c4ccc([nH]4)c(-c4cc(S(=O)(=O)[O-])ccc4F)c4nc(c(-c5cc(S(=O)(=O)[O-])ccc5F)c5ccc2[nH]5)C=C4)C=C3)cc1
REMARK SMILES IDX 5 1 4 2 3 3 2 4 1 5 27 6 28 7 89 8 29 9 88 10 30 11 31 12
REMARK SMILES IDX 32 13 82 14 33 15 87 16 81 17 83 18 34 19 86 20 80 21 79 22
REMARK SMILES IDX 35 24 67 25 47 26 66 27 48 28 51 29 65 30 84 31 49 32 50 33
REMARK SMILES IDX 64 35 85 36 52 37 36 38 37 39 45 40 38 41 44 42 46 43 43 44
REMARK SMILES IDX 39 45 40 46 41 47 42 48 68 49 69 50 77 51 70 52 76 53 78 54
REMARK SMILES IDX 75 55 71 56 72 57 73 58 74 59 53 60 54 61 62 62 55 63 61 64
REMARK SMILES IDX 63 65 60 66 56 67 57 68 58 69 59 70 6 71 7 72 8 73 9 74
REMARK SMILES IDX 10 75 11 76 12 77 13 78 26 79 14 80 25 81 15 82 16 83 17 84
REMARK SMILES IDX 24 85 18 86 19 87 23 88 20 89 22 90 21 91
REMARK H PARENT 83 23 51 34
REMARK Flexibility Score: inf
ROOT
ATOM      1  C   UNL A   1      33.533  35.549  30.214  1.00  0.00     0.202 C 
ENDROOT
BRANCH   1   2
ATOM      2  C   UNL A   1      34.210  34.843  29.037  1.00  0.00     0.261 C 
BRANCH   2   3
ATOM      3  O   UNL A   1      35.030  33.687  29.353  1.00  0.00    -0.460 OA
BRANCH   3   4
ATOM      4  C   UNL A   1      35.033  32.448  28.777  1.00  0.00     0.338 C 
ATOM      5  O   UNL A   1      33.968  31.916  28.473  1.00  0.00    -0.246 OA
BRANCH   4   6
ATOM      6  C   UNL A   1      36.297  31.671  28.633  1.00  0.00     0.060 A 
ATOM      7  C   UNL A   1      36.201  30.311  28.276  1.00  0.00     0.016 A 
ATOM      8  C   UNL A   1      37.529  32.194  29.013  1.00  0.00     0.016 A 
ATOM      9  C   UNL A   1      37.292  29.452  28.472  1.00  0.00     0.010 A 
ATOM     10  C   UNL A   1      38.577  31.320  29.293  1.00  0.00     0.010 A 
ATOM     11  C   UNL A   1      38.462  29.934  29.069  1.00  0.00    -0.014 A 
BRANCH  11  12
ATOM     12  C   UNL A   1      39.699  29.121  29.077  1.00  0.00     0.031 A 
ATOM     13  C   UNL A   1      40.059  28.857  30.483  1.00  0.00     0.074 A 
ATOM     14  C   UNL A   1      40.456  28.558  28.104  1.00  0.00     0.049 A 
ATOM     15  N   UNL A   1      40.926  29.544  31.151  1.00  0.00    -0.248 NA
ATOM     16  C   UNL A   1      39.199  27.991  31.303  1.00  0.00     0.031 C 
ATOM     17  C   UNL A   1      40.288  28.590  26.659  1.00  0.00     0.029 A 
ATOM     18  N   UNL A   1      41.542  27.724  28.223  1.00  0.00    -0.354 N 
ATOM     19  C   UNL A   1      40.871  29.018  32.427  1.00  0.00     0.074 A 
ATOM     20  C   UNL A   1      39.606  28.341  32.522  1.00  0.00     0.031 C 
ATOM     21  C   UNL A   1      40.968  27.583  26.067  1.00  0.00     0.029 A 
ATOM     22  C   UNL A   1      41.836  26.997  27.069  1.00  0.00     0.049 A 
ATOM     23  H   UNL A   1      42.067  27.645  29.052  1.00  0.00     0.167 HD
ATOM     24  C   UNL A   1      42.005  28.867  33.161  1.00  0.00     0.034 A 
ATOM     25  C   UNL A   1      42.803  26.068  26.877  1.00  0.00     0.034 A 
ATOM     26  C   UNL A   1      43.107  29.569  32.551  1.00  0.00     0.049 A 
ATOM     27  C   UNL A   1      43.875  26.342  27.849  1.00  0.00     0.074 A 
ATOM     28  C   UNL A   1      43.426  30.891  32.327  1.00  0.00     0.029 A 
ATOM     29  N   UNL A   1      43.862  28.813  31.687  1.00  0.00    -0.354 N 
ATOM     30  N   UNL A   1      44.664  27.375  27.773  1.00  0.00    -0.248 NA
ATOM     31  C   UNL A   1      43.863  25.649  29.128  1.00  0.00     0.031 C 
ATOM     32  C   UNL A   1      44.230  30.907  31.153  1.00  0.00     0.029 A 
ATOM     33  C   UNL A   1      44.422  29.597  30.712  1.00  0.00     0.049 A 
ATOM     34  H   UNL A   1      43.984  27.839  31.759  1.00  0.00     0.167 HD
ATOM     35  C   UNL A   1      44.826  27.750  29.091  1.00  0.00     0.074 A 
ATOM     36  C   UNL A   1      44.501  26.560  29.868  1.00  0.00     0.031 C 
ATOM     37  C   UNL A   1      44.880  29.067  29.436  1.00  0.00     0.034 A 
BRANCH  24  38
ATOM     38  C   UNL A   1      42.208  27.734  34.135  1.00  0.00     0.023 A 
ATOM     39  C   UNL A   1      42.981  26.595  33.843  1.00  0.00     0.031 A 
ATOM     40  C   UNL A   1      41.795  27.862  35.472  1.00  0.00     0.131 A 
ATOM     41  C   UNL A   1      43.277  25.626  34.803  1.00  0.00     0.055 A 
ATOM     42  C   UNL A   1      42.155  26.934  36.458  1.00  0.00     0.041 A 
ATOM     43  F   UNL A   1      41.076  28.922  35.873  1.00  0.00    -0.206 F 
ATOM     44  C   UNL A   1      42.895  25.802  36.125  1.00  0.00     0.022 A 
BRANCH  41  45
ATOM     45  S   UNL A   1      44.177  24.125  34.322  1.00  0.00     0.124 S 
ATOM     46  O   UNL A   1      43.291  23.073  34.806  1.00  0.00    -0.237 OA
ATOM     47  O   UNL A   1      44.250  24.279  32.871  1.00  0.00    -0.237 OA
ATOM     48  O   UNL A   1      45.454  24.249  35.020  1.00  0.00    -0.744 OA
ENDBRANCH  41  45
ENDBRANCH  24  38
BRANCH  25  49
ATOM     49  C   UNL A   1      42.751  24.793  26.122  1.00  0.00     0.023 A 
ATOM     50  C   UNL A   1      41.813  23.812  26.486  1.00  0.00     0.031 A 
ATOM     51  C   UNL A   1      43.827  24.389  25.308  1.00  0.00     0.131 A 
ATOM     52  C   UNL A   1      42.018  22.471  26.123  1.00  0.00     0.055 A 
ATOM     53  C   UNL A   1      44.016  23.054  24.929  1.00  0.00     0.041 A 
ATOM     54  F   UNL A   1      44.765  25.271  24.931  1.00  0.00    -0.206 F 
ATOM     55  C   UNL A   1      43.120  22.083  25.358  1.00  0.00     0.022 A 
BRANCH  52  56
ATOM     56  S   UNL A   1      40.900  21.175  26.724  1.00  0.00     0.124 S 
ATOM     57  O   UNL A   1      39.708  21.394  25.907  1.00  0.00    -0.237 OA
ATOM     58  O   UNL A   1      41.658  19.967  26.418  1.00  0.00    -0.237 OA
ATOM     59  O   UNL A   1      40.749  21.496  28.140  1.00  0.00    -0.744 OA
ENDBRANCH  52  56
ENDBRANCH  25  49
BRANCH  37  60
ATOM     60  C   UNL A   1      45.280  30.076  28.383  1.00  0.00     0.023 A 
ATOM     61  C   UNL A   1      46.634  30.456  28.375  1.00  0.00     0.031 A 
ATOM     62  C   UNL A   1      44.402  30.781  27.541  1.00  0.00     0.131 A 
ATOM     63  C   UNL A   1      47.065  31.542  27.608  1.00  0.00     0.055 A 
ATOM     64  C   UNL A   1      44.853  31.816  26.711  1.00  0.00     0.041 A 
ATOM     65  F   UNL A   1      43.082  30.551  27.542  1.00  0.00    -0.206 F 
ATOM     66  C   UNL A   1      46.186  32.216  26.759  1.00  0.00     0.022 A 
BRANCH  63  67
ATOM     67  S   UNL A   1      48.734  32.205  27.834  1.00  0.00     0.124 S 
ATOM     68  O   UNL A   1      49.323  32.014  26.512  1.00  0.00    -0.237 OA
ATOM     69  O   UNL A   1      48.467  33.593  28.206  1.00  0.00    -0.237 OA
ATOM     70  O   UNL A   1      49.302  31.381  28.896  1.00  0.00    -0.744 OA
ENDBRANCH  63  67
ENDBRANCH  37  60
ENDBRANCH  11  12
ENDBRANCH   4   6
ENDBRANCH   3   4
ENDBRANCH   2   3
ENDBRANCH   1   2
BRANCH   1  71
ATOM     71  O   UNL A   1      33.295  34.636  31.257  1.00  0.00    -0.374 OA
BRANCH  71  72
ATOM     72  C   UNL A   1      34.021  34.723  32.462  1.00  0.00     0.202 C 
BRANCH  72  73
ATOM     73  C   UNL A   1      33.994  33.375  33.182  1.00  0.00     0.261 C 
BRANCH  73  74
ATOM     74  O   UNL A   1      35.325  33.047  33.606  1.00  0.00    -0.460 OA
BRANCH  74  75
ATOM     75  C   UNL A   1      36.039  32.300  32.739  1.00  0.00     0.339 C 
ATOM     76  O   UNL A   1      35.672  31.347  32.065  1.00  0.00    -0.246 OA
BRANCH  75  77
ATOM     77  C   UNL A   1      37.352  32.856  32.548  1.00  0.00     0.078 A 
ATOM     78  C   UNL A   1      37.542  34.110  31.990  1.00  0.00     0.021 A 
ATOM     79  C   UNL A   1      38.439  32.060  32.897  1.00  0.00     0.129 A 
ATOM     80  C   UNL A   1      38.840  34.538  31.831  1.00  0.00     0.048 A 
ATOM     81  N   UNL A   1      39.710  32.406  32.642  1.00  0.00    -0.238 NA
ATOM     82  C   UNL A   1      39.873  33.666  32.188  1.00  0.00     0.138 A 
BRANCH  82  83
ATOM     83  N   UNL A   1      41.160  34.201  32.243  1.00  0.00    -0.283 N 
ATOM     84  C   UNL A   1      41.738  34.854  33.295  1.00  0.00     0.206 A 
ATOM     85  C   UNL A   1      42.068  34.157  31.216  1.00  0.00     0.074 A 
ATOM     86  N   UNL A   1      43.027  35.036  33.093  1.00  0.00    -0.236 NA
ATOM     87  C   UNL A   1      43.234  34.643  31.785  1.00  0.00     0.089 A 
ATOM     88  C   UNL A   1      41.944  33.804  29.864  1.00  0.00     0.029 A 
ATOM     89  C   UNL A   1      44.387  34.693  30.992  1.00  0.00     0.030 A 
ATOM     90  C   UNL A   1      43.090  33.903  29.082  1.00  0.00     0.002 A 
ATOM     91  C   UNL A   1      44.298  34.320  29.641  1.00  0.00     0.002 A 
ENDBRANCH  82  83
ENDBRANCH  75  77
ENDBRANCH  74  75
ENDBRANCH  73  74
ENDBRANCH  72  73
ENDBRANCH  71  72
ENDBRANCH   1  71
TORSDOF 18
ENDMDL
MODEL 2
REMARK VINA RESULT:      -9.7      4.539     10.840
REMARK SMILES O=C(OCCOCCOC(=O)c1ccc(-n2cnc3ccccc32)nc1)c1ccc(-c2c3nc(c(-c4cc(S(=O)(=O)[O-])ccc4F)c4ccc([nH]4)c(-c4cc(S(=O)(=O)[O-])ccc4F)c4nc(c(-c5cc(S(=O)(=O)[O-])ccc5F)c5ccc2[nH]5)C=C4)C=C3)cc1
REMARK SMILES IDX 5 1 4 2 3 3 2 4 1 5 27 6 28 7 89 8 29 9 88 10 30 11 31 12
REMARK SMILES IDX 32 13 82 14 33 15 87 16 81 17 83 18 34 19 86 20 80 21 79 22
REMARK SMILES IDX 35 24 67 25 47 26 66 27 48 28 51 29 65 30 84 31 49 32 50 33
REMARK SMILES IDX 64 35 85 36 52 37 36 38 37 39 45 40 38 41 44 42 46 43 43 44
REMARK SMILES IDX 39 45 40 46 41 47 42 48 68 49 69 50 77 51 70 52 76 53 78 54
REMARK SMILES IDX 75 55 71 56 72 57 73 58 74 59 53 60 54 61 62 62 55 63 61 64
REMARK SMILES IDX 63 65 60 66 56 67 57 68 58 69 59 70 6 71 7 72 8 73 9 74
REMARK SMILES IDX 10 75 11 76 12 77 13 78 26 79 14 80 25 81 15 82 16 83 17 84
REMARK SMILES IDX 24 85 18 86 19 87 23 88 20 89 22 90 21 91
REMARK H PARENT 83 23 51 34
REMARK Flexibility Score: inf
ROOT
ATOM      1  C   UNL A   1      37.672  22.034  25.270  1.00  0.00     0.202 C 
ENDROOT
BRANCH   1   2
ATOM      2  C   UNL A   1      38.951  21.271  25.618  1.00  0.00     0.261 C 
BRANCH   2   3
ATOM      3  O   UNL A   1      39.693  21.732  26.778  1.00  0.00    -0.460 OA
BRANCH   3   4
ATOM      4  C   UNL A   1      40.711  22.641  26.847  1.00  0.00     0.338 C 
ATOM      5  O   UNL A   1      41.811  22.357  26.377  1.00  0.00    -0.246 OA
BRANCH   4   6
ATOM      6  C   UNL A   1      40.553  23.917  27.600  1.00  0.00     0.060 A 
ATOM      7  C   UNL A   1      39.359  24.643  27.427  1.00  0.00     0.016 A 
ATOM      8  C   UNL A   1      41.606  24.489  28.307  1.00  0.00     0.016 A 
ATOM      9  C   UNL A   1      39.291  25.991  27.806  1.00  0.00     0.010 A 
ATOM     10  C   UNL A   1      41.565  25.851  28.596  1.00  0.00     0.010 A 
ATOM     11  C   UNL A   1      40.428  26.632  28.313  1.00  0.00    -0.014 A 
BRANCH  11  12
ATOM     12  C   UNL A   1      40.330  27.972  28.932  1.00  0.00     0.031 A 
ATOM     13  C   UNL A   1      41.371  28.827  28.331  1.00  0.00     0.074 A 
ATOM     14  C   UNL A   1      39.476  28.531  29.824  1.00  0.00     0.049 A 
ATOM     15  N   UNL A   1      42.524  29.051  28.869  1.00  0.00    -0.248 NA
ATOM     16  C   UNL A   1      41.268  29.211  26.916  1.00  0.00     0.031 C 
ATOM     17  C   UNL A   1      38.329  27.950  30.504  1.00  0.00     0.029 A 
ATOM     18  N   UNL A   1      39.408  29.833  30.262  1.00  0.00    -0.354 N 
ATOM     19  C   UNL A   1      43.199  29.810  27.931  1.00  0.00     0.074 A 
ATOM     20  C   UNL A   1      42.525  29.583  26.681  1.00  0.00     0.031 C 
ATOM     21  C   UNL A   1      37.496  28.910  30.964  1.00  0.00     0.029 A 
ATOM     22  C   UNL A   1      38.190  30.178  30.846  1.00  0.00     0.049 A 
ATOM     23  H   UNL A   1      40.155  30.467  30.171  1.00  0.00     0.167 HD
ATOM     24  C   UNL A   1      44.006  30.831  28.321  1.00  0.00     0.034 A 
ATOM     25  C   UNL A   1      37.793  31.380  31.331  1.00  0.00     0.034 A 
ATOM     26  C   UNL A   1      44.247  30.779  29.742  1.00  0.00     0.049 A 
ATOM     27  C   UNL A   1      39.007  32.126  31.701  1.00  0.00     0.074 A 
ATOM     28  C   UNL A   1      44.913  29.926  30.594  1.00  0.00     0.029 A 
ATOM     29  N   UNL A   1      43.369  31.514  30.500  1.00  0.00    -0.354 N 
ATOM     30  N   UNL A   1      39.759  31.813  32.717  1.00  0.00    -0.248 NA
ATOM     31  C   UNL A   1      39.602  33.034  30.733  1.00  0.00     0.031 C 
ATOM     32  C   UNL A   1      44.244  30.022  31.847  1.00  0.00     0.029 A 
ATOM     33  C   UNL A   1      43.219  30.962  31.747  1.00  0.00     0.049 A 
ATOM     34  H   UNL A   1      42.908  32.327  30.191  1.00  0.00     0.167 HD
ATOM     35  C   UNL A   1      41.037  32.050  32.254  1.00  0.00     0.074 A 
ATOM     36  C   UNL A   1      40.871  32.979  31.142  1.00  0.00     0.031 C 
ATOM     37  C   UNL A   1      42.064  31.222  32.594  1.00  0.00     0.034 A 
BRANCH  24  38
ATOM     38  C   UNL A   1      44.177  32.096  27.517  1.00  0.00     0.023 A 
ATOM     39  C   UNL A   1      43.598  33.326  27.882  1.00  0.00     0.031 A 
ATOM     40  C   UNL A   1      45.104  32.149  26.463  1.00  0.00     0.131 A 
ATOM     41  C   UNL A   1      43.883  34.515  27.209  1.00  0.00     0.055 A 
ATOM     42  C   UNL A   1      45.454  33.352  25.835  1.00  0.00     0.041 A 
ATOM     43  F   UNL A   1      45.740  31.042  26.048  1.00  0.00    -0.206 F 
ATOM     44  C   UNL A   1      44.836  34.544  26.202  1.00  0.00     0.022 A 
BRANCH  41  45
ATOM     45  S   UNL A   1      43.005  36.038  27.659  1.00  0.00     0.124 S 
ATOM     46  O   UNL A   1      44.050  36.803  28.329  1.00  0.00    -0.237 OA
ATOM     47  O   UNL A   1      42.590  36.536  26.350  1.00  0.00    -0.237 OA
ATOM     48  O   UNL A   1      41.916  35.569  28.513  1.00  0.00    -0.744 OA
ENDBRANCH  41  45
ENDBRANCH  24  38
BRANCH  25  49
ATOM     49  C   UNL A   1      36.474  32.048  31.233  1.00  0.00     0.023 A 
ATOM     50  C   UNL A   1      36.018  32.499  29.983  1.00  0.00     0.031 A 
ATOM     51  C   UNL A   1      35.838  32.566  32.379  1.00  0.00     0.131 A 
ATOM     52  C   UNL A   1      35.035  33.499  29.908  1.00  0.00     0.055 A 
ATOM     53  C   UNL A   1      34.842  33.548  32.300  1.00  0.00     0.041 A 
ATOM     54  F   UNL A   1      36.229  32.187  33.605  1.00  0.00    -0.206 F 
ATOM     55  C   UNL A   1      34.453  34.036  31.059  1.00  0.00     0.022 A 
BRANCH  52  56
ATOM     56  S   UNL A   1      34.556  34.200  28.306  1.00  0.00     0.124 S 
ATOM     57  O   UNL A   1      34.852  35.619  28.489  1.00  0.00    -0.237 OA
ATOM     58  O   UNL A   1      35.444  33.485  27.395  1.00  0.00    -0.237 OA
ATOM     59  O   UNL A   1      33.138  33.870  28.209  1.00  0.00    -0.744 OA
ENDBRANCH  52  56
ENDBRANCH  25  49
BRANCH  37  60
ATOM     60  C   UNL A   1      41.934  30.384  33.846  1.00  0.00     0.023 A 
ATOM     61  C   UNL A   1      42.465  30.946  35.022  1.00  0.00     0.031 A 
ATOM     62  C   UNL A   1      41.494  29.050  33.904  1.00  0.00     0.131 A 
ATOM     63  C   UNL A   1      42.610  30.174  36.177  1.00  0.00     0.055 A 
ATOM     64  C   UNL A   1      41.566  28.304  35.088  1.00  0.00     0.041 A 
ATOM     65  F   UNL A   1      41.055  28.402  32.817  1.00  0.00    -0.206 F 
ATOM     66  C   UNL A   1      42.146  28.858  36.226  1.00  0.00     0.022 A 
BRANCH  63  67
ATOM     67  S   UNL A   1      43.561  30.812  37.579  1.00  0.00     0.124 S 
ATOM     68  O   UNL A   1      42.517  31.376  38.429  1.00  0.00    -0.237 OA
ATOM     69  O   UNL A   1      44.202  29.602  38.093  1.00  0.00    -0.237 OA
ATOM     70  O   UNL A   1      44.470  31.782  36.978  1.00  0.00    -0.744 OA
ENDBRANCH  63  67
ENDBRANCH  37  60
ENDBRANCH  11  12
ENDBRANCH   4   6
ENDBRANCH   3   4
ENDBRANCH   2   3
ENDBRANCH   1   2
BRANCH   1  71
ATOM     71  O   UNL A   1      36.545  21.332  25.735  1.00  0.00    -0.374 OA
BRANCH  71  72
ATOM     72  C   UNL A   1      35.948  20.335  24.938  1.00  0.00     0.202 C 
BRANCH  72  73
ATOM     73  C   UNL A   1      34.432  20.359  25.128  1.00  0.00     0.261 C 
BRANCH  73  74
ATOM     74  O   UNL A   1      34.003  21.721  25.281  1.00  0.00    -0.460 OA
BRANCH  74  75
ATOM     75  C   UNL A   1      33.413  22.266  24.198  1.00  0.00     0.339 C 
ATOM     76  O   UNL A   1      32.945  21.705  23.216  1.00  0.00    -0.246 OA
BRANCH  75  77
ATOM     77  C   UNL A   1      33.233  23.682  24.374  1.00  0.00     0.078 A 
ATOM     78  C   UNL A   1      33.854  24.608  23.550  1.00  0.00     0.021 A 
ATOM     79  C   UNL A   1      32.451  24.097  25.448  1.00  0.00     0.129 A 
ATOM     80  C   UNL A   1      33.633  25.939  23.820  1.00  0.00     0.048 A 
ATOM     81  N   UNL A   1      32.319  25.385  25.802  1.00  0.00    -0.238 NA
ATOM     82  C   UNL A   1      32.850  26.268  24.931  1.00  0.00     0.138 A 
BRANCH  82  83
ATOM     83  N   UNL A   1      32.446  27.597  25.046  1.00  0.00    -0.283 N 
ATOM     84  C   UNL A   1      31.465  28.227  24.333  1.00  0.00     0.206 A 
ATOM     85  C   UNL A   1      32.992  28.506  25.918  1.00  0.00     0.074 A 
ATOM     86  N   UNL A   1      31.195  29.413  24.839  1.00  0.00    -0.236 NA
ATOM     87  C   UNL A   1      32.167  29.614  25.799  1.00  0.00     0.089 A 
ATOM     88  C   UNL A   1      34.142  28.467  26.720  1.00  0.00     0.029 A 
ATOM     89  C   UNL A   1      32.436  30.729  26.603  1.00  0.00     0.030 A 
ATOM     90  C   UNL A   1      34.417  29.602  27.477  1.00  0.00     0.002 A 
ATOM     91  C   UNL A   1      33.567  30.707  27.436  1.00  0.00     0.002 A 
ENDBRANCH  82  83
ENDBRANCH  75  77
ENDBRANCH  74  75
ENDBRANCH  73  74
ENDBRANCH  72  73
ENDBRANCH  71  72
ENDBRANCH   1  71
TORSDOF 18
ENDMDL
MODEL 3
REMARK VINA RESULT:      -9.7      3.379     11.098
REMARK SMILES O=C(OCCOCCOC(=O)c1ccc(-n2cnc3ccccc32)nc1)c1ccc(-c2c3nc(c(-c4cc(S(=O)(=O)[O-])ccc4F)c4ccc([nH]4)c(-c4cc(S(=O)(=O)[O-])ccc4F)c4nc(c(-c5cc(S(=O)(=O)[O-])ccc5F)c5ccc2[nH]5)C=C4)C=C3)cc1
REMARK SMILES IDX 5 1 4 2 3 3 2 4 1 5 27 6 28 7 89 8 29 9 88 10 30 11 31 12
REMARK SMILES IDX 32 13 82 14 33 15 87 16 81 17 83 18 34 19 86 20 80 21 79 22
REMARK SMILES IDX 35 24 67 25 47 26 66 27 48 28 51 29 65 30 84 31 49 32 50 33
REMARK SMILES IDX 64 35 85 36 52 37 36 38 37 39 45 40 38 41 44 42 46 43 43 44
REMARK SMILES IDX 39 45 40 46 41 47 42 48 68 49 69 50 77 51 70 52 76 53 78 54
REMARK SMILES IDX 75 55 71 56 72 57 73 58 74 59 53 60 54 61 62 62 55 63 61 64
REMARK SMILES IDX 63 65 60 66 56 67 57 68 58 69 59 70 6 71 7 72 8 73 9 74
REMARK SMILES IDX 10 75 11 76 12 77 13 78 26 79 14 80 25 81 15 82 16 83 17 84
REMARK SMILES IDX 24 85 18 86 19 87 23 88 20 89 22 90 21 91
REMARK H PARENT 83 23 51 34
REMARK Flexibility Score: inf
ROOT
ATOM      1  C   UNL A   1      40.211  19.639  25.911  1.00  0.00     0.202 C 
ENDROOT
BRANCH   1   2
ATOM      2  C   UNL A   1      39.829  21.081  26.252  1.00  0.00     0.261 C 
BRANCH   2   3
ATOM      3  O   UNL A   1      40.885  22.073  26.170  1.00  0.00    -0.460 OA
BRANCH   3   4
ATOM      4  C   UNL A   1      41.717  22.531  27.153  1.00  0.00     0.338 C 
ATOM      5  O   UNL A   1      42.660  21.836  27.524  1.00  0.00    -0.246 OA
BRANCH   4   6
ATOM      6  C   UNL A   1      41.425  23.801  27.877  1.00  0.00     0.060 A 
ATOM      7  C   UNL A   1      40.145  24.370  27.725  1.00  0.00     0.016 A 
ATOM      8  C   UNL A   1      42.419  24.518  28.534  1.00  0.00     0.016 A 
ATOM      9  C   UNL A   1      39.923  25.710  28.071  1.00  0.00     0.010 A 
ATOM     10  C   UNL A   1      42.219  25.873  28.790  1.00  0.00     0.010 A 
ATOM     11  C   UNL A   1      40.987  26.500  28.523  1.00  0.00    -0.014 A 
BRANCH  11  12
ATOM     12  C   UNL A   1      40.742  27.836  29.111  1.00  0.00     0.031 A 
ATOM     13  C   UNL A   1      41.695  28.781  28.499  1.00  0.00     0.074 A 
ATOM     14  C   UNL A   1      39.826  28.322  29.982  1.00  0.00     0.049 A 
ATOM     15  N   UNL A   1      42.813  29.137  29.041  1.00  0.00    -0.248 NA
ATOM     16  C   UNL A   1      41.568  29.121  27.074  1.00  0.00     0.031 C 
ATOM     17  C   UNL A   1      38.738  27.639  30.665  1.00  0.00     0.029 A 
ATOM     18  N   UNL A   1      39.617  29.619  30.389  1.00  0.00    -0.354 N 
ATOM     19  C   UNL A   1      43.414  29.941  28.093  1.00  0.00     0.074 A 
ATOM     20  C   UNL A   1      42.782  29.617  26.842  1.00  0.00     0.031 C 
ATOM     21  C   UNL A   1      37.805  28.517  31.096  1.00  0.00     0.029 A 
ATOM     22  C   UNL A   1      38.363  29.847  30.955  1.00  0.00     0.049 A 
ATOM     23  H   UNL A   1      40.295  30.325  30.290  1.00  0.00     0.167 HD
ATOM     24  C   UNL A   1      44.107  31.049  28.466  1.00  0.00     0.034 A 
ATOM     25  C   UNL A   1      37.837  31.011  31.408  1.00  0.00     0.034 A 
ATOM     26  C   UNL A   1      44.336  31.055  29.889  1.00  0.00     0.049 A 
ATOM     27  C   UNL A   1      38.962  31.889  31.772  1.00  0.00     0.074 A 
ATOM     28  C   UNL A   1      45.078  30.295  30.767  1.00  0.00     0.029 A 
ATOM     29  N   UNL A   1      43.378  31.710  30.623  1.00  0.00    -0.354 N 
ATOM     30  N   UNL A   1      39.732  31.678  32.801  1.00  0.00    -0.248 NA
ATOM     31  C   UNL A   1      39.470  32.833  30.788  1.00  0.00     0.031 C 
ATOM     32  C   UNL A   1      44.389  30.348  32.011  1.00  0.00     0.029 A 
ATOM     33  C   UNL A   1      43.272  31.173  31.881  1.00  0.00     0.049 A 
ATOM     34  H   UNL A   1      42.838  32.464  30.291  1.00  0.00     0.167 HD
ATOM     35  C   UNL A   1      40.984  32.038  32.343  1.00  0.00     0.074 A 
ATOM     36  C   UNL A   1      40.734  32.920  31.209  1.00  0.00     0.031 C 
ATOM     37  C   UNL A   1      42.087  31.329  32.711  1.00  0.00     0.034 A 
BRANCH  24  38
ATOM     38  C   UNL A   1      44.153  32.307  27.634  1.00  0.00     0.023 A 
ATOM     39  C   UNL A   1      43.515  33.504  28.010  1.00  0.00     0.031 A 
ATOM     40  C   UNL A   1      45.020  32.400  26.532  1.00  0.00     0.131 A 
ATOM     41  C   UNL A   1      43.687  34.696  27.304  1.00  0.00     0.055 A 
ATOM     42  C   UNL A   1      45.258  33.611  25.869  1.00  0.00     0.041 A 
ATOM     43  F   UNL A   1      45.704  31.328  26.102  1.00  0.00    -0.206 F 
ATOM     44  C   UNL A   1      44.583  34.768  26.248  1.00  0.00     0.022 A 
BRANCH  41  45
ATOM     45  S   UNL A   1      42.736  36.168  27.776  1.00  0.00     0.124 S 
ATOM     46  O   UNL A   1      41.652  35.590  28.560  1.00  0.00    -0.237 OA
ATOM     47  O   UNL A   1      43.730  36.931  28.527  1.00  0.00    -0.237 OA
ATOM     48  O   UNL A   1      42.349  36.754  26.495  1.00  0.00    -0.744 OA
ENDBRANCH  41  45
ENDBRANCH  24  38
BRANCH  25  49
ATOM     49  C   UNL A   1      36.457  31.536  31.284  1.00  0.00     0.023 A 
ATOM     50  C   UNL A   1      35.919  31.773  30.007  1.00  0.00     0.031 A 
ATOM     51  C   UNL A   1      35.810  32.139  32.380  1.00  0.00     0.131 A 
ATOM     52  C   UNL A   1      34.842  32.659  29.848  1.00  0.00     0.055 A 
ATOM     53  C   UNL A   1      34.721  33.005  32.220  1.00  0.00     0.041 A 
ATOM     54  F   UNL A   1      36.275  31.965  33.627  1.00  0.00    -0.206 F 
ATOM     55  C   UNL A   1      34.247  33.287  30.945  1.00  0.00     0.022 A 
BRANCH  52  56
ATOM     56  S   UNL A   1      34.246  33.093  28.191  1.00  0.00     0.124 S 
ATOM     57  O   UNL A   1      35.443  33.657  27.572  1.00  0.00    -0.237 OA
ATOM     58  O   UNL A   1      33.826  31.794  27.679  1.00  0.00    -0.237 OA
ATOM     59  O   UNL A   1      33.179  34.051  28.462  1.00  0.00    -0.744 OA
ENDBRANCH  52  56
ENDBRANCH  25  49
BRANCH  37  60
ATOM     60  C   UNL A   1      42.032  30.511  33.981  1.00  0.00     0.023 A 
ATOM     61  C   UNL A   1      42.447  31.164  35.156  1.00  0.00     0.031 A 
ATOM     62  C   UNL A   1      41.772  29.131  34.063  1.00  0.00     0.131 A 
ATOM     63  C   UNL A   1      42.658  30.445  36.335  1.00  0.00     0.055 A 
ATOM     64  C   UNL A   1      41.906  28.429  35.268  1.00  0.00     0.041 A 
ATOM     65  F   UNL A   1      41.456  28.405  32.982  1.00  0.00    -0.206 F 
ATOM     66  C   UNL A   1      42.372  29.081  36.406  1.00  0.00     0.022 A 
BRANCH  63  67
ATOM     67  S   UNL A   1      43.472  31.236  37.745  1.00  0.00     0.124 S 
ATOM     68  O   UNL A   1      44.363  30.181  38.218  1.00  0.00    -0.237 OA
ATOM     69  O   UNL A   1      44.133  32.380  37.119  1.00  0.00    -0.237 OA
ATOM     70  O   UNL A   1      42.373  31.576  38.643  1.00  0.00    -0.744 OA
ENDBRANCH  63  67
ENDBRANCH  37  60
ENDBRANCH  11  12
ENDBRANCH   4   6
ENDBRANCH   3   4
ENDBRANCH   2   3
ENDBRANCH   1   2
BRANCH   1  71
ATOM     71  O   UNL A   1      41.444  19.310  26.503  1.00  0.00    -0.374 OA
BRANCH  71  72
ATOM     72  C   UNL A   1      42.238  18.275  25.968  1.00  0.00     0.202 C 
BRANCH  72  73
ATOM     73  C   UNL A   1      43.666  18.774  25.757  1.00  0.00     0.261 C 
BRANCH  73  74
ATOM     74  O   UNL A   1      43.694  19.638  24.612  1.00  0.00    -0.460 OA
BRANCH  74  75
ATOM     75  C   UNL A   1      44.915  20.086  24.254  1.00  0.00     0.339 C 
ATOM     76  O   UNL A   1      45.790  19.506  23.625  1.00  0.00    -0.246 OA
BRANCH  75  77
ATOM     77  C   UNL A   1      45.063  21.479  24.581  1.00  0.00     0.078 A 
ATOM     78  C   UNL A   1      44.025  22.384  24.418  1.00  0.00     0.021 A 
ATOM     79  C   UNL A   1      46.314  21.902  25.017  1.00  0.00     0.129 A 
ATOM     80  C   UNL A   1      44.280  23.697  24.740  1.00  0.00     0.048 A 
ATOM     81  N   UNL A   1      46.620  23.193  25.222  1.00  0.00    -0.238 NA
ATOM     82  C   UNL A   1      45.572  24.040  25.151  1.00  0.00     0.138 A 
BRANCH  82  83
ATOM     83  N   UNL A   1      45.744  25.313  25.693  1.00  0.00    -0.283 N 
ATOM     84  C   UNL A   1      45.841  26.493  25.013  1.00  0.00     0.206 A 
ATOM     85  C   UNL A   1      45.850  25.582  27.035  1.00  0.00     0.074 A 
ATOM     86  N   UNL A   1      45.780  27.523  25.833  1.00  0.00    -0.236 NA
ATOM     87  C   UNL A   1      45.828  26.966  27.097  1.00  0.00     0.089 A 
ATOM     88  C   UNL A   1      46.026  24.750  28.151  1.00  0.00     0.029 A 
ATOM     89  C   UNL A   1      45.882  27.574  28.357  1.00  0.00     0.030 A 
ATOM     90  C   UNL A   1      46.123  25.376  29.390  1.00  0.00     0.002 A 
ATOM     91  C   UNL A   1      46.031  26.764  29.495  1.00  0.00     0.002 A 
ENDBRANCH  82  83
ENDBRANCH  75  77
ENDBRANCH  74  75
ENDBRANCH  73  74
ENDBRANCH  72  73
ENDBRANCH  71  72
ENDBRANCH   1  71
TORSDOF 18
ENDMDL
