MODEL 1
REMARK VINA RESULT:     -11.1      0.000      0.000
REMARK SMILES CCCC[C@@H](C(=O)OCCOCCOC(=O)c1ccc(-c2c3nc(c(-c4cc(S(=O)(=O)[O-])ccc4F)c4ccc([nH]4)c(-c4cc(S(=O)(=O)[O-])ccc4F)c4nc(c(-c5cc(S(=O)(=O)[O-])ccc5F)c5ccc2[nH]5)C=C4)C=C3)cc1)C1(O)Cc2ccccc2C1
REMARK SMILES IDX 11 1 10 2 9 3 8 4 6 5 7 6 5 7 4 8 3 9 2 10 1 11 80 12 82 13
REMARK SMILES IDX 89 14 83 15 88 16 84 17 87 18 85 19 86 20 81 21 12 23 13 24
REMARK SMILES IDX 14 25 15 26 16 27 17 28 18 29 79 30 19 31 78 32 20 33 21 34
REMARK SMILES IDX 22 35 72 36 23 37 77 38 71 39 73 40 24 41 76 42 70 43 69 44
REMARK SMILES IDX 25 46 57 47 37 48 56 49 38 50 41 51 55 52 74 53 39 54 40 55
REMARK SMILES IDX 54 57 75 58 42 59 26 60 27 61 35 62 28 63 34 64 36 65 33 66
REMARK SMILES IDX 29 67 30 68 31 69 32 70 58 71 59 72 67 73 60 74 66 75 68 76
REMARK SMILES IDX 65 77 61 78 62 79 63 80 64 81 43 82 44 83 52 84 45 85 51 86
REMARK SMILES IDX 53 87 50 88 46 89 47 90 48 91 49 92
REMARK H PARENT 81 22 73 45 41 56
REMARK Flexibility Score: inf
ROOT
ATOM      1  O   UNL A   1      32.849  29.360  24.937  1.00  0.00    -0.374 OA
ENDROOT
BRANCH   1   2
ATOM      2  C   UNL A   1      33.002  29.124  23.529  1.00  0.00     0.202 C 
BRANCH   2   3
ATOM      3  C   UNL A   1      33.826  27.915  23.045  1.00  0.00     0.261 C 
BRANCH   3   4
ATOM      4  O   UNL A   1      33.099  26.690  23.273  1.00  0.00    -0.463 OA
BRANCH   4   5
ATOM      5  C   UNL A   1      33.076  25.796  22.242  1.00  0.00     0.311 C 
ATOM      6  O   UNL A   1      33.651  25.953  21.171  1.00  0.00    -0.252 OA
BRANCH   5   7
ATOM      7  C   UNL A   1      32.502  24.437  22.687  1.00  0.00     0.131 C 
BRANCH   7   8
ATOM      8  C   UNL A   1      31.080  24.566  23.315  1.00  0.00     0.018 C 
BRANCH   8   9
ATOM      9  C   UNL A   1      30.712  25.785  24.184  1.00  0.00     0.001 C 
BRANCH   9  10
ATOM     10  C   UNL A   1      30.564  25.570  25.686  1.00  0.00    -0.003 C 
ATOM     11  C   UNL A   1      31.415  26.523  26.502  1.00  0.00     0.004 C 
ENDBRANCH   9  10
ENDBRANCH   8   9
ENDBRANCH   7   8
BRANCH   7  12
ATOM     12  C   UNL A   1      33.580  23.768  23.623  1.00  0.00     0.086 C 
ATOM     13  C   UNL A   1      33.970  24.543  24.935  1.00  0.00     0.072 C 
ATOM     14  C   UNL A   1      33.418  22.341  24.215  1.00  0.00     0.072 C 
ATOM     15  C   UNL A   1      35.038  23.597  25.473  1.00  0.00    -0.042 A 
ATOM     16  C   UNL A   1      34.791  22.315  24.931  1.00  0.00    -0.042 A 
ATOM     17  C   UNL A   1      36.317  24.049  25.792  1.00  0.00     0.004 A 
ATOM     18  C   UNL A   1      35.884  21.558  24.504  1.00  0.00     0.004 A 
ATOM     19  C   UNL A   1      37.395  23.307  25.316  1.00  0.00     0.000 A 
ATOM     20  C   UNL A   1      37.176  22.095  24.641  1.00  0.00     0.000 A 
BRANCH  12  21
ATOM     21  O   UNL A   1      34.759  23.619  22.777  1.00  0.00    -0.388 OA
ATOM     22  H   UNL A   1      34.714  22.775  22.302  1.00  0.00     0.211 HD
ENDBRANCH  12  21
ENDBRANCH   7  12
ENDBRANCH   5   7
ENDBRANCH   4   5
ENDBRANCH   3   4
ENDBRANCH   2   3
ENDBRANCH   1   2
BRANCH   1  23
ATOM     23  C   UNL A   1      31.649  29.983  25.373  1.00  0.00     0.202 C 
BRANCH  23  24
ATOM     24  C   UNL A   1      31.698  31.189  26.311  1.00  0.00     0.261 C 
BRANCH  24  25
ATOM     25  O   UNL A   1      32.639  30.995  27.353  1.00  0.00    -0.460 OA
BRANCH  25  26
ATOM     26  C   UNL A   1      33.363  32.114  27.568  1.00  0.00     0.338 C 
ATOM     27  O   UNL A   1      32.952  33.263  27.663  1.00  0.00    -0.246 OA
BRANCH  26  28
ATOM     28  C   UNL A   1      34.730  31.714  27.881  1.00  0.00     0.060 A 
ATOM     29  C   UNL A   1      34.953  30.342  28.035  1.00  0.00     0.016 A 
ATOM     30  C   UNL A   1      35.760  32.649  28.014  1.00  0.00     0.016 A 
ATOM     31  C   UNL A   1      36.201  29.905  28.424  1.00  0.00     0.010 A 
ATOM     32  C   UNL A   1      37.017  32.209  28.408  1.00  0.00     0.010 A 
ATOM     33  C   UNL A   1      37.211  30.843  28.670  1.00  0.00    -0.014 A 
BRANCH  33  34
ATOM     34  C   UNL A   1      38.394  30.380  29.413  1.00  0.00     0.031 A 
ATOM     35  C   UNL A   1      38.554  30.840  30.832  1.00  0.00     0.074 A 
ATOM     36  C   UNL A   1      39.209  29.476  28.852  1.00  0.00     0.049 A 
ATOM     37  N   UNL A   1      39.448  30.493  31.717  1.00  0.00    -0.248 NA
ATOM     38  C   UNL A   1      37.571  31.822  31.321  1.00  0.00     0.031 C 
ATOM     39  C   UNL A   1      39.071  28.952  27.492  1.00  0.00     0.029 A 
ATOM     40  N   UNL A   1      40.293  28.821  29.362  1.00  0.00    -0.354 N 
ATOM     41  C   UNL A   1      39.136  31.212  32.867  1.00  0.00     0.074 A 
ATOM     42  C   UNL A   1      38.001  32.049  32.552  1.00  0.00     0.031 C 
ATOM     43  C   UNL A   1      40.030  28.037  27.281  1.00  0.00     0.029 A 
ATOM     44  C   UNL A   1      40.865  27.942  28.475  1.00  0.00     0.049 A 
ATOM     45  H   UNL A   1      40.631  28.963  30.275  1.00  0.00     0.167 HD
ATOM     46  C   UNL A   1      39.742  31.159  34.076  1.00  0.00     0.034 A 
ATOM     47  C   UNL A   1      41.950  27.161  28.622  1.00  0.00     0.034 A 
ATOM     48  C   UNL A   1      40.883  30.318  34.340  1.00  0.00     0.049 A 
ATOM     49  C   UNL A   1      42.645  27.168  29.960  1.00  0.00     0.074 A 
ATOM     50  C   UNL A   1      41.599  30.174  35.514  1.00  0.00     0.029 A 
ATOM     51  N   UNL A   1      41.483  29.481  33.402  1.00  0.00    -0.354 N 
ATOM     52  N   UNL A   1      42.346  27.849  31.046  1.00  0.00    -0.248 NA
ATOM     53  C   UNL A   1      43.808  26.288  30.098  1.00  0.00     0.031 C 
ATOM     54  C   UNL A   1      42.678  29.318  35.262  1.00  0.00     0.029 A 
ATOM     55  C   UNL A   1      42.581  28.846  33.962  1.00  0.00     0.049 A 
ATOM     56  H   UNL A   1      41.172  29.358  32.476  1.00  0.00     0.167 HD
ATOM     57  C   UNL A   1      43.270  27.454  32.008  1.00  0.00     0.074 A 
ATOM     58  C   UNL A   1      44.112  26.456  31.376  1.00  0.00     0.031 C 
ATOM     59  C   UNL A   1      43.416  27.872  33.295  1.00  0.00     0.034 A 
BRANCH  46  60
ATOM     60  C   UNL A   1      39.225  32.083  35.155  1.00  0.00     0.023 A 
ATOM     61  C   UNL A   1      39.676  33.410  35.288  1.00  0.00     0.031 A 
ATOM     62  C   UNL A   1      38.300  31.609  36.103  1.00  0.00     0.131 A 
ATOM     63  C   UNL A   1      39.257  34.188  36.379  1.00  0.00     0.055 A 
ATOM     64  C   UNL A   1      37.822  32.416  37.137  1.00  0.00     0.041 A 
ATOM     65  F   UNL A   1      37.859  30.342  36.053  1.00  0.00    -0.206 F 
ATOM     66  C   UNL A   1      38.311  33.710  37.288  1.00  0.00     0.022 A 
BRANCH  63  67
ATOM     67  S   UNL A   1      40.076  35.779  36.683  1.00  0.00     0.124 S 
ATOM     68  O   UNL A   1      41.483  35.385  36.708  1.00  0.00    -0.237 OA
ATOM     69  O   UNL A   1      39.656  36.576  35.536  1.00  0.00    -0.237 OA
ATOM     70  O   UNL A   1      39.534  36.204  37.972  1.00  0.00    -0.744 OA
ENDBRANCH  63  67
ENDBRANCH  46  60
BRANCH  47  71
ATOM     71  C   UNL A   1      42.447  26.340  27.482  1.00  0.00     0.023 A 
ATOM     72  C   UNL A   1      42.058  25.002  27.318  1.00  0.00     0.031 A 
ATOM     73  C   UNL A   1      43.353  26.881  26.550  1.00  0.00     0.131 A 
ATOM     74  C   UNL A   1      42.609  24.237  26.278  1.00  0.00     0.055 A 
ATOM     75  C   UNL A   1      43.850  26.135  25.482  1.00  0.00     0.041 A 
ATOM     76  F   UNL A   1      43.757  28.158  26.660  1.00  0.00    -0.206 F 
ATOM     77  C   UNL A   1      43.489  24.799  25.349  1.00  0.00     0.022 A 
BRANCH  74  78
ATOM     78  S   UNL A   1      42.230  22.465  26.207  1.00  0.00     0.124 S 
ATOM     79  O   UNL A   1      40.774  22.475  26.128  1.00  0.00    -0.237 OA
ATOM     80  O   UNL A   1      42.936  22.053  24.998  1.00  0.00    -0.237 OA
ATOM     81  O   UNL A   1      42.785  21.948  27.456  1.00  0.00    -0.744 OA
ENDBRANCH  74  78
ENDBRANCH  47  71
BRANCH  59  82
ATOM     82  C   UNL A   1      44.509  27.207  34.096  1.00  0.00     0.023 A 
ATOM     83  C   UNL A   1      44.335  25.933  34.665  1.00  0.00     0.031 A 
ATOM     84  C   UNL A   1      45.720  27.879  34.338  1.00  0.00     0.131 A 
ATOM     85  C   UNL A   1      45.309  25.418  35.531  1.00  0.00     0.055 A 
ATOM     86  C   UNL A   1      46.725  27.319  35.127  1.00  0.00     0.041 A 
ATOM     87  F   UNL A   1      45.943  29.098  33.822  1.00  0.00    -0.206 F 
ATOM     88  C   UNL A   1      46.513  26.092  35.749  1.00  0.00     0.022 A 
BRANCH  85  89
ATOM     89  S   UNL A   1      44.908  23.935  36.495  1.00  0.00     0.124 S 
ATOM     90  O   UNL A   1      44.296  24.510  37.689  1.00  0.00    -0.237 OA
ATOM     91  O   UNL A   1      44.008  23.215  35.601  1.00  0.00    -0.237 OA
ATOM     92  O   UNL A   1      46.210  23.304  36.707  1.00  0.00    -0.744 OA
ENDBRANCH  85  89
ENDBRANCH  59  82
ENDBRANCH  33  34
ENDBRANCH  26  28
ENDBRANCH  25  26
ENDBRANCH  24  25
ENDBRANCH  23  24
ENDBRANCH   1  23
TORSDOF 22
ENDMDL
MODEL 2
REMARK VINA RESULT:     -10.9      1.650      2.517
REMARK SMILES CCCC[C@@H](C(=O)OCCOCCOC(=O)c1ccc(-c2c3nc(c(-c4cc(S(=O)(=O)[O-])ccc4F)c4ccc([nH]4)c(-c4cc(S(=O)(=O)[O-])ccc4F)c4nc(c(-c5cc(S(=O)(=O)[O-])ccc5F)c5ccc2[nH]5)C=C4)C=C3)cc1)C1(O)Cc2ccccc2C1
REMARK SMILES IDX 11 1 10 2 9 3 8 4 6 5 7 6 5 7 4 8 3 9 2 10 1 11 80 12 82 13
REMARK SMILES IDX 89 14 83 15 88 16 84 17 87 18 85 19 86 20 81 21 12 23 13 24
REMARK SMILES IDX 14 25 15 26 16 27 17 28 18 29 79 30 19 31 78 32 20 33 21 34
REMARK SMILES IDX 22 35 72 36 23 37 77 38 71 39 73 40 24 41 76 42 70 43 69 44
REMARK SMILES IDX 25 46 57 47 37 48 56 49 38 50 41 51 55 52 74 53 39 54 40 55
REMARK SMILES IDX 54 57 75 58 42 59 26 60 27 61 35 62 28 63 34 64 36 65 33 66
REMARK SMILES IDX 29 67 30 68 31 69 32 70 58 71 59 72 67 73 60 74 66 75 68 76
REMARK SMILES IDX 65 77 61 78 62 79 63 80 64 81 43 82 44 83 52 84 45 85 51 86
REMARK SMILES IDX 53 87 50 88 46 89 47 90 48 91 49 92
REMARK H PARENT 81 22 73 45 41 56
REMARK Flexibility Score: inf
ROOT
ATOM      1  O   UNL A   1      32.917  28.984  25.319  1.00  0.00    -0.374 OA
ENDROOT
BRANCH   1   2
ATOM      2  C   UNL A   1      33.038  28.959  23.889  1.00  0.00     0.202 C 
BRANCH   2   3
ATOM      3  C   UNL A   1      33.619  27.711  23.196  1.00  0.00     0.261 C 
BRANCH   3   4
ATOM      4  O   UNL A   1      33.053  26.513  23.768  1.00  0.00    -0.463 OA
BRANCH   4   5
ATOM      5  C   UNL A   1      33.657  25.336  23.434  1.00  0.00     0.311 C 
ATOM      6  O   UNL A   1      34.069  25.058  22.313  1.00  0.00    -0.252 OA
BRANCH   5   7
ATOM      7  C   UNL A   1      34.038  24.523  24.686  1.00  0.00     0.131 C 
BRANCH   7   8
ATOM      8  C   UNL A   1      35.580  24.466  24.915  1.00  0.00     0.018 C 
BRANCH   8   9
ATOM      9  C   UNL A   1      36.176  23.598  26.040  1.00  0.00     0.001 C 
BRANCH   9  10
ATOM     10  C   UNL A   1      37.655  23.239  25.956  1.00  0.00    -0.003 C 
ATOM     11  C   UNL A   1      38.544  24.251  26.651  1.00  0.00     0.004 C 
ENDBRANCH   9  10
ENDBRANCH   8   9
ENDBRANCH   7   8
BRANCH   7  12
ATOM     12  C   UNL A   1      33.337  23.117  24.551  1.00  0.00     0.086 C 
ATOM     13  C   UNL A   1      33.105  22.302  25.877  1.00  0.00     0.072 C 
ATOM     14  C   UNL A   1      31.944  22.925  23.892  1.00  0.00     0.072 C 
ATOM     15  C   UNL A   1      32.484  21.042  25.286  1.00  0.00    -0.042 A 
ATOM     16  C   UNL A   1      31.916  21.384  24.038  1.00  0.00    -0.042 A 
ATOM     17  C   UNL A   1      33.005  19.777  25.558  1.00  0.00     0.004 A 
ATOM     18  C   UNL A   1      32.074  20.493  22.975  1.00  0.00     0.004 A 
ATOM     19  C   UNL A   1      33.201  18.920  24.478  1.00  0.00     0.000 A 
ATOM     20  C   UNL A   1      32.778  19.295  23.192  1.00  0.00     0.000 A 
BRANCH  12  21
ATOM     21  O   UNL A   1      34.207  22.357  23.660  1.00  0.00    -0.388 OA
ATOM     22  H   UNL A   1      34.304  22.830  22.820  1.00  0.00     0.211 HD
ENDBRANCH  12  21
ENDBRANCH   7  12
ENDBRANCH   5   7
ENDBRANCH   4   5
ENDBRANCH   3   4
ENDBRANCH   2   3
ENDBRANCH   1   2
BRANCH   1  23
ATOM     23  C   UNL A   1      31.871  29.767  25.878  1.00  0.00     0.202 C 
BRANCH  23  24
ATOM     24  C   UNL A   1      32.190  30.999  26.723  1.00  0.00     0.261 C 
BRANCH  24  25
ATOM     25  O   UNL A   1      33.219  30.731  27.660  1.00  0.00    -0.460 OA
BRANCH  25  26
ATOM     26  C   UNL A   1      33.972  31.829  27.883  1.00  0.00     0.338 C 
ATOM     27  O   UNL A   1      33.586  32.980  28.039  1.00  0.00    -0.246 OA
BRANCH  26  28
ATOM     28  C   UNL A   1      35.345  31.394  28.120  1.00  0.00     0.060 A 
ATOM     29  C   UNL A   1      35.555  30.014  28.178  1.00  0.00     0.016 A 
ATOM     30  C   UNL A   1      36.391  32.309  28.274  1.00  0.00     0.016 A 
ATOM     31  C   UNL A   1      36.811  29.539  28.493  1.00  0.00     0.010 A 
ATOM     32  C   UNL A   1      37.655  31.830  28.593  1.00  0.00     0.010 A 
ATOM     33  C   UNL A   1      37.841  30.449  28.761  1.00  0.00    -0.014 A 
BRANCH  33  34
ATOM     34  C   UNL A   1      39.043  29.927  29.429  1.00  0.00     0.031 A 
ATOM     35  C   UNL A   1      39.337  30.409  30.820  1.00  0.00     0.074 A 
ATOM     36  C   UNL A   1      39.756  28.958  28.836  1.00  0.00     0.049 A 
ATOM     37  N   UNL A   1      40.270  30.024  31.647  1.00  0.00    -0.248 NA
ATOM     38  C   UNL A   1      38.458  31.464  31.350  1.00  0.00     0.031 C 
ATOM     39  C   UNL A   1      39.484  28.413  27.505  1.00  0.00     0.029 A 
ATOM     40  N   UNL A   1      40.830  28.245  29.285  1.00  0.00    -0.354 N 
ATOM     41  C   UNL A   1      40.090  30.789  32.795  1.00  0.00     0.074 A 
ATOM     42  C   UNL A   1      38.991  31.691  32.540  1.00  0.00     0.031 C 
ATOM     43  C   UNL A   1      40.365  27.431  27.251  1.00  0.00     0.029 A 
ATOM     44  C   UNL A   1      41.278  27.310  28.384  1.00  0.00     0.049 A 
ATOM     45  H   UNL A   1      41.243  28.386  30.167  1.00  0.00     0.167 HD
ATOM     46  C   UNL A   1      40.779  30.725  33.959  1.00  0.00     0.034 A 
ATOM     47  C   UNL A   1      42.319  26.463  28.475  1.00  0.00     0.034 A 
ATOM     48  C   UNL A   1      41.881  29.816  34.163  1.00  0.00     0.049 A 
ATOM     49  C   UNL A   1      43.110  26.456  29.757  1.00  0.00     0.074 A 
ATOM     50  C   UNL A   1      42.672  29.654  35.285  1.00  0.00     0.029 A 
ATOM     51  N   UNL A   1      42.356  28.920  33.208  1.00  0.00    -0.354 N 
ATOM     52  N   UNL A   1      42.936  27.181  30.843  1.00  0.00    -0.248 NA
ATOM     53  C   UNL A   1      44.221  25.505  29.836  1.00  0.00     0.031 C 
ATOM     54  C   UNL A   1      43.672  28.723  34.981  1.00  0.00     0.029 A 
ATOM     55  C   UNL A   1      43.449  28.228  33.705  1.00  0.00     0.049 A 
ATOM     56  H   UNL A   1      41.969  28.797  32.311  1.00  0.00     0.167 HD
ATOM     57  C   UNL A   1      43.902  26.748  31.746  1.00  0.00     0.074 A 
ATOM     58  C   UNL A   1      44.630  25.682  31.083  1.00  0.00     0.031 C 
ATOM     59  C   UNL A   1      44.169  27.186  33.007  1.00  0.00     0.034 A 
BRANCH  46  60
ATOM     60  C   UNL A   1      40.404  31.705  35.046  1.00  0.00     0.023 A 
ATOM     61  C   UNL A   1      39.493  31.380  36.069  1.00  0.00     0.031 A 
ATOM     62  C   UNL A   1      40.931  33.009  35.030  1.00  0.00     0.131 A 
ATOM     63  C   UNL A   1      39.085  32.364  36.985  1.00  0.00     0.055 A 
ATOM     64  C   UNL A   1      40.586  33.958  35.995  1.00  0.00     0.041 A 
ATOM     65  F   UNL A   1      41.777  33.392  34.061  1.00  0.00    -0.206 F 
ATOM     66  C   UNL A   1      39.648  33.642  36.971  1.00  0.00     0.022 A 
BRANCH  63  67
ATOM     67  S   UNL A   1      37.699  31.999  38.099  1.00  0.00     0.124 S 
ATOM     68  O   UNL A   1      37.332  30.649  37.679  1.00  0.00    -0.237 OA
ATOM     69  O   UNL A   1      38.314  32.114  39.416  1.00  0.00    -0.237 OA
ATOM     70  O   UNL A   1      36.718  33.032  37.775  1.00  0.00    -0.744 OA
ENDBRANCH  63  67
ENDBRANCH  46  60
BRANCH  47  71
ATOM     71  C   UNL A   1      42.677  25.585  27.325  1.00  0.00     0.023 A 
ATOM     72  C   UNL A   1      42.222  24.260  27.246  1.00  0.00     0.031 A 
ATOM     73  C   UNL A   1      43.515  26.056  26.297  1.00  0.00     0.131 A 
ATOM     74  C   UNL A   1      42.644  23.439  26.188  1.00  0.00     0.055 A 
ATOM     75  C   UNL A   1      43.882  25.255  25.216  1.00  0.00     0.041 A 
ATOM     76  F   UNL A   1      43.978  27.316  26.323  1.00  0.00    -0.206 F 
ATOM     77  C   UNL A   1      43.457  23.931  25.165  1.00  0.00     0.022 A 
BRANCH  74  78
ATOM     78  S   UNL A   1      42.189  21.683  26.216  1.00  0.00     0.124 S 
ATOM     79  O   UNL A   1      40.805  21.727  25.761  1.00  0.00    -0.237 OA
ATOM     80  O   UNL A   1      43.154  21.106  25.285  1.00  0.00    -0.237 OA
ATOM     81  O   UNL A   1      42.376  21.306  27.615  1.00  0.00    -0.744 OA
ENDBRANCH  74  78
ENDBRANCH  47  71
BRANCH  59  82
ATOM     82  C   UNL A   1      45.273  26.469  33.745  1.00  0.00     0.023 A 
ATOM     83  C   UNL A   1      45.035  25.278  34.453  1.00  0.00     0.031 A 
ATOM     84  C   UNL A   1      46.569  27.014  33.786  1.00  0.00     0.131 A 
ATOM     85  C   UNL A   1      46.046  24.729  35.254  1.00  0.00     0.055 A 
ATOM     86  C   UNL A   1      47.597  26.411  34.512  1.00  0.00     0.041 A 
ATOM     87  F   UNL A   1      46.856  28.149  33.130  1.00  0.00    -0.206 F 
ATOM     88  C   UNL A   1      47.331  25.275  35.271  1.00  0.00     0.022 A 
BRANCH  85  89
ATOM     89  S   UNL A   1      45.609  23.392  36.398  1.00  0.00     0.124 S 
ATOM     90  O   UNL A   1      45.043  24.132  37.522  1.00  0.00    -0.237 OA
ATOM     91  O   UNL A   1      44.665  22.605  35.612  1.00  0.00    -0.237 OA
ATOM     92  O   UNL A   1      46.890  22.740  36.665  1.00  0.00    -0.744 OA
ENDBRANCH  85  89
ENDBRANCH  59  82
ENDBRANCH  33  34
ENDBRANCH  26  28
ENDBRANCH  25  26
ENDBRANCH  24  25
ENDBRANCH  23  24
ENDBRANCH   1  23
TORSDOF 22
ENDMDL
MODEL 3
REMARK VINA RESULT:     -10.8      4.327     10.011
REMARK SMILES CCCC[C@@H](C(=O)OCCOCCOC(=O)c1ccc(-c2c3nc(c(-c4cc(S(=O)(=O)[O-])ccc4F)c4ccc([nH]4)c(-c4cc(S(=O)(=O)[O-])ccc4F)c4nc(c(-c5cc(S(=O)(=O)[O-])ccc5F)c5ccc2[nH]5)C=C4)C=C3)cc1)C1(O)Cc2ccccc2C1
REMARK SMILES IDX 11 1 10 2 9 3 8 4 6 5 7 6 5 7 4 8 3 9 2 10 1 11 80 12 82 13
REMARK SMILES IDX 89 14 83 15 88 16 84 17 87 18 85 19 86 20 81 21 12 23 13 24
REMARK SMILES IDX 14 25 15 26 16 27 17 28 18 29 79 30 19 31 78 32 20 33 21 34
REMARK SMILES IDX 22 35 72 36 23 37 77 38 71 39 73 40 24 41 76 42 70 43 69 44
REMARK SMILES IDX 25 46 57 47 37 48 56 49 38 50 41 51 55 52 74 53 39 54 40 55
REMARK SMILES IDX 54 57 75 58 42 59 26 60 27 61 35 62 28 63 34 64 36 65 33 66
REMARK SMILES IDX 29 67 30 68 31 69 32 70 58 71 59 72 67 73 60 74 66 75 68 76
REMARK SMILES IDX 65 77 61 78 62 79 63 80 64 81 43 82 44 83 52 84 45 85 51 86
REMARK SMILES IDX 53 87 50 88 46 89 47 90 48 91 49 92
REMARK H PARENT 81 22 73 45 41 56
REMARK Flexibility Score: inf
ROOT
ATOM      1  O   UNL A   1      35.588  21.224  25.952  1.00  0.00    -0.374 OA
ENDROOT
BRANCH   1   2
ATOM      2  C   UNL A   1      34.164  21.386  25.874  1.00  0.00     0.202 C 
BRANCH   2   3
ATOM      3  C   UNL A   1      33.453  22.349  26.846  1.00  0.00     0.261 C 
BRANCH   3   4
ATOM      4  O   UNL A   1      33.597  23.711  26.394  1.00  0.00    -0.463 OA
BRANCH   4   5
ATOM      5  C   UNL A   1      32.442  24.401  26.167  1.00  0.00     0.311 C 
ATOM      6  O   UNL A   1      31.597  24.646  27.021  1.00  0.00    -0.252 OA
BRANCH   5   7
ATOM      7  C   UNL A   1      32.463  25.100  24.794  1.00  0.00     0.131 C 
BRANCH   7   8
ATOM      8  C   UNL A   1      33.470  24.440  23.803  1.00  0.00     0.018 C 
BRANCH   8   9
ATOM      9  C   UNL A   1      32.984  23.434  22.742  1.00  0.00     0.001 C 
BRANCH   9  10
ATOM     10  C   UNL A   1      32.979  23.883  21.285  1.00  0.00    -0.003 C 
ATOM     11  C   UNL A   1      32.750  25.373  21.131  1.00  0.00     0.004 C 
ENDBRANCH   9  10
ENDBRANCH   8   9
ENDBRANCH   7   8
BRANCH   7  12
ATOM     12  C   UNL A   1      32.708  26.635  25.064  1.00  0.00     0.086 C 
ATOM     13  C   UNL A   1      34.004  27.022  25.868  1.00  0.00     0.072 C 
ATOM     14  C   UNL A   1      32.794  27.691  23.929  1.00  0.00     0.072 C 
ATOM     15  C   UNL A   1      33.808  28.532  25.941  1.00  0.00    -0.042 A 
ATOM     16  C   UNL A   1      32.972  28.910  24.866  1.00  0.00    -0.042 A 
ATOM     17  C   UNL A   1      33.829  29.211  27.158  1.00  0.00     0.004 A 
ATOM     18  C   UNL A   1      31.981  29.865  25.106  1.00  0.00     0.004 A 
ATOM     19  C   UNL A   1      32.805  30.124  27.399  1.00  0.00     0.000 A 
ATOM     20  C   UNL A   1      31.866  30.414  26.396  1.00  0.00     0.000 A 
BRANCH  12  21
ATOM     21  O   UNL A   1      31.529  27.071  25.803  1.00  0.00    -0.388 OA
ATOM     22  H   UNL A   1      31.789  27.342  26.697  1.00  0.00     0.211 HD
ENDBRANCH  12  21
ENDBRANCH   7  12
ENDBRANCH   5   7
ENDBRANCH   4   5
ENDBRANCH   3   4
ENDBRANCH   2   3
ENDBRANCH   1   2
BRANCH   1  23
ATOM     23  C   UNL A   1      36.201  20.332  25.032  1.00  0.00     0.202 C 
BRANCH  23  24
ATOM     24  C   UNL A   1      37.723  20.271  24.906  1.00  0.00     0.261 C 
BRANCH  24  25
ATOM     25  O   UNL A   1      38.330  21.449  25.407  1.00  0.00    -0.460 OA
BRANCH  25  26
ATOM     26  C   UNL A   1      39.441  21.160  26.117  1.00  0.00     0.338 C 
ATOM     27  O   UNL A   1      40.111  20.137  26.071  1.00  0.00    -0.246 OA
BRANCH  26  28
ATOM     28  C   UNL A   1      39.853  22.369  26.823  1.00  0.00     0.060 A 
ATOM     29  C   UNL A   1      39.233  23.557  26.427  1.00  0.00     0.016 A 
ATOM     30  C   UNL A   1      40.810  22.337  27.841  1.00  0.00     0.016 A 
ATOM     31  C   UNL A   1      39.645  24.748  26.988  1.00  0.00     0.010 A 
ATOM     32  C   UNL A   1      41.226  23.536  28.404  1.00  0.00     0.010 A 
ATOM     33  C   UNL A   1      40.683  24.740  27.928  1.00  0.00    -0.014 A 
BRANCH  33  34
ATOM     34  C   UNL A   1      41.327  26.028  28.230  1.00  0.00     0.031 A 
ATOM     35  C   UNL A   1      42.697  26.275  27.672  1.00  0.00     0.074 A 
ATOM     36  C   UNL A   1      40.630  26.974  28.876  1.00  0.00     0.049 A 
ATOM     37  N   UNL A   1      43.424  27.358  27.713  1.00  0.00    -0.248 NA
ATOM     38  C   UNL A   1      43.334  25.148  26.969  1.00  0.00     0.031 C 
ATOM     39  C   UNL A   1      39.272  26.809  29.396  1.00  0.00     0.029 A 
ATOM     40  N   UNL A   1      40.956  28.266  29.177  1.00  0.00    -0.354 N 
ATOM     41  C   UNL A   1      44.601  27.045  27.041  1.00  0.00     0.074 A 
ATOM     42  C   UNL A   1      44.512  25.658  26.646  1.00  0.00     0.031 C 
ATOM     43  C   UNL A   1      38.872  27.969  29.941  1.00  0.00     0.029 A 
ATOM     44  C   UNL A   1      39.958  28.939  29.839  1.00  0.00     0.049 A 
ATOM     45  H   UNL A   1      41.820  28.674  28.944  1.00  0.00     0.167 HD
ATOM     46  C   UNL A   1      45.651  27.856  26.773  1.00  0.00     0.034 A 
ATOM     47  C   UNL A   1      39.942  30.198  30.313  1.00  0.00     0.034 A 
ATOM     48  C   UNL A   1      45.703  29.233  27.202  1.00  0.00     0.049 A 
ATOM     49  C   UNL A   1      41.151  31.061  30.056  1.00  0.00     0.074 A 
ATOM     50  C   UNL A   1      46.707  30.162  27.008  1.00  0.00     0.029 A 
ATOM     51  N   UNL A   1      44.701  29.874  27.927  1.00  0.00    -0.354 N 
ATOM     52  N   UNL A   1      42.263  30.761  29.420  1.00  0.00    -0.248 NA
ATOM     53  C   UNL A   1      41.093  32.435  30.561  1.00  0.00     0.031 C 
ATOM     54  C   UNL A   1      46.350  31.335  27.685  1.00  0.00     0.029 A 
ATOM     55  C   UNL A   1      45.080  31.174  28.218  1.00  0.00     0.049 A 
ATOM     56  H   UNL A   1      43.848  29.461  28.194  1.00  0.00     0.167 HD
ATOM     57  C   UNL A   1      43.027  31.924  29.423  1.00  0.00     0.074 A 
ATOM     58  C   UNL A   1      42.230  32.931  30.099  1.00  0.00     0.031 C 
ATOM     59  C   UNL A   1      44.270  32.148  28.917  1.00  0.00     0.034 A 
BRANCH  46  60
ATOM     60  C   UNL A   1      46.835  27.250  26.056  1.00  0.00     0.023 A 
ATOM     61  C   UNL A   1      47.855  26.560  26.739  1.00  0.00     0.031 A 
ATOM     62  C   UNL A   1      46.972  27.408  24.665  1.00  0.00     0.131 A 
ATOM     63  C   UNL A   1      48.994  26.121  26.044  1.00  0.00     0.055 A 
ATOM     64  C   UNL A   1      48.066  26.894  23.966  1.00  0.00     0.041 A 
ATOM     65  F   UNL A   1      46.051  28.086  23.961  1.00  0.00    -0.206 F 
ATOM     66  C   UNL A   1      49.092  26.258  24.658  1.00  0.00     0.022 A 
BRANCH  63  67
ATOM     67  S   UNL A   1      50.413  25.504  26.992  1.00  0.00     0.124 S 
ATOM     68  O   UNL A   1      51.377  25.222  25.930  1.00  0.00    -0.237 OA
ATOM     69  O   UNL A   1      50.729  26.634  27.859  1.00  0.00    -0.237 OA
ATOM     70  O   UNL A   1      49.884  24.324  27.672  1.00  0.00    -0.744 OA
ENDBRANCH  63  67
ENDBRANCH  46  60
BRANCH  47  71
ATOM     71  C   UNL A   1      38.769  30.697  31.084  1.00  0.00     0.023 A 
ATOM     72  C   UNL A   1      37.793  31.510  30.489  1.00  0.00     0.031 A 
ATOM     73  C   UNL A   1      38.624  30.388  32.450  1.00  0.00     0.131 A 
ATOM     74  C   UNL A   1      36.744  32.026  31.267  1.00  0.00     0.055 A 
ATOM     75  C   UNL A   1      37.548  30.853  33.204  1.00  0.00     0.041 A 
ATOM     76  F   UNL A   1      39.529  29.612  33.069  1.00  0.00    -0.206 F 
ATOM     77  C   UNL A   1      36.606  31.690  32.615  1.00  0.00     0.022 A 
BRANCH  74  78
ATOM     78  S   UNL A   1      35.609  33.223  30.512  1.00  0.00     0.124 S 
ATOM     79  O   UNL A   1      36.233  33.446  29.213  1.00  0.00    -0.237 OA
ATOM     80  O   UNL A   1      34.352  32.482  30.501  1.00  0.00    -0.237 OA
ATOM     81  O   UNL A   1      35.652  34.359  31.430  1.00  0.00    -0.744 OA
ENDBRANCH  74  78
ENDBRANCH  47  71
BRANCH  59  82
ATOM     82  C   UNL A   1      44.807  33.552  29.053  1.00  0.00     0.023 A 
ATOM     83  C   UNL A   1      45.495  33.970  30.205  1.00  0.00     0.031 A 
ATOM     84  C   UNL A   1      44.580  34.499  28.039  1.00  0.00     0.131 A 
ATOM     85  C   UNL A   1      45.839  35.320  30.361  1.00  0.00     0.055 A 
ATOM     86  C   UNL A   1      45.006  35.822  28.161  1.00  0.00     0.041 A 
ATOM     87  F   UNL A   1      43.928  34.159  26.917  1.00  0.00    -0.206 F 
ATOM     88  C   UNL A   1      45.619  36.244  29.338  1.00  0.00     0.022 A 
BRANCH  85  89
ATOM     89  S   UNL A   1      46.425  35.878  31.983  1.00  0.00     0.124 S 
ATOM     90  O   UNL A   1      47.364  34.820  32.344  1.00  0.00    -0.237 OA
ATOM     91  O   UNL A   1      47.015  37.176  31.672  1.00  0.00    -0.237 OA
ATOM     92  O   UNL A   1      45.206  35.927  32.788  1.00  0.00    -0.744 OA
ENDBRANCH  85  89
ENDBRANCH  59  82
ENDBRANCH  33  34
ENDBRANCH  26  28
ENDBRANCH  25  26
ENDBRANCH  24  25
ENDBRANCH  23  24
ENDBRANCH   1  23
TORSDOF 22
ENDMDL
