MODEL 1
REMARK VINA RESULT:     -11.2      0.000      0.000
REMARK SMILES Cn1cc(C(=O)NCCc2ccccc2)c(C(=O)OCCOCCOC(=O)c2ccc(-c3c4nc(c(-c5cc(S(=O)(=O)[O-])ccc5F)c5ccc([nH]5)c(-c5cc(S(=O)(=O)[O-])ccc5F)c5nc(c(-c6cc(S(=O)(=O)[O-])ccc6F)c6ccc3[nH]6)C=C5)C=C4)cc2)n1
REMARK SMILES IDX 21 1 20 2 19 3 17 4 18 5 16 6 1 7 2 8 3 9 91 10 4 11 5 12
REMARK SMILES IDX 6 13 7 14 8 16 9 17 10 18 11 19 15 20 12 21 14 22 13 23
REMARK SMILES IDX 22 24 23 25 24 26 25 27 26 28 27 29 28 30 29 31 90 32 30 33
REMARK SMILES IDX 89 34 31 35 32 36 33 37 83 38 34 39 88 40 82 41 84 42 35 43
REMARK SMILES IDX 87 44 81 45 80 46 36 48 68 49 48 50 67 51 49 52 52 53 66 54
REMARK SMILES IDX 85 55 50 56 51 57 65 59 86 60 53 61 37 62 38 63 46 64 39 65
REMARK SMILES IDX 45 66 47 67 44 68 40 69 41 70 42 71 43 72 69 73 70 74 78 75
REMARK SMILES IDX 71 76 77 77 79 78 76 79 72 80 73 81 74 82 75 83 54 84 55 85
REMARK SMILES IDX 63 86 56 87 62 88 64 89 61 90 57 91 58 92 59 93 60 94
REMARK H PARENT 7 15 84 47 52 58
REMARK Flexibility Score: inf
ROOT
ATOM      1  C   UNL A   1      35.852  22.418  24.283  1.00  0.00     0.202 C 
ENDROOT
BRANCH   1   2
ATOM      2  C   UNL A   1      35.550  23.839  24.763  1.00  0.00     0.261 C 
BRANCH   2   3
ATOM      3  O   UNL A   1      34.127  23.984  24.826  1.00  0.00    -0.458 OA
BRANCH   3   4
ATOM      4  C   UNL A   1      33.581  25.123  24.330  1.00  0.00     0.359 C 
ATOM      5  O   UNL A   1      33.343  25.315  23.141  1.00  0.00    -0.244 OA
BRANCH   4   6
ATOM      6  C   UNL A   1      33.140  26.023  25.413  1.00  0.00     0.183 A 
ATOM      7  C   UNL A   1      33.750  28.929  27.264  1.00  0.00     0.173 C 
ATOM      8  N   UNL A   1      33.197  27.740  26.661  1.00  0.00    -0.274 N 
ATOM      9  C   UNL A   1      31.965  27.208  26.879  1.00  0.00     0.123 A 
ATOM     10  N   UNL A   1      33.926  27.061  25.776  1.00  0.00    -0.165 NA
ATOM     11  C   UNL A   1      31.906  26.026  26.159  1.00  0.00     0.092 A 
BRANCH  11  12
ATOM     12  C   UNL A   1      30.846  25.029  26.107  1.00  0.00     0.255 C 
ATOM     13  O   UNL A   1      30.668  24.220  27.014  1.00  0.00    -0.269 OA
ATOM     14  N   UNL A   1      29.957  24.970  25.069  1.00  0.00    -0.352 N 
ATOM     15  H   UNL A   1      29.311  24.231  25.154  1.00  0.00     0.163 HD
BRANCH  14  16
ATOM     16  C   UNL A   1      29.760  25.762  23.866  1.00  0.00     0.121 C 
BRANCH  16  17
ATOM     17  C   UNL A   1      28.532  26.677  23.979  1.00  0.00     0.057 C 
BRANCH  17  18
ATOM     18  C   UNL A   1      28.740  27.989  23.254  1.00  0.00    -0.046 A 
ATOM     19  C   UNL A   1      27.640  28.779  22.895  1.00  0.00     0.004 A 
ATOM     20  C   UNL A   1      30.026  28.405  22.878  1.00  0.00     0.004 A 
ATOM     21  C   UNL A   1      27.820  29.949  22.154  1.00  0.00     0.000 A 
ATOM     22  C   UNL A   1      30.202  29.566  22.125  1.00  0.00     0.000 A 
ATOM     23  C   UNL A   1      29.100  30.336  21.761  1.00  0.00     0.000 A 
ENDBRANCH  17  18
ENDBRANCH  16  17
ENDBRANCH  14  16
ENDBRANCH  11  12
ENDBRANCH   4   6
ENDBRANCH   3   4
ENDBRANCH   2   3
ENDBRANCH   1   2
BRANCH   1  24
ATOM     24  O   UNL A   1      35.967  21.480  25.363  1.00  0.00    -0.374 OA
BRANCH  24  25
ATOM     25  C   UNL A   1      36.166  20.116  24.981  1.00  0.00     0.202 C 
BRANCH  25  26
ATOM     26  C   UNL A   1      37.633  19.677  24.995  1.00  0.00     0.261 C 
BRANCH  26  27
ATOM     27  O   UNL A   1      38.507  20.803  25.193  1.00  0.00    -0.460 OA
BRANCH  27  28
ATOM     28  C   UNL A   1      39.518  20.592  26.070  1.00  0.00     0.338 C 
ATOM     29  O   UNL A   1      40.097  19.538  26.277  1.00  0.00    -0.246 OA
BRANCH  28  30
ATOM     30  C   UNL A   1      39.950  21.875  26.667  1.00  0.00     0.060 A 
ATOM     31  C   UNL A   1      39.311  23.038  26.222  1.00  0.00     0.016 A 
ATOM     32  C   UNL A   1      40.984  21.956  27.606  1.00  0.00     0.016 A 
ATOM     33  C   UNL A   1      39.730  24.287  26.678  1.00  0.00     0.010 A 
ATOM     34  C   UNL A   1      41.409  23.211  28.057  1.00  0.00     0.010 A 
ATOM     35  C   UNL A   1      40.803  24.384  27.573  1.00  0.00    -0.014 A 
BRANCH  35  36
ATOM     36  C   UNL A   1      41.372  25.718  27.887  1.00  0.00     0.031 A 
ATOM     37  C   UNL A   1      42.774  26.035  27.441  1.00  0.00     0.074 A 
ATOM     38  C   UNL A   1      40.639  26.647  28.527  1.00  0.00     0.049 A 
ATOM     39  N   UNL A   1      43.473  27.127  27.611  1.00  0.00    -0.248 NA
ATOM     40  C   UNL A   1      43.481  24.974  26.706  1.00  0.00     0.031 C 
ATOM     41  C   UNL A   1      39.258  26.469  28.976  1.00  0.00     0.029 A 
ATOM     42  N   UNL A   1      40.955  27.925  28.913  1.00  0.00    -0.354 N 
ATOM     43  C   UNL A   1      44.701  26.889  27.003  1.00  0.00     0.074 A 
ATOM     44  C   UNL A   1      44.661  25.536  26.491  1.00  0.00     0.031 C 
ATOM     45  C   UNL A   1      38.849  27.597  29.585  1.00  0.00     0.029 A 
ATOM     46  C   UNL A   1      39.946  28.563  29.595  1.00  0.00     0.049 A 
ATOM     47  H   UNL A   1      41.825  28.346  28.720  1.00  0.00     0.167 HD
ATOM     48  C   UNL A   1      45.760  27.726  26.876  1.00  0.00     0.034 A 
ATOM     49  C   UNL A   1      39.920  29.779  30.178  1.00  0.00     0.034 A 
ATOM     50  C   UNL A   1      45.795  29.069  27.398  1.00  0.00     0.049 A 
ATOM     51  C   UNL A   1      41.140  30.665  30.088  1.00  0.00     0.074 A 
ATOM     52  C   UNL A   1      46.812  30.004  27.311  1.00  0.00     0.029 A 
ATOM     53  N   UNL A   1      44.769  29.666  28.119  1.00  0.00    -0.354 N 
ATOM     54  N   UNL A   1      42.289  30.431  29.497  1.00  0.00    -0.248 NA
ATOM     55  C   UNL A   1      41.055  31.979  30.738  1.00  0.00     0.031 C 
ATOM     56  C   UNL A   1      46.426  31.142  28.028  1.00  0.00     0.029 A 
ATOM     57  C   UNL A   1      45.142  30.943  28.508  1.00  0.00     0.049 A 
ATOM     58  H   UNL A   1      43.903  29.244  28.322  1.00  0.00     0.167 HD
ATOM     59  C   UNL A   1      43.051  31.582  29.680  1.00  0.00     0.074 A 
ATOM     60  C   UNL A   1      42.227  32.511  30.427  1.00  0.00     0.031 C 
ATOM     61  C   UNL A   1      44.313  31.853  29.262  1.00  0.00     0.034 A 
BRANCH  48  62
ATOM     62  C   UNL A   1      46.987  27.184  26.185  1.00  0.00     0.023 A 
ATOM     63  C   UNL A   1      47.986  26.488  26.887  1.00  0.00     0.031 A 
ATOM     64  C   UNL A   1      47.169  27.391  24.806  1.00  0.00     0.131 A 
ATOM     65  C   UNL A   1      49.148  26.073  26.220  1.00  0.00     0.055 A 
ATOM     66  C   UNL A   1      48.298  26.917  24.135  1.00  0.00     0.041 A 
ATOM     67  F   UNL A   1      46.258  28.070  24.091  1.00  0.00    -0.206 F 
ATOM     68  C   UNL A   1      49.301  26.264  24.844  1.00  0.00     0.022 A 
BRANCH  65  69
ATOM     69  S   UNL A   1      50.513  25.383  27.196  1.00  0.00     0.124 S 
ATOM     70  O   UNL A   1      50.887  26.525  28.027  1.00  0.00    -0.237 OA
ATOM     71  O   UNL A   1      49.875  24.269  27.887  1.00  0.00    -0.237 OA
ATOM     72  O   UNL A   1      51.500  25.006  26.186  1.00  0.00    -0.744 OA
ENDBRANCH  65  69
ENDBRANCH  48  62
BRANCH  49  73
ATOM     73  C   UNL A   1      38.720  30.228  30.941  1.00  0.00     0.023 A 
ATOM     74  C   UNL A   1      37.682  30.939  30.317  1.00  0.00     0.031 A 
ATOM     75  C   UNL A   1      38.630  30.007  32.327  1.00  0.00     0.131 A 
ATOM     76  C   UNL A   1      36.625  31.449  31.086  1.00  0.00     0.055 A 
ATOM     77  C   UNL A   1      37.550  30.473  33.079  1.00  0.00     0.041 A 
ATOM     78  F   UNL A   1      39.596  29.335  32.972  1.00  0.00    -0.206 F 
ATOM     79  C   UNL A   1      36.546  31.210  32.460  1.00  0.00     0.022 A 
BRANCH  76  80
ATOM     80  S   UNL A   1      35.395  32.509  30.278  1.00  0.00     0.124 S 
ATOM     81  O   UNL A   1      34.464  32.770  31.370  1.00  0.00    -0.237 OA
ATOM     82  O   UNL A   1      36.208  33.640  29.843  1.00  0.00    -0.237 OA
ATOM     83  O   UNL A   1      34.875  31.668  29.202  1.00  0.00    -0.744 OA
ENDBRANCH  76  80
ENDBRANCH  49  73
BRANCH  61  84
ATOM     84  C   UNL A   1      44.856  33.227  29.567  1.00  0.00     0.023 A 
ATOM     85  C   UNL A   1      44.559  34.337  28.758  1.00  0.00     0.031 A 
ATOM     86  C   UNL A   1      45.692  33.421  30.682  1.00  0.00     0.131 A 
ATOM     87  C   UNL A   1      45.133  35.584  29.047  1.00  0.00     0.055 A 
ATOM     88  C   UNL A   1      46.219  34.675  30.993  1.00  0.00     0.041 A 
ATOM     89  F   UNL A   1      46.005  32.395  31.488  1.00  0.00    -0.206 F 
ATOM     90  C   UNL A   1      45.949  35.763  30.167  1.00  0.00     0.022 A 
BRANCH  87  91
ATOM     91  S   UNL A   1      44.859  36.958  27.895  1.00  0.00     0.124 S 
ATOM     92  O   UNL A   1      43.888  36.390  26.968  1.00  0.00    -0.237 OA
ATOM     93  O   UNL A   1      44.360  38.009  28.776  1.00  0.00    -0.237 OA
ATOM     94  O   UNL A   1      46.185  37.203  27.331  1.00  0.00    -0.744 OA
ENDBRANCH  87  91
ENDBRANCH  61  84
ENDBRANCH  35  36
ENDBRANCH  28  30
ENDBRANCH  27  28
ENDBRANCH  26  27
ENDBRANCH  25  26
ENDBRANCH  24  25
ENDBRANCH   1  24
TORSDOF 21
ENDMDL
MODEL 2
REMARK VINA RESULT:     -11.1      4.689      9.624
REMARK SMILES Cn1cc(C(=O)NCCc2ccccc2)c(C(=O)OCCOCCOC(=O)c2ccc(-c3c4nc(c(-c5cc(S(=O)(=O)[O-])ccc5F)c5ccc([nH]5)c(-c5cc(S(=O)(=O)[O-])ccc5F)c5nc(c(-c6cc(S(=O)(=O)[O-])ccc6F)c6ccc3[nH]6)C=C5)C=C4)cc2)n1
REMARK SMILES IDX 21 1 20 2 19 3 17 4 18 5 16 6 1 7 2 8 3 9 91 10 4 11 5 12
REMARK SMILES IDX 6 13 7 14 8 16 9 17 10 18 11 19 15 20 12 21 14 22 13 23
REMARK SMILES IDX 22 24 23 25 24 26 25 27 26 28 27 29 28 30 29 31 90 32 30 33
REMARK SMILES IDX 89 34 31 35 32 36 33 37 83 38 34 39 88 40 82 41 84 42 35 43
REMARK SMILES IDX 87 44 81 45 80 46 36 48 68 49 48 50 67 51 49 52 52 53 66 54
REMARK SMILES IDX 85 55 50 56 51 57 65 59 86 60 53 61 37 62 38 63 46 64 39 65
REMARK SMILES IDX 45 66 47 67 44 68 40 69 41 70 42 71 43 72 69 73 70 74 78 75
REMARK SMILES IDX 71 76 77 77 79 78 76 79 72 80 73 81 74 82 75 83 54 84 55 85
REMARK SMILES IDX 63 86 56 87 62 88 64 89 61 90 57 91 58 92 59 93 60 94
REMARK H PARENT 7 15 84 47 52 58
REMARK Flexibility Score: inf
ROOT
ATOM      1  C   UNL A   1      33.540  28.458  24.722  1.00  0.00     0.202 C 
ENDROOT
BRANCH   1   2
ATOM      2  C   UNL A   1      33.363  27.096  24.047  1.00  0.00     0.261 C 
BRANCH   2   3
ATOM      3  O   UNL A   1      33.241  26.112  25.081  1.00  0.00    -0.458 OA
BRANCH   3   4
ATOM      4  C   UNL A   1      33.918  24.946  24.931  1.00  0.00     0.359 C 
ATOM      5  O   UNL A   1      35.123  24.816  25.125  1.00  0.00    -0.244 OA
BRANCH   4   6
ATOM      6  C   UNL A   1      32.999  23.819  24.688  1.00  0.00     0.183 A 
ATOM      7  C   UNL A   1      32.531  20.643  23.293  1.00  0.00     0.173 C 
ATOM      8  N   UNL A   1      32.419  21.891  24.009  1.00  0.00    -0.274 N 
ATOM      9  C   UNL A   1      31.395  22.286  24.813  1.00  0.00     0.123 A 
ATOM     10  N   UNL A   1      33.406  22.782  23.922  1.00  0.00    -0.165 NA
ATOM     11  C   UNL A   1      31.676  23.583  25.210  1.00  0.00     0.092 A 
BRANCH  11  12
ATOM     12  C   UNL A   1      30.870  24.498  26.007  1.00  0.00     0.255 C 
ATOM     13  O   UNL A   1      30.866  24.461  27.235  1.00  0.00    -0.269 OA
ATOM     14  N   UNL A   1      30.114  25.484  25.435  1.00  0.00    -0.352 N 
ATOM     15  H   UNL A   1      29.603  26.011  26.092  1.00  0.00     0.163 HD
BRANCH  14  16
ATOM     16  C   UNL A   1      29.901  25.922  24.065  1.00  0.00     0.121 C 
BRANCH  16  17
ATOM     17  C   UNL A   1      28.527  26.583  23.884  1.00  0.00     0.057 C 
BRANCH  17  18
ATOM     18  C   UNL A   1      28.636  27.927  23.197  1.00  0.00    -0.046 A 
ATOM     19  C   UNL A   1      29.864  28.354  22.674  1.00  0.00     0.004 A 
ATOM     20  C   UNL A   1      27.532  28.789  23.126  1.00  0.00     0.004 A 
ATOM     21  C   UNL A   1      29.990  29.626  22.113  1.00  0.00     0.000 A 
ATOM     22  C   UNL A   1      27.664  30.065  22.578  1.00  0.00     0.000 A 
ATOM     23  C   UNL A   1      28.894  30.485  22.075  1.00  0.00     0.000 A 
ENDBRANCH  17  18
ENDBRANCH  16  17
ENDBRANCH  14  16
ENDBRANCH  11  12
ENDBRANCH   4   6
ENDBRANCH   3   4
ENDBRANCH   2   3
ENDBRANCH   1   2
BRANCH   1  24
ATOM     24  O   UNL A   1      32.492  28.758  25.653  1.00  0.00    -0.374 OA
BRANCH  24  25
ATOM     25  C   UNL A   1      31.727  29.933  25.370  1.00  0.00     0.202 C 
BRANCH  25  26
ATOM     26  C   UNL A   1      31.831  31.015  26.449  1.00  0.00     0.261 C 
BRANCH  26  27
ATOM     27  O   UNL A   1      32.890  30.718  27.377  1.00  0.00    -0.460 OA
BRANCH  27  28
ATOM     28  C   UNL A   1      33.736  31.748  27.625  1.00  0.00     0.338 C 
ATOM     29  O   UNL A   1      33.449  32.932  27.668  1.00  0.00    -0.246 OA
BRANCH  28  30
ATOM     30  C   UNL A   1      35.072  31.231  27.995  1.00  0.00     0.060 A 
ATOM     31  C   UNL A   1      35.184  29.857  28.238  1.00  0.00     0.016 A 
ATOM     32  C   UNL A   1      36.184  32.066  28.147  1.00  0.00     0.016 A 
ATOM     33  C   UNL A   1      36.394  29.320  28.676  1.00  0.00     0.010 A 
ATOM     34  C   UNL A   1      37.395  31.526  28.594  1.00  0.00     0.010 A 
ATOM     35  C   UNL A   1      37.498  30.155  28.888  1.00  0.00    -0.014 A 
BRANCH  35  36
ATOM     36  C   UNL A   1      38.709  29.609  29.550  1.00  0.00     0.031 A 
ATOM     37  C   UNL A   1      39.108  30.146  30.898  1.00  0.00     0.074 A 
ATOM     38  C   UNL A   1      39.422  28.623  28.975  1.00  0.00     0.049 A 
ATOM     39  N   UNL A   1      40.125  29.823  31.653  1.00  0.00    -0.248 NA
ATOM     40  C   UNL A   1      38.239  31.188  31.468  1.00  0.00     0.031 C 
ATOM     41  C   UNL A   1      39.114  27.998  27.689  1.00  0.00     0.029 A 
ATOM     42  N   UNL A   1      40.556  27.977  29.399  1.00  0.00    -0.354 N 
ATOM     43  C   UNL A   1      40.022  30.619  32.788  1.00  0.00     0.074 A 
ATOM     44  C   UNL A   1      38.860  31.463  32.606  1.00  0.00     0.031 C 
ATOM     45  C   UNL A   1      40.044  27.062  27.426  1.00  0.00     0.029 A 
ATOM     46  C   UNL A   1      41.027  27.043  28.507  1.00  0.00     0.049 A 
ATOM     47  H   UNL A   1      40.993  28.166  30.262  1.00  0.00     0.167 HD
ATOM     48  C   UNL A   1      40.817  30.638  33.886  1.00  0.00     0.034 A 
ATOM     49  C   UNL A   1      42.136  26.276  28.550  1.00  0.00     0.034 A 
ATOM     50  C   UNL A   1      41.978  29.800  34.056  1.00  0.00     0.049 A 
ATOM     51  C   UNL A   1      43.048  26.369  29.750  1.00  0.00     0.074 A 
ATOM     52  C   UNL A   1      42.843  29.730  35.134  1.00  0.00     0.029 A 
ATOM     53  N   UNL A   1      42.447  28.895  33.112  1.00  0.00    -0.354 N 
ATOM     54  N   UNL A   1      42.929  27.116  30.823  1.00  0.00    -0.248 NA
ATOM     55  C   UNL A   1      44.240  25.510  29.746  1.00  0.00     0.031 C 
ATOM     56  C   UNL A   1      43.866  28.828  34.820  1.00  0.00     0.029 A 
ATOM     57  C   UNL A   1      43.605  28.286  33.572  1.00  0.00     0.049 A 
ATOM     58  H   UNL A   1      42.020  28.712  32.245  1.00  0.00     0.167 HD
ATOM     59  C   UNL A   1      44.014  26.793  31.634  1.00  0.00     0.074 A 
ATOM     60  C   UNL A   1      44.771  25.777  30.930  1.00  0.00     0.031 C 
ATOM     61  C   UNL A   1      44.353  27.283  32.853  1.00  0.00     0.034 A 
BRANCH  48  62
ATOM     62  C   UNL A   1      40.479  31.635  34.966  1.00  0.00     0.023 A 
ATOM     63  C   UNL A   1      39.512  31.364  35.948  1.00  0.00     0.031 A 
ATOM     64  C   UNL A   1      41.119  32.886  34.996  1.00  0.00     0.131 A 
ATOM     65  C   UNL A   1      39.171  32.352  36.885  1.00  0.00     0.055 A 
ATOM     66  C   UNL A   1      40.823  33.841  35.971  1.00  0.00     0.041 A 
ATOM     67  F   UNL A   1      42.035  33.207  34.068  1.00  0.00    -0.206 F 
ATOM     68  C   UNL A   1      39.836  33.581  36.916  1.00  0.00     0.022 A 
BRANCH  65  69
ATOM     69  S   UNL A   1      37.764  32.055  37.991  1.00  0.00     0.124 S 
ATOM     70  O   UNL A   1      36.821  33.080  37.549  1.00  0.00    -0.237 OA
ATOM     71  O   UNL A   1      37.403  30.677  37.680  1.00  0.00    -0.237 OA
ATOM     72  O   UNL A   1      38.325  32.266  39.323  1.00  0.00    -0.744 OA
ENDBRANCH  65  69
ENDBRANCH  48  62
BRANCH  49  73
ATOM     73  C   UNL A   1      42.483  25.382  27.409  1.00  0.00     0.023 A 
ATOM     74  C   UNL A   1      42.001  24.065  27.341  1.00  0.00     0.031 A 
ATOM     75  C   UNL A   1      43.364  25.816  26.402  1.00  0.00     0.131 A 
ATOM     76  C   UNL A   1      42.441  23.212  26.317  1.00  0.00     0.055 A 
ATOM     77  C   UNL A   1      43.759  24.979  25.357  1.00  0.00     0.041 A 
ATOM     78  F   UNL A   1      43.857  27.065  26.422  1.00  0.00    -0.206 F 
ATOM     79  C   UNL A   1      43.307  23.664  25.318  1.00  0.00     0.022 A 
BRANCH  76  80
ATOM     80  S   UNL A   1      41.935  21.471  26.358  1.00  0.00     0.124 S 
ATOM     81  O   UNL A   1      42.835  20.877  25.376  1.00  0.00    -0.237 OA
ATOM     82  O   UNL A   1      42.181  21.117  27.752  1.00  0.00    -0.237 OA
ATOM     83  O   UNL A   1      40.528  21.516  25.967  1.00  0.00    -0.744 OA
ENDBRANCH  76  80
ENDBRANCH  49  73
BRANCH  61  84
ATOM     84  C   UNL A   1      45.571  26.689  33.516  1.00  0.00     0.023 A 
ATOM     85  C   UNL A   1      45.484  25.557  34.344  1.00  0.00     0.031 A 
ATOM     86  C   UNL A   1      46.835  27.275  33.321  1.00  0.00     0.131 A 
ATOM     87  C   UNL A   1      46.634  25.073  34.986  1.00  0.00     0.055 A 
ATOM     88  C   UNL A   1      47.983  26.759  33.923  1.00  0.00     0.041 A 
ATOM     89  F   UNL A   1      46.973  28.357  32.539  1.00  0.00    -0.206 F 
ATOM     90  C   UNL A   1      47.884  25.658  34.770  1.00  0.00     0.022 A 
BRANCH  87  91
ATOM     91  S   UNL A   1      46.463  23.710  36.172  1.00  0.00     0.124 S 
ATOM     92  O   UNL A   1      47.854  23.362  36.437  1.00  0.00    -0.237 OA
ATOM     93  O   UNL A   1      45.743  24.342  37.272  1.00  0.00    -0.237 OA
ATOM     94  O   UNL A   1      45.703  22.705  35.431  1.00  0.00    -0.744 OA
ENDBRANCH  87  91
ENDBRANCH  61  84
ENDBRANCH  35  36
ENDBRANCH  28  30
ENDBRANCH  27  28
ENDBRANCH  26  27
ENDBRANCH  25  26
ENDBRANCH  24  25
ENDBRANCH   1  24
TORSDOF 21
ENDMDL
MODEL 3
REMARK VINA RESULT:     -11.0      1.953      4.037
REMARK SMILES Cn1cc(C(=O)NCCc2ccccc2)c(C(=O)OCCOCCOC(=O)c2ccc(-c3c4nc(c(-c5cc(S(=O)(=O)[O-])ccc5F)c5ccc([nH]5)c(-c5cc(S(=O)(=O)[O-])ccc5F)c5nc(c(-c6cc(S(=O)(=O)[O-])ccc6F)c6ccc3[nH]6)C=C5)C=C4)cc2)n1
REMARK SMILES IDX 21 1 20 2 19 3 17 4 18 5 16 6 1 7 2 8 3 9 91 10 4 11 5 12
REMARK SMILES IDX 6 13 7 14 8 16 9 17 10 18 11 19 15 20 12 21 14 22 13 23
REMARK SMILES IDX 22 24 23 25 24 26 25 27 26 28 27 29 28 30 29 31 90 32 30 33
REMARK SMILES IDX 89 34 31 35 32 36 33 37 83 38 34 39 88 40 82 41 84 42 35 43
REMARK SMILES IDX 87 44 81 45 80 46 36 48 68 49 48 50 67 51 49 52 52 53 66 54
REMARK SMILES IDX 85 55 50 56 51 57 65 59 86 60 53 61 37 62 38 63 46 64 39 65
REMARK SMILES IDX 45 66 47 67 44 68 40 69 41 70 42 71 43 72 69 73 70 74 78 75
REMARK SMILES IDX 71 76 77 77 79 78 76 79 72 80 73 81 74 82 75 83 54 84 55 85
REMARK SMILES IDX 63 86 56 87 62 88 64 89 61 90 57 91 58 92 59 93 60 94
REMARK H PARENT 7 15 84 47 52 58
REMARK Flexibility Score: inf
ROOT
ATOM      1  C   UNL A   1      35.788  23.232  26.027  1.00  0.00     0.202 C 
ENDROOT
BRANCH   1   2
ATOM      2  C   UNL A   1      34.475  22.936  26.755  1.00  0.00     0.261 C 
BRANCH   2   3
ATOM      3  O   UNL A   1      33.577  24.021  26.492  1.00  0.00    -0.458 OA
BRANCH   3   4
ATOM      4  C   UNL A   1      32.249  23.749  26.444  1.00  0.00     0.359 C 
ATOM      5  O   UNL A   1      31.615  23.237  27.362  1.00  0.00    -0.244 OA
BRANCH   4   6
ATOM      6  C   UNL A   1      31.628  24.313  25.231  1.00  0.00     0.183 A 
ATOM      7  C   UNL A   1      29.150  26.379  23.876  1.00  0.00     0.173 C 
ATOM      8  N   UNL A   1      30.289  25.526  24.114  1.00  0.00    -0.274 N 
ATOM      9  C   UNL A   1      31.218  25.126  23.204  1.00  0.00     0.123 A 
ATOM     10  N   UNL A   1      30.513  25.068  25.345  1.00  0.00    -0.165 NA
ATOM     11  C   UNL A   1      32.068  24.249  23.860  1.00  0.00     0.092 A 
BRANCH  11  12
ATOM     12  C   UNL A   1      33.180  23.473  23.329  1.00  0.00     0.255 C 
ATOM     13  O   UNL A   1      34.230  24.000  22.971  1.00  0.00    -0.269 OA
ATOM     14  N   UNL A   1      33.137  22.108  23.249  1.00  0.00    -0.352 N 
ATOM     15  H   UNL A   1      33.948  21.718  22.848  1.00  0.00     0.163 HD
BRANCH  14  16
ATOM     16  C   UNL A   1      32.152  21.108  23.626  1.00  0.00     0.121 C 
BRANCH  16  17
ATOM     17  C   UNL A   1      32.529  20.401  24.936  1.00  0.00     0.057 C 
BRANCH  17  18
ATOM     18  C   UNL A   1      32.848  18.939  24.714  1.00  0.00    -0.046 A 
ATOM     19  C   UNL A   1      33.238  18.486  23.445  1.00  0.00     0.004 A 
ATOM     20  C   UNL A   1      32.703  18.006  25.751  1.00  0.00     0.004 A 
ATOM     21  C   UNL A   1      33.453  17.126  23.215  1.00  0.00     0.000 A 
ATOM     22  C   UNL A   1      32.905  16.646  25.514  1.00  0.00     0.000 A 
ATOM     23  C   UNL A   1      33.277  16.206  24.246  1.00  0.00     0.000 A 
ENDBRANCH  17  18
ENDBRANCH  16  17
ENDBRANCH  14  16
ENDBRANCH  11  12
ENDBRANCH   4   6
ENDBRANCH   3   4
ENDBRANCH   2   3
ENDBRANCH   1   2
BRANCH   1  24
ATOM     24  O   UNL A   1      36.051  22.313  24.958  1.00  0.00    -0.374 OA
BRANCH  24  25
ATOM     25  C   UNL A   1      35.963  20.926  25.296  1.00  0.00     0.202 C 
BRANCH  25  26
ATOM     26  C   UNL A   1      37.295  20.178  25.190  1.00  0.00     0.261 C 
BRANCH  26  27
ATOM     27  O   UNL A   1      38.399  21.097  25.103  1.00  0.00    -0.460 OA
BRANCH  27  28
ATOM     28  C   UNL A   1      39.394  20.880  25.996  1.00  0.00     0.338 C 
ATOM     29  O   UNL A   1      39.949  19.818  26.225  1.00  0.00    -0.246 OA
BRANCH  28  30
ATOM     30  C   UNL A   1      39.843  22.163  26.580  1.00  0.00     0.060 A 
ATOM     31  C   UNL A   1      39.257  23.334  26.086  1.00  0.00     0.016 A 
ATOM     32  C   UNL A   1      40.844  22.234  27.556  1.00  0.00     0.016 A 
ATOM     33  C   UNL A   1      39.699  24.580  26.530  1.00  0.00     0.010 A 
ATOM     34  C   UNL A   1      41.290  23.486  27.995  1.00  0.00     0.010 A 
ATOM     35  C   UNL A   1      40.740  24.665  27.463  1.00  0.00    -0.014 A 
BRANCH  35  36
ATOM     36  C   UNL A   1      41.339  25.988  27.768  1.00  0.00     0.031 A 
ATOM     37  C   UNL A   1      42.738  26.280  27.298  1.00  0.00     0.074 A 
ATOM     38  C   UNL A   1      40.633  26.928  28.422  1.00  0.00     0.049 A 
ATOM     39  N   UNL A   1      43.459  27.360  27.457  1.00  0.00    -0.248 NA
ATOM     40  C   UNL A   1      43.412  25.208  26.549  1.00  0.00     0.031 C 
ATOM     41  C   UNL A   1      39.258  26.775  28.895  1.00  0.00     0.029 A 
ATOM     42  N   UNL A   1      40.980  28.200  28.804  1.00  0.00    -0.354 N 
ATOM     43  C   UNL A   1      44.672  27.101  26.827  1.00  0.00     0.074 A 
ATOM     44  C   UNL A   1      44.599  25.749  26.314  1.00  0.00     0.031 C 
ATOM     45  C   UNL A   1      38.880  27.909  29.513  1.00  0.00     0.029 A 
ATOM     46  C   UNL A   1      39.994  28.855  29.505  1.00  0.00     0.049 A 
ATOM     47  H   UNL A   1      41.853  28.606  28.597  1.00  0.00     0.167 HD
ATOM     48  C   UNL A   1      45.744  27.918  26.683  1.00  0.00     0.034 A 
ATOM     49  C   UNL A   1      40.000  30.070  30.090  1.00  0.00     0.034 A 
ATOM     50  C   UNL A   1      45.812  29.259  27.206  1.00  0.00     0.049 A 
ATOM     51  C   UNL A   1      41.234  30.934  29.980  1.00  0.00     0.074 A 
ATOM     52  C   UNL A   1      46.844  30.176  27.102  1.00  0.00     0.029 A 
ATOM     53  N   UNL A   1      44.809  29.874  27.945  1.00  0.00    -0.354 N 
ATOM     54  N   UNL A   1      42.369  30.681  29.369  1.00  0.00    -0.248 NA
ATOM     55  C   UNL A   1      41.185  32.248  30.633  1.00  0.00     0.031 C 
ATOM     56  C   UNL A   1      46.492  31.319  27.828  1.00  0.00     0.029 A 
ATOM     57  C   UNL A   1      45.212  31.143  28.330  1.00  0.00     0.049 A 
ATOM     58  H   UNL A   1      43.940  29.467  28.164  1.00  0.00     0.167 HD
ATOM     59  C   UNL A   1      43.154  31.818  29.539  1.00  0.00     0.074 A 
ATOM     60  C   UNL A   1      42.361  32.760  30.302  1.00  0.00     0.031 C 
ATOM     61  C   UNL A   1      44.414  32.066  29.100  1.00  0.00     0.034 A 
BRANCH  48  62
ATOM     62  C   UNL A   1      46.948  27.356  25.969  1.00  0.00     0.023 A 
ATOM     63  C   UNL A   1      47.967  26.677  26.659  1.00  0.00     0.031 A 
ATOM     64  C   UNL A   1      47.088  27.524  24.581  1.00  0.00     0.131 A 
ATOM     65  C   UNL A   1      49.108  26.242  25.969  1.00  0.00     0.055 A 
ATOM     66  C   UNL A   1      48.196  27.031  23.888  1.00  0.00     0.041 A 
ATOM     67  F   UNL A   1      46.157  28.185  23.876  1.00  0.00    -0.206 F 
ATOM     68  C   UNL A   1      49.219  26.395  24.583  1.00  0.00     0.022 A 
BRANCH  65  69
ATOM     69  S   UNL A   1      50.502  25.576  26.921  1.00  0.00     0.124 S 
ATOM     70  O   UNL A   1      50.872  26.725  27.743  1.00  0.00    -0.237 OA
ATOM     71  O   UNL A   1      49.895  24.454  27.626  1.00  0.00    -0.237 OA
ATOM     72  O   UNL A   1      51.476  25.213  25.893  1.00  0.00    -0.744 OA
ENDBRANCH  65  69
ENDBRANCH  48  62
BRANCH  49  73
ATOM     73  C   UNL A   1      38.822  30.539  30.875  1.00  0.00     0.023 A 
ATOM     74  C   UNL A   1      37.729  31.159  30.249  1.00  0.00     0.031 A 
ATOM     75  C   UNL A   1      38.808  30.432  32.277  1.00  0.00     0.131 A 
ATOM     76  C   UNL A   1      36.691  31.695  31.028  1.00  0.00     0.055 A 
ATOM     77  C   UNL A   1      37.749  30.922  33.043  1.00  0.00     0.041 A 
ATOM     78  F   UNL A   1      39.830  29.850  32.925  1.00  0.00    -0.206 F 
ATOM     79  C   UNL A   1      36.688  31.569  32.419  1.00  0.00     0.022 A 
BRANCH  76  80
ATOM     80  S   UNL A   1      35.383  32.641  30.200  1.00  0.00     0.124 S 
ATOM     81  O   UNL A   1      36.106  33.830  29.764  1.00  0.00    -0.237 OA
ATOM     82  O   UNL A   1      34.964  31.721  29.147  1.00  0.00    -0.237 OA
ATOM     83  O   UNL A   1      34.401  32.861  31.259  1.00  0.00    -0.744 OA
ENDBRANCH  76  80
ENDBRANCH  49  73
BRANCH  61  84
ATOM     84  C   UNL A   1      44.987  33.430  29.398  1.00  0.00     0.023 A 
ATOM     85  C   UNL A   1      45.741  33.678  30.557  1.00  0.00     0.031 A 
ATOM     86  C   UNL A   1      44.763  34.496  28.509  1.00  0.00     0.131 A 
ATOM     87  C   UNL A   1      46.205  34.975  30.822  1.00  0.00     0.055 A 
ATOM     88  C   UNL A   1      45.271  35.773  28.753  1.00  0.00     0.041 A 
ATOM     89  F   UNL A   1      44.051  34.312  27.386  1.00  0.00    -0.206 F 
ATOM     90  C   UNL A   1      45.987  36.021  29.922  1.00  0.00     0.022 A 
BRANCH  87  91
ATOM     91  S   UNL A   1      47.038  35.298  32.402  1.00  0.00     0.124 S 
ATOM     92  O   UNL A   1      46.813  36.728  32.578  1.00  0.00    -0.237 OA
ATOM     93  O   UNL A   1      46.318  34.422  33.320  1.00  0.00    -0.237 OA
ATOM     94  O   UNL A   1      48.425  34.916  32.143  1.00  0.00    -0.744 OA
ENDBRANCH  87  91
ENDBRANCH  61  84
ENDBRANCH  35  36
ENDBRANCH  28  30
ENDBRANCH  27  28
ENDBRANCH  26  27
ENDBRANCH  25  26
ENDBRANCH  24  25
ENDBRANCH   1  24
TORSDOF 21
ENDMDL
