MODEL 1
REMARK VINA RESULT:     -11.6      0.000      0.000
REMARK SMILES CCc1cc(/C=C/C(=O)OCCOCCOC(=O)c2ccc(-c3c4nc(c(-c5cc(S(=O)(=O)[O-])ccc5F)c5ccc([nH]5)c(-c5cc(S(=O)(=O)[O-])ccc5F)c5nc(c(-c6cc(S(=O)(=O)[O-])ccc6F)c6ccc3[nH]6)C=C5)C=C4)cc2)cc(C(=O)c2ccccc2)c1
REMARK SMILES IDX 13 1 12 2 11 3 10 4 8 5 9 6 7 7 6 8 5 9 3 10 4 11 92 12
REMARK SMILES IDX 83 13 82 14 2 15 1 16 84 17 85 18 86 19 87 20 91 21 88 22
REMARK SMILES IDX 90 23 89 24 14 25 15 26 16 27 17 28 18 29 19 30 20 31 81 32
REMARK SMILES IDX 21 33 80 34 22 35 23 36 24 37 74 38 25 39 79 40 73 41 75 42
REMARK SMILES IDX 26 43 78 44 72 45 71 46 27 48 59 49 39 50 58 51 40 52 43 53
REMARK SMILES IDX 57 54 76 55 41 56 42 57 56 59 77 60 44 61 28 62 29 63 37 64
REMARK SMILES IDX 30 65 36 66 38 67 35 68 31 69 32 70 33 71 34 72 60 73 61 74
REMARK SMILES IDX 69 75 62 76 68 77 70 78 67 79 63 80 64 81 65 82 66 83 45 84
REMARK SMILES IDX 46 85 54 86 47 87 53 88 55 89 52 90 48 91 49 92 50 93 51 94
REMARK H PARENT 75 47 43 58
REMARK Flexibility Score: inf
ROOT
ATOM      1  O   UNL A   1      31.058  29.533  24.670  1.00  0.00    -0.374 OA
ENDROOT
BRANCH   1   2
ATOM      2  C   UNL A   1      32.035  28.557  24.302  1.00  0.00     0.202 C 
BRANCH   2   3
ATOM      3  C   UNL A   1      31.482  27.165  23.986  1.00  0.00     0.261 C 
BRANCH   3   4
ATOM      4  O   UNL A   1      31.028  27.088  22.623  1.00  0.00    -0.460 OA
BRANCH   4   5
ATOM      5  C   UNL A   1      31.682  26.199  21.842  1.00  0.00     0.330 C 
ATOM      6  O   UNL A   1      31.785  26.229  20.624  1.00  0.00    -0.247 OA
BRANCH   5   7
ATOM      7  C   UNL A   1      32.401  25.180  22.634  1.00  0.00     0.094 C 
ATOM      8  C   UNL A   1      33.181  24.193  22.163  1.00  0.00     0.015 C 
BRANCH   8   9
ATOM      9  C   UNL A   1      33.797  23.183  23.045  1.00  0.00    -0.024 A 
ATOM     10  C   UNL A   1      35.751  22.286  24.221  1.00  0.00    -0.047 A 
ATOM     11  C   UNL A   1      35.151  23.261  23.413  1.00  0.00     0.011 A 
ATOM     12  C   UNL A   1      34.962  21.235  24.700  1.00  0.00     0.016 A 
ATOM     13  C   UNL A   1      33.594  21.168  24.403  1.00  0.00     0.023 A 
ATOM     14  C   UNL A   1      33.020  22.142  23.570  1.00  0.00     0.020 A 
BRANCH  10  15
ATOM     15  C   UNL A   1      37.208  22.402  24.602  1.00  0.00     0.032 C 
ATOM     16  C   UNL A   1      37.470  23.359  25.758  1.00  0.00     0.009 C 
ENDBRANCH  10  15
BRANCH  13  17
ATOM     17  C   UNL A   1      32.736  20.050  24.903  1.00  0.00     0.193 C 
ATOM     18  O   UNL A   1      31.660  20.292  25.442  1.00  0.00    -0.289 OA
BRANCH  17  19
ATOM     19  C   UNL A   1      33.117  18.631  24.705  1.00  0.00     0.022 A 
ATOM     20  C   UNL A   1      32.897  17.733  25.756  1.00  0.00     0.012 A 
ATOM     21  C   UNL A   1      33.673  18.181  23.503  1.00  0.00     0.012 A 
ATOM     22  C   UNL A   1      33.178  16.378  25.583  1.00  0.00     0.001 A 
ATOM     23  C   UNL A   1      33.946  16.822  23.331  1.00  0.00     0.001 A 
ATOM     24  C   UNL A   1      33.690  15.922  24.367  1.00  0.00     0.000 A 
ENDBRANCH  17  19
ENDBRANCH  13  17
ENDBRANCH   8   9
ENDBRANCH   5   7
ENDBRANCH   4   5
ENDBRANCH   3   4
ENDBRANCH   2   3
ENDBRANCH   1   2
BRANCH   1  25
ATOM     25  C   UNL A   1      31.415  30.429  25.724  1.00  0.00     0.202 C 
BRANCH  25  26
ATOM     26  C   UNL A   1      32.897  30.443  26.121  1.00  0.00     0.261 C 
BRANCH  26  27
ATOM     27  O   UNL A   1      33.078  30.777  27.510  1.00  0.00    -0.460 OA
BRANCH  27  28
ATOM     28  C   UNL A   1      33.972  31.767  27.748  1.00  0.00     0.338 C 
ATOM     29  O   UNL A   1      33.732  32.966  27.825  1.00  0.00    -0.246 OA
BRANCH  28  30
ATOM     30  C   UNL A   1      35.283  31.191  28.103  1.00  0.00     0.060 A 
ATOM     31  C   UNL A   1      35.334  29.819  28.383  1.00  0.00     0.016 A 
ATOM     32  C   UNL A   1      36.433  31.978  28.212  1.00  0.00     0.016 A 
ATOM     33  C   UNL A   1      36.522  29.237  28.819  1.00  0.00     0.010 A 
ATOM     34  C   UNL A   1      37.625  31.392  28.658  1.00  0.00     0.010 A 
ATOM     35  C   UNL A   1      37.667  30.026  28.995  1.00  0.00    -0.014 A 
BRANCH  35  36
ATOM     36  C   UNL A   1      38.858  29.449  29.667  1.00  0.00     0.031 A 
ATOM     37  C   UNL A   1      39.243  29.959  31.031  1.00  0.00     0.074 A 
ATOM     38  C   UNL A   1      39.566  28.462  29.090  1.00  0.00     0.049 A 
ATOM     39  N   UNL A   1      40.255  29.627  31.789  1.00  0.00    -0.248 NA
ATOM     40  C   UNL A   1      38.367  30.988  31.611  1.00  0.00     0.031 C 
ATOM     41  C   UNL A   1      39.265  27.855  27.795  1.00  0.00     0.029 A 
ATOM     42  N   UNL A   1      40.689  27.798  29.519  1.00  0.00    -0.354 N 
ATOM     43  C   UNL A   1      40.142  30.406  32.936  1.00  0.00     0.074 A 
ATOM     44  C   UNL A   1      38.983  31.255  32.752  1.00  0.00     0.031 C 
ATOM     45  C   UNL A   1      40.187  26.914  27.529  1.00  0.00     0.029 A 
ATOM     46  C   UNL A   1      41.164  26.875  28.616  1.00  0.00     0.049 A 
ATOM     47  H   UNL A   1      41.115  27.967  30.390  1.00  0.00     0.167 HD
ATOM     48  C   UNL A   1      40.925  30.405  34.044  1.00  0.00     0.034 A 
ATOM     49  C   UNL A   1      42.272  26.108  28.652  1.00  0.00     0.034 A 
ATOM     50  C   UNL A   1      42.084  29.561  34.206  1.00  0.00     0.049 A 
ATOM     51  C   UNL A   1      43.179  26.187  29.857  1.00  0.00     0.074 A 
ATOM     52  C   UNL A   1      42.939  29.469  35.290  1.00  0.00     0.029 A 
ATOM     53  N   UNL A   1      42.562  28.673  33.250  1.00  0.00    -0.354 N 
ATOM     54  N   UNL A   1      43.056  26.919  30.941  1.00  0.00    -0.248 NA
ATOM     55  C   UNL A   1      44.373  25.329  29.847  1.00  0.00     0.031 C 
ATOM     56  C   UNL A   1      43.971  28.582  34.963  1.00  0.00     0.029 A 
ATOM     57  C   UNL A   1      43.718  28.056  33.706  1.00  0.00     0.049 A 
ATOM     58  H   UNL A   1      42.141  28.504  32.376  1.00  0.00     0.167 HD
ATOM     59  C   UNL A   1      44.138  26.583  31.753  1.00  0.00     0.074 A 
ATOM     60  C   UNL A   1      44.895  25.576  31.038  1.00  0.00     0.031 C 
ATOM     61  C   UNL A   1      44.471  27.059  32.980  1.00  0.00     0.034 A 
BRANCH  48  62
ATOM     62  C   UNL A   1      40.579  31.387  35.137  1.00  0.00     0.023 A 
ATOM     63  C   UNL A   1      39.569  31.124  36.079  1.00  0.00     0.031 A 
ATOM     64  C   UNL A   1      41.249  32.621  35.219  1.00  0.00     0.131 A 
ATOM     65  C   UNL A   1      39.210  32.107  37.014  1.00  0.00     0.055 A 
ATOM     66  C   UNL A   1      40.941  33.563  36.203  1.00  0.00     0.041 A 
ATOM     67  F   UNL A   1      42.207  32.940  34.334  1.00  0.00    -0.206 F 
ATOM     68  C   UNL A   1      39.905  33.315  37.098  1.00  0.00     0.022 A 
BRANCH  65  69
ATOM     69  S   UNL A   1      37.726  31.843  38.024  1.00  0.00     0.124 S 
ATOM     70  O   UNL A   1      37.385  30.461  37.694  1.00  0.00    -0.237 OA
ATOM     71  O   UNL A   1      38.218  32.074  39.377  1.00  0.00    -0.237 OA
ATOM     72  O   UNL A   1      36.786  32.845  37.522  1.00  0.00    -0.744 OA
ENDBRANCH  65  69
ENDBRANCH  48  62
BRANCH  49  73
ATOM     73  C   UNL A   1      42.618  25.226  27.501  1.00  0.00     0.023 A 
ATOM     74  C   UNL A   1      42.130  23.913  27.414  1.00  0.00     0.031 A 
ATOM     75  C   UNL A   1      43.494  25.670  26.493  1.00  0.00     0.131 A 
ATOM     76  C   UNL A   1      42.554  23.076  26.371  1.00  0.00     0.055 A 
ATOM     77  C   UNL A   1      43.873  24.850  25.429  1.00  0.00     0.041 A 
ATOM     78  F   UNL A   1      43.994  26.916  26.529  1.00  0.00    -0.206 F 
ATOM     79  C   UNL A   1      43.411  23.539  25.371  1.00  0.00     0.022 A 
BRANCH  76  80
ATOM     80  S   UNL A   1      42.037  21.336  26.387  1.00  0.00     0.124 S 
ATOM     81  O   UNL A   1      42.325  20.953  27.764  1.00  0.00    -0.237 OA
ATOM     82  O   UNL A   1      40.626  21.438  26.030  1.00  0.00    -0.237 OA
ATOM     83  O   UNL A   1      42.890  20.718  25.375  1.00  0.00    -0.744 OA
ENDBRANCH  76  80
ENDBRANCH  49  73
BRANCH  61  84
ATOM     84  C   UNL A   1      45.683  26.453  33.648  1.00  0.00     0.023 A 
ATOM     85  C   UNL A   1      45.600  25.282  34.420  1.00  0.00     0.031 A 
ATOM     86  C   UNL A   1      46.942  27.066  33.511  1.00  0.00     0.131 A 
ATOM     87  C   UNL A   1      46.743  24.791  35.072  1.00  0.00     0.055 A 
ATOM     88  C   UNL A   1      48.086  26.540  34.111  1.00  0.00     0.041 A 
ATOM     89  F   UNL A   1      47.081  28.189  32.787  1.00  0.00    -0.206 F 
ATOM     90  C   UNL A   1      47.988  25.403  34.907  1.00  0.00     0.022 A 
BRANCH  87  91
ATOM     91  S   UNL A   1      46.565  23.390  36.211  1.00  0.00     0.124 S 
ATOM     92  O   UNL A   1      47.695  22.547  35.833  1.00  0.00    -0.237 OA
ATOM     93  O   UNL A   1      46.660  24.036  37.516  1.00  0.00    -0.237 OA
ATOM     94  O   UNL A   1      45.248  22.847  35.884  1.00  0.00    -0.744 OA
ENDBRANCH  87  91
ENDBRANCH  61  84
ENDBRANCH  35  36
ENDBRANCH  28  30
ENDBRANCH  27  28
ENDBRANCH  26  27
ENDBRANCH  25  26
ENDBRANCH   1  25
TORSDOF 21
ENDMDL
MODEL 2
REMARK VINA RESULT:     -11.4      5.204      7.807
REMARK SMILES CCc1cc(/C=C/C(=O)OCCOCCOC(=O)c2ccc(-c3c4nc(c(-c5cc(S(=O)(=O)[O-])ccc5F)c5ccc([nH]5)c(-c5cc(S(=O)(=O)[O-])ccc5F)c5nc(c(-c6cc(S(=O)(=O)[O-])ccc6F)c6ccc3[nH]6)C=C5)C=C4)cc2)cc(C(=O)c2ccccc2)c1
REMARK SMILES IDX 13 1 12 2 11 3 10 4 8 5 9 6 7 7 6 8 5 9 3 10 4 11 92 12
REMARK SMILES IDX 83 13 82 14 2 15 1 16 84 17 85 18 86 19 87 20 91 21 88 22
REMARK SMILES IDX 90 23 89 24 14 25 15 26 16 27 17 28 18 29 19 30 20 31 81 32
REMARK SMILES IDX 21 33 80 34 22 35 23 36 24 37 74 38 25 39 79 40 73 41 75 42
REMARK SMILES IDX 26 43 78 44 72 45 71 46 27 48 59 49 39 50 58 51 40 52 43 53
REMARK SMILES IDX 57 54 76 55 41 56 42 57 56 59 77 60 44 61 28 62 29 63 37 64
REMARK SMILES IDX 30 65 36 66 38 67 35 68 31 69 32 70 33 71 34 72 60 73 61 74
REMARK SMILES IDX 69 75 62 76 68 77 70 78 67 79 63 80 64 81 65 82 66 83 45 84
REMARK SMILES IDX 46 85 54 86 47 87 53 88 55 89 52 90 48 91 49 92 50 93 51 94
REMARK H PARENT 75 47 43 58
REMARK Flexibility Score: inf
ROOT
ATOM      1  O   UNL A   1      33.141  35.103  32.414  1.00  0.00    -0.374 OA
ENDROOT
BRANCH   1   2
ATOM      2  C   UNL A   1      34.250  35.806  32.978  1.00  0.00     0.202 C 
BRANCH   2   3
ATOM      3  C   UNL A   1      35.541  34.994  33.110  1.00  0.00     0.261 C 
BRANCH   3   4
ATOM      4  O   UNL A   1      35.308  33.769  33.829  1.00  0.00    -0.460 OA
BRANCH   4   5
ATOM      5  C   UNL A   1      36.308  33.378  34.649  1.00  0.00     0.330 C 
ATOM      6  O   UNL A   1      36.604  33.867  35.729  1.00  0.00    -0.247 OA
BRANCH   5   7
ATOM      7  C   UNL A   1      36.993  32.164  34.158  1.00  0.00     0.094 C 
ATOM      8  C   UNL A   1      38.127  31.626  34.638  1.00  0.00     0.015 C 
BRANCH   8   9
ATOM      9  C   UNL A   1      38.765  30.446  34.023  1.00  0.00    -0.024 A 
ATOM     10  C   UNL A   1      38.737  28.609  32.402  1.00  0.00    -0.047 A 
ATOM     11  C   UNL A   1      38.153  29.751  32.966  1.00  0.00     0.011 A 
ATOM     12  C   UNL A   1      39.979  28.183  32.885  1.00  0.00     0.016 A 
ATOM     13  C   UNL A   1      40.642  28.896  33.894  1.00  0.00     0.023 A 
ATOM     14  C   UNL A   1      40.026  30.023  34.461  1.00  0.00     0.020 A 
BRANCH  10  15
ATOM     15  C   UNL A   1      38.055  27.887  31.264  1.00  0.00     0.032 C 
ATOM     16  C   UNL A   1      38.944  26.872  30.556  1.00  0.00     0.009 C 
ENDBRANCH  10  15
BRANCH  13  17
ATOM     17  C   UNL A   1      41.968  28.454  34.425  1.00  0.00     0.193 C 
ATOM     18  O   UNL A   1      42.818  29.285  34.732  1.00  0.00    -0.289 OA
BRANCH  17  19
ATOM     19  C   UNL A   1      42.271  27.021  34.661  1.00  0.00     0.022 A 
ATOM     20  C   UNL A   1      41.409  26.288  35.483  1.00  0.00     0.012 A 
ATOM     21  C   UNL A   1      43.382  26.401  34.078  1.00  0.00     0.012 A 
ATOM     22  C   UNL A   1      41.622  24.923  35.673  1.00  0.00     0.001 A 
ATOM     23  C   UNL A   1      43.588  25.032  34.265  1.00  0.00     0.001 A 
ATOM     24  C   UNL A   1      42.704  24.294  35.054  1.00  0.00     0.000 A 
ENDBRANCH  17  19
ENDBRANCH  13  17
ENDBRANCH   8   9
ENDBRANCH   5   7
ENDBRANCH   4   5
ENDBRANCH   3   4
ENDBRANCH   2   3
ENDBRANCH   1   2
BRANCH   1  25
ATOM     25  C   UNL A   1      32.597  35.635  31.205  1.00  0.00     0.202 C 
BRANCH  25  26
ATOM     26  C   UNL A   1      33.570  36.422  30.318  1.00  0.00     0.261 C 
BRANCH  26  27
ATOM     27  O   UNL A   1      33.742  35.804  29.029  1.00  0.00    -0.460 OA
BRANCH  27  28
ATOM     28  C   UNL A   1      33.539  34.465  29.005  1.00  0.00     0.338 C 
ATOM     29  O   UNL A   1      32.485  33.888  28.764  1.00  0.00    -0.246 OA
BRANCH  28  30
ATOM     30  C   UNL A   1      34.827  33.755  29.124  1.00  0.00     0.060 A 
ATOM     31  C   UNL A   1      34.938  32.778  30.123  1.00  0.00     0.016 A 
ATOM     32  C   UNL A   1      35.924  34.068  28.316  1.00  0.00     0.016 A 
ATOM     33  C   UNL A   1      36.158  32.144  30.350  1.00  0.00     0.010 A 
ATOM     34  C   UNL A   1      37.151  33.434  28.551  1.00  0.00     0.010 A 
ATOM     35  C   UNL A   1      37.283  32.494  29.590  1.00  0.00    -0.014 A 
BRANCH  35  36
ATOM     36  C   UNL A   1      38.620  31.981  29.982  1.00  0.00     0.031 A 
ATOM     37  C   UNL A   1      39.365  32.669  31.095  1.00  0.00     0.074 A 
ATOM     38  C   UNL A   1      39.149  30.901  29.381  1.00  0.00     0.049 A 
ATOM     39  N   UNL A   1      40.552  32.417  31.582  1.00  0.00    -0.248 NA
ATOM     40  C   UNL A   1      38.676  33.797  31.739  1.00  0.00     0.031 C 
ATOM     41  C   UNL A   1      38.503  30.125  28.323  1.00  0.00     0.029 A 
ATOM     42  N   UNL A   1      40.352  30.270  29.573  1.00  0.00    -0.354 N 
ATOM     43  C   UNL A   1      40.756  33.355  32.589  1.00  0.00     0.074 A 
ATOM     44  C   UNL A   1      39.584  34.205  32.613  1.00  0.00     0.031 C 
ATOM     45  C   UNL A   1      39.324  29.127  27.952  1.00  0.00     0.029 A 
ATOM     46  C   UNL A   1      40.566  29.213  28.719  1.00  0.00     0.049 A 
ATOM     47  H   UNL A   1      41.003  30.548  30.258  1.00  0.00     0.167 HD
ATOM     48  C   UNL A   1      41.817  33.487  33.424  1.00  0.00     0.034 A 
ATOM     49  C   UNL A   1      41.647  28.424  28.557  1.00  0.00     0.034 A 
ATOM     50  C   UNL A   1      42.984  32.638  33.379  1.00  0.00     0.049 A 
ATOM     51  C   UNL A   1      42.854  28.647  29.438  1.00  0.00     0.074 A 
ATOM     52  C   UNL A   1      44.108  32.675  34.185  1.00  0.00     0.029 A 
ATOM     53  N   UNL A   1      43.184  31.609  32.469  1.00  0.00    -0.354 N 
ATOM     54  N   UNL A   1      43.031  29.529  30.394  1.00  0.00    -0.248 NA
ATOM     55  C   UNL A   1      44.005  27.758  29.221  1.00  0.00     0.031 C 
ATOM     56  C   UNL A   1      45.017  31.719  33.717  1.00  0.00     0.029 A 
ATOM     57  C   UNL A   1      44.427  31.028  32.671  1.00  0.00     0.049 A 
ATOM     58  H   UNL A   1      42.538  31.331  31.780  1.00  0.00     0.167 HD
ATOM     59  C   UNL A   1      44.300  29.279  30.913  1.00  0.00     0.074 A 
ATOM     60  C   UNL A   1      44.837  28.157  30.172  1.00  0.00     0.031 C 
ATOM     61  C   UNL A   1      44.957  29.914  31.918  1.00  0.00     0.034 A 
BRANCH  48  62
ATOM     62  C   UNL A   1      41.781  34.626  34.415  1.00  0.00     0.023 A 
ATOM     63  C   UNL A   1      41.152  34.501  35.666  1.00  0.00     0.031 A 
ATOM     64  C   UNL A   1      42.357  35.867  34.090  1.00  0.00     0.131 A 
ATOM     65  C   UNL A   1      41.051  35.615  36.514  1.00  0.00     0.055 A 
ATOM     66  C   UNL A   1      42.323  36.948  34.972  1.00  0.00     0.041 A 
ATOM     67  F   UNL A   1      42.951  36.054  32.901  1.00  0.00    -0.206 F 
ATOM     68  C   UNL A   1      41.654  36.830  36.186  1.00  0.00     0.022 A 
BRANCH  65  69
ATOM     69  S   UNL A   1      39.997  35.493  37.986  1.00  0.00     0.124 S 
ATOM     70  O   UNL A   1      39.093  34.408  37.613  1.00  0.00    -0.237 OA
ATOM     71  O   UNL A   1      40.958  35.190  39.039  1.00  0.00    -0.237 OA
ATOM     72  O   UNL A   1      39.373  36.812  38.071  1.00  0.00    -0.744 OA
ENDBRANCH  65  69
ENDBRANCH  48  62
BRANCH  49  73
ATOM     73  C   UNL A   1      41.667  27.377  27.496  1.00  0.00     0.023 A 
ATOM     74  C   UNL A   1      41.245  26.064  27.758  1.00  0.00     0.031 A 
ATOM     75  C   UNL A   1      42.165  27.664  26.211  1.00  0.00     0.131 A 
ATOM     76  C   UNL A   1      41.370  25.078  26.768  1.00  0.00     0.055 A 
ATOM     77  C   UNL A   1      42.238  26.691  25.213  1.00  0.00     0.041 A 
ATOM     78  F   UNL A   1      42.585  28.902  25.907  1.00  0.00    -0.206 F 
ATOM     79  C   UNL A   1      41.851  25.385  25.494  1.00  0.00     0.022 A 
BRANCH  76  80
ATOM     80  S   UNL A   1      40.974  23.359  27.198  1.00  0.00     0.124 S 
ATOM     81  O   UNL A   1      39.523  23.412  27.325  1.00  0.00    -0.237 OA
ATOM     82  O   UNL A   1      41.493  22.632  26.044  1.00  0.00    -0.237 OA
ATOM     83  O   UNL A   1      41.704  23.145  28.446  1.00  0.00    -0.744 OA
ENDBRANCH  76  80
ENDBRANCH  49  73
BRANCH  61  84
ATOM     84  C   UNL A   1      46.314  29.372  32.304  1.00  0.00     0.023 A 
ATOM     85  C   UNL A   1      46.464  28.354  33.260  1.00  0.00     0.031 A 
ATOM     86  C   UNL A   1      47.476  29.891  31.704  1.00  0.00     0.131 A 
ATOM     87  C   UNL A   1      47.749  27.925  33.631  1.00  0.00     0.055 A 
ATOM     88  C   UNL A   1      48.747  29.419  32.031  1.00  0.00     0.041 A 
ATOM     89  F   UNL A   1      47.393  30.867  30.784  1.00  0.00    -0.206 F 
ATOM     90  C   UNL A   1      48.890  28.439  33.009  1.00  0.00     0.022 A 
BRANCH  87  91
ATOM     91  S   UNL A   1      47.916  26.748  35.001  1.00  0.00     0.124 S 
ATOM     92  O   UNL A   1      46.928  25.732  34.651  1.00  0.00    -0.237 OA
ATOM     93  O   UNL A   1      49.314  26.342  34.895  1.00  0.00    -0.237 OA
ATOM     94  O   UNL A   1      47.592  27.547  36.181  1.00  0.00    -0.744 OA
ENDBRANCH  87  91
ENDBRANCH  61  84
ENDBRANCH  35  36
ENDBRANCH  28  30
ENDBRANCH  27  28
ENDBRANCH  26  27
ENDBRANCH  25  26
ENDBRANCH   1  25
TORSDOF 21
ENDMDL
MODEL 3
REMARK VINA RESULT:     -11.0      2.457      2.779
REMARK SMILES CCc1cc(/C=C/C(=O)OCCOCCOC(=O)c2ccc(-c3c4nc(c(-c5cc(S(=O)(=O)[O-])ccc5F)c5ccc([nH]5)c(-c5cc(S(=O)(=O)[O-])ccc5F)c5nc(c(-c6cc(S(=O)(=O)[O-])ccc6F)c6ccc3[nH]6)C=C5)C=C4)cc2)cc(C(=O)c2ccccc2)c1
REMARK SMILES IDX 13 1 12 2 11 3 10 4 8 5 9 6 7 7 6 8 5 9 3 10 4 11 92 12
REMARK SMILES IDX 83 13 82 14 2 15 1 16 84 17 85 18 86 19 87 20 91 21 88 22
REMARK SMILES IDX 90 23 89 24 14 25 15 26 16 27 17 28 18 29 19 30 20 31 81 32
REMARK SMILES IDX 21 33 80 34 22 35 23 36 24 37 74 38 25 39 79 40 73 41 75 42
REMARK SMILES IDX 26 43 78 44 72 45 71 46 27 48 59 49 39 50 58 51 40 52 43 53
REMARK SMILES IDX 57 54 76 55 41 56 42 57 56 59 77 60 44 61 28 62 29 63 37 64
REMARK SMILES IDX 30 65 36 66 38 67 35 68 31 69 32 70 33 71 34 72 60 73 61 74
REMARK SMILES IDX 69 75 62 76 68 77 70 78 67 79 63 80 64 81 65 82 66 83 45 84
REMARK SMILES IDX 46 85 54 86 47 87 53 88 55 89 52 90 48 91 49 92 50 93 51 94
REMARK H PARENT 75 47 43 58
REMARK Flexibility Score: inf
ROOT
ATOM      1  O   UNL A   1      31.285  28.660  24.884  1.00  0.00    -0.374 OA
ENDROOT
BRANCH   1   2
ATOM      2  C   UNL A   1      31.296  28.645  23.455  1.00  0.00     0.202 C 
BRANCH   2   3
ATOM      3  C   UNL A   1      32.373  27.763  22.818  1.00  0.00     0.261 C 
BRANCH   3   4
ATOM      4  O   UNL A   1      31.791  26.590  22.222  1.00  0.00    -0.460 OA
BRANCH   4   5
ATOM      5  C   UNL A   1      32.662  25.757  21.608  1.00  0.00     0.330 C 
ATOM      6  O   UNL A   1      33.137  25.889  20.489  1.00  0.00    -0.247 OA
BRANCH   5   7
ATOM      7  C   UNL A   1      33.109  24.662  22.492  1.00  0.00     0.094 C 
ATOM      8  C   UNL A   1      34.325  24.091  22.520  1.00  0.00     0.015 C 
BRANCH   8   9
ATOM      9  C   UNL A   1      34.643  22.950  23.400  1.00  0.00    -0.024 A 
ATOM     10  C   UNL A   1      36.248  21.675  24.744  1.00  0.00    -0.047 A 
ATOM     11  C   UNL A   1      35.931  22.776  23.936  1.00  0.00     0.011 A 
ATOM     12  C   UNL A   1      35.239  20.756  25.050  1.00  0.00     0.016 A 
ATOM     13  C   UNL A   1      33.930  20.941  24.584  1.00  0.00     0.023 A 
ATOM     14  C   UNL A   1      33.642  22.037  23.755  1.00  0.00     0.020 A 
BRANCH  10  15
ATOM     15  C   UNL A   1      37.641  21.520  25.307  1.00  0.00     0.032 C 
ATOM     16  C   UNL A   1      38.283  20.172  25.001  1.00  0.00     0.009 C 
ENDBRANCH  10  15
BRANCH  13  17
ATOM     17  C   UNL A   1      32.841  19.967  24.898  1.00  0.00     0.193 C 
ATOM     18  O   UNL A   1      31.723  20.371  25.206  1.00  0.00    -0.289 OA
BRANCH  17  19
ATOM     19  C   UNL A   1      33.049  18.504  24.781  1.00  0.00     0.022 A 
ATOM     20  C   UNL A   1      32.654  17.691  25.849  1.00  0.00     0.012 A 
ATOM     21  C   UNL A   1      33.616  17.932  23.637  1.00  0.00     0.012 A 
ATOM     22  C   UNL A   1      32.771  16.304  25.748  1.00  0.00     0.001 A 
ATOM     23  C   UNL A   1      33.724  16.544  23.536  1.00  0.00     0.001 A 
ATOM     24  C   UNL A   1      33.294  15.732  24.587  1.00  0.00     0.000 A 
ENDBRANCH  17  19
ENDBRANCH  13  17
ENDBRANCH   8   9
ENDBRANCH   5   7
ENDBRANCH   4   5
ENDBRANCH   3   4
ENDBRANCH   2   3
ENDBRANCH   1   2
BRANCH   1  25
ATOM     25  C   UNL A   1      31.650  29.889  25.513  1.00  0.00     0.202 C 
BRANCH  25  26
ATOM     26  C   UNL A   1      33.119  30.017  25.938  1.00  0.00     0.261 C 
BRANCH  26  27
ATOM     27  O   UNL A   1      33.249  30.287  27.346  1.00  0.00    -0.460 OA
BRANCH  27  28
ATOM     28  C   UNL A   1      33.962  31.398  27.652  1.00  0.00     0.338 C 
ATOM     29  O   UNL A   1      33.545  32.550  27.682  1.00  0.00    -0.246 OA
BRANCH  28  30
ATOM     30  C   UNL A   1      35.301  31.021  28.144  1.00  0.00     0.060 A 
ATOM     31  C   UNL A   1      35.476  29.709  28.604  1.00  0.00     0.016 A 
ATOM     32  C   UNL A   1      36.353  31.939  28.206  1.00  0.00     0.016 A 
ATOM     33  C   UNL A   1      36.688  29.322  29.172  1.00  0.00     0.010 A 
ATOM     34  C   UNL A   1      37.569  31.549  28.784  1.00  0.00     0.010 A 
ATOM     35  C   UNL A   1      37.731  30.250  29.299  1.00  0.00    -0.014 A 
BRANCH  35  36
ATOM     36  C   UNL A   1      38.930  29.898  30.100  1.00  0.00     0.031 A 
ATOM     37  C   UNL A   1      39.072  30.468  31.487  1.00  0.00     0.074 A 
ATOM     38  C   UNL A   1      39.862  29.058  29.616  1.00  0.00     0.049 A 
ATOM     39  N   UNL A   1      40.043  30.324  32.351  1.00  0.00    -0.248 NA
ATOM     40  C   UNL A   1      37.968  31.318  31.957  1.00  0.00     0.031 C 
ATOM     41  C   UNL A   1      39.812  28.409  28.306  1.00  0.00     0.029 A 
ATOM     42  N   UNL A   1      41.035  28.609  30.169  1.00  0.00    -0.354 N 
ATOM     43  C   UNL A   1      39.672  31.067  33.467  1.00  0.00     0.074 A 
ATOM     44  C   UNL A   1      38.404  31.691  33.151  1.00  0.00     0.031 C 
ATOM     45  C   UNL A   1      40.912  27.652  28.153  1.00  0.00     0.029 A 
ATOM     46  C   UNL A   1      41.761  27.789  29.335  1.00  0.00     0.049 A 
ATOM     47  H   UNL A   1      41.331  28.851  31.076  1.00  0.00     0.167 HD
ATOM     48  C   UNL A   1      40.323  31.206  34.649  1.00  0.00     0.034 A 
ATOM     49  C   UNL A   1      42.981  27.237  29.498  1.00  0.00     0.034 A 
ATOM     50  C   UNL A   1      41.592  30.586  34.944  1.00  0.00     0.049 A 
ATOM     51  C   UNL A   1      43.728  27.478  30.789  1.00  0.00     0.074 A 
ATOM     52  C   UNL A   1      42.332  30.650  36.112  1.00  0.00     0.029 A 
ATOM     53  N   UNL A   1      42.320  29.802  34.057  1.00  0.00    -0.354 N 
ATOM     54  N   UNL A   1      43.361  28.173  31.841  1.00  0.00    -0.248 NA
ATOM     55  C   UNL A   1      45.051  26.851  30.915  1.00  0.00     0.031 C 
ATOM     56  C   UNL A   1      43.536  29.966  35.907  1.00  0.00     0.029 A 
ATOM     57  C   UNL A   1      43.515  29.406  34.640  1.00  0.00     0.049 A 
ATOM     58  H   UNL A   1      42.030  29.562  33.148  1.00  0.00     0.167 HD
ATOM     59  C   UNL A   1      44.396  28.038  32.765  1.00  0.00     0.074 A 
ATOM     60  C   UNL A   1      45.393  27.187  32.150  1.00  0.00     0.031 C 
ATOM     61  C   UNL A   1      44.507  28.564  34.012  1.00  0.00     0.034 A 
BRANCH  48  62
ATOM     62  C   UNL A   1      39.692  32.107  35.684  1.00  0.00     0.023 A 
ATOM     63  C   UNL A   1      38.956  31.593  36.765  1.00  0.00     0.031 A 
ATOM     64  C   UNL A   1      39.804  33.504  35.570  1.00  0.00     0.131 A 
ATOM     65  C   UNL A   1      38.301  32.468  37.646  1.00  0.00     0.055 A 
ATOM     66  C   UNL A   1      39.216  34.368  36.495  1.00  0.00     0.041 A 
ATOM     67  F   UNL A   1      40.475  34.055  34.545  1.00  0.00    -0.206 F 
ATOM     68  C   UNL A   1      38.446  33.851  37.532  1.00  0.00     0.022 A 
BRANCH  65  69
ATOM     69  S   UNL A   1      37.139  31.774  38.854  1.00  0.00     0.124 S 
ATOM     70  O   UNL A   1      36.011  32.697  38.743  1.00  0.00    -0.237 OA
ATOM     71  O   UNL A   1      36.915  30.428  38.342  1.00  0.00    -0.237 OA
ATOM     72  O   UNL A   1      37.871  31.849  40.117  1.00  0.00    -0.744 OA
ENDBRANCH  65  69
ENDBRANCH  48  62
BRANCH  49  73
ATOM     73  C   UNL A   1      43.599  26.435  28.403  1.00  0.00     0.023 A 
ATOM     74  C   UNL A   1      44.579  26.983  27.561  1.00  0.00     0.031 A 
ATOM     75  C   UNL A   1      43.174  25.118  28.149  1.00  0.00     0.131 A 
ATOM     76  C   UNL A   1      45.067  26.236  26.478  1.00  0.00     0.055 A 
ATOM     77  C   UNL A   1      43.702  24.360  27.102  1.00  0.00     0.041 A 
ATOM     78  F   UNL A   1      42.237  24.546  28.923  1.00  0.00    -0.206 F 
ATOM     79  C   UNL A   1      44.646  24.924  26.252  1.00  0.00     0.022 A 
BRANCH  76  80
ATOM     80  S   UNL A   1      46.205  27.037  25.313  1.00  0.00     0.124 S 
ATOM     81  O   UNL A   1      46.564  25.927  24.438  1.00  0.00    -0.237 OA
ATOM     82  O   UNL A   1      45.358  28.070  24.726  1.00  0.00    -0.237 OA
ATOM     83  O   UNL A   1      47.280  27.529  26.171  1.00  0.00    -0.744 OA
ENDBRANCH  76  80
ENDBRANCH  49  73
BRANCH  61  84
ATOM     84  C   UNL A   1      45.733  28.187  34.811  1.00  0.00     0.023 A 
ATOM     85  C   UNL A   1      46.907  28.959  34.782  1.00  0.00     0.031 A 
ATOM     86  C   UNL A   1      45.723  27.029  35.611  1.00  0.00     0.131 A 
ATOM     87  C   UNL A   1      48.041  28.535  35.494  1.00  0.00     0.055 A 
ATOM     88  C   UNL A   1      46.834  26.645  36.363  1.00  0.00     0.041 A 
ATOM     89  F   UNL A   1      44.629  26.252  35.675  1.00  0.00    -0.206 F 
ATOM     90  C   UNL A   1      48.005  27.393  36.297  1.00  0.00     0.022 A 
BRANCH  87  91
ATOM     91  S   UNL A   1      49.595  29.448  35.285  1.00  0.00     0.124 S 
ATOM     92  O   UNL A   1      49.159  30.831  35.449  1.00  0.00    -0.237 OA
ATOM     93  O   UNL A   1      50.421  28.908  36.361  1.00  0.00    -0.237 OA
ATOM     94  O   UNL A   1      50.025  29.089  33.935  1.00  0.00    -0.744 OA
ENDBRANCH  87  91
ENDBRANCH  61  84
ENDBRANCH  35  36
ENDBRANCH  28  30
ENDBRANCH  27  28
ENDBRANCH  26  27
ENDBRANCH  25  26
ENDBRANCH   1  25
TORSDOF 21
ENDMDL
