MODEL 1
REMARK VINA RESULT:     -11.2      0.000      0.000
REMARK SMILES O=C(OCCOCCOC(=O)c1ccc(-c2c3nc(c(-c4cc(S(=O)(=O)[O-])ccc4F)c4ccc([nH]4)c(-c4cc(S(=O)(=O)[O-])ccc4F)c4nc(c(-c5cc(S(=O)(=O)[O-])ccc5F)c5ccc2[nH]5)C=C4)C=C3)cc1)c1ccc(C[C@H]2SC(=O)N(c3ccccc3)C2=O)cc1
REMARK SMILES IDX 6 1 5 2 4 3 3 4 2 5 1 6 75 7 76 8 94 9 77 10 93 11 78 12
REMARK SMILES IDX 79 13 80 14 81 15 91 16 82 17 84 18 92 19 83 20 85 21 86 22
REMARK SMILES IDX 90 23 87 24 89 25 88 26 7 27 8 28 9 29 10 30 11 31 12 32
REMARK SMILES IDX 13 33 74 34 14 35 73 36 15 37 16 38 17 39 67 40 18 41 72 42
REMARK SMILES IDX 66 43 68 44 19 45 71 46 65 47 64 48 20 50 52 51 32 52 51 53
REMARK SMILES IDX 33 54 36 55 50 56 69 57 34 58 35 59 49 61 70 62 37 63 21 64
REMARK SMILES IDX 22 65 30 66 23 67 29 68 31 69 28 70 24 71 25 72 26 73 27 74
REMARK SMILES IDX 53 75 54 76 62 77 55 78 61 79 63 80 60 81 56 82 57 83 58 84
REMARK SMILES IDX 59 85 38 86 39 87 47 88 40 89 46 90 48 91 45 92 41 93 42 94
REMARK SMILES IDX 43 95 44 96
REMARK H PARENT 68 49 36 60
REMARK Flexibility Score: inf
ROOT
ATOM      1  O   UNL A   1      33.342  34.922  28.912  1.00  0.00    -0.374 OA
ENDROOT
BRANCH   1   2
ATOM      2  C   UNL A   1      34.475  34.061  28.857  1.00  0.00     0.202 C 
BRANCH   2   3
ATOM      3  C   UNL A   1      34.179  32.655  29.372  1.00  0.00     0.261 C 
BRANCH   3   4
ATOM      4  O   UNL A   1      34.312  31.684  28.311  1.00  0.00    -0.460 OA
BRANCH   4   5
ATOM      5  C   UNL A   1      33.328  31.342  27.441  1.00  0.00     0.338 C 
ATOM      6  O   UNL A   1      32.384  32.089  27.211  1.00  0.00    -0.246 OA
BRANCH   5   7
ATOM      7  C   UNL A   1      33.428  30.066  26.705  1.00  0.00     0.060 A 
ATOM      8  C   UNL A   1      34.219  29.016  27.168  1.00  0.00     0.016 A 
ATOM      9  C   UNL A   1      32.673  29.899  25.544  1.00  0.00     0.016 A 
ATOM     10  C   UNL A   1      34.374  27.864  26.411  1.00  0.00     0.004 A 
ATOM     11  C   UNL A   1      32.812  28.730  24.789  1.00  0.00     0.004 A 
ATOM     12  C   UNL A   1      33.705  27.727  25.194  1.00  0.00    -0.046 A 
BRANCH  12  13
ATOM     13  C   UNL A   1      33.994  26.528  24.330  1.00  0.00     0.060 C 
BRANCH  13  14
ATOM     14  C   UNL A   1      32.726  25.778  23.879  1.00  0.00     0.151 C 
ATOM     15  S   UNL A   1      32.626  25.491  22.093  1.00  0.00    -0.050 SA
ATOM     16  C   UNL A   1      32.757  24.398  24.494  1.00  0.00     0.248 C 
ATOM     17  C   UNL A   1      33.072  23.806  22.237  1.00  0.00     0.293 C 
ATOM     18  N   UNL A   1      33.034  23.413  23.556  1.00  0.00    -0.240 N 
ATOM     19  O   UNL A   1      32.654  24.253  25.712  1.00  0.00    -0.273 OA
ATOM     20  O   UNL A   1      33.316  23.141  21.247  1.00  0.00    -0.261 OA
BRANCH  18  21
ATOM     21  C   UNL A   1      33.284  22.065  23.942  1.00  0.00     0.053 A 
ATOM     22  C   UNL A   1      34.511  21.699  24.514  1.00  0.00     0.027 A 
ATOM     23  C   UNL A   1      32.321  21.064  23.738  1.00  0.00     0.027 A 
ATOM     24  C   UNL A   1      34.775  20.373  24.862  1.00  0.00     0.002 A 
ATOM     25  C   UNL A   1      32.596  19.732  24.059  1.00  0.00     0.002 A 
ATOM     26  C   UNL A   1      33.823  19.388  24.623  1.00  0.00     0.000 A 
ENDBRANCH  18  21
ENDBRANCH  13  14
ENDBRANCH  12  13
ENDBRANCH   5   7
ENDBRANCH   4   5
ENDBRANCH   3   4
ENDBRANCH   2   3
ENDBRANCH   1   2
BRANCH   1  27
ATOM     27  C   UNL A   1      33.623  36.322  28.781  1.00  0.00     0.202 C 
BRANCH  27  28
ATOM     28  C   UNL A   1      32.967  37.067  29.946  1.00  0.00     0.261 C 
BRANCH  28  29
ATOM     29  O   UNL A   1      32.386  36.095  30.822  1.00  0.00    -0.460 OA
BRANCH  29  30
ATOM     30  C   UNL A   1      32.722  36.235  32.130  1.00  0.00     0.338 C 
ATOM     31  O   UNL A   1      32.140  36.892  32.974  1.00  0.00    -0.246 OA
BRANCH  30  32
ATOM     32  C   UNL A   1      33.792  35.252  32.411  1.00  0.00     0.060 A 
ATOM     33  C   UNL A   1      33.440  33.988  32.906  1.00  0.00     0.016 A 
ATOM     34  C   UNL A   1      35.128  35.553  32.125  1.00  0.00     0.016 A 
ATOM     35  C   UNL A   1      34.428  33.037  33.158  1.00  0.00     0.010 A 
ATOM     36  C   UNL A   1      36.112  34.605  32.366  1.00  0.00     0.010 A 
ATOM     37  C   UNL A   1      35.769  33.362  32.923  1.00  0.00    -0.014 A 
BRANCH  37  38
ATOM     38  C   UNL A   1      36.869  32.535  33.463  1.00  0.00     0.031 A 
ATOM     39  C   UNL A   1      37.455  32.955  34.779  1.00  0.00     0.074 A 
ATOM     40  C   UNL A   1      37.392  31.525  32.751  1.00  0.00     0.049 A 
ATOM     41  N   UNL A   1      38.555  32.567  35.363  1.00  0.00    -0.248 NA
ATOM     42  C   UNL A   1      36.710  33.991  35.514  1.00  0.00     0.031 C 
ATOM     43  C   UNL A   1      36.876  31.041  31.472  1.00  0.00     0.029 A 
ATOM     44  N   UNL A   1      38.501  30.756  32.986  1.00  0.00    -0.354 N 
ATOM     45  C   UNL A   1      38.651  33.333  36.521  1.00  0.00     0.074 A 
ATOM     46  C   UNL A   1      37.521  34.235  36.529  1.00  0.00     0.031 C 
ATOM     47  C   UNL A   1      37.693  30.076  31.015  1.00  0.00     0.029 A 
ATOM     48  C   UNL A   1      38.813  29.918  31.942  1.00  0.00     0.049 A 
ATOM     49  H   UNL A   1      39.023  30.801  33.819  1.00  0.00     0.167 HD
ATOM     50  C   UNL A   1      39.601  33.281  37.485  1.00  0.00     0.034 A 
ATOM     51  C   UNL A   1      39.905  29.154  31.740  1.00  0.00     0.034 A 
ATOM     52  C   UNL A   1      40.724  32.380  37.427  1.00  0.00     0.049 A 
ATOM     53  C   UNL A   1      40.987  29.148  32.794  1.00  0.00     0.074 A 
ATOM     54  C   UNL A   1      41.731  32.195  38.355  1.00  0.00     0.029 A 
ATOM     55  N   UNL A   1      40.999  31.525  36.364  1.00  0.00    -0.354 N 
ATOM     56  N   UNL A   1      41.059  29.845  33.907  1.00  0.00    -0.248 NA
ATOM     57  C   UNL A   1      42.128  28.252  32.572  1.00  0.00     0.031 C 
ATOM     58  C   UNL A   1      42.659  31.300  37.815  1.00  0.00     0.029 A 
ATOM     59  C   UNL A   1      42.182  30.845  36.594  1.00  0.00     0.049 A 
ATOM     60  H   UNL A   1      40.434  31.421  35.563  1.00  0.00     0.167 HD
ATOM     61  C   UNL A   1      42.238  29.447  34.533  1.00  0.00     0.074 A 
ATOM     62  C   UNL A   1      42.842  28.448  33.673  1.00  0.00     0.031 C 
ATOM     63  C   UNL A   1      42.767  29.856  35.715  1.00  0.00     0.034 A 
BRANCH  50  64
ATOM     64  C   UNL A   1      39.489  34.268  38.624  1.00  0.00     0.023 A 
ATOM     65  C   UNL A   1      38.951  33.906  39.872  1.00  0.00     0.031 A 
ATOM     66  C   UNL A   1      39.863  35.610  38.438  1.00  0.00     0.131 A 
ATOM     67  C   UNL A   1      38.709  34.889  40.844  1.00  0.00     0.055 A 
ATOM     68  C   UNL A   1      39.711  36.565  39.445  1.00  0.00     0.041 A 
ATOM     69  F   UNL A   1      40.357  36.027  37.261  1.00  0.00    -0.206 F 
ATOM     70  C   UNL A   1      39.112  36.211  40.650  1.00  0.00     0.022 A 
BRANCH  67  71
ATOM     71  S   UNL A   1      37.689  34.450  42.279  1.00  0.00     0.124 S 
ATOM     72  O   UNL A   1      36.392  34.202  41.654  1.00  0.00    -0.237 OA
ATOM     73  O   UNL A   1      38.378  33.280  42.809  1.00  0.00    -0.237 OA
ATOM     74  O   UNL A   1      37.749  35.645  43.118  1.00  0.00    -0.744 OA
ENDBRANCH  67  71
ENDBRANCH  50  64
BRANCH  51  75
ATOM     75  C   UNL A   1      40.047  28.378  30.476  1.00  0.00     0.023 A 
ATOM     76  C   UNL A   1      40.912  28.798  29.454  1.00  0.00     0.031 A 
ATOM     77  C   UNL A   1      39.312  27.195  30.271  1.00  0.00     0.131 A 
ATOM     78  C   UNL A   1      41.001  28.057  28.264  1.00  0.00     0.055 A 
ATOM     79  C   UNL A   1      39.444  26.434  29.109  1.00  0.00     0.041 A 
ATOM     80  F   UNL A   1      38.471  26.747  31.217  1.00  0.00    -0.206 F 
ATOM     81  C   UNL A   1      40.286  26.869  28.093  1.00  0.00     0.022 A 
BRANCH  78  82
ATOM     82  S   UNL A   1      42.021  28.704  26.912  1.00  0.00     0.124 S 
ATOM     83  O   UNL A   1      42.698  29.821  27.559  1.00  0.00    -0.237 OA
ATOM     84  O   UNL A   1      42.854  27.552  26.582  1.00  0.00    -0.237 OA
ATOM     85  O   UNL A   1      41.040  29.072  25.892  1.00  0.00    -0.744 OA
ENDBRANCH  78  82
ENDBRANCH  51  75
BRANCH  63  86
ATOM     86  C   UNL A   1      44.031  29.178  36.185  1.00  0.00     0.023 A 
ATOM     87  C   UNL A   1      44.008  28.036  37.003  1.00  0.00     0.031 A 
ATOM     88  C   UNL A   1      45.281  29.668  35.763  1.00  0.00     0.131 A 
ATOM     89  C   UNL A   1      45.217  27.440  37.399  1.00  0.00     0.055 A 
ATOM     90  C   UNL A   1      46.475  29.034  36.107  1.00  0.00     0.041 A 
ATOM     91  F   UNL A   1      45.360  30.759  34.984  1.00  0.00    -0.206 F 
ATOM     92  C   UNL A   1      46.447  27.918  36.937  1.00  0.00     0.022 A 
BRANCH  89  93
ATOM     93  S   UNL A   1      45.167  26.071  38.586  1.00  0.00     0.124 S 
ATOM     94  O   UNL A   1      46.566  25.970  38.991  1.00  0.00    -0.237 OA
ATOM     95  O   UNL A   1      44.244  26.568  39.601  1.00  0.00    -0.237 OA
ATOM     96  O   UNL A   1      44.669  24.947  37.793  1.00  0.00    -0.744 OA
ENDBRANCH  89  93
ENDBRANCH  63  86
ENDBRANCH  37  38
ENDBRANCH  30  32
ENDBRANCH  29  30
ENDBRANCH  28  29
ENDBRANCH  27  28
ENDBRANCH   1  27
TORSDOF 20
ENDMDL
MODEL 2
REMARK VINA RESULT:     -10.9      3.554      9.855
REMARK SMILES O=C(OCCOCCOC(=O)c1ccc(-c2c3nc(c(-c4cc(S(=O)(=O)[O-])ccc4F)c4ccc([nH]4)c(-c4cc(S(=O)(=O)[O-])ccc4F)c4nc(c(-c5cc(S(=O)(=O)[O-])ccc5F)c5ccc2[nH]5)C=C4)C=C3)cc1)c1ccc(C[C@H]2SC(=O)N(c3ccccc3)C2=O)cc1
REMARK SMILES IDX 6 1 5 2 4 3 3 4 2 5 1 6 75 7 76 8 94 9 77 10 93 11 78 12
REMARK SMILES IDX 79 13 80 14 81 15 91 16 82 17 84 18 92 19 83 20 85 21 86 22
REMARK SMILES IDX 90 23 87 24 89 25 88 26 7 27 8 28 9 29 10 30 11 31 12 32
REMARK SMILES IDX 13 33 74 34 14 35 73 36 15 37 16 38 17 39 67 40 18 41 72 42
REMARK SMILES IDX 66 43 68 44 19 45 71 46 65 47 64 48 20 50 52 51 32 52 51 53
REMARK SMILES IDX 33 54 36 55 50 56 69 57 34 58 35 59 49 61 70 62 37 63 21 64
REMARK SMILES IDX 22 65 30 66 23 67 29 68 31 69 28 70 24 71 25 72 26 73 27 74
REMARK SMILES IDX 53 75 54 76 62 77 55 78 61 79 63 80 60 81 56 82 57 83 58 84
REMARK SMILES IDX 59 85 38 86 39 87 47 88 40 89 46 90 48 91 45 92 41 93 42 94
REMARK SMILES IDX 43 95 44 96
REMARK H PARENT 68 49 36 60
REMARK Flexibility Score: inf
ROOT
ATOM      1  O   UNL A   1      42.920  20.245  25.384  1.00  0.00    -0.374 OA
ENDROOT
BRANCH   1   2
ATOM      2  C   UNL A   1      42.133  19.974  26.539  1.00  0.00     0.202 C 
BRANCH   2   3
ATOM      3  C   UNL A   1      40.657  19.762  26.217  1.00  0.00     0.261 C 
BRANCH   3   4
ATOM      4  O   UNL A   1      39.845  20.774  26.853  1.00  0.00    -0.460 OA
BRANCH   4   5
ATOM      5  C   UNL A   1      39.586  22.002  26.337  1.00  0.00     0.338 C 
ATOM      6  O   UNL A   1      40.476  22.826  26.158  1.00  0.00    -0.246 OA
BRANCH   5   7
ATOM      7  C   UNL A   1      38.208  22.335  25.924  1.00  0.00     0.060 A 
ATOM      8  C   UNL A   1      37.694  23.622  26.068  1.00  0.00     0.016 A 
ATOM      9  C   UNL A   1      37.426  21.342  25.334  1.00  0.00     0.016 A 
ATOM     10  C   UNL A   1      36.366  23.888  25.765  1.00  0.00     0.004 A 
ATOM     11  C   UNL A   1      36.092  21.613  25.009  1.00  0.00     0.004 A 
ATOM     12  C   UNL A   1      35.542  22.876  25.271  1.00  0.00    -0.046 A 
BRANCH  12  13
ATOM     13  C   UNL A   1      34.074  23.155  25.077  1.00  0.00     0.060 C 
BRANCH  13  14
ATOM     14  C   UNL A   1      33.698  23.465  23.616  1.00  0.00     0.151 C 
ATOM     15  S   UNL A   1      32.217  22.603  23.029  1.00  0.00    -0.050 SA
ATOM     16  C   UNL A   1      33.355  24.934  23.524  1.00  0.00     0.248 C 
ATOM     17  C   UNL A   1      31.213  24.029  23.157  1.00  0.00     0.293 C 
ATOM     18  N   UNL A   1      31.993  25.144  23.365  1.00  0.00    -0.240 N 
ATOM     19  O   UNL A   1      34.222  25.791  23.694  1.00  0.00    -0.273 OA
ATOM     20  O   UNL A   1      30.007  23.954  23.016  1.00  0.00    -0.261 OA
BRANCH  18  21
ATOM     21  C   UNL A   1      31.427  26.450  23.430  1.00  0.00     0.053 A 
ATOM     22  C   UNL A   1      31.105  27.029  24.666  1.00  0.00     0.027 A 
ATOM     23  C   UNL A   1      31.154  27.180  22.263  1.00  0.00     0.027 A 
ATOM     24  C   UNL A   1      30.519  28.294  24.736  1.00  0.00     0.002 A 
ATOM     25  C   UNL A   1      30.540  28.433  22.331  1.00  0.00     0.002 A 
ATOM     26  C   UNL A   1      30.224  28.990  23.568  1.00  0.00     0.000 A 
ENDBRANCH  18  21
ENDBRANCH  13  14
ENDBRANCH  12  13
ENDBRANCH   5   7
ENDBRANCH   4   5
ENDBRANCH   3   4
ENDBRANCH   2   3
ENDBRANCH   1   2
BRANCH   1  27
ATOM     27  C   UNL A   1      44.307  20.512  25.629  1.00  0.00     0.202 C 
BRANCH  27  28
ATOM     28  C   UNL A   1      44.677  21.841  24.968  1.00  0.00     0.261 C 
BRANCH  28  29
ATOM     29  O   UNL A   1      44.132  22.899  25.764  1.00  0.00    -0.460 OA
BRANCH  29  30
ATOM     30  C   UNL A   1      44.410  24.150  25.314  1.00  0.00     0.338 C 
ATOM     31  O   UNL A   1      44.972  24.452  24.277  1.00  0.00    -0.246 OA
BRANCH  30  32
ATOM     32  C   UNL A   1      43.693  25.097  26.198  1.00  0.00     0.060 A 
ATOM     33  C   UNL A   1      43.719  26.465  25.889  1.00  0.00     0.016 A 
ATOM     34  C   UNL A   1      42.947  24.631  27.285  1.00  0.00     0.016 A 
ATOM     35  C   UNL A   1      43.034  27.375  26.693  1.00  0.00     0.010 A 
ATOM     36  C   UNL A   1      42.257  25.534  28.081  1.00  0.00     0.010 A 
ATOM     37  C   UNL A   1      42.334  26.910  27.813  1.00  0.00    -0.014 A 
BRANCH  37  38
ATOM     38  C   UNL A   1      41.868  27.834  28.868  1.00  0.00     0.031 A 
ATOM     39  C   UNL A   1      42.583  27.781  30.187  1.00  0.00     0.074 A 
ATOM     40  C   UNL A   1      40.781  28.600  28.688  1.00  0.00     0.049 A 
ATOM     41  N   UNL A   1      42.248  28.294  31.338  1.00  0.00    -0.248 NA
ATOM     42  C   UNL A   1      43.830  26.999  30.210  1.00  0.00     0.031 C 
ATOM     43  C   UNL A   1      40.035  28.724  27.438  1.00  0.00     0.029 A 
ATOM     44  N   UNL A   1      40.092  29.384  29.577  1.00  0.00    -0.354 N 
ATOM     45  C   UNL A   1      43.228  27.874  32.232  1.00  0.00     0.074 A 
ATOM     46  C   UNL A   1      44.141  27.029  31.494  1.00  0.00     0.031 C 
ATOM     47  C   UNL A   1      38.966  29.511  27.649  1.00  0.00     0.029 A 
ATOM     48  C   UNL A   1      38.928  29.898  29.059  1.00  0.00     0.049 A 
ATOM     49  H   UNL A   1      40.401  29.560  30.494  1.00  0.00     0.167 HD
ATOM     50  C   UNL A   1      43.346  28.171  33.547  1.00  0.00     0.034 A 
ATOM     51  C   UNL A   1      37.923  30.558  29.671  1.00  0.00     0.034 A 
ATOM     52  C   UNL A   1      42.401  29.002  34.249  1.00  0.00     0.049 A 
ATOM     53  C   UNL A   1      38.038  30.834  31.152  1.00  0.00     0.074 A 
ATOM     54  C   UNL A   1      42.426  29.416  35.567  1.00  0.00     0.029 A 
ATOM     55  N   UNL A   1      41.240  29.527  33.688  1.00  0.00    -0.354 N 
ATOM     56  N   UNL A   1      38.983  30.467  31.989  1.00  0.00    -0.248 NA
ATOM     57  C   UNL A   1      36.959  31.613  31.770  1.00  0.00     0.031 C 
ATOM     58  C   UNL A   1      41.242  30.111  35.826  1.00  0.00     0.029 A 
ATOM     59  C   UNL A   1      40.522  30.223  34.645  1.00  0.00     0.049 A 
ATOM     60  H   UNL A   1      40.969  29.418  32.747  1.00  0.00     0.167 HD
ATOM     61  C   UNL A   1      38.628  31.001  33.226  1.00  0.00     0.074 A 
ATOM     62  C   UNL A   1      37.382  31.714  33.022  1.00  0.00     0.031 C 
ATOM     63  C   UNL A   1      39.276  30.923  34.416  1.00  0.00     0.034 A 
BRANCH  50  64
ATOM     64  C   UNL A   1      44.491  27.537  34.302  1.00  0.00     0.023 A 
ATOM     65  C   UNL A   1      45.811  28.010  34.188  1.00  0.00     0.031 A 
ATOM     66  C   UNL A   1      44.272  26.397  35.096  1.00  0.00     0.131 A 
ATOM     67  C   UNL A   1      46.867  27.292  34.769  1.00  0.00     0.055 A 
ATOM     68  C   UNL A   1      45.317  25.744  35.754  1.00  0.00     0.041 A 
ATOM     69  F   UNL A   1      43.041  25.878  35.224  1.00  0.00    -0.206 F 
ATOM     70  C   UNL A   1      46.626  26.178  35.576  1.00  0.00     0.022 A 
BRANCH  67  71
ATOM     71  S   UNL A   1      48.566  27.723  34.298  1.00  0.00     0.124 S 
ATOM     72  O   UNL A   1      49.101  28.233  35.558  1.00  0.00    -0.237 OA
ATOM     73  O   UNL A   1      49.101  26.444  33.847  1.00  0.00    -0.237 OA
ATOM     74  O   UNL A   1      48.386  28.729  33.254  1.00  0.00    -0.744 OA
ENDBRANCH  67  71
ENDBRANCH  50  64
BRANCH  51  75
ATOM     75  C   UNL A   1      36.714  30.954  28.898  1.00  0.00     0.023 A 
ATOM     76  C   UNL A   1      35.833  29.994  28.375  1.00  0.00     0.031 A 
ATOM     77  C   UNL A   1      36.419  32.312  28.668  1.00  0.00     0.131 A 
ATOM     78  C   UNL A   1      34.716  30.403  27.628  1.00  0.00     0.055 A 
ATOM     79  C   UNL A   1      35.279  32.714  27.970  1.00  0.00     0.041 A 
ATOM     80  F   UNL A   1      37.227  33.271  29.147  1.00  0.00    -0.206 F 
ATOM     81  C   UNL A   1      34.424  31.756  27.437  1.00  0.00     0.022 A 
BRANCH  78  82
ATOM     82  S   UNL A   1      33.679  29.134  26.851  1.00  0.00     0.124 S 
ATOM     83  O   UNL A   1      33.469  29.695  25.522  1.00  0.00    -0.237 OA
ATOM     84  O   UNL A   1      34.536  27.956  26.924  1.00  0.00    -0.237 OA
ATOM     85  O   UNL A   1      32.494  29.093  27.706  1.00  0.00    -0.744 OA
ENDBRANCH  78  82
ENDBRANCH  51  75
BRANCH  63  86
ATOM     86  C   UNL A   1      38.688  31.680  35.582  1.00  0.00     0.023 A 
ATOM     87  C   UNL A   1      38.090  31.027  36.673  1.00  0.00     0.031 A 
ATOM     88  C   UNL A   1      38.773  33.084  35.614  1.00  0.00     0.131 A 
ATOM     89  C   UNL A   1      37.570  31.784  37.736  1.00  0.00     0.055 A 
ATOM     90  C   UNL A   1      38.313  33.825  36.701  1.00  0.00     0.041 A 
ATOM     91  F   UNL A   1      39.332  33.758  34.595  1.00  0.00    -0.206 F 
ATOM     92  C   UNL A   1      37.699  33.175  37.768  1.00  0.00     0.022 A 
BRANCH  89  93
ATOM     93  S   UNL A   1      36.657  30.930  39.050  1.00  0.00     0.124 S 
ATOM     94  O   UNL A   1      35.528  31.829  39.266  1.00  0.00    -0.237 OA
ATOM     95  O   UNL A   1      36.342  29.647  38.432  1.00  0.00    -0.237 OA
ATOM     96  O   UNL A   1      37.619  30.868  40.150  1.00  0.00    -0.744 OA
ENDBRANCH  89  93
ENDBRANCH  63  86
ENDBRANCH  37  38
ENDBRANCH  30  32
ENDBRANCH  29  30
ENDBRANCH  28  29
ENDBRANCH  27  28
ENDBRANCH   1  27
TORSDOF 20
ENDMDL
MODEL 3
REMARK VINA RESULT:     -10.9      6.778     11.257
REMARK SMILES O=C(OCCOCCOC(=O)c1ccc(-c2c3nc(c(-c4cc(S(=O)(=O)[O-])ccc4F)c4ccc([nH]4)c(-c4cc(S(=O)(=O)[O-])ccc4F)c4nc(c(-c5cc(S(=O)(=O)[O-])ccc5F)c5ccc2[nH]5)C=C4)C=C3)cc1)c1ccc(C[C@H]2SC(=O)N(c3ccccc3)C2=O)cc1
REMARK SMILES IDX 6 1 5 2 4 3 3 4 2 5 1 6 75 7 76 8 94 9 77 10 93 11 78 12
REMARK SMILES IDX 79 13 80 14 81 15 91 16 82 17 84 18 92 19 83 20 85 21 86 22
REMARK SMILES IDX 90 23 87 24 89 25 88 26 7 27 8 28 9 29 10 30 11 31 12 32
REMARK SMILES IDX 13 33 74 34 14 35 73 36 15 37 16 38 17 39 67 40 18 41 72 42
REMARK SMILES IDX 66 43 68 44 19 45 71 46 65 47 64 48 20 50 52 51 32 52 51 53
REMARK SMILES IDX 33 54 36 55 50 56 69 57 34 58 35 59 49 61 70 62 37 63 21 64
REMARK SMILES IDX 22 65 30 66 23 67 29 68 31 69 28 70 24 71 25 72 26 73 27 74
REMARK SMILES IDX 53 75 54 76 62 77 55 78 61 79 63 80 60 81 56 82 57 83 58 84
REMARK SMILES IDX 59 85 38 86 39 87 47 88 40 89 46 90 48 91 45 92 41 93 42 94
REMARK SMILES IDX 43 95 44 96
REMARK H PARENT 68 49 36 60
REMARK Flexibility Score: inf
ROOT
ATOM      1  O   UNL A   1      38.215  20.833  25.338  1.00  0.00    -0.374 OA
ENDROOT
BRANCH   1   2
ATOM      2  C   UNL A   1      37.409  21.572  24.426  1.00  0.00     0.202 C 
BRANCH   2   3
ATOM      3  C   UNL A   1      37.158  23.007  24.881  1.00  0.00     0.261 C 
BRANCH   3   4
ATOM      4  O   UNL A   1      35.781  23.381  24.657  1.00  0.00    -0.460 OA
BRANCH   4   5
ATOM      5  C   UNL A   1      34.843  23.517  25.628  1.00  0.00     0.338 C 
ATOM      6  O   UNL A   1      34.840  22.803  26.624  1.00  0.00    -0.246 OA
BRANCH   5   7
ATOM      7  C   UNL A   1      33.837  24.592  25.514  1.00  0.00     0.060 A 
ATOM      8  C   UNL A   1      32.864  24.788  26.492  1.00  0.00     0.016 A 
ATOM      9  C   UNL A   1      33.897  25.455  24.419  1.00  0.00     0.016 A 
ATOM     10  C   UNL A   1      31.869  25.739  26.316  1.00  0.00     0.004 A 
ATOM     11  C   UNL A   1      32.907  26.428  24.249  1.00  0.00     0.004 A 
ATOM     12  C   UNL A   1      31.858  26.540  25.173  1.00  0.00    -0.046 A 
BRANCH  12  13
ATOM     13  C   UNL A   1      30.696  27.471  24.941  1.00  0.00     0.060 C 
BRANCH  13  14
ATOM     14  C   UNL A   1      29.969  27.223  23.606  1.00  0.00     0.151 C 
ATOM     15  S   UNL A   1      28.235  26.731  23.783  1.00  0.00    -0.050 SA
ATOM     16  C   UNL A   1      29.928  28.530  22.849  1.00  0.00     0.248 C 
ATOM     17  C   UNL A   1      27.636  28.314  23.342  1.00  0.00     0.293 C 
ATOM     18  N   UNL A   1      28.656  29.085  22.832  1.00  0.00    -0.240 N 
ATOM     19  O   UNL A   1      30.964  29.039  22.422  1.00  0.00    -0.273 OA
ATOM     20  O   UNL A   1      26.455  28.586  23.457  1.00  0.00    -0.261 OA
BRANCH  18  21
ATOM     21  C   UNL A   1      28.421  30.396  22.326  1.00  0.00     0.053 A 
ATOM     22  C   UNL A   1      28.144  30.600  20.967  1.00  0.00     0.027 A 
ATOM     23  C   UNL A   1      28.484  31.518  23.167  1.00  0.00     0.027 A 
ATOM     24  C   UNL A   1      27.946  31.885  20.459  1.00  0.00     0.002 A 
ATOM     25  C   UNL A   1      28.316  32.807  22.653  1.00  0.00     0.002 A 
ATOM     26  C   UNL A   1      28.045  32.989  21.299  1.00  0.00     0.000 A 
ENDBRANCH  18  21
ENDBRANCH  13  14
ENDBRANCH  12  13
ENDBRANCH   5   7
ENDBRANCH   4   5
ENDBRANCH   3   4
ENDBRANCH   2   3
ENDBRANCH   1   2
BRANCH   1  27
ATOM     27  C   UNL A   1      38.218  19.412  25.149  1.00  0.00     0.202 C 
BRANCH  27  28
ATOM     28  C   UNL A   1      39.511  18.841  25.735  1.00  0.00     0.261 C 
BRANCH  28  29
ATOM     29  O   UNL A   1      40.591  19.690  25.336  1.00  0.00    -0.460 OA
BRANCH  29  30
ATOM     30  C   UNL A   1      41.680  19.645  26.147  1.00  0.00     0.338 C 
ATOM     31  O   UNL A   1      42.421  18.697  26.332  1.00  0.00    -0.246 OA
BRANCH  30  32
ATOM     32  C   UNL A   1      41.951  21.032  26.587  1.00  0.00     0.060 A 
ATOM     33  C   UNL A   1      41.884  22.068  25.644  1.00  0.00     0.016 A 
ATOM     34  C   UNL A   1      42.205  21.314  27.933  1.00  0.00     0.016 A 
ATOM     35  C   UNL A   1      42.114  23.386  26.039  1.00  0.00     0.010 A 
ATOM     36  C   UNL A   1      42.425  22.626  28.329  1.00  0.00     0.010 A 
ATOM     37  C   UNL A   1      42.423  23.658  27.377  1.00  0.00    -0.014 A 
BRANCH  37  38
ATOM     38  C   UNL A   1      42.986  24.961  27.788  1.00  0.00     0.031 A 
ATOM     39  C   UNL A   1      42.041  25.944  28.416  1.00  0.00     0.074 A 
ATOM     40  C   UNL A   1      44.256  25.289  27.505  1.00  0.00     0.049 A 
ATOM     41  N   UNL A   1      42.199  27.217  28.653  1.00  0.00    -0.248 NA
ATOM     42  C   UNL A   1      40.718  25.417  28.787  1.00  0.00     0.031 C 
ATOM     43  C   UNL A   1      45.245  24.393  26.911  1.00  0.00     0.029 A 
ATOM     44  N   UNL A   1      44.915  26.483  27.642  1.00  0.00    -0.354 N 
ATOM     45  C   UNL A   1      40.984  27.651  29.175  1.00  0.00     0.074 A 
ATOM     46  C   UNL A   1      40.092  26.514  29.176  1.00  0.00     0.031 C 
ATOM     47  C   UNL A   1      46.380  25.081  26.699  1.00  0.00     0.029 A 
ATOM     48  C   UNL A   1      46.175  26.475  27.094  1.00  0.00     0.049 A 
ATOM     49  H   UNL A   1      44.524  27.268  28.089  1.00  0.00     0.167 HD
ATOM     50  C   UNL A   1      40.654  28.890  29.611  1.00  0.00     0.034 A 
ATOM     51  C   UNL A   1      47.037  27.490  26.887  1.00  0.00     0.034 A 
ATOM     52  C   UNL A   1      41.570  30.002  29.573  1.00  0.00     0.049 A 
ATOM     53  C   UNL A   1      46.635  28.879  27.324  1.00  0.00     0.074 A 
ATOM     54  C   UNL A   1      41.377  31.295  30.022  1.00  0.00     0.029 A 
ATOM     55  N   UNL A   1      42.850  29.954  29.030  1.00  0.00    -0.354 N 
ATOM     56  N   UNL A   1      45.499  29.282  27.850  1.00  0.00    -0.248 NA
ATOM     57  C   UNL A   1      47.626  29.947  27.145  1.00  0.00     0.031 C 
ATOM     58  C   UNL A   1      42.501  32.047  29.670  1.00  0.00     0.029 A 
ATOM     59  C   UNL A   1      43.440  31.205  29.094  1.00  0.00     0.049 A 
ATOM     60  H   UNL A   1      43.274  29.149  28.654  1.00  0.00     0.167 HD
ATOM     61  C   UNL A   1      45.654  30.645  28.097  1.00  0.00     0.074 A 
ATOM     62  C   UNL A   1      46.992  30.991  27.661  1.00  0.00     0.031 C 
ATOM     63  C   UNL A   1      44.778  31.525  28.645  1.00  0.00     0.034 A 
BRANCH  50  64
ATOM     64  C   UNL A   1      39.236  29.102  30.090  1.00  0.00     0.023 A 
ATOM     65  C   UNL A   1      38.278  29.767  29.305  1.00  0.00     0.031 A 
ATOM     66  C   UNL A   1      38.855  28.694  31.380  1.00  0.00     0.131 A 
ATOM     67  C   UNL A   1      37.027  30.093  29.851  1.00  0.00     0.055 A 
ATOM     68  C   UNL A   1      37.575  28.934  31.882  1.00  0.00     0.041 A 
ATOM     69  F   UNL A   1      39.731  28.079  32.190  1.00  0.00    -0.206 F 
ATOM     70  C   UNL A   1      36.658  29.655  31.124  1.00  0.00     0.022 A 
BRANCH  67  71
ATOM     71  S   UNL A   1      35.967  31.257  28.948  1.00  0.00     0.124 S 
ATOM     72  O   UNL A   1      36.949  32.207  28.428  1.00  0.00    -0.237 OA
ATOM     73  O   UNL A   1      35.324  30.398  27.962  1.00  0.00    -0.237 OA
ATOM     74  O   UNL A   1      35.086  31.791  29.984  1.00  0.00    -0.744 OA
ENDBRANCH  67  71
ENDBRANCH  50  64
BRANCH  51  75
ATOM     75  C   UNL A   1      48.333  27.237  26.196  1.00  0.00     0.023 A 
ATOM     76  C   UNL A   1      48.462  27.387  24.807  1.00  0.00     0.031 A 
ATOM     77  C   UNL A   1      49.470  26.836  26.924  1.00  0.00     0.131 A 
ATOM     78  C   UNL A   1      49.692  27.114  24.186  1.00  0.00     0.055 A 
ATOM     79  C   UNL A   1      50.703  26.618  26.308  1.00  0.00     0.041 A 
ATOM     80  F   UNL A   1      49.402  26.678  28.255  1.00  0.00    -0.206 F 
ATOM     81  C   UNL A   1      50.817  26.748  24.929  1.00  0.00     0.022 A 
BRANCH  78  82
ATOM     82  S   UNL A   1      49.786  27.185  22.376  1.00  0.00     0.124 S 
ATOM     83  O   UNL A   1      51.140  26.706  22.130  1.00  0.00    -0.237 OA
ATOM     84  O   UNL A   1      48.705  26.287  21.982  1.00  0.00    -0.237 OA
ATOM     85  O   UNL A   1      49.558  28.598  22.079  1.00  0.00    -0.744 OA
ENDBRANCH  78  82
ENDBRANCH  51  75
BRANCH  63  86
ATOM     86  C   UNL A   1      45.258  32.939  28.868  1.00  0.00     0.023 A 
ATOM     87  C   UNL A   1      44.918  33.990  28.000  1.00  0.00     0.031 A 
ATOM     88  C   UNL A   1      46.037  33.240  30.001  1.00  0.00     0.131 A 
ATOM     89  C   UNL A   1      45.383  35.289  28.264  1.00  0.00     0.055 A 
ATOM     90  C   UNL A   1      46.442  34.542  30.292  1.00  0.00     0.041 A 
ATOM     91  F   UNL A   1      46.394  32.272  30.861  1.00  0.00    -0.206 F 
ATOM     92  C   UNL A   1      46.122  35.574  29.416  1.00  0.00     0.022 A 
BRANCH  89  93
ATOM     93  S   UNL A   1      45.070  36.593  27.044  1.00  0.00     0.124 S 
ATOM     94  O   UNL A   1      45.212  37.801  27.850  1.00  0.00    -0.237 OA
ATOM     95  O   UNL A   1      46.118  36.358  26.057  1.00  0.00    -0.237 OA
ATOM     96  O   UNL A   1      43.711  36.312  26.583  1.00  0.00    -0.744 OA
ENDBRANCH  89  93
ENDBRANCH  63  86
ENDBRANCH  37  38
ENDBRANCH  30  32
ENDBRANCH  29  30
ENDBRANCH  28  29
ENDBRANCH  27  28
ENDBRANCH   1  27
TORSDOF 20
ENDMDL
