MODEL 1
REMARK VINA RESULT:     -10.8      0.000      0.000
REMARK SMILES O=C(Nc1ccc(Br)cc1)Nc1ccc(CC(=O)OCCOCCOC(=O)c2ccc(-c3c4nc(c(-c5cc(S(=O)(=O)[O-])ccc5F)c5ccc([nH]5)c(-c5cc(S(=O)(=O)[O-])ccc5F)c5nc(c(-c6cc(S(=O)(=O)[O-])ccc6F)c6ccc3[nH]6)C=C5)C=C4)cc2)cc1
REMARK SMILES IDX 22 1 21 2 20 3 19 4 17 5 18 6 16 7 15 8 12 9 13 10 92 11
REMARK SMILES IDX 14 12 91 13 11 14 1 15 2 16 3 17 4 20 5 21 10 22 6 23 9 24
REMARK SMILES IDX 7 25 8 26 23 27 24 28 25 29 26 30 27 31 28 32 29 33 90 34
REMARK SMILES IDX 30 35 89 36 31 37 32 38 33 39 83 40 34 41 88 42 82 43 84 44
REMARK SMILES IDX 35 45 87 46 81 47 80 48 36 50 68 51 48 52 67 53 49 54 52 55
REMARK SMILES IDX 66 56 85 57 50 58 51 59 65 61 86 62 53 63 37 64 38 65 46 66
REMARK SMILES IDX 39 67 45 68 47 69 44 70 40 71 41 72 42 73 43 74 69 75 70 76
REMARK SMILES IDX 78 77 71 78 77 79 79 80 76 81 72 82 73 83 74 84 75 85 54 86
REMARK SMILES IDX 55 87 63 88 56 89 62 90 64 91 61 92 57 93 58 94 59 95 60 96
REMARK H PARENT 3 18 11 19 84 49 52 60
REMARK Flexibility Score: inf
ROOT
ATOM      1  O   UNL A   1      31.772  29.028  24.583  1.00  0.00    -0.374 OA
ENDROOT
BRANCH   1   2
ATOM      2  C   UNL A   1      31.535  27.726  24.047  1.00  0.00     0.202 C 
BRANCH   2   3
ATOM      3  C   UNL A   1      32.696  26.729  24.127  1.00  0.00     0.261 C 
BRANCH   3   4
ATOM      4  O   UNL A   1      32.625  25.703  23.115  1.00  0.00    -0.463 OA
BRANCH   4   5
ATOM      5  C   UNL A   1      32.293  24.463  23.559  1.00  0.00     0.310 C 
ATOM      6  O   UNL A   1      31.272  24.200  24.189  1.00  0.00    -0.252 OA
BRANCH   5   7
ATOM      7  C   UNL A   1      33.325  23.398  23.279  1.00  0.00     0.158 C 
BRANCH   7   8
ATOM      8  C   UNL A   1      34.661  23.435  23.987  1.00  0.00    -0.037 A 
ATOM      9  C   UNL A   1      37.078  23.150  25.418  1.00  0.00     0.042 A 
ATOM     10  C   UNL A   1      37.055  22.980  24.033  1.00  0.00     0.026 A 
ATOM     11  C   UNL A   1      35.909  23.528  26.076  1.00  0.00     0.026 A 
ATOM     12  C   UNL A   1      35.847  23.079  23.331  1.00  0.00     0.006 A 
ATOM     13  C   UNL A   1      34.715  23.692  25.363  1.00  0.00     0.006 A 
BRANCH   9  14
ATOM     14  N   UNL A   1      38.284  22.894  26.098  1.00  0.00    -0.308 N 
ATOM     15  O   UNL A   1      38.674  24.986  27.010  1.00  0.00    -0.248 OA
ATOM     16  C   UNL A   1      39.024  23.830  26.781  1.00  0.00     0.323 C 
ATOM     17  N   UNL A   1      40.151  23.348  27.396  1.00  0.00    -0.308 N 
ATOM     18  H   UNL A   1      40.401  23.811  28.227  1.00  0.00     0.171 HD
ATOM     19  H   UNL A   1      38.625  21.971  26.081  1.00  0.00     0.171 HD
BRANCH  17  20
ATOM     20  C   UNL A   1      41.003  22.297  27.023  1.00  0.00     0.042 A 
ATOM     21  C   UNL A   1      40.907  21.018  27.579  1.00  0.00     0.027 A 
ATOM     22  C   UNL A   1      41.915  22.532  25.990  1.00  0.00     0.027 A 
ATOM     23  C   UNL A   1      41.726  19.985  27.114  1.00  0.00     0.018 A 
ATOM     24  C   UNL A   1      42.754  21.508  25.542  1.00  0.00     0.018 A 
ATOM     25  C   UNL A   1      42.651  20.237  26.103  1.00  0.00     0.018 A 
ATOM     26  Br  UNL A   1      43.759  18.844  25.471  1.00  0.00    -0.051 Br
ENDBRANCH  17  20
ENDBRANCH   9  14
ENDBRANCH   7   8
ENDBRANCH   5   7
ENDBRANCH   4   5
ENDBRANCH   3   4
ENDBRANCH   2   3
ENDBRANCH   1   2
BRANCH   1  27
ATOM     27  C   UNL A   1      31.787  29.146  26.004  1.00  0.00     0.202 C 
BRANCH  27  28
ATOM     28  C   UNL A   1      32.357  30.444  26.590  1.00  0.00     0.261 C 
BRANCH  28  29
ATOM     29  O   UNL A   1      33.454  30.212  27.490  1.00  0.00    -0.460 OA
BRANCH  29  30
ATOM     30  C   UNL A   1      34.163  31.329  27.788  1.00  0.00     0.338 C 
ATOM     31  O   UNL A   1      33.717  32.456  27.924  1.00  0.00    -0.246 OA
BRANCH  30  32
ATOM     32  C   UNL A   1      35.570  31.001  28.108  1.00  0.00     0.060 A 
ATOM     33  C   UNL A   1      35.827  29.679  28.498  1.00  0.00     0.016 A 
ATOM     34  C   UNL A   1      36.588  31.957  28.137  1.00  0.00     0.016 A 
ATOM     35  C   UNL A   1      37.071  29.335  29.015  1.00  0.00     0.010 A 
ATOM     36  C   UNL A   1      37.841  31.608  28.659  1.00  0.00     0.010 A 
ATOM     37  C   UNL A   1      38.065  30.310  29.158  1.00  0.00    -0.014 A 
BRANCH  37  38
ATOM     38  C   UNL A   1      39.223  30.003  30.036  1.00  0.00     0.031 A 
ATOM     39  C   UNL A   1      39.249  30.598  31.423  1.00  0.00     0.074 A 
ATOM     40  C   UNL A   1      40.172  29.129  29.656  1.00  0.00     0.049 A 
ATOM     41  N   UNL A   1      40.104  30.412  32.394  1.00  0.00    -0.248 NA
ATOM     42  C   UNL A   1      38.157  31.527  31.754  1.00  0.00     0.031 C 
ATOM     43  C   UNL A   1      40.225  28.455  28.359  1.00  0.00     0.029 A 
ATOM     44  N   UNL A   1      41.263  28.644  30.333  1.00  0.00    -0.354 N 
ATOM     45  C   UNL A   1      39.653  31.195  33.453  1.00  0.00     0.074 A 
ATOM     46  C   UNL A   1      38.477  31.896  32.984  1.00  0.00     0.031 C 
ATOM     47  C   UNL A   1      41.293  27.638  28.338  1.00  0.00     0.029 A 
ATOM     48  C   UNL A   1      42.010  27.747  29.606  1.00  0.00     0.049 A 
ATOM     49  H   UNL A   1      41.490  28.914  31.252  1.00  0.00     0.167 HD
ATOM     50  C   UNL A   1      40.159  31.307  34.706  1.00  0.00     0.034 A 
ATOM     51  C   UNL A   1      43.146  27.094  29.928  1.00  0.00     0.034 A 
ATOM     52  C   UNL A   1      41.338  30.608  35.157  1.00  0.00     0.049 A 
ATOM     53  C   UNL A   1      43.730  27.282  31.309  1.00  0.00     0.074 A 
ATOM     54  C   UNL A   1      41.947  30.653  36.399  1.00  0.00     0.029 A 
ATOM     55  N   UNL A   1      42.093  29.740  34.377  1.00  0.00    -0.354 N 
ATOM     56  N   UNL A   1      43.289  28.022  32.302  1.00  0.00    -0.248 NA
ATOM     57  C   UNL A   1      44.953  26.529  31.619  1.00  0.00     0.031 C 
ATOM     58  C   UNL A   1      43.103  29.865  36.351  1.00  0.00     0.029 A 
ATOM     59  C   UNL A   1      43.173  29.264  35.103  1.00  0.00     0.049 A 
ATOM     60  H   UNL A   1      41.890  29.500  33.445  1.00  0.00     0.167 HD
ATOM     61  C   UNL A   1      44.161  27.792  33.364  1.00  0.00     0.074 A 
ATOM     62  C   UNL A   1      45.144  26.838  32.893  1.00  0.00     0.031 C 
ATOM     63  C   UNL A   1      44.148  28.314  34.617  1.00  0.00     0.034 A 
BRANCH  50  64
ATOM     64  C   UNL A   1      39.464  32.262  35.648  1.00  0.00     0.023 A 
ATOM     65  C   UNL A   1      39.866  33.604  35.775  1.00  0.00     0.031 A 
ATOM     66  C   UNL A   1      38.413  31.811  36.467  1.00  0.00     0.131 A 
ATOM     67  C   UNL A   1      39.275  34.423  36.749  1.00  0.00     0.055 A 
ATOM     68  C   UNL A   1      37.774  32.654  37.378  1.00  0.00     0.041 A 
ATOM     69  F   UNL A   1      38.002  30.535  36.409  1.00  0.00    -0.206 F 
ATOM     70  C   UNL A   1      38.215  33.965  37.535  1.00  0.00     0.022 A 
BRANCH  67  71
ATOM     71  S   UNL A   1      40.012  36.048  37.082  1.00  0.00     0.124 S 
ATOM     72  O   UNL A   1      41.403  35.691  37.348  1.00  0.00    -0.237 OA
ATOM     73  O   UNL A   1      39.762  36.768  35.839  1.00  0.00    -0.237 OA
ATOM     74  O   UNL A   1      39.268  36.531  38.244  1.00  0.00    -0.744 OA
ENDBRANCH  67  71
ENDBRANCH  50  64
BRANCH  51  75
ATOM     75  C   UNL A   1      43.823  26.217  28.930  1.00  0.00     0.023 A 
ATOM     76  C   UNL A   1      44.597  26.754  27.889  1.00  0.00     0.031 A 
ATOM     77  C   UNL A   1      43.656  24.821  28.975  1.00  0.00     0.131 A 
ATOM     78  C   UNL A   1      45.138  25.904  26.910  1.00  0.00     0.055 A 
ATOM     79  C   UNL A   1      44.237  23.977  28.028  1.00  0.00     0.041 A 
ATOM     80  F   UNL A   1      42.925  24.256  29.949  1.00  0.00    -0.206 F 
ATOM     81  C   UNL A   1      44.974  24.519  26.979  1.00  0.00     0.022 A 
BRANCH  78  82
ATOM     82  S   UNL A   1      45.995  26.644  25.492  1.00  0.00     0.124 S 
ATOM     83  O   UNL A   1      45.124  27.770  25.173  1.00  0.00    -0.237 OA
ATOM     84  O   UNL A   1      47.294  26.977  26.064  1.00  0.00    -0.237 OA
ATOM     85  O   UNL A   1      46.009  25.566  24.504  1.00  0.00    -0.744 OA
ENDBRANCH  78  82
ENDBRANCH  51  75
BRANCH  63  86
ATOM     86  C   UNL A   1      45.196  27.814  35.582  1.00  0.00     0.023 A 
ATOM     87  C   UNL A   1      44.915  26.823  36.538  1.00  0.00     0.031 A 
ATOM     88  C   UNL A   1      46.495  28.352  35.549  1.00  0.00     0.131 A 
ATOM     89  C   UNL A   1      45.901  26.443  37.461  1.00  0.00     0.055 A 
ATOM     90  C   UNL A   1      47.489  27.928  36.431  1.00  0.00     0.041 A 
ATOM     91  F   UNL A   1      46.820  29.301  34.657  1.00  0.00    -0.206 F 
ATOM     92  C   UNL A   1      47.190  26.978  37.405  1.00  0.00     0.022 A 
BRANCH  89  93
ATOM     93  S   UNL A   1      45.448  25.312  38.805  1.00  0.00     0.124 S 
ATOM     94  O   UNL A   1      46.716  25.152  39.509  1.00  0.00    -0.237 OA
ATOM     95  O   UNL A   1      44.417  26.065  39.512  1.00  0.00    -0.237 OA
ATOM     96  O   UNL A   1      44.973  24.120  38.106  1.00  0.00    -0.744 OA
ENDBRANCH  89  93
ENDBRANCH  63  86
ENDBRANCH  37  38
ENDBRANCH  30  32
ENDBRANCH  29  30
ENDBRANCH  28  29
ENDBRANCH  27  28
ENDBRANCH   1  27
TORSDOF 20
ENDMDL
MODEL 2
REMARK VINA RESULT:     -10.7      3.314      9.438
REMARK SMILES O=C(Nc1ccc(Br)cc1)Nc1ccc(CC(=O)OCCOCCOC(=O)c2ccc(-c3c4nc(c(-c5cc(S(=O)(=O)[O-])ccc5F)c5ccc([nH]5)c(-c5cc(S(=O)(=O)[O-])ccc5F)c5nc(c(-c6cc(S(=O)(=O)[O-])ccc6F)c6ccc3[nH]6)C=C5)C=C4)cc2)cc1
REMARK SMILES IDX 22 1 21 2 20 3 19 4 17 5 18 6 16 7 15 8 12 9 13 10 92 11
REMARK SMILES IDX 14 12 91 13 11 14 1 15 2 16 3 17 4 20 5 21 10 22 6 23 9 24
REMARK SMILES IDX 7 25 8 26 23 27 24 28 25 29 26 30 27 31 28 32 29 33 90 34
REMARK SMILES IDX 30 35 89 36 31 37 32 38 33 39 83 40 34 41 88 42 82 43 84 44
REMARK SMILES IDX 35 45 87 46 81 47 80 48 36 50 68 51 48 52 67 53 49 54 52 55
REMARK SMILES IDX 66 56 85 57 50 58 51 59 65 61 86 62 53 63 37 64 38 65 46 66
REMARK SMILES IDX 39 67 45 68 47 69 44 70 40 71 41 72 42 73 43 74 69 75 70 76
REMARK SMILES IDX 78 77 71 78 77 79 79 80 76 81 72 82 73 83 74 84 75 85 54 86
REMARK SMILES IDX 55 87 63 88 56 89 62 90 64 91 61 92 57 93 58 94 59 95 60 96
REMARK H PARENT 3 18 11 19 84 49 52 60
REMARK Flexibility Score: inf
ROOT
ATOM      1  O   UNL A   1      44.810  22.643  26.882  1.00  0.00    -0.374 OA
ENDROOT
BRANCH   1   2
ATOM      2  C   UNL A   1      43.968  21.765  26.133  1.00  0.00     0.202 C 
BRANCH   2   3
ATOM      3  C   UNL A   1      42.457  21.962  26.292  1.00  0.00     0.261 C 
BRANCH   3   4
ATOM      4  O   UNL A   1      41.687  20.885  25.718  1.00  0.00    -0.463 OA
BRANCH   4   5
ATOM      5  C   UNL A   1      40.504  20.617  26.329  1.00  0.00     0.310 C 
ATOM      6  O   UNL A   1      40.332  20.624  27.546  1.00  0.00    -0.252 OA
BRANCH   5   7
ATOM      7  C   UNL A   1      39.386  20.230  25.393  1.00  0.00     0.158 C 
BRANCH   7   8
ATOM      8  C   UNL A   1      38.106  21.036  25.369  1.00  0.00    -0.037 A 
ATOM      9  C   UNL A   1      35.661  22.412  25.676  1.00  0.00     0.042 A 
ATOM     10  C   UNL A   1      36.872  23.080  25.858  1.00  0.00     0.026 A 
ATOM     11  C   UNL A   1      35.674  21.078  25.275  1.00  0.00     0.026 A 
ATOM     12  C   UNL A   1      38.083  22.384  25.748  1.00  0.00     0.006 A 
ATOM     13  C   UNL A   1      36.887  20.401  25.101  1.00  0.00     0.006 A 
BRANCH   9  14
ATOM     14  N   UNL A   1      34.470  23.114  25.942  1.00  0.00    -0.308 N 
ATOM     15  O   UNL A   1      33.450  21.625  27.393  1.00  0.00    -0.248 OA
ATOM     16  C   UNL A   1      33.432  22.652  26.718  1.00  0.00     0.323 C 
ATOM     17  N   UNL A   1      32.383  23.521  26.867  1.00  0.00    -0.308 N 
ATOM     18  H   UNL A   1      31.909  23.458  27.727  1.00  0.00     0.171 HD
ATOM     19  H   UNL A   1      34.372  24.007  25.541  1.00  0.00     0.171 HD
BRANCH  17  20
ATOM     20  C   UNL A   1      31.877  24.486  25.982  1.00  0.00     0.042 A 
ATOM     21  C   UNL A   1      32.171  25.848  26.107  1.00  0.00     0.027 A 
ATOM     22  C   UNL A   1      31.129  24.041  24.888  1.00  0.00     0.027 A 
ATOM     23  C   UNL A   1      31.710  26.757  25.152  1.00  0.00     0.018 A 
ATOM     24  C   UNL A   1      30.644  24.953  23.947  1.00  0.00     0.018 A 
ATOM     25  C   UNL A   1      30.942  26.307  24.081  1.00  0.00     0.018 A 
ATOM     26  Br  UNL A   1      30.317  27.534  22.787  1.00  0.00    -0.051 Br
ENDBRANCH  17  20
ENDBRANCH   9  14
ENDBRANCH   7   8
ENDBRANCH   5   7
ENDBRANCH   4   5
ENDBRANCH   3   4
ENDBRANCH   2   3
ENDBRANCH   1   2
BRANCH   1  27
ATOM     27  C   UNL A   1      45.994  23.105  26.237  1.00  0.00     0.202 C 
BRANCH  27  28
ATOM     28  C   UNL A   1      45.880  23.484  24.755  1.00  0.00     0.261 C 
BRANCH  28  29
ATOM     29  O   UNL A   1      44.846  24.452  24.508  1.00  0.00    -0.460 OA
BRANCH  29  30
ATOM     30  C   UNL A   1      45.145  25.698  24.955  1.00  0.00     0.338 C 
ATOM     31  O   UNL A   1      46.121  26.362  24.650  1.00  0.00    -0.246 OA
BRANCH  30  32
ATOM     32  C   UNL A   1      44.035  26.260  25.755  1.00  0.00     0.060 A 
ATOM     33  C   UNL A   1      44.104  27.630  26.039  1.00  0.00     0.016 A 
ATOM     34  C   UNL A   1      43.019  25.475  26.306  1.00  0.00     0.016 A 
ATOM     35  C   UNL A   1      43.224  28.199  26.953  1.00  0.00     0.010 A 
ATOM     36  C   UNL A   1      42.132  26.049  27.227  1.00  0.00     0.010 A 
ATOM     37  C   UNL A   1      42.274  27.400  27.601  1.00  0.00    -0.014 A 
BRANCH  37  38
ATOM     38  C   UNL A   1      41.614  27.945  28.814  1.00  0.00     0.031 A 
ATOM     39  C   UNL A   1      42.319  27.801  30.140  1.00  0.00     0.074 A 
ATOM     40  C   UNL A   1      40.472  28.651  28.728  1.00  0.00     0.049 A 
ATOM     41  N   UNL A   1      41.986  28.264  31.317  1.00  0.00    -0.248 NA
ATOM     42  C   UNL A   1      43.573  27.031  30.131  1.00  0.00     0.031 C 
ATOM     43  C   UNL A   1      39.725  28.897  27.494  1.00  0.00     0.029 A 
ATOM     44  N   UNL A   1      39.750  29.304  29.694  1.00  0.00    -0.354 N 
ATOM     45  C   UNL A   1      42.989  27.846  32.187  1.00  0.00     0.074 A 
ATOM     46  C   UNL A   1      43.914  27.050  31.409  1.00  0.00     0.031 C 
ATOM     47  C   UNL A   1      38.651  29.654  27.780  1.00  0.00     0.029 A 
ATOM     48  C   UNL A   1      38.621  29.927  29.215  1.00  0.00     0.049 A 
ATOM     49  H   UNL A   1      40.014  29.325  30.643  1.00  0.00     0.167 HD
ATOM     50  C   UNL A   1      43.137  28.115  33.508  1.00  0.00     0.034 A 
ATOM     51  C   UNL A   1      37.672  30.633  29.863  1.00  0.00     0.034 A 
ATOM     52  C   UNL A   1      42.201  28.903  34.273  1.00  0.00     0.049 A 
ATOM     53  C   UNL A   1      37.823  30.868  31.348  1.00  0.00     0.074 A 
ATOM     54  C   UNL A   1      42.244  29.231  35.617  1.00  0.00     0.029 A 
ATOM     55  N   UNL A   1      41.047  29.482  33.760  1.00  0.00    -0.354 N 
ATOM     56  N   UNL A   1      38.779  30.471  32.158  1.00  0.00    -0.248 NA
ATOM     57  C   UNL A   1      36.775  31.664  32.002  1.00  0.00     0.031 C 
ATOM     58  C   UNL A   1      41.086  29.952  35.930  1.00  0.00     0.029 A 
ATOM     59  C   UNL A   1      40.359  30.143  34.765  1.00  0.00     0.049 A 
ATOM     60  H   UNL A   1      40.760  29.429  32.821  1.00  0.00     0.167 HD
ATOM     61  C   UNL A   1      38.466  31.003  33.407  1.00  0.00     0.074 A 
ATOM     62  C   UNL A   1      37.239  31.755  33.240  1.00  0.00     0.031 C 
ATOM     63  C   UNL A   1      39.134  30.887  34.583  1.00  0.00     0.034 A 
BRANCH  50  64
ATOM     64  C   UNL A   1      44.327  27.501  34.208  1.00  0.00     0.023 A 
ATOM     65  C   UNL A   1      44.255  26.241  34.828  1.00  0.00     0.031 A 
ATOM     66  C   UNL A   1      45.540  28.208  34.297  1.00  0.00     0.131 A 
ATOM     67  C   UNL A   1      45.345  25.762  35.572  1.00  0.00     0.055 A 
ATOM     68  C   UNL A   1      46.648  27.690  34.969  1.00  0.00     0.041 A 
ATOM     69  F   UNL A   1      45.662  29.425  33.746  1.00  0.00    -0.206 F 
ATOM     70  C   UNL A   1      46.549  26.467  35.626  1.00  0.00     0.022 A 
BRANCH  67  71
ATOM     71  S   UNL A   1      45.116  24.280  36.594  1.00  0.00     0.124 S 
ATOM     72  O   UNL A   1      46.499  23.885  36.853  1.00  0.00    -0.237 OA
ATOM     73  O   UNL A   1      44.373  24.796  37.737  1.00  0.00    -0.237 OA
ATOM     74  O   UNL A   1      44.372  23.374  35.722  1.00  0.00    -0.744 OA
ENDBRANCH  67  71
ENDBRANCH  50  64
BRANCH  51  75
ATOM     75  C   UNL A   1      36.484  31.156  29.128  1.00  0.00     0.023 A 
ATOM     76  C   UNL A   1      35.542  30.291  28.549  1.00  0.00     0.031 A 
ATOM     77  C   UNL A   1      36.306  32.540  28.948  1.00  0.00     0.131 A 
ATOM     78  C   UNL A   1      34.490  30.817  27.780  1.00  0.00     0.055 A 
ATOM     79  C   UNL A   1      35.232  33.059  28.225  1.00  0.00     0.041 A 
ATOM     80  F   UNL A   1      37.179  33.411  29.480  1.00  0.00    -0.206 F 
ATOM     81  C   UNL A   1      34.322  32.193  27.625  1.00  0.00     0.022 A 
BRANCH  78  82
ATOM     82  S   UNL A   1      33.387  29.666  26.914  1.00  0.00     0.124 S 
ATOM     83  O   UNL A   1      34.290  29.064  25.940  1.00  0.00    -0.237 OA
ATOM     84  O   UNL A   1      32.941  28.800  27.999  1.00  0.00    -0.237 OA
ATOM     85  O   UNL A   1      32.357  30.540  26.353  1.00  0.00    -0.744 OA
ENDBRANCH  78  82
ENDBRANCH  51  75
BRANCH  63  86
ATOM     86  C   UNL A   1      38.579  31.644  35.766  1.00  0.00     0.023 A 
ATOM     87  C   UNL A   1      37.971  30.988  36.850  1.00  0.00     0.031 A 
ATOM     88  C   UNL A   1      38.650  33.048  35.798  1.00  0.00     0.131 A 
ATOM     89  C   UNL A   1      37.404  31.738  37.891  1.00  0.00     0.055 A 
ATOM     90  C   UNL A   1      38.137  33.787  36.865  1.00  0.00     0.041 A 
ATOM     91  F   UNL A   1      39.220  33.728  34.790  1.00  0.00    -0.206 F 
ATOM     92  C   UNL A   1      37.496  33.132  37.913  1.00  0.00     0.022 A 
BRANCH  89  93
ATOM     93  S   UNL A   1      36.452  30.874  39.172  1.00  0.00     0.124 S 
ATOM     94  O   UNL A   1      36.168  29.595  38.528  1.00  0.00    -0.237 OA
ATOM     95  O   UNL A   1      37.395  30.831  40.285  1.00  0.00    -0.237 OA
ATOM     96  O   UNL A   1      35.290  31.735  39.377  1.00  0.00    -0.744 OA
ENDBRANCH  89  93
ENDBRANCH  63  86
ENDBRANCH  37  38
ENDBRANCH  30  32
ENDBRANCH  29  30
ENDBRANCH  28  29
ENDBRANCH  27  28
ENDBRANCH   1  27
TORSDOF 20
ENDMDL
MODEL 3
REMARK VINA RESULT:      -9.9      3.219      9.521
REMARK SMILES O=C(Nc1ccc(Br)cc1)Nc1ccc(CC(=O)OCCOCCOC(=O)c2ccc(-c3c4nc(c(-c5cc(S(=O)(=O)[O-])ccc5F)c5ccc([nH]5)c(-c5cc(S(=O)(=O)[O-])ccc5F)c5nc(c(-c6cc(S(=O)(=O)[O-])ccc6F)c6ccc3[nH]6)C=C5)C=C4)cc2)cc1
REMARK SMILES IDX 22 1 21 2 20 3 19 4 17 5 18 6 16 7 15 8 12 9 13 10 92 11
REMARK SMILES IDX 14 12 91 13 11 14 1 15 2 16 3 17 4 20 5 21 10 22 6 23 9 24
REMARK SMILES IDX 7 25 8 26 23 27 24 28 25 29 26 30 27 31 28 32 29 33 90 34
REMARK SMILES IDX 30 35 89 36 31 37 32 38 33 39 83 40 34 41 88 42 82 43 84 44
REMARK SMILES IDX 35 45 87 46 81 47 80 48 36 50 68 51 48 52 67 53 49 54 52 55
REMARK SMILES IDX 66 56 85 57 50 58 51 59 65 61 86 62 53 63 37 64 38 65 46 66
REMARK SMILES IDX 39 67 45 68 47 69 44 70 40 71 41 72 42 73 43 74 69 75 70 76
REMARK SMILES IDX 78 77 71 78 77 79 79 80 76 81 72 82 73 83 74 84 75 85 54 86
REMARK SMILES IDX 55 87 63 88 56 89 62 90 64 91 61 92 57 93 58 94 59 95 60 96
REMARK H PARENT 3 18 11 19 84 49 52 60
REMARK Flexibility Score: inf
ROOT
ATOM      1  O   UNL A   1      46.260  23.527  27.117  1.00  0.00    -0.374 OA
ENDROOT
BRANCH   1   2
ATOM      2  C   UNL A   1      45.496  22.464  26.546  1.00  0.00     0.202 C 
BRANCH   2   3
ATOM      3  C   UNL A   1      43.972  22.607  26.603  1.00  0.00     0.261 C 
BRANCH   3   4
ATOM      4  O   UNL A   1      43.439  22.410  27.930  1.00  0.00    -0.463 OA
BRANCH   4   5
ATOM      5  C   UNL A   1      42.084  22.411  28.024  1.00  0.00     0.310 C 
ATOM      6  O   UNL A   1      41.452  22.863  28.976  1.00  0.00    -0.252 OA
BRANCH   5   7
ATOM      7  C   UNL A   1      41.373  21.739  26.875  1.00  0.00     0.158 C 
BRANCH   7   8
ATOM      8  C   UNL A   1      40.044  22.273  26.390  1.00  0.00    -0.037 A 
ATOM      9  C   UNL A   1      37.426  23.160  25.818  1.00  0.00     0.042 A 
ATOM     10  C   UNL A   1      38.396  24.064  26.252  1.00  0.00     0.026 A 
ATOM     11  C   UNL A   1      37.782  21.830  25.606  1.00  0.00     0.026 A 
ATOM     12  C   UNL A   1      39.682  23.614  26.577  1.00  0.00     0.006 A 
ATOM     13  C   UNL A   1      39.087  21.395  25.867  1.00  0.00     0.006 A 
BRANCH   9  14
ATOM     14  N   UNL A   1      36.110  23.631  25.648  1.00  0.00    -0.308 N 
ATOM     15  O   UNL A   1      35.164  21.792  24.606  1.00  0.00    -0.248 OA
ATOM     16  C   UNL A   1      35.101  22.953  25.004  1.00  0.00     0.323 C 
ATOM     17  N   UNL A   1      33.888  23.592  24.985  1.00  0.00    -0.308 N 
ATOM     18  H   UNL A   1      33.105  22.996  24.995  1.00  0.00     0.171 HD
ATOM     19  H   UNL A   1      35.895  24.517  26.019  1.00  0.00     0.171 HD
BRANCH  17  20
ATOM     20  C   UNL A   1      33.590  24.963  24.953  1.00  0.00     0.042 A 
ATOM     21  C   UNL A   1      33.676  25.724  23.784  1.00  0.00     0.027 A 
ATOM     22  C   UNL A   1      33.101  25.551  26.124  1.00  0.00     0.027 A 
ATOM     23  C   UNL A   1      33.288  27.067  23.789  1.00  0.00     0.018 A 
ATOM     24  C   UNL A   1      32.739  26.901  26.137  1.00  0.00     0.018 A 
ATOM     25  C   UNL A   1      32.829  27.651  24.967  1.00  0.00     0.018 A 
ATOM     26  Br  UNL A   1      32.304  29.465  24.977  1.00  0.00    -0.051 Br
ENDBRANCH  17  20
ENDBRANCH   9  14
ENDBRANCH   7   8
ENDBRANCH   5   7
ENDBRANCH   4   5
ENDBRANCH   3   4
ENDBRANCH   2   3
ENDBRANCH   1   2
BRANCH   1  27
ATOM     27  C   UNL A   1      47.021  24.328  26.217  1.00  0.00     0.202 C 
BRANCH  27  28
ATOM     28  C   UNL A   1      46.545  24.387  24.761  1.00  0.00     0.261 C 
BRANCH  28  29
ATOM     29  O   UNL A   1      45.291  25.076  24.614  1.00  0.00    -0.460 OA
BRANCH  29  30
ATOM     30  C   UNL A   1      45.359  26.401  24.900  1.00  0.00     0.338 C 
ATOM     31  O   UNL A   1      46.156  27.202  24.440  1.00  0.00    -0.246 OA
BRANCH  30  32
ATOM     32  C   UNL A   1      44.215  26.828  25.734  1.00  0.00     0.060 A 
ATOM     33  C   UNL A   1      44.091  28.205  25.963  1.00  0.00     0.016 A 
ATOM     34  C   UNL A   1      43.353  25.927  26.364  1.00  0.00     0.016 A 
ATOM     35  C   UNL A   1      43.177  28.677  26.899  1.00  0.00     0.010 A 
ATOM     36  C   UNL A   1      42.433  26.404  27.308  1.00  0.00     0.010 A 
ATOM     37  C   UNL A   1      42.388  27.776  27.624  1.00  0.00    -0.014 A 
BRANCH  37  38
ATOM     38  C   UNL A   1      41.709  28.271  28.849  1.00  0.00     0.031 A 
ATOM     39  C   UNL A   1      42.442  28.175  30.163  1.00  0.00     0.074 A 
ATOM     40  C   UNL A   1      40.518  28.893  28.781  1.00  0.00     0.049 A 
ATOM     41  N   UNL A   1      42.095  28.611  31.346  1.00  0.00    -0.248 NA
ATOM     42  C   UNL A   1      43.748  27.496  30.133  1.00  0.00     0.031 C 
ATOM     43  C   UNL A   1      39.738  29.088  27.559  1.00  0.00     0.029 A 
ATOM     44  N   UNL A   1      39.766  29.492  29.760  1.00  0.00    -0.354 N 
ATOM     45  C   UNL A   1      43.138  28.264  32.200  1.00  0.00     0.074 A 
ATOM     46  C   UNL A   1      44.105  27.537  31.407  1.00  0.00     0.031 C 
ATOM     47  C   UNL A   1      38.617  29.766  27.863  1.00  0.00     0.029 A 
ATOM     48  C   UNL A   1      38.589  30.035  29.299  1.00  0.00     0.049 A 
ATOM     49  H   UNL A   1      40.043  29.530  30.704  1.00  0.00     0.167 HD
ATOM     50  C   UNL A   1      43.286  28.540  33.520  1.00  0.00     0.034 A 
ATOM     51  C   UNL A   1      37.603  30.670  29.963  1.00  0.00     0.034 A 
ATOM     52  C   UNL A   1      42.309  29.259  34.301  1.00  0.00     0.049 A 
ATOM     53  C   UNL A   1      37.758  30.913  31.446  1.00  0.00     0.074 A 
ATOM     54  C   UNL A   1      42.348  29.587  35.645  1.00  0.00     0.029 A 
ATOM     55  N   UNL A   1      41.108  29.755  33.807  1.00  0.00    -0.354 N 
ATOM     56  N   UNL A   1      38.752  30.583  32.240  1.00  0.00    -0.248 NA
ATOM     57  C   UNL A   1      36.666  31.631  32.118  1.00  0.00     0.031 C 
ATOM     58  C   UNL A   1      41.146  30.224  35.977  1.00  0.00     0.029 A 
ATOM     59  C   UNL A   1      40.390  30.364  34.823  1.00  0.00     0.049 A 
ATOM     60  H   UNL A   1      40.812  29.684  32.871  1.00  0.00     0.167 HD
ATOM     61  C   UNL A   1      38.421  31.089  33.495  1.00  0.00     0.074 A 
ATOM     62  C   UNL A   1      37.141  31.753  33.349  1.00  0.00     0.031 C 
ATOM     63  C   UNL A   1      39.113  31.020  34.662  1.00  0.00     0.034 A 
BRANCH  50  64
ATOM     64  C   UNL A   1      44.528  28.012  34.200  1.00  0.00     0.023 A 
ATOM     65  C   UNL A   1      44.543  26.765  34.850  1.00  0.00     0.031 A 
ATOM     66  C   UNL A   1      45.700  28.788  34.239  1.00  0.00     0.131 A 
ATOM     67  C   UNL A   1      45.678  26.366  35.574  1.00  0.00     0.055 A 
ATOM     68  C   UNL A   1      46.853  28.349  34.893  1.00  0.00     0.041 A 
ATOM     69  F   UNL A   1      45.738  29.997  33.658  1.00  0.00    -0.206 F 
ATOM     70  C   UNL A   1      46.841  27.139  35.580  1.00  0.00     0.022 A 
BRANCH  67  71
ATOM     71  S   UNL A   1      45.561  24.899  36.635  1.00  0.00     0.124 S 
ATOM     72  O   UNL A   1      45.992  23.842  35.724  1.00  0.00    -0.237 OA
ATOM     73  O   UNL A   1      46.479  25.221  37.721  1.00  0.00    -0.237 OA
ATOM     74  O   UNL A   1      44.148  24.854  37.004  1.00  0.00    -0.744 OA
ENDBRANCH  67  71
ENDBRANCH  50  64
BRANCH  51  75
ATOM     75  C   UNL A   1      36.369  31.108  29.247  1.00  0.00     0.023 A 
ATOM     76  C   UNL A   1      35.922  32.438  29.304  1.00  0.00     0.031 A 
ATOM     77  C   UNL A   1      35.588  30.180  28.535  1.00  0.00     0.131 A 
ATOM     78  C   UNL A   1      34.704  32.792  28.699  1.00  0.00     0.055 A 
ATOM     79  C   UNL A   1      34.404  30.547  27.894  1.00  0.00     0.041 A 
ATOM     80  F   UNL A   1      35.970  28.895  28.451  1.00  0.00    -0.206 F 
ATOM     81  C   UNL A   1      33.949  31.859  27.986  1.00  0.00     0.022 A 
BRANCH  78  82
ATOM     82  S   UNL A   1      34.076  34.479  28.930  1.00  0.00     0.124 S 
ATOM     83  O   UNL A   1      32.657  34.310  28.642  1.00  0.00    -0.237 OA
ATOM     84  O   UNL A   1      34.424  34.742  30.322  1.00  0.00    -0.237 OA
ATOM     85  O   UNL A   1      34.825  35.257  27.945  1.00  0.00    -0.744 OA
ENDBRANCH  78  82
ENDBRANCH  51  75
BRANCH  63  86
ATOM     86  C   UNL A   1      38.523  31.733  35.854  1.00  0.00     0.023 A 
ATOM     87  C   UNL A   1      37.931  31.035  36.921  1.00  0.00     0.031 A 
ATOM     88  C   UNL A   1      38.544  33.138  35.914  1.00  0.00     0.131 A 
ATOM     89  C   UNL A   1      37.331  31.744  37.972  1.00  0.00     0.055 A 
ATOM     90  C   UNL A   1      37.998  33.837  36.991  1.00  0.00     0.041 A 
ATOM     91  F   UNL A   1      39.096  33.857  34.923  1.00  0.00    -0.206 F 
ATOM     92  C   UNL A   1      37.374  33.140  38.022  1.00  0.00     0.022 A 
BRANCH  89  93
ATOM     93  S   UNL A   1      36.402  30.822  39.228  1.00  0.00     0.124 S 
ATOM     94  O   UNL A   1      35.234  31.673  39.429  1.00  0.00    -0.237 OA
ATOM     95  O   UNL A   1      36.155  29.548  38.560  1.00  0.00    -0.237 OA
ATOM     96  O   UNL A   1      37.324  30.759  40.360  1.00  0.00    -0.744 OA
ENDBRANCH  89  93
ENDBRANCH  63  86
ENDBRANCH  37  38
ENDBRANCH  30  32
ENDBRANCH  29  30
ENDBRANCH  28  29
ENDBRANCH  27  28
ENDBRANCH   1  27
TORSDOF 20
ENDMDL
