MODEL 1
REMARK VINA RESULT:      -9.2      0.000      0.000
REMARK SMILES Cc1cc(S(=O)(=O)N[C@H](CO)C(C)C)sc1C(=O)OCCOCCOC(=O)c1ccc(-c2c3nc(c(-c4cc(S(=O)(=O)[O-])ccc4F)c4ccc([nH]4)c(-c4cc(S(=O)(=O)[O-])ccc4F)c4nc(c(-c5cc(S(=O)(=O)[O-])ccc5F)c5ccc2[nH]5)C=C4)C=C3)cc1
REMARK SMILES IDX 21 1 20 2 19 3 17 4 18 5 16 6 1 7 2 8 3 9 4 10 15 11 5 12
REMARK SMILES IDX 6 13 7 14 8 15 9 17 12 18 13 19 14 20 10 21 11 22 22 24
REMARK SMILES IDX 23 25 24 26 25 27 26 28 27 29 28 30 29 31 90 32 30 33 89 34
REMARK SMILES IDX 31 35 32 36 33 37 83 38 34 39 88 40 82 41 84 42 35 43 87 44
REMARK SMILES IDX 81 45 80 46 36 48 68 49 48 50 67 51 49 52 52 53 66 54 85 55
REMARK SMILES IDX 50 56 51 57 65 59 86 60 53 61 37 62 38 63 46 64 39 65 45 66
REMARK SMILES IDX 47 67 44 68 40 69 41 70 42 71 43 72 69 73 70 74 78 75 71 76
REMARK SMILES IDX 77 77 79 78 76 79 72 80 73 81 74 82 75 83 54 84 55 85 63 86
REMARK SMILES IDX 56 87 62 88 64 89 61 90 57 91 58 92 59 93 60 94
REMARK H PARENT 8 16 11 23 84 47 52 58
REMARK Flexibility Score: inf
ROOT
ATOM      1  C   UNL A   1      36.030  21.704  24.128  1.00  0.00     0.202 C 
ENDROOT
BRANCH   1   2
ATOM      2  C   UNL A   1      35.212  21.515  25.410  1.00  0.00     0.261 C 
BRANCH   2   3
ATOM      3  O   UNL A   1      34.432  20.309  25.306  1.00  0.00    -0.459 OA
BRANCH   3   4
ATOM      4  C   UNL A   1      33.079  20.454  25.319  1.00  0.00     0.348 C 
ATOM      5  O   UNL A   1      32.290  19.522  25.207  1.00  0.00    -0.245 OA
BRANCH   4   6
ATOM      6  C   UNL A   1      32.727  21.837  25.627  1.00  0.00     0.116 A 
ATOM      7  C   UNL A   1      33.406  22.174  28.101  1.00  0.00     0.046 C 
ATOM      8  C   UNL A   1      32.777  22.583  26.805  1.00  0.00    -0.024 A 
ATOM      9  C   UNL A   1      32.099  23.846  26.641  1.00  0.00     0.038 A 
ATOM     10  C   UNL A   1      31.569  24.017  25.380  1.00  0.00     0.135 A 
ATOM     11  S   UNL A   1      32.090  22.777  24.332  1.00  0.00    -0.115 S 
BRANCH  10  12
ATOM     12  S   UNL A   1      30.499  25.239  24.662  1.00  0.00     0.250 S 
ATOM     13  O   UNL A   1      29.988  24.665  23.441  1.00  0.00    -0.206 OA
ATOM     14  O   UNL A   1      29.608  25.649  25.729  1.00  0.00    -0.206 OA
BRANCH  12  15
ATOM     15  N   UNL A   1      31.425  26.590  24.276  1.00  0.00    -0.205 NA
ATOM     16  H   UNL A   1      32.311  26.475  24.768  1.00  0.00     0.141 HD
BRANCH  15  17
ATOM     17  C   UNL A   1      31.777  26.955  22.868  1.00  0.00     0.098 C 
BRANCH  17  18
ATOM     18  C   UNL A   1      31.032  28.191  22.321  1.00  0.00     0.003 C 
ATOM     19  C   UNL A   1      29.680  28.420  23.010  1.00  0.00     0.009 C 
ATOM     20  C   UNL A   1      31.859  29.470  22.462  1.00  0.00     0.009 C 
ENDBRANCH  17  18
BRANCH  17  21
ATOM     21  C   UNL A   1      33.312  27.040  22.731  1.00  0.00     0.176 C 
BRANCH  21  22
ATOM     22  O   UNL A   1      33.785  26.071  21.792  1.00  0.00    -0.395 OA
ATOM     23  H   UNL A   1      34.247  26.521  21.067  1.00  0.00     0.210 HD
ENDBRANCH  21  22
ENDBRANCH  17  21
ENDBRANCH  15  17
ENDBRANCH  12  15
ENDBRANCH  10  12
ENDBRANCH   4   6
ENDBRANCH   3   4
ENDBRANCH   2   3
ENDBRANCH   1   2
BRANCH   1  24
ATOM     24  O   UNL A   1      37.436  21.845  24.357  1.00  0.00    -0.374 OA
BRANCH  24  25
ATOM     25  C   UNL A   1      38.061  20.790  25.084  1.00  0.00     0.202 C 
BRANCH  25  26
ATOM     26  C   UNL A   1      39.091  21.240  26.127  1.00  0.00     0.261 C 
BRANCH  26  27
ATOM     27  O   UNL A   1      40.388  20.680  25.864  1.00  0.00    -0.460 OA
BRANCH  27  28
ATOM     28  C   UNL A   1      41.230  20.680  26.928  1.00  0.00     0.338 C 
ATOM     29  O   UNL A   1      41.644  19.706  27.532  1.00  0.00    -0.246 OA
BRANCH  28  30
ATOM     30  C   UNL A   1      41.735  22.048  27.163  1.00  0.00     0.060 A 
ATOM     31  C   UNL A   1      41.966  22.428  28.492  1.00  0.00     0.016 A 
ATOM     32  C   UNL A   1      41.937  22.957  26.122  1.00  0.00     0.016 A 
ATOM     33  C   UNL A   1      42.364  23.731  28.786  1.00  0.00     0.010 A 
ATOM     34  C   UNL A   1      42.331  24.267  26.420  1.00  0.00     0.010 A 
ATOM     35  C   UNL A   1      42.520  24.667  27.756  1.00  0.00    -0.014 A 
BRANCH  35  36
ATOM     36  C   UNL A   1      42.756  26.094  28.091  1.00  0.00     0.031 A 
ATOM     37  C   UNL A   1      44.150  26.650  27.988  1.00  0.00     0.074 A 
ATOM     38  C   UNL A   1      41.735  26.890  28.456  1.00  0.00     0.049 A 
ATOM     39  N   UNL A   1      44.589  27.850  28.261  1.00  0.00    -0.248 NA
ATOM     40  C   UNL A   1      45.188  25.720  27.516  1.00  0.00     0.031 C 
ATOM     41  C   UNL A   1      40.335  26.477  28.554  1.00  0.00     0.029 A 
ATOM     42  N   UNL A   1      41.720  28.214  28.817  1.00  0.00    -0.354 N 
ATOM     43  C   UNL A   1      45.954  27.825  27.994  1.00  0.00     0.074 A 
ATOM     44  C   UNL A   1      46.274  26.476  27.578  1.00  0.00     0.031 C 
ATOM     45  C   UNL A   1      39.599  27.525  28.960  1.00  0.00     0.029 A 
ATOM     46  C   UNL A   1      40.477  28.672  29.185  1.00  0.00     0.049 A 
ATOM     47  H   UNL A   1      42.525  28.782  28.814  1.00  0.00     0.167 HD
ATOM     48  C   UNL A   1      46.854  28.837  28.078  1.00  0.00     0.034 A 
ATOM     49  C   UNL A   1      40.096  29.871  29.671  1.00  0.00     0.034 A 
ATOM     50  C   UNL A   1      46.523  30.173  28.509  1.00  0.00     0.049 A 
ATOM     51  C   UNL A   1      41.131  30.958  29.839  1.00  0.00     0.074 A 
ATOM     52  C   UNL A   1      47.355  31.275  28.619  1.00  0.00     0.029 A 
ATOM     53  N   UNL A   1      45.261  30.589  28.916  1.00  0.00    -0.354 N 
ATOM     54  N   UNL A   1      42.417  30.924  29.573  1.00  0.00    -0.248 NA
ATOM     55  C   UNL A   1      40.659  32.246  30.364  1.00  0.00     0.031 C 
ATOM     56  C   UNL A   1      46.613  32.334  29.156  1.00  0.00     0.029 A 
ATOM     57  C   UNL A   1      45.300  31.919  29.309  1.00  0.00     0.049 A 
ATOM     58  H   UNL A   1      44.456  30.022  28.923  1.00  0.00     0.167 HD
ATOM     59  C   UNL A   1      42.899  32.196  29.871  1.00  0.00     0.074 A 
ATOM     60  C   UNL A   1      41.765  32.975  30.324  1.00  0.00     0.031 C 
ATOM     61  C   UNL A   1      44.164  32.680  29.772  1.00  0.00     0.034 A 
BRANCH  48  62
ATOM     62  C   UNL A   1      48.289  28.512  27.743  1.00  0.00     0.023 A 
ATOM     63  C   UNL A   1      48.740  28.437  26.413  1.00  0.00     0.031 A 
ATOM     64  C   UNL A   1      49.213  28.238  28.767  1.00  0.00     0.131 A 
ATOM     65  C   UNL A   1      50.054  28.028  26.141  1.00  0.00     0.055 A 
ATOM     66  C   UNL A   1      50.541  27.907  28.492  1.00  0.00     0.041 A 
ATOM     67  F   UNL A   1      48.834  28.271  30.055  1.00  0.00    -0.206 F 
ATOM     68  C   UNL A   1      50.965  27.786  27.173  1.00  0.00     0.022 A 
BRANCH  65  69
ATOM     69  S   UNL A   1      50.516  27.677  24.423  1.00  0.00     0.124 S 
ATOM     70  O   UNL A   1      49.233  27.278  23.849  1.00  0.00    -0.237 OA
ATOM     71  O   UNL A   1      51.049  28.957  23.972  1.00  0.00    -0.237 OA
ATOM     72  O   UNL A   1      51.497  26.601  24.545  1.00  0.00    -0.744 OA
ENDBRANCH  65  69
ENDBRANCH  48  62
BRANCH  49  73
ATOM     73  C   UNL A   1      38.681  30.103  30.078  1.00  0.00     0.023 A 
ATOM     74  C   UNL A   1      37.768  30.728  29.215  1.00  0.00     0.031 A 
ATOM     75  C   UNL A   1      38.238  29.750  31.366  1.00  0.00     0.131 A 
ATOM     76  C   UNL A   1      36.470  31.020  29.664  1.00  0.00     0.055 A 
ATOM     77  C   UNL A   1      36.931  29.998  31.790  1.00  0.00     0.041 A 
ATOM     78  F   UNL A   1      39.070  29.149  32.230  1.00  0.00    -0.206 F 
ATOM     79  C   UNL A   1      36.042  30.649  30.940  1.00  0.00     0.022 A 
BRANCH  76  80
ATOM     80  S   UNL A   1      35.369  31.969  28.579  1.00  0.00     0.124 S 
ATOM     81  O   UNL A   1      34.949  30.953  27.620  1.00  0.00    -0.237 OA
ATOM     82  O   UNL A   1      34.348  32.430  29.514  1.00  0.00    -0.237 OA
ATOM     83  O   UNL A   1      36.237  33.013  28.041  1.00  0.00    -0.744 OA
ENDBRANCH  76  80
ENDBRANCH  49  73
BRANCH  61  84
ATOM     84  C   UNL A   1      44.372  34.134  30.120  1.00  0.00     0.023 A 
ATOM     85  C   UNL A   1      44.050  35.166  29.220  1.00  0.00     0.031 A 
ATOM     86  C   UNL A   1      44.912  34.490  31.369  1.00  0.00     0.131 A 
ATOM     87  C   UNL A   1      44.318  36.501  29.563  1.00  0.00     0.055 A 
ATOM     88  C   UNL A   1      45.123  35.823  31.726  1.00  0.00     0.041 A 
ATOM     89  F   UNL A   1      45.239  33.547  32.266  1.00  0.00    -0.206 F 
ATOM     90  C   UNL A   1      44.838  36.837  30.815  1.00  0.00     0.022 A 
BRANCH  87  91
ATOM     91  S   UNL A   1      44.057  37.791  28.314  1.00  0.00     0.124 S 
ATOM     92  O   UNL A   1      43.013  38.604  28.931  1.00  0.00    -0.237 OA
ATOM     93  O   UNL A   1      45.376  38.410  28.226  1.00  0.00    -0.237 OA
ATOM     94  O   UNL A   1      43.643  37.044  27.129  1.00  0.00    -0.744 OA
ENDBRANCH  87  91
ENDBRANCH  61  84
ENDBRANCH  35  36
ENDBRANCH  28  30
ENDBRANCH  27  28
ENDBRANCH  26  27
ENDBRANCH  25  26
ENDBRANCH  24  25
ENDBRANCH   1  24
TORSDOF 23
ENDMDL
MODEL 2
REMARK VINA RESULT:      -9.1      6.441     13.706
REMARK SMILES Cc1cc(S(=O)(=O)N[C@H](CO)C(C)C)sc1C(=O)OCCOCCOC(=O)c1ccc(-c2c3nc(c(-c4cc(S(=O)(=O)[O-])ccc4F)c4ccc([nH]4)c(-c4cc(S(=O)(=O)[O-])ccc4F)c4nc(c(-c5cc(S(=O)(=O)[O-])ccc5F)c5ccc2[nH]5)C=C4)C=C3)cc1
REMARK SMILES IDX 21 1 20 2 19 3 17 4 18 5 16 6 1 7 2 8 3 9 4 10 15 11 5 12
REMARK SMILES IDX 6 13 7 14 8 15 9 17 12 18 13 19 14 20 10 21 11 22 22 24
REMARK SMILES IDX 23 25 24 26 25 27 26 28 27 29 28 30 29 31 90 32 30 33 89 34
REMARK SMILES IDX 31 35 32 36 33 37 83 38 34 39 88 40 82 41 84 42 35 43 87 44
REMARK SMILES IDX 81 45 80 46 36 48 68 49 48 50 67 51 49 52 52 53 66 54 85 55
REMARK SMILES IDX 50 56 51 57 65 59 86 60 53 61 37 62 38 63 46 64 39 65 45 66
REMARK SMILES IDX 47 67 44 68 40 69 41 70 42 71 43 72 69 73 70 74 78 75 71 76
REMARK SMILES IDX 77 77 79 78 76 79 72 80 73 81 74 82 75 83 54 84 55 85 63 86
REMARK SMILES IDX 56 87 62 88 64 89 61 90 57 91 58 92 59 93 60 94
REMARK H PARENT 8 16 11 23 84 47 52 58
REMARK Flexibility Score: inf
ROOT
ATOM      1  C   UNL A   1      46.396  30.411  26.100  1.00  0.00     0.202 C 
ENDROOT
BRANCH   1   2
ATOM      2  C   UNL A   1      45.860  29.002  26.376  1.00  0.00     0.261 C 
BRANCH   2   3
ATOM      3  O   UNL A   1      46.889  28.034  26.093  1.00  0.00    -0.459 OA
BRANCH   3   4
ATOM      4  C   UNL A   1      47.116  27.089  27.046  1.00  0.00     0.348 C 
ATOM      5  O   UNL A   1      47.949  27.204  27.938  1.00  0.00    -0.245 OA
BRANCH   4   6
ATOM      6  C   UNL A   1      46.135  26.014  26.928  1.00  0.00     0.116 A 
ATOM      7  C   UNL A   1      44.657  26.209  29.043  1.00  0.00     0.046 C 
ATOM      8  C   UNL A   1      45.129  25.558  27.779  1.00  0.00    -0.024 A 
ATOM      9  C   UNL A   1      44.578  24.312  27.301  1.00  0.00     0.038 A 
ATOM     10  C   UNL A   1      45.167  23.872  26.135  1.00  0.00     0.135 A 
ATOM     11  S   UNL A   1      46.202  25.065  25.492  1.00  0.00    -0.115 S 
BRANCH  10  12
ATOM     12  S   UNL A   1      45.051  22.364  25.204  1.00  0.00     0.250 S 
ATOM     13  O   UNL A   1      44.285  22.675  24.022  1.00  0.00    -0.206 OA
ATOM     14  O   UNL A   1      46.407  21.863  25.108  1.00  0.00    -0.206 OA
BRANCH  12  15
ATOM     15  N   UNL A   1      44.197  21.241  26.121  1.00  0.00    -0.205 NA
ATOM     16  H   UNL A   1      44.253  21.565  27.088  1.00  0.00     0.141 HD
BRANCH  15  17
ATOM     17  C   UNL A   1      42.756  20.922  25.874  1.00  0.00     0.098 C 
BRANCH  17  18
ATOM     18  C   UNL A   1      42.376  19.446  26.118  1.00  0.00     0.003 C 
ATOM     19  C   UNL A   1      43.526  18.479  25.802  1.00  0.00     0.009 C 
ATOM     20  C   UNL A   1      41.929  19.197  27.559  1.00  0.00     0.009 C 
ENDBRANCH  17  18
BRANCH  17  21
ATOM     21  C   UNL A   1      41.872  21.928  26.639  1.00  0.00     0.176 C 
BRANCH  21  22
ATOM     22  O   UNL A   1      40.940  22.552  25.751  1.00  0.00    -0.395 OA
ATOM     23  H   UNL A   1      41.246  22.448  24.836  1.00  0.00     0.210 HD
ENDBRANCH  21  22
ENDBRANCH  17  21
ENDBRANCH  15  17
ENDBRANCH  12  15
ENDBRANCH  10  12
ENDBRANCH   4   6
ENDBRANCH   3   4
ENDBRANCH   2   3
ENDBRANCH   1   2
BRANCH   1  24
ATOM     24  O   UNL A   1      45.374  31.373  25.825  1.00  0.00    -0.374 OA
BRANCH  24  25
ATOM     25  C   UNL A   1      45.670  32.722  26.179  1.00  0.00     0.202 C 
BRANCH  25  26
ATOM     26  C   UNL A   1      44.873  33.787  25.416  1.00  0.00     0.261 C 
BRANCH  26  27
ATOM     27  O   UNL A   1      43.807  34.321  26.216  1.00  0.00    -0.460 OA
BRANCH  27  28
ATOM     28  C   UNL A   1      44.162  35.364  27.009  1.00  0.00     0.338 C 
ATOM     29  O   UNL A   1      44.641  36.425  26.650  1.00  0.00    -0.246 OA
BRANCH  28  30
ATOM     30  C   UNL A   1      43.725  35.107  28.396  1.00  0.00     0.060 A 
ATOM     31  C   UNL A   1      43.385  33.789  28.729  1.00  0.00     0.016 A 
ATOM     32  C   UNL A   1      43.604  36.129  29.341  1.00  0.00     0.016 A 
ATOM     33  C   UNL A   1      42.887  33.495  29.997  1.00  0.00     0.010 A 
ATOM     34  C   UNL A   1      43.098  35.832  30.612  1.00  0.00     0.010 A 
ATOM     35  C   UNL A   1      42.712  34.519  30.938  1.00  0.00    -0.014 A 
BRANCH  35  36
ATOM     36  C   UNL A   1      42.006  34.232  32.212  1.00  0.00     0.031 A 
ATOM     37  C   UNL A   1      40.504  34.287  32.244  1.00  0.00     0.074 A 
ATOM     38  C   UNL A   1      42.696  33.902  33.318  1.00  0.00     0.049 A 
ATOM     39  N   UNL A   1      39.687  34.107  33.248  1.00  0.00    -0.248 NA
ATOM     40  C   UNL A   1      39.836  34.592  30.969  1.00  0.00     0.031 C 
ATOM     41  C   UNL A   1      44.151  33.777  33.401  1.00  0.00     0.029 A 
ATOM     42  N   UNL A   1      42.262  33.614  34.588  1.00  0.00    -0.354 N 
ATOM     43  C   UNL A   1      38.406  34.273  32.730  1.00  0.00     0.074 A 
ATOM     44  C   UNL A   1      38.562  34.612  31.331  1.00  0.00     0.031 C 
ATOM     45  C   UNL A   1      44.490  33.448  34.659  1.00  0.00     0.029 A 
ATOM     46  C   UNL A   1      43.282  33.374  35.479  1.00  0.00     0.049 A 
ATOM     47  H   UNL A   1      41.310  33.583  34.838  1.00  0.00     0.167 HD
ATOM     48  C   UNL A   1      37.212  34.146  33.362  1.00  0.00     0.034 A 
ATOM     49  C   UNL A   1      43.245  33.145  36.807  1.00  0.00     0.034 A 
ATOM     50  C   UNL A   1      37.072  33.823  34.760  1.00  0.00     0.049 A 
ATOM     51  C   UNL A   1      41.909  33.093  37.507  1.00  0.00     0.074 A 
ATOM     52  C   UNL A   1      35.912  33.658  35.497  1.00  0.00     0.029 A 
ATOM     53  N   UNL A   1      38.130  33.630  35.642  1.00  0.00    -0.354 N 
ATOM     54  N   UNL A   1      40.705  33.242  37.004  1.00  0.00    -0.248 NA
ATOM     55  C   UNL A   1      41.928  32.832  38.953  1.00  0.00     0.031 C 
ATOM     56  C   UNL A   1      36.266  33.434  36.832  1.00  0.00     0.029 A 
ATOM     57  C   UNL A   1      37.647  33.381  36.919  1.00  0.00     0.049 A 
ATOM     58  H   UNL A   1      39.082  33.664  35.396  1.00  0.00     0.167 HD
ATOM     59  C   UNL A   1      39.824  33.063  38.068  1.00  0.00     0.074 A 
ATOM     60  C   UNL A   1      40.634  32.783  39.235  1.00  0.00     0.031 C 
ATOM     61  C   UNL A   1      38.467  33.117  38.078  1.00  0.00     0.034 A 
BRANCH  48  62
ATOM     62  C   UNL A   1      35.970  34.408  32.546  1.00  0.00     0.023 A 
ATOM     63  C   UNL A   1      35.277  35.630  32.624  1.00  0.00     0.031 A 
ATOM     64  C   UNL A   1      35.449  33.409  31.705  1.00  0.00     0.131 A 
ATOM     65  C   UNL A   1      34.068  35.795  31.932  1.00  0.00     0.055 A 
ATOM     66  C   UNL A   1      34.286  33.608  30.958  1.00  0.00     0.041 A 
ATOM     67  F   UNL A   1      36.053  32.214  31.608  1.00  0.00    -0.206 F 
ATOM     68  C   UNL A   1      33.580  34.800  31.080  1.00  0.00     0.022 A 
BRANCH  65  69
ATOM     69  S   UNL A   1      33.067  37.269  32.272  1.00  0.00     0.124 S 
ATOM     70  O   UNL A   1      32.951  37.859  30.940  1.00  0.00    -0.237 OA
ATOM     71  O   UNL A   1      31.846  36.699  32.827  1.00  0.00    -0.237 OA
ATOM     72  O   UNL A   1      33.887  38.029  33.213  1.00  0.00    -0.744 OA
ENDBRANCH  65  69
ENDBRANCH  48  62
BRANCH  49  73
ATOM     73  C   UNL A   1      44.511  32.991  37.580  1.00  0.00     0.023 A 
ATOM     74  C   UNL A   1      45.144  34.097  38.168  1.00  0.00     0.031 A 
ATOM     75  C   UNL A   1      45.135  31.735  37.692  1.00  0.00     0.131 A 
ATOM     76  C   UNL A   1      46.385  33.934  38.805  1.00  0.00     0.055 A 
ATOM     77  C   UNL A   1      46.344  31.570  38.369  1.00  0.00     0.041 A 
ATOM     78  F   UNL A   1      44.571  30.645  37.148  1.00  0.00    -0.206 F 
ATOM     79  C   UNL A   1      46.983  32.677  38.920  1.00  0.00     0.022 A 
BRANCH  76  80
ATOM     80  S   UNL A   1      47.249  35.408  39.414  1.00  0.00     0.124 S 
ATOM     81  O   UNL A   1      46.541  35.673  40.661  1.00  0.00    -0.237 OA
ATOM     82  O   UNL A   1      48.619  34.923  39.544  1.00  0.00    -0.237 OA
ATOM     83  O   UNL A   1      47.035  36.390  38.354  1.00  0.00    -0.744 OA
ENDBRANCH  76  80
ENDBRANCH  49  73
BRANCH  61  84
ATOM     84  C   UNL A   1      37.777  32.822  39.388  1.00  0.00     0.023 A 
ATOM     85  C   UNL A   1      37.801  33.731  40.461  1.00  0.00     0.031 A 
ATOM     86  C   UNL A   1      37.093  31.606  39.567  1.00  0.00     0.131 A 
ATOM     87  C   UNL A   1      37.199  33.387  41.681  1.00  0.00     0.055 A 
ATOM     88  C   UNL A   1      36.448  31.294  40.764  1.00  0.00     0.041 A 
ATOM     89  F   UNL A   1      37.040  30.701  38.577  1.00  0.00    -0.206 F 
ATOM     90  C   UNL A   1      36.509  32.182  41.835  1.00  0.00     0.022 A 
BRANCH  87  91
ATOM     91  S   UNL A   1      37.400  34.502  43.099  1.00  0.00     0.124 S 
ATOM     92  O   UNL A   1      36.019  34.712  43.519  1.00  0.00    -0.237 OA
ATOM     93  O   UNL A   1      38.228  33.711  44.002  1.00  0.00    -0.237 OA
ATOM     94  O   UNL A   1      38.058  35.674  42.524  1.00  0.00    -0.744 OA
ENDBRANCH  87  91
ENDBRANCH  61  84
ENDBRANCH  35  36
ENDBRANCH  28  30
ENDBRANCH  27  28
ENDBRANCH  26  27
ENDBRANCH  25  26
ENDBRANCH  24  25
ENDBRANCH   1  24
TORSDOF 23
ENDMDL
MODEL 3
REMARK VINA RESULT:      -9.0      4.446      6.594
REMARK SMILES Cc1cc(S(=O)(=O)N[C@H](CO)C(C)C)sc1C(=O)OCCOCCOC(=O)c1ccc(-c2c3nc(c(-c4cc(S(=O)(=O)[O-])ccc4F)c4ccc([nH]4)c(-c4cc(S(=O)(=O)[O-])ccc4F)c4nc(c(-c5cc(S(=O)(=O)[O-])ccc5F)c5ccc2[nH]5)C=C4)C=C3)cc1
REMARK SMILES IDX 21 1 20 2 19 3 17 4 18 5 16 6 1 7 2 8 3 9 4 10 15 11 5 12
REMARK SMILES IDX 6 13 7 14 8 15 9 17 12 18 13 19 14 20 10 21 11 22 22 24
REMARK SMILES IDX 23 25 24 26 25 27 26 28 27 29 28 30 29 31 90 32 30 33 89 34
REMARK SMILES IDX 31 35 32 36 33 37 83 38 34 39 88 40 82 41 84 42 35 43 87 44
REMARK SMILES IDX 81 45 80 46 36 48 68 49 48 50 67 51 49 52 52 53 66 54 85 55
REMARK SMILES IDX 50 56 51 57 65 59 86 60 53 61 37 62 38 63 46 64 39 65 45 66
REMARK SMILES IDX 47 67 44 68 40 69 41 70 42 71 43 72 69 73 70 74 78 75 71 76
REMARK SMILES IDX 77 77 79 78 76 79 72 80 73 81 74 82 75 83 54 84 55 85 63 86
REMARK SMILES IDX 56 87 62 88 64 89 61 90 57 91 58 92 59 93 60 94
REMARK H PARENT 8 16 11 23 84 47 52 58
REMARK Flexibility Score: inf
ROOT
ATOM      1  C   UNL A   1      39.893  28.497  28.291  1.00  0.00     0.202 C 
ENDROOT
BRANCH   1   2
ATOM      2  C   UNL A   1      38.744  29.454  27.957  1.00  0.00     0.261 C 
BRANCH   2   3
ATOM      3  O   UNL A   1      38.245  30.046  29.172  1.00  0.00    -0.459 OA
BRANCH   3   4
ATOM      4  C   UNL A   1      36.995  29.674  29.563  1.00  0.00     0.348 C 
ATOM      5  O   UNL A   1      36.767  28.952  30.527  1.00  0.00    -0.245 OA
BRANCH   4   6
ATOM      6  C   UNL A   1      35.992  30.374  28.764  1.00  0.00     0.116 A 
ATOM      7  C   UNL A   1      36.201  32.862  29.442  1.00  0.00     0.046 C 
ATOM      8  C   UNL A   1      35.570  31.702  28.733  1.00  0.00    -0.024 A 
ATOM      9  C   UNL A   1      34.385  31.846  27.924  1.00  0.00     0.038 A 
ATOM     10  C   UNL A   1      33.952  30.654  27.381  1.00  0.00     0.135 A 
ATOM     11  S   UNL A   1      35.099  29.420  27.642  1.00  0.00    -0.115 S 
BRANCH  10  12
ATOM     12  S   UNL A   1      32.494  30.180  26.486  1.00  0.00     0.250 S 
ATOM     13  O   UNL A   1      32.017  28.966  27.101  1.00  0.00    -0.206 OA
ATOM     14  O   UNL A   1      31.668  31.369  26.433  1.00  0.00    -0.206 OA
BRANCH  12  15
ATOM     15  N   UNL A   1      32.936  29.842  24.897  1.00  0.00    -0.205 NA
ATOM     16  H   UNL A   1      33.934  29.632  24.920  1.00  0.00     0.141 HD
BRANCH  15  17
ATOM     17  C   UNL A   1      32.301  28.750  24.095  1.00  0.00     0.098 C 
BRANCH  17  18
ATOM     18  C   UNL A   1      30.773  28.630  24.273  1.00  0.00     0.003 C 
ATOM     19  C   UNL A   1      29.990  29.399  23.200  1.00  0.00     0.009 C 
ATOM     20  C   UNL A   1      30.303  27.175  24.251  1.00  0.00     0.009 C 
ENDBRANCH  17  18
BRANCH  17  21
ATOM     21  C   UNL A   1      32.750  28.870  22.624  1.00  0.00     0.176 C 
BRANCH  21  22
ATOM     22  O   UNL A   1      32.740  27.587  21.991  1.00  0.00    -0.395 OA
ATOM     23  H   UNL A   1      32.466  27.685  21.066  1.00  0.00     0.210 HD
ENDBRANCH  21  22
ENDBRANCH  17  21
ENDBRANCH  15  17
ENDBRANCH  12  15
ENDBRANCH  10  12
ENDBRANCH   4   6
ENDBRANCH   3   4
ENDBRANCH   2   3
ENDBRANCH   1   2
BRANCH   1  24
ATOM     24  O   UNL A   1      39.474  27.146  28.507  1.00  0.00    -0.374 OA
BRANCH  24  25
ATOM     25  C   UNL A   1      40.509  26.167  28.545  1.00  0.00     0.202 C 
BRANCH  25  26
ATOM     26  C   UNL A   1      40.967  25.650  27.175  1.00  0.00     0.261 C 
BRANCH  26  27
ATOM     27  O   UNL A   1      42.397  25.535  27.106  1.00  0.00    -0.460 OA
BRANCH  27  28
ATOM     28  C   UNL A   1      42.984  26.326  26.173  1.00  0.00     0.338 C 
ATOM     29  O   UNL A   1      43.161  26.060  24.997  1.00  0.00    -0.246 OA
BRANCH  28  30
ATOM     30  C   UNL A   1      43.238  27.665  26.744  1.00  0.00     0.060 A 
ATOM     31  C   UNL A   1      44.041  27.732  27.889  1.00  0.00     0.016 A 
ATOM     32  C   UNL A   1      42.674  28.823  26.204  1.00  0.00     0.016 A 
ATOM     33  C   UNL A   1      44.251  28.956  28.523  1.00  0.00     0.010 A 
ATOM     34  C   UNL A   1      42.882  30.050  26.845  1.00  0.00     0.010 A 
ATOM     35  C   UNL A   1      43.650  30.119  28.023  1.00  0.00    -0.014 A 
BRANCH  35  36
ATOM     36  C   UNL A   1      43.721  31.377  28.807  1.00  0.00     0.031 A 
ATOM     37  C   UNL A   1      44.746  32.414  28.436  1.00  0.00     0.074 A 
ATOM     38  C   UNL A   1      42.864  31.604  29.819  1.00  0.00     0.049 A 
ATOM     39  N   UNL A   1      45.006  33.564  28.999  1.00  0.00    -0.248 NA
ATOM     40  C   UNL A   1      45.593  32.104  27.273  1.00  0.00     0.031 C 
ATOM     41  C   UNL A   1      41.803  30.693  30.246  1.00  0.00     0.029 A 
ATOM     42  N   UNL A   1      42.755  32.671  30.674  1.00  0.00    -0.354 N 
ATOM     43  C   UNL A   1      46.047  34.121  28.262  1.00  0.00     0.074 A 
ATOM     44  C   UNL A   1      46.394  33.159  27.237  1.00  0.00     0.031 C 
ATOM     45  C   UNL A   1      41.157  31.237  31.291  1.00  0.00     0.029 A 
ATOM     46  C   UNL A   1      41.779  32.515  31.630  1.00  0.00     0.049 A 
ATOM     47  H   UNL A   1      43.324  33.473  30.610  1.00  0.00     0.167 HD
ATOM     48  C   UNL A   1      46.648  35.326  28.419  1.00  0.00     0.034 A 
ATOM     49  C   UNL A   1      41.445  33.302  32.673  1.00  0.00     0.034 A 
ATOM     50  C   UNL A   1      46.301  36.269  29.454  1.00  0.00     0.049 A 
ATOM     51  C   UNL A   1      42.185  34.601  32.882  1.00  0.00     0.074 A 
ATOM     52  C   UNL A   1      46.838  37.522  29.696  1.00  0.00     0.029 A 
ATOM     53  N   UNL A   1      45.336  36.058  30.432  1.00  0.00    -0.354 N 
ATOM     54  N   UNL A   1      43.160  35.120  32.171  1.00  0.00    -0.248 NA
ATOM     55  C   UNL A   1      41.773  35.422  34.028  1.00  0.00     0.031 C 
ATOM     56  C   UNL A   1      46.248  38.037  30.856  1.00  0.00     0.029 A 
ATOM     57  C   UNL A   1      45.288  37.141  31.297  1.00  0.00     0.049 A 
ATOM     58  H   UNL A   1      44.770  35.256  30.501  1.00  0.00     0.167 HD
ATOM     59  C   UNL A   1      43.455  36.343  32.768  1.00  0.00     0.074 A 
ATOM     60  C   UNL A   1      42.548  36.488  33.888  1.00  0.00     0.031 C 
ATOM     61  C   UNL A   1      44.388  37.267  32.419  1.00  0.00     0.034 A 
BRANCH  48  62
ATOM     62  C   UNL A   1      47.776  35.662  27.475  1.00  0.00     0.023 A 
ATOM     63  C   UNL A   1      49.107  35.301  27.753  1.00  0.00     0.031 A 
ATOM     64  C   UNL A   1      47.524  36.386  26.296  1.00  0.00     0.131 A 
ATOM     65  C   UNL A   1      50.140  35.726  26.903  1.00  0.00     0.055 A 
ATOM     66  C   UNL A   1      48.547  36.738  25.414  1.00  0.00     0.041 A 
ATOM     67  F   UNL A   1      46.277  36.779  25.990  1.00  0.00    -0.206 F 
ATOM     68  C   UNL A   1      49.866  36.421  25.722  1.00  0.00     0.022 A 
BRANCH  65  69
ATOM     69  S   UNL A   1      51.857  35.482  27.435  1.00  0.00     0.124 S 
ATOM     70  O   UNL A   1      51.674  34.867  28.748  1.00  0.00    -0.237 OA
ATOM     71  O   UNL A   1      52.390  34.614  26.391  1.00  0.00    -0.237 OA
ATOM     72  O   UNL A   1      52.403  36.836  27.462  1.00  0.00    -0.744 OA
ENDBRANCH  65  69
ENDBRANCH  48  62
BRANCH  49  73
ATOM     73  C   UNL A   1      40.387  32.871  33.632  1.00  0.00     0.023 A 
ATOM     74  C   UNL A   1      39.050  33.264  33.466  1.00  0.00     0.031 A 
ATOM     75  C   UNL A   1      40.714  32.102  34.763  1.00  0.00     0.131 A 
ATOM     76  C   UNL A   1      38.097  32.924  34.439  1.00  0.00     0.055 A 
ATOM     77  C   UNL A   1      39.753  31.724  35.701  1.00  0.00     0.041 A 
ATOM     78  F   UNL A   1      41.978  31.699  34.968  1.00  0.00    -0.206 F 
ATOM     79  C   UNL A   1      38.436  32.147  35.548  1.00  0.00     0.022 A 
BRANCH  76  80
ATOM     80  S   UNL A   1      36.414  33.581  34.274  1.00  0.00     0.124 S 
ATOM     81  O   UNL A   1      36.667  34.910  33.726  1.00  0.00    -0.237 OA
ATOM     82  O   UNL A   1      35.801  32.618  33.365  1.00  0.00    -0.237 OA
ATOM     83  O   UNL A   1      35.904  33.557  35.643  1.00  0.00    -0.744 OA
ENDBRANCH  76  80
ENDBRANCH  49  73
BRANCH  61  84
ATOM     84  C   UNL A   1      44.436  38.536  33.235  1.00  0.00     0.023 A 
ATOM     85  C   UNL A   1      43.565  39.612  32.986  1.00  0.00     0.031 A 
ATOM     86  C   UNL A   1      45.376  38.673  34.272  1.00  0.00     0.131 A 
ATOM     87  C   UNL A   1      43.687  40.796  33.730  1.00  0.00     0.055 A 
ATOM     88  C   UNL A   1      45.455  39.832  35.046  1.00  0.00     0.041 A 
ATOM     89  F   UNL A   1      46.233  37.678  34.552  1.00  0.00    -0.206 F 
ATOM     90  C   UNL A   1      44.616  40.907  34.768  1.00  0.00     0.022 A 
BRANCH  87  91
ATOM     91  S   UNL A   1      42.672  42.227  33.267  1.00  0.00     0.124 S 
ATOM     92  O   UNL A   1      41.904  42.461  34.486  1.00  0.00    -0.237 OA
ATOM     93  O   UNL A   1      43.678  43.233  32.946  1.00  0.00    -0.237 OA
ATOM     94  O   UNL A   1      41.895  41.743  32.128  1.00  0.00    -0.744 OA
ENDBRANCH  87  91
ENDBRANCH  61  84
ENDBRANCH  35  36
ENDBRANCH  28  30
ENDBRANCH  27  28
ENDBRANCH  26  27
ENDBRANCH  25  26
ENDBRANCH  24  25
ENDBRANCH   1  24
TORSDOF 23
ENDMDL
