MODEL 1
REMARK VINA RESULT:     -11.0      0.000      0.000
REMARK SMILES C[C@H]1C[N@H+]2CCCC[C@@H]2CN1C(=O)[C@H]([NH3+])CC(=O)OCCOCCOC(=O)c1ccc(-c2c3nc(c(-c4cc(S(=O)(=O)[O-])ccc4F)c4ccc([nH]4)c(-c4cc(S(=O)(=O)[O-])ccc4F)c4nc(c(-c5cc(S(=O)(=O)[O-])ccc5F)c5ccc2[nH]5)C=C4)C=C3)cc1
REMARK SMILES IDX 22 1 21 2 20 3 19 4 17 5 18 6 16 7 14 8 12 9 13 10 11 11
REMARK SMILES IDX 1 12 2 13 3 14 4 15 10 16 5 17 9 18 6 20 8 21 7 22 15 23
REMARK SMILES IDX 23 27 24 28 25 29 26 30 27 31 28 32 29 33 90 34 30 35 89 36
REMARK SMILES IDX 31 37 32 38 33 39 83 40 34 41 88 42 82 43 84 44 35 45 87 46
REMARK SMILES IDX 81 47 80 48 36 50 68 51 48 52 67 53 49 54 52 55 66 56 85 57
REMARK SMILES IDX 50 58 51 59 65 61 86 62 53 63 37 64 38 65 46 66 39 67 45 68
REMARK SMILES IDX 47 69 44 70 40 71 41 72 42 73 43 74 69 75 70 76 78 77 71 78
REMARK SMILES IDX 77 79 79 80 76 81 72 82 73 83 74 84 75 85 54 86 55 87 63 88
REMARK SMILES IDX 56 89 62 90 64 91 61 92 57 93 58 94 59 95 60 96
REMARK H PARENT 4 19 15 24 15 25 15 26 84 49 52 60
REMARK Flexibility Score: inf
ROOT
ATOM      1  O   UNL A   1      35.968  20.078  24.842  1.00  0.00    -0.374 OA
ENDROOT
BRANCH   1   2
ATOM      2  C   UNL A   1      34.875  20.659  25.553  1.00  0.00     0.202 C 
BRANCH   2   3
ATOM      3  C   UNL A   1      34.507  22.103  25.193  1.00  0.00     0.261 C 
BRANCH   3   4
ATOM      4  O   UNL A   1      34.028  22.855  26.324  1.00  0.00    -0.463 OA
BRANCH   4   5
ATOM      5  C   UNL A   1      32.780  22.572  26.773  1.00  0.00     0.312 C 
ATOM      6  O   UNL A   1      32.440  22.541  27.951  1.00  0.00    -0.252 OA
BRANCH   5   7
ATOM      7  C   UNL A   1      31.831  22.222  25.650  1.00  0.00     0.198 C 
BRANCH   7   8
ATOM      8  C   UNL A   1      30.645  23.176  25.485  1.00  0.00     0.282 C 
BRANCH   8   9
ATOM      9  C   UNL A   1      30.987  24.477  24.688  1.00  0.00     0.282 C 
ATOM     10  O   UNL A   1      30.338  24.707  23.660  1.00  0.00    -0.268 OA
BRANCH   9  11
ATOM     11  N   UNL A   1      32.013  25.309  25.112  1.00  0.00    -0.323 N 
ATOM     12  C   UNL A   1      33.241  25.110  22.857  1.00  0.00     0.037 C 
ATOM     13  C   UNL A   1      33.260  25.537  24.332  1.00  0.00     0.137 C 
ATOM     14  C   UNL A   1      33.691  27.051  24.343  1.00  0.00     0.287 C 
ATOM     15  N   UNL A   1      33.387  27.879  25.537  1.00  0.00    -0.329 N 
ATOM     16  C   UNL A   1      32.025  26.015  26.396  1.00  0.00     0.185 C 
ATOM     17  C   UNL A   1      33.408  29.306  25.160  1.00  0.00     0.262 C 
ATOM     18  C   UNL A   1      32.069  27.522  26.104  1.00  0.00     0.203 C 
ATOM     19  H   UNL A   1      34.095  27.702  26.250  1.00  0.00     0.348 HD
ATOM     20  C   UNL A   1      33.084  30.221  26.342  1.00  0.00     0.062 C 
ATOM     21  C   UNL A   1      31.761  28.349  27.354  1.00  0.00     0.067 C 
ATOM     22  C   UNL A   1      31.769  29.836  27.011  1.00  0.00     0.012 C 
ENDBRANCH   9  11
ENDBRANCH   8   9
BRANCH   8  23
ATOM     23  N   UNL A   1      30.124  23.581  26.816  1.00  0.00    -0.347 N 
ATOM     24  H   UNL A   1      29.599  24.451  26.726  1.00  0.00     0.345 HD
ATOM     25  H   UNL A   1      30.904  23.721  27.459  1.00  0.00     0.345 HD
ATOM     26  H   UNL A   1      29.511  22.850  27.179  1.00  0.00     0.345 HD
ENDBRANCH   8  23
ENDBRANCH   7   8
ENDBRANCH   5   7
ENDBRANCH   4   5
ENDBRANCH   3   4
ENDBRANCH   2   3
ENDBRANCH   1   2
BRANCH   1  27
ATOM     27  C   UNL A   1      37.224  20.746  24.947  1.00  0.00     0.202 C 
BRANCH  27  28
ATOM     28  C   UNL A   1      38.480  19.872  25.066  1.00  0.00     0.261 C 
BRANCH  28  29
ATOM     29  O   UNL A   1      39.097  19.968  26.363  1.00  0.00    -0.460 OA
BRANCH  29  30
ATOM     30  C   UNL A   1      40.419  20.245  26.354  1.00  0.00     0.338 C 
ATOM     31  O   UNL A   1      41.309  19.564  25.848  1.00  0.00    -0.246 OA
BRANCH  30  32
ATOM     32  C   UNL A   1      40.655  21.606  26.865  1.00  0.00     0.060 A 
ATOM     33  C   UNL A   1      39.902  22.648  26.309  1.00  0.00     0.016 A 
ATOM     34  C   UNL A   1      41.638  21.876  27.821  1.00  0.00     0.016 A 
ATOM     35  C   UNL A   1      40.157  23.969  26.671  1.00  0.00     0.010 A 
ATOM     36  C   UNL A   1      41.902  23.206  28.173  1.00  0.00     0.010 A 
ATOM     37  C   UNL A   1      41.186  24.260  27.575  1.00  0.00    -0.014 A 
BRANCH  37  38
ATOM     38  C   UNL A   1      41.616  25.669  27.768  1.00  0.00     0.031 A 
ATOM     39  C   UNL A   1      42.926  26.112  27.173  1.00  0.00     0.074 A 
ATOM     40  C   UNL A   1      40.842  26.546  28.434  1.00  0.00     0.049 A 
ATOM     41  N   UNL A   1      43.529  27.269  27.258  1.00  0.00    -0.248 NA
ATOM     42  C   UNL A   1      43.653  25.112  26.374  1.00  0.00     0.031 C 
ATOM     43  C   UNL A   1      39.526  26.250  28.998  1.00  0.00     0.029 A 
ATOM     44  N   UNL A   1      41.054  27.864  28.752  1.00  0.00    -0.354 N 
ATOM     45  C   UNL A   1      44.712  27.134  26.540  1.00  0.00     0.074 A 
ATOM     46  C   UNL A   1      44.751  25.775  26.045  1.00  0.00     0.031 C 
ATOM     47  C   UNL A   1      39.051  27.354  29.600  1.00  0.00     0.029 A 
ATOM     48  C   UNL A   1      40.047  28.420  29.506  1.00  0.00     0.049 A 
ATOM     49  H   UNL A   1      41.853  28.365  28.468  1.00  0.00     0.167 HD
ATOM     50  C   UNL A   1      45.677  28.060  26.316  1.00  0.00     0.034 A 
ATOM     51  C   UNL A   1      39.956  29.640  30.077  1.00  0.00     0.034 A 
ATOM     52  C   UNL A   1      45.621  29.412  26.816  1.00  0.00     0.049 A 
ATOM     53  C   UNL A   1      41.091  30.622  29.894  1.00  0.00     0.074 A 
ATOM     54  C   UNL A   1      46.528  30.440  26.618  1.00  0.00     0.029 A 
ATOM     55  N   UNL A   1      44.615  29.923  27.624  1.00  0.00    -0.354 N 
ATOM     56  N   UNL A   1      42.200  30.487  29.201  1.00  0.00    -0.248 NA
ATOM     57  C   UNL A   1      40.960  31.922  30.565  1.00  0.00     0.031 C 
ATOM     58  C   UNL A   1      46.112  31.542  27.371  1.00  0.00     0.029 A 
ATOM     59  C   UNL A   1      44.901  31.234  27.969  1.00  0.00     0.049 A 
ATOM     60  H   UNL A   1      43.815  29.425  27.912  1.00  0.00     0.167 HD
ATOM     61  C   UNL A   1      42.875  31.700  29.323  1.00  0.00     0.074 A 
ATOM     62  C   UNL A   1      42.046  32.555  30.147  1.00  0.00     0.031 C 
ATOM     63  C   UNL A   1      44.066  32.078  28.792  1.00  0.00     0.034 A 
BRANCH  50  64
ATOM     64  C   UNL A   1      46.903  27.624  25.551  1.00  0.00     0.023 A 
ATOM     65  C   UNL A   1      47.097  27.950  24.198  1.00  0.00     0.031 A 
ATOM     66  C   UNL A   1      47.893  26.859  26.194  1.00  0.00     0.131 A 
ATOM     67  C   UNL A   1      48.226  27.467  23.518  1.00  0.00     0.055 A 
ATOM     68  C   UNL A   1      49.049  26.444  25.532  1.00  0.00     0.041 A 
ATOM     69  F   UNL A   1      47.750  26.496  27.479  1.00  0.00    -0.206 F 
ATOM     70  C   UNL A   1      49.215  26.737  24.182  1.00  0.00     0.022 A 
BRANCH  67  71
ATOM     71  S   UNL A   1      48.326  27.700  21.721  1.00  0.00     0.124 S 
ATOM     72  O   UNL A   1      48.559  26.333  21.260  1.00  0.00    -0.237 OA
ATOM     73  O   UNL A   1      47.021  28.269  21.404  1.00  0.00    -0.237 OA
ATOM     74  O   UNL A   1      49.460  28.607  21.556  1.00  0.00    -0.744 OA
ENDBRANCH  67  71
ENDBRANCH  50  64
BRANCH  51  75
ATOM     75  C   UNL A   1      38.778  30.003  30.919  1.00  0.00     0.023 A 
ATOM     76  C   UNL A   1      37.708  30.740  30.388  1.00  0.00     0.031 A 
ATOM     77  C   UNL A   1      38.743  29.691  32.291  1.00  0.00     0.131 A 
ATOM     78  C   UNL A   1      36.679  31.189  31.231  1.00  0.00     0.055 A 
ATOM     79  C   UNL A   1      37.687  30.088  33.113  1.00  0.00     0.041 A 
ATOM     80  F   UNL A   1      39.743  28.994  32.856  1.00  0.00    -0.206 F 
ATOM     81  C   UNL A   1      36.654  30.856  32.587  1.00  0.00     0.022 A 
BRANCH  78  82
ATOM     82  S   UNL A   1      35.427  32.313  30.551  1.00  0.00     0.124 S 
ATOM     83  O   UNL A   1      35.127  31.680  29.271  1.00  0.00    -0.237 OA
ATOM     84  O   UNL A   1      34.378  32.244  31.564  1.00  0.00    -0.237 OA
ATOM     85  O   UNL A   1      36.127  33.592  30.467  1.00  0.00    -0.744 OA
ENDBRANCH  78  82
ENDBRANCH  51  75
BRANCH  63  86
ATOM     86  C   UNL A   1      44.513  33.500  29.034  1.00  0.00     0.023 A 
ATOM     87  C   UNL A   1      43.986  34.581  28.308  1.00  0.00     0.031 A 
ATOM     88  C   UNL A   1      45.483  33.772  30.015  1.00  0.00     0.131 A 
ATOM     89  C   UNL A   1      44.468  35.880  28.540  1.00  0.00     0.055 A 
ATOM     90  C   UNL A   1      45.914  35.072  30.285  1.00  0.00     0.041 A 
ATOM     91  F   UNL A   1      46.023  32.778  30.738  1.00  0.00    -0.206 F 
ATOM     92  C   UNL A   1      45.415  36.134  29.536  1.00  0.00     0.022 A 
BRANCH  89  93
ATOM     93  S   UNL A   1      43.902  37.227  27.465  1.00  0.00     0.124 S 
ATOM     94  O   UNL A   1      43.030  36.524  26.529  1.00  0.00    -0.237 OA
ATOM     95  O   UNL A   1      43.237  38.122  28.406  1.00  0.00    -0.237 OA
ATOM     96  O   UNL A   1      45.140  37.748  26.886  1.00  0.00    -0.744 OA
ENDBRANCH  89  93
ENDBRANCH  63  86
ENDBRANCH  37  38
ENDBRANCH  30  32
ENDBRANCH  29  30
ENDBRANCH  28  29
ENDBRANCH  27  28
ENDBRANCH   1  27
TORSDOF 21
ENDMDL
MODEL 2
REMARK VINA RESULT:     -10.7      4.716      9.980
REMARK SMILES C[C@H]1C[N@H+]2CCCC[C@@H]2CN1C(=O)[C@H]([NH3+])CC(=O)OCCOCCOC(=O)c1ccc(-c2c3nc(c(-c4cc(S(=O)(=O)[O-])ccc4F)c4ccc([nH]4)c(-c4cc(S(=O)(=O)[O-])ccc4F)c4nc(c(-c5cc(S(=O)(=O)[O-])ccc5F)c5ccc2[nH]5)C=C4)C=C3)cc1
REMARK SMILES IDX 22 1 21 2 20 3 19 4 17 5 18 6 16 7 14 8 12 9 13 10 11 11
REMARK SMILES IDX 1 12 2 13 3 14 4 15 10 16 5 17 9 18 6 20 8 21 7 22 15 23
REMARK SMILES IDX 23 27 24 28 25 29 26 30 27 31 28 32 29 33 90 34 30 35 89 36
REMARK SMILES IDX 31 37 32 38 33 39 83 40 34 41 88 42 82 43 84 44 35 45 87 46
REMARK SMILES IDX 81 47 80 48 36 50 68 51 48 52 67 53 49 54 52 55 66 56 85 57
REMARK SMILES IDX 50 58 51 59 65 61 86 62 53 63 37 64 38 65 46 66 39 67 45 68
REMARK SMILES IDX 47 69 44 70 40 71 41 72 42 73 43 74 69 75 70 76 78 77 71 78
REMARK SMILES IDX 77 79 79 80 76 81 72 82 73 83 74 84 75 85 54 86 55 87 63 88
REMARK SMILES IDX 56 89 62 90 64 91 61 92 57 93 58 94 59 95 60 96
REMARK H PARENT 4 19 15 24 15 25 15 26 84 49 52 60
REMARK Flexibility Score: inf
ROOT
ATOM      1  O   UNL A   1      31.372  28.951  25.184  1.00  0.00    -0.374 OA
ENDROOT
BRANCH   1   2
ATOM      2  C   UNL A   1      30.741  29.283  23.947  1.00  0.00     0.202 C 
BRANCH   2   3
ATOM      3  C   UNL A   1      30.016  28.147  23.216  1.00  0.00     0.261 C 
BRANCH   3   4
ATOM      4  O   UNL A   1      30.537  26.848  23.550  1.00  0.00    -0.463 OA
BRANCH   4   5
ATOM      5  C   UNL A   1      31.284  26.218  22.608  1.00  0.00     0.312 C 
ATOM      6  O   UNL A   1      31.336  26.525  21.422  1.00  0.00    -0.252 OA
BRANCH   5   7
ATOM      7  C   UNL A   1      32.021  25.022  23.165  1.00  0.00     0.198 C 
BRANCH   7   8
ATOM      8  C   UNL A   1      33.147  25.355  24.147  1.00  0.00     0.282 C 
BRANCH   8   9
ATOM      9  C   UNL A   1      32.865  24.894  25.613  1.00  0.00     0.282 C 
ATOM     10  O   UNL A   1      32.185  25.638  26.329  1.00  0.00    -0.268 OA
BRANCH   9  11
ATOM     11  N   UNL A   1      33.403  23.706  26.089  1.00  0.00    -0.323 N 
ATOM     12  C   UNL A   1      31.186  22.444  25.738  1.00  0.00     0.037 C 
ATOM     13  C   UNL A   1      32.594  22.485  26.351  1.00  0.00     0.137 C 
ATOM     14  C   UNL A   1      33.323  21.180  25.858  1.00  0.00     0.287 C 
ATOM     15  N   UNL A   1      34.806  21.124  25.896  1.00  0.00    -0.329 N 
ATOM     16  C   UNL A   1      34.813  23.525  26.447  1.00  0.00     0.185 C 
ATOM     17  C   UNL A   1      35.279  20.082  24.964  1.00  0.00     0.262 C 
ATOM     18  C   UNL A   1      35.392  22.432  25.536  1.00  0.00     0.203 C 
ATOM     19  H   UNL A   1      35.103  20.896  26.845  1.00  0.00     0.348 HD
ATOM     20  C   UNL A   1      36.805  19.980  24.939  1.00  0.00     0.062 C 
ATOM     21  C   UNL A   1      36.921  22.392  25.603  1.00  0.00     0.067 C 
ATOM     22  C   UNL A   1      37.458  21.327  24.652  1.00  0.00     0.012 C 
ENDBRANCH   9  11
ENDBRANCH   8   9
BRANCH   8  23
ATOM     23  N   UNL A   1      33.389  26.822  24.169  1.00  0.00    -0.347 N 
ATOM     24  H   UNL A   1      34.199  27.041  23.589  1.00  0.00     0.345 HD
ATOM     25  H   UNL A   1      33.565  27.123  25.127  1.00  0.00     0.345 HD
ATOM     26  H   UNL A   1      32.568  27.308  23.805  1.00  0.00     0.345 HD
ENDBRANCH   8  23
ENDBRANCH   7   8
ENDBRANCH   5   7
ENDBRANCH   4   5
ENDBRANCH   3   4
ENDBRANCH   2   3
ENDBRANCH   1   2
BRANCH   1  27
ATOM     27  C   UNL A   1      31.859  30.042  25.964  1.00  0.00     0.202 C 
BRANCH  27  28
ATOM     28  C   UNL A   1      33.338  30.010  26.375  1.00  0.00     0.261 C 
BRANCH  28  29
ATOM     29  O   UNL A   1      33.573  30.657  27.638  1.00  0.00    -0.460 OA
BRANCH  29  30
ATOM     30  C   UNL A   1      34.696  31.404  27.704  1.00  0.00     0.338 C 
ATOM     31  O   UNL A   1      34.765  32.632  27.668  1.00  0.00    -0.246 OA
BRANCH  30  32
ATOM     32  C   UNL A   1      35.853  30.555  28.037  1.00  0.00     0.060 A 
ATOM     33  C   UNL A   1      35.809  29.843  29.243  1.00  0.00     0.016 A 
ATOM     34  C   UNL A   1      36.989  30.501  27.226  1.00  0.00     0.016 A 
ATOM     35  C   UNL A   1      36.915  29.111  29.666  1.00  0.00     0.010 A 
ATOM     36  C   UNL A   1      38.105  29.776  27.660  1.00  0.00     0.010 A 
ATOM     37  C   UNL A   1      38.085  29.105  28.897  1.00  0.00    -0.014 A 
BRANCH  37  38
ATOM     38  C   UNL A   1      39.334  28.534  29.465  1.00  0.00     0.031 A 
ATOM     39  C   UNL A   1      39.917  29.161  30.704  1.00  0.00     0.074 A 
ATOM     40  C   UNL A   1      39.922  27.459  28.907  1.00  0.00     0.049 A 
ATOM     41  N   UNL A   1      41.021  28.870  31.341  1.00  0.00    -0.248 NA
ATOM     42  C   UNL A   1      39.149  30.265  31.301  1.00  0.00     0.031 C 
ATOM     43  C   UNL A   1      39.414  26.728  27.747  1.00  0.00     0.029 A 
ATOM     44  N   UNL A   1      41.077  26.797  29.242  1.00  0.00    -0.354 N 
ATOM     45  C   UNL A   1      41.091  29.764  32.404  1.00  0.00     0.074 A 
ATOM     46  C   UNL A   1      39.928  30.621  32.311  1.00  0.00     0.031 C 
ATOM     47  C   UNL A   1      40.260  25.722  27.462  1.00  0.00     0.029 A 
ATOM     48  C   UNL A   1      41.390  25.765  28.388  1.00  0.00     0.049 A 
ATOM     49  H   UNL A   1      41.629  27.039  30.020  1.00  0.00     0.167 HD
ATOM     50  C   UNL A   1      42.039  29.861  33.369  1.00  0.00     0.034 A 
ATOM     51  C   UNL A   1      42.479  24.970  28.343  1.00  0.00     0.034 A 
ATOM     52  C   UNL A   1      43.192  28.997  33.448  1.00  0.00     0.049 A 
ATOM     53  C   UNL A   1      43.571  25.162  29.372  1.00  0.00     0.074 A 
ATOM     54  C   UNL A   1      44.194  28.986  34.403  1.00  0.00     0.029 A 
ATOM     55  N   UNL A   1      43.507  28.002  32.532  1.00  0.00    -0.354 N 
ATOM     56  N   UNL A   1      43.619  26.003  30.381  1.00  0.00    -0.248 NA
ATOM     57  C   UNL A   1      44.751  24.295  29.259  1.00  0.00     0.031 C 
ATOM     58  C   UNL A   1      45.154  28.043  34.020  1.00  0.00     0.029 A 
ATOM     59  C   UNL A   1      44.709  27.403  32.875  1.00  0.00     0.049 A 
ATOM     60  H   UNL A   1      42.958  27.758  31.753  1.00  0.00     0.167 HD
ATOM     61  C   UNL A   1      44.816  25.735  31.043  1.00  0.00     0.074 A 
ATOM     62  C   UNL A   1      45.453  24.651  30.325  1.00  0.00     0.031 C 
ATOM     63  C   UNL A   1      45.335  26.322  32.151  1.00  0.00     0.034 A 
BRANCH  50  64
ATOM     64  C   UNL A   1      41.904  30.977  34.375  1.00  0.00     0.023 A 
ATOM     65  C   UNL A   1      42.430  32.259  34.147  1.00  0.00     0.031 A 
ATOM     66  C   UNL A   1      41.239  30.744  35.593  1.00  0.00     0.131 A 
ATOM     67  C   UNL A   1      42.330  33.243  35.143  1.00  0.00     0.055 A 
ATOM     68  C   UNL A   1      41.079  31.748  36.549  1.00  0.00     0.041 A 
ATOM     69  F   UNL A   1      40.738  29.531  35.878  1.00  0.00    -0.206 F 
ATOM     70  C   UNL A   1      41.637  33.004  36.332  1.00  0.00     0.022 A 
BRANCH  67  71
ATOM     71  S   UNL A   1      43.226  34.805  34.917  1.00  0.00     0.124 S 
ATOM     72  O   UNL A   1      43.895  34.579  33.638  1.00  0.00    -0.237 OA
ATOM     73  O   UNL A   1      42.148  35.788  34.910  1.00  0.00    -0.237 OA
ATOM     74  O   UNL A   1      44.115  34.862  36.076  1.00  0.00    -0.744 OA
ENDBRANCH  67  71
ENDBRANCH  50  64
BRANCH  51  75
ATOM     75  C   UNL A   1      42.634  23.946  27.268  1.00  0.00     0.023 A 
ATOM     76  C   UNL A   1      41.965  22.713  27.340  1.00  0.00     0.031 A 
ATOM     77  C   UNL A   1      43.519  24.151  26.193  1.00  0.00     0.131 A 
ATOM     78  C   UNL A   1      42.235  21.713  26.392  1.00  0.00     0.055 A 
ATOM     79  C   UNL A   1      43.736  23.175  25.218  1.00  0.00     0.041 A 
ATOM     80  F   UNL A   1      44.190  25.308  26.076  1.00  0.00    -0.206 F 
ATOM     81  C   UNL A   1      43.104  21.941  25.323  1.00  0.00     0.022 A 
BRANCH  78  82
ATOM     82  S   UNL A   1      41.514  20.066  26.638  1.00  0.00     0.124 S 
ATOM     83  O   UNL A   1      41.879  19.395  25.395  1.00  0.00    -0.237 OA
ATOM     84  O   UNL A   1      42.204  19.610  27.841  1.00  0.00    -0.237 OA
ATOM     85  O   UNL A   1      40.088  20.340  26.805  1.00  0.00    -0.744 OA
ENDBRANCH  78  82
ENDBRANCH  51  75
BRANCH  63  86
ATOM     86  C   UNL A   1      46.629  25.761  32.691  1.00  0.00     0.023 A 
ATOM     87  C   UNL A   1      46.653  24.740  33.658  1.00  0.00     0.031 A 
ATOM     88  C   UNL A   1      47.859  26.257  32.224  1.00  0.00     0.131 A 
ATOM     89  C   UNL A   1      47.883  24.284  34.162  1.00  0.00     0.055 A 
ATOM     90  C   UNL A   1      49.078  25.757  32.682  1.00  0.00     0.041 A 
ATOM     91  F   UNL A   1      47.896  27.233  31.302  1.00  0.00    -0.206 F 
ATOM     92  C   UNL A   1      49.094  24.773  33.666  1.00  0.00     0.022 A 
BRANCH  89  93
ATOM     93  S   UNL A   1      47.878  23.099  35.535  1.00  0.00     0.124 S 
ATOM     94  O   UNL A   1      49.103  23.451  36.246  1.00  0.00    -0.237 OA
ATOM     95  O   UNL A   1      46.629  23.418  36.220  1.00  0.00    -0.237 OA
ATOM     96  O   UNL A   1      47.901  21.799  34.867  1.00  0.00    -0.744 OA
ENDBRANCH  89  93
ENDBRANCH  63  86
ENDBRANCH  37  38
ENDBRANCH  30  32
ENDBRANCH  29  30
ENDBRANCH  28  29
ENDBRANCH  27  28
ENDBRANCH   1  27
TORSDOF 21
ENDMDL
MODEL 3
REMARK VINA RESULT:     -10.5      2.229      2.553
REMARK SMILES C[C@H]1C[N@H+]2CCCC[C@@H]2CN1C(=O)[C@H]([NH3+])CC(=O)OCCOCCOC(=O)c1ccc(-c2c3nc(c(-c4cc(S(=O)(=O)[O-])ccc4F)c4ccc([nH]4)c(-c4cc(S(=O)(=O)[O-])ccc4F)c4nc(c(-c5cc(S(=O)(=O)[O-])ccc5F)c5ccc2[nH]5)C=C4)C=C3)cc1
REMARK SMILES IDX 22 1 21 2 20 3 19 4 17 5 18 6 16 7 14 8 12 9 13 10 11 11
REMARK SMILES IDX 1 12 2 13 3 14 4 15 10 16 5 17 9 18 6 20 8 21 7 22 15 23
REMARK SMILES IDX 23 27 24 28 25 29 26 30 27 31 28 32 29 33 90 34 30 35 89 36
REMARK SMILES IDX 31 37 32 38 33 39 83 40 34 41 88 42 82 43 84 44 35 45 87 46
REMARK SMILES IDX 81 47 80 48 36 50 68 51 48 52 67 53 49 54 52 55 66 56 85 57
REMARK SMILES IDX 50 58 51 59 65 61 86 62 53 63 37 64 38 65 46 66 39 67 45 68
REMARK SMILES IDX 47 69 44 70 40 71 41 72 42 73 43 74 69 75 70 76 78 77 71 78
REMARK SMILES IDX 77 79 79 80 76 81 72 82 73 83 74 84 75 85 54 86 55 87 63 88
REMARK SMILES IDX 56 89 62 90 64 91 61 92 57 93 58 94 59 95 60 96
REMARK H PARENT 4 19 15 24 15 25 15 26 84 49 52 60
REMARK Flexibility Score: inf
ROOT
ATOM      1  O   UNL A   1      34.929  20.941  25.569  1.00  0.00    -0.374 OA
ENDROOT
BRANCH   1   2
ATOM      2  C   UNL A   1      33.904  21.878  25.237  1.00  0.00     0.202 C 
BRANCH   2   3
ATOM      3  C   UNL A   1      32.597  21.781  26.032  1.00  0.00     0.261 C 
BRANCH   3   4
ATOM      4  O   UNL A   1      32.303  22.981  26.770  1.00  0.00    -0.463 OA
BRANCH   4   5
ATOM      5  C   UNL A   1      32.323  24.152  26.084  1.00  0.00     0.312 C 
ATOM      6  O   UNL A   1      33.147  25.047  26.235  1.00  0.00    -0.252 OA
BRANCH   5   7
ATOM      7  C   UNL A   1      31.157  24.280  25.131  1.00  0.00     0.198 C 
BRANCH   7   8
ATOM      8  C   UNL A   1      31.530  24.253  23.647  1.00  0.00     0.282 C 
BRANCH   8   9
ATOM      9  C   UNL A   1      31.367  25.631  22.928  1.00  0.00     0.282 C 
ATOM     10  O   UNL A   1      31.716  25.706  21.744  1.00  0.00    -0.268 OA
BRANCH   9  11
ATOM     11  N   UNL A   1      30.884  26.731  23.624  1.00  0.00    -0.323 N 
ATOM     12  C   UNL A   1      33.254  27.674  23.977  1.00  0.00     0.037 C 
ATOM     13  C   UNL A   1      31.759  27.703  24.332  1.00  0.00     0.137 C 
ATOM     14  C   UNL A   1      31.287  29.189  24.110  1.00  0.00     0.287 C 
ATOM     15  N   UNL A   1      29.840  29.466  23.935  1.00  0.00    -0.329 N 
ATOM     16  C   UNL A   1      29.461  27.036  23.797  1.00  0.00     0.185 C 
ATOM     17  C   UNL A   1      29.671  30.770  23.265  1.00  0.00     0.262 C 
ATOM     18  C   UNL A   1      29.191  28.400  23.144  1.00  0.00     0.203 C 
ATOM     19  H   UNL A   1      29.396  29.493  24.854  1.00  0.00     0.348 HD
ATOM     20  C   UNL A   1      28.199  31.116  23.035  1.00  0.00     0.062 C 
ATOM     21  C   UNL A   1      27.691  28.663  22.985  1.00  0.00     0.067 C 
ATOM     22  C   UNL A   1      27.467  30.004  22.292  1.00  0.00     0.012 C 
ENDBRANCH   9  11
ENDBRANCH   8   9
BRANCH   8  23
ATOM     23  N   UNL A   1      30.690  23.260  22.926  1.00  0.00    -0.347 N 
ATOM     24  H   UNL A   1      29.778  23.670  22.725  1.00  0.00     0.345 HD
ATOM     25  H   UNL A   1      30.570  22.431  23.508  1.00  0.00     0.345 HD
ATOM     26  H   UNL A   1      31.146  22.999  22.052  1.00  0.00     0.345 HD
ENDBRANCH   8  23
ENDBRANCH   7   8
ENDBRANCH   5   7
ENDBRANCH   4   5
ENDBRANCH   3   4
ENDBRANCH   2   3
ENDBRANCH   1   2
BRANCH   1  27
ATOM     27  C   UNL A   1      36.079  20.928  24.725  1.00  0.00     0.202 C 
BRANCH  27  28
ATOM     28  C   UNL A   1      37.337  20.231  25.259  1.00  0.00     0.261 C 
BRANCH  28  29
ATOM     29  O   UNL A   1      38.513  21.052  25.144  1.00  0.00    -0.460 OA
BRANCH  29  30
ATOM     30  C   UNL A   1      39.445  20.863  26.103  1.00  0.00     0.338 C 
ATOM     31  O   UNL A   1      40.044  19.818  26.351  1.00  0.00    -0.246 OA
BRANCH  30  32
ATOM     32  C   UNL A   1      39.821  22.153  26.707  1.00  0.00     0.060 A 
ATOM     33  C   UNL A   1      39.178  23.303  26.232  1.00  0.00     0.016 A 
ATOM     34  C   UNL A   1      40.827  22.253  27.671  1.00  0.00     0.016 A 
ATOM     35  C   UNL A   1      39.567  24.562  26.684  1.00  0.00     0.010 A 
ATOM     36  C   UNL A   1      41.226  23.520  28.114  1.00  0.00     0.010 A 
ATOM     37  C   UNL A   1      40.621  24.682  27.598  1.00  0.00    -0.014 A 
BRANCH  37  38
ATOM     38  C   UNL A   1      41.194  26.022  27.887  1.00  0.00     0.031 A 
ATOM     39  C   UNL A   1      42.597  26.322  27.428  1.00  0.00     0.074 A 
ATOM     40  C   UNL A   1      40.470  26.965  28.518  1.00  0.00     0.049 A 
ATOM     41  N   UNL A   1      43.320  27.395  27.614  1.00  0.00    -0.248 NA
ATOM     42  C   UNL A   1      43.272  25.267  26.655  1.00  0.00     0.031 C 
ATOM     43  C   UNL A   1      39.082  26.812  28.950  1.00  0.00     0.029 A 
ATOM     44  N   UNL A   1      40.805  28.238  28.907  1.00  0.00    -0.354 N 
ATOM     45  C   UNL A   1      44.541  27.141  26.998  1.00  0.00     0.074 A 
ATOM     46  C   UNL A   1      44.466  25.802  26.452  1.00  0.00     0.031 C 
ATOM     47  C   UNL A   1      38.686  27.947  29.554  1.00  0.00     0.029 A 
ATOM     48  C   UNL A   1      39.804  28.888  29.592  1.00  0.00     0.049 A 
ATOM     49  H   UNL A   1      41.680  28.647  28.715  1.00  0.00     0.167 HD
ATOM     50  C   UNL A   1      45.624  27.950  26.898  1.00  0.00     0.034 A 
ATOM     51  C   UNL A   1      39.804  30.091  30.203  1.00  0.00     0.034 A 
ATOM     52  C   UNL A   1      45.681  29.283  27.447  1.00  0.00     0.049 A 
ATOM     53  C   UNL A   1      41.058  30.935  30.161  1.00  0.00     0.074 A 
ATOM     54  C   UNL A   1      46.716  30.200  27.372  1.00  0.00     0.029 A 
ATOM     55  N   UNL A   1      44.671  29.886  28.184  1.00  0.00    -0.354 N 
ATOM     56  N   UNL A   1      42.203  30.688  29.564  1.00  0.00    -0.248 NA
ATOM     57  C   UNL A   1      41.020  32.220  30.872  1.00  0.00     0.031 C 
ATOM     58  C   UNL A   1      46.364  31.320  28.131  1.00  0.00     0.029 A 
ATOM     59  C   UNL A   1      45.075  31.142  28.607  1.00  0.00     0.049 A 
ATOM     60  H   UNL A   1      43.795  29.480  28.379  1.00  0.00     0.167 HD
ATOM     61  C   UNL A   1      43.002  31.807  29.795  1.00  0.00     0.074 A 
ATOM     62  C   UNL A   1      42.206  32.730  30.577  1.00  0.00     0.031 C 
ATOM     63  C   UNL A   1      44.272  32.055  29.387  1.00  0.00     0.034 A 
BRANCH  50  64
ATOM     64  C   UNL A   1      46.855  27.394  26.227  1.00  0.00     0.023 A 
ATOM     65  C   UNL A   1      47.859  26.720  26.943  1.00  0.00     0.031 A 
ATOM     66  C   UNL A   1      47.028  27.550  24.839  1.00  0.00     0.131 A 
ATOM     67  C   UNL A   1      49.013  26.277  26.279  1.00  0.00     0.055 A 
ATOM     68  C   UNL A   1      48.143  27.042  24.173  1.00  0.00     0.041 A 
ATOM     69  F   UNL A   1      46.114  28.206  24.107  1.00  0.00    -0.206 F 
ATOM     70  C   UNL A   1      49.151  26.410  24.895  1.00  0.00     0.022 A 
BRANCH  67  71
ATOM     71  S   UNL A   1      50.392  25.630  27.266  1.00  0.00     0.124 S 
ATOM     72  O   UNL A   1      51.483  25.648  26.295  1.00  0.00    -0.237 OA
ATOM     73  O   UNL A   1      50.485  26.600  28.351  1.00  0.00    -0.237 OA
ATOM     74  O   UNL A   1      49.938  24.297  27.658  1.00  0.00    -0.744 OA
ENDBRANCH  67  71
ENDBRANCH  50  64
BRANCH  51  75
ATOM     75  C   UNL A   1      38.604  30.567  30.952  1.00  0.00     0.023 A 
ATOM     76  C   UNL A   1      37.546  31.211  30.291  1.00  0.00     0.031 A 
ATOM     77  C   UNL A   1      38.535  30.461  32.354  1.00  0.00     0.131 A 
ATOM     78  C   UNL A   1      36.496  31.775  31.033  1.00  0.00     0.055 A 
ATOM     79  C   UNL A   1      37.457  30.968  33.081  1.00  0.00     0.041 A 
ATOM     80  F   UNL A   1      39.521  29.860  33.040  1.00  0.00    -0.206 F 
ATOM     81  C   UNL A   1      36.436  31.644  32.422  1.00  0.00     0.022 A 
BRANCH  78  82
ATOM     82  S   UNL A   1      35.259  32.778  30.163  1.00  0.00     0.124 S 
ATOM     83  O   UNL A   1      34.323  33.090  31.238  1.00  0.00    -0.237 OA
ATOM     84  O   UNL A   1      36.065  33.890  29.669  1.00  0.00    -0.237 OA
ATOM     85  O   UNL A   1      34.749  31.874  29.134  1.00  0.00    -0.744 OA
ENDBRANCH  78  82
ENDBRANCH  51  75
BRANCH  63  86
ATOM     86  C   UNL A   1      44.859  33.404  29.727  1.00  0.00     0.023 A 
ATOM     87  C   UNL A   1      44.621  34.541  28.935  1.00  0.00     0.031 A 
ATOM     88  C   UNL A   1      45.667  33.551  30.868  1.00  0.00     0.131 A 
ATOM     89  C   UNL A   1      45.227  35.764  29.269  1.00  0.00     0.055 A 
ATOM     90  C   UNL A   1      46.216  34.782  31.229  1.00  0.00     0.041 A 
ATOM     91  F   UNL A   1      45.930  32.499  31.659  1.00  0.00    -0.206 F 
ATOM     92  C   UNL A   1      46.007  35.895  30.421  1.00  0.00     0.022 A 
BRANCH  89  93
ATOM     93  S   UNL A   1      45.049  37.165  28.131  1.00  0.00     0.124 S 
ATOM     94  O   UNL A   1      43.944  37.907  28.732  1.00  0.00    -0.237 OA
ATOM     95  O   UNL A   1      46.360  37.802  28.209  1.00  0.00    -0.237 OA
ATOM     96  O   UNL A   1      44.745  36.532  26.849  1.00  0.00    -0.744 OA
ENDBRANCH  89  93
ENDBRANCH  63  86
ENDBRANCH  37  38
ENDBRANCH  30  32
ENDBRANCH  29  30
ENDBRANCH  28  29
ENDBRANCH  27  28
ENDBRANCH   1  27
TORSDOF 21
ENDMDL
