MODEL 1
REMARK VINA RESULT:     -11.1      0.000      0.000
REMARK SMILES Cc1cccc2c(C(=O)OCCOCCOC(=O)c3ccc(-c4c5nc(c(-c6cc(S(=O)(=O)[O-])ccc6F)c6ccc([nH]6)c(-c6cc(S(=O)(=O)[O-])ccc6F)c6nc(c(-c7cc(S(=O)(=O)[O-])ccc7F)c7ccc4[nH]7)C=C6)C=C5)cc3)cc(=O)[nH]c12
REMARK SMILES IDX 14 1 13 2 12 3 11 4 10 5 8 6 9 7 7 8 1 9 2 10 3 11 86 12
REMARK SMILES IDX 4 13 6 14 85 15 5 16 83 17 82 19 84 20 15 21 16 22 17 23
REMARK SMILES IDX 18 24 19 25 20 26 81 27 21 28 80 29 22 30 23 31 24 32 74 33
REMARK SMILES IDX 25 34 79 35 73 36 75 37 26 38 78 39 72 40 71 41 27 43 59 44
REMARK SMILES IDX 39 45 58 46 40 47 43 48 57 49 76 50 41 51 42 52 56 54 77 55
REMARK SMILES IDX 44 56 28 57 29 58 37 59 30 60 36 61 38 62 35 63 31 64 32 65
REMARK SMILES IDX 33 66 34 67 60 68 61 69 69 70 62 71 68 72 70 73 67 74 63 75
REMARK SMILES IDX 64 76 65 77 66 78 45 79 46 80 54 81 47 82 53 83 55 84 52 85
REMARK SMILES IDX 48 86 49 87 50 88 51 89
REMARK H PARENT 85 18 75 42 43 53
REMARK Flexibility Score: inf
ROOT
ATOM      1  C   UNL A   1      35.976  20.441  25.003  1.00  0.00     0.202 C 
ENDROOT
BRANCH   1   2
ATOM      2  O   UNL A   1      34.560  20.566  24.857  1.00  0.00    -0.374 OA
BRANCH   2   3
ATOM      3  C   UNL A   1      34.037  21.857  24.548  1.00  0.00     0.202 C 
BRANCH   3   4
ATOM      4  C   UNL A   1      33.211  22.553  25.636  1.00  0.00     0.261 C 
BRANCH   4   5
ATOM      5  O   UNL A   1      32.844  23.884  25.245  1.00  0.00    -0.460 OA
BRANCH   5   6
ATOM      6  C   UNL A   1      32.117  24.564  26.167  1.00  0.00     0.339 C 
ATOM      7  O   UNL A   1      31.671  24.113  27.212  1.00  0.00    -0.246 OA
BRANCH   6   8
ATOM      8  C   UNL A   1      32.053  26.008  25.823  1.00  0.00     0.074 A 
ATOM      9  C   UNL A   1      30.359  29.569  22.729  1.00  0.00     0.046 C 
ATOM     10  C   UNL A   1      30.130  28.328  23.543  1.00  0.00    -0.027 A 
ATOM     11  C   UNL A   1      28.941  27.605  23.361  1.00  0.00     0.005 A 
ATOM     12  C   UNL A   1      31.098  27.820  24.427  1.00  0.00     0.052 A 
ATOM     13  C   UNL A   1      28.734  26.397  24.023  1.00  0.00     0.001 A 
ATOM     14  C   UNL A   1      30.944  26.556  25.015  1.00  0.00     0.013 A 
ATOM     15  N   UNL A   1      32.216  28.588  24.788  1.00  0.00    -0.322 N 
ATOM     16  C   UNL A   1      29.739  25.864  24.826  1.00  0.00     0.011 A 
ATOM     17  C   UNL A   1      33.150  28.194  25.705  1.00  0.00     0.249 A 
ATOM     18  H   UNL A   1      32.333  29.464  24.356  1.00  0.00     0.170 HD
ATOM     19  C   UNL A   1      33.074  26.799  26.185  1.00  0.00     0.088 A 
ATOM     20  O   UNL A   1      34.038  28.946  26.087  1.00  0.00    -0.270 OA
ENDBRANCH   6   8
ENDBRANCH   5   6
ENDBRANCH   4   5
ENDBRANCH   3   4
ENDBRANCH   2   3
ENDBRANCH   1   2
BRANCH   1  21
ATOM     21  C   UNL A   1      36.728  21.544  25.758  1.00  0.00     0.261 C 
BRANCH  21  22
ATOM     22  O   UNL A   1      38.038  21.781  25.218  1.00  0.00    -0.460 OA
BRANCH  22  23
ATOM     23  C   UNL A   1      39.068  21.471  26.044  1.00  0.00     0.338 C 
ATOM     24  O   UNL A   1      39.583  20.375  26.198  1.00  0.00    -0.246 OA
BRANCH  23  25
ATOM     25  C   UNL A   1      39.640  22.722  26.577  1.00  0.00     0.060 A 
ATOM     26  C   UNL A   1      40.599  22.712  27.592  1.00  0.00     0.016 A 
ATOM     27  C   UNL A   1      39.185  23.933  26.039  1.00  0.00     0.016 A 
ATOM     28  C   UNL A   1      41.110  23.924  28.063  1.00  0.00     0.010 A 
ATOM     29  C   UNL A   1      39.687  25.140  26.518  1.00  0.00     0.010 A 
ATOM     30  C   UNL A   1      40.659  25.145  27.530  1.00  0.00    -0.014 A 
BRANCH  30  31
ATOM     31  C   UNL A   1      41.254  26.434  27.958  1.00  0.00     0.031 A 
ATOM     32  C   UNL A   1      40.420  27.476  28.642  1.00  0.00     0.074 A 
ATOM     33  C   UNL A   1      42.546  26.679  27.668  1.00  0.00     0.049 A 
ATOM     34  N   UNL A   1      40.771  28.665  29.053  1.00  0.00    -0.248 NA
ATOM     35  C   UNL A   1      39.009  27.143  28.893  1.00  0.00     0.031 C 
ATOM     36  C   UNL A   1      43.435  25.740  26.985  1.00  0.00     0.029 A 
ATOM     37  N   UNL A   1      43.331  27.783  27.891  1.00  0.00    -0.354 N 
ATOM     38  C   UNL A   1      39.632  29.224  29.620  1.00  0.00     0.074 A 
ATOM     39  C   UNL A   1      38.566  28.258  29.459  1.00  0.00     0.031 C 
ATOM     40  C   UNL A   1      44.645  26.302  26.852  1.00  0.00     0.029 A 
ATOM     41  C   UNL A   1      44.609  27.659  27.397  1.00  0.00     0.049 A 
ATOM     42  H   UNL A   1      43.009  28.587  28.360  1.00  0.00     0.167 HD
ATOM     43  C   UNL A   1      39.501  30.424  30.233  1.00  0.00     0.034 A 
ATOM     44  C   UNL A   1      45.633  28.539  27.372  1.00  0.00     0.034 A 
ATOM     45  C   UNL A   1      40.580  31.371  30.376  1.00  0.00     0.049 A 
ATOM     46  C   UNL A   1      45.447  29.890  28.017  1.00  0.00     0.074 A 
ATOM     47  C   UNL A   1      40.557  32.594  31.023  1.00  0.00     0.029 A 
ATOM     48  N   UNL A   1      41.860  31.214  29.864  1.00  0.00    -0.354 N 
ATOM     49  N   UNL A   1      44.392  30.367  28.634  1.00  0.00    -0.248 NA
ATOM     50  C   UNL A   1      46.585  30.821  27.976  1.00  0.00     0.031 C 
ATOM     51  C   UNL A   1      41.790  33.211  30.830  1.00  0.00     0.029 A 
ATOM     52  C   UNL A   1      42.622  32.336  30.149  1.00  0.00     0.049 A 
ATOM     53  H   UNL A   1      42.180  30.424  29.372  1.00  0.00     0.167 HD
ATOM     54  C   UNL A   1      44.751  31.635  29.088  1.00  0.00     0.074 A 
ATOM     55  C   UNL A   1      46.124  31.847  28.682  1.00  0.00     0.031 C 
ATOM     56  C   UNL A   1      44.004  32.532  29.778  1.00  0.00     0.034 A 
BRANCH  43  57
ATOM     57  C   UNL A   1      38.166  30.805  30.826  1.00  0.00     0.023 A 
ATOM     58  C   UNL A   1      37.232  31.524  30.056  1.00  0.00     0.031 A 
ATOM     59  C   UNL A   1      37.890  30.608  32.191  1.00  0.00     0.131 A 
ATOM     60  C   UNL A   1      36.092  32.062  30.667  1.00  0.00     0.055 A 
ATOM     61  C   UNL A   1      36.729  31.104  32.784  1.00  0.00     0.041 A 
ATOM     62  F   UNL A   1      38.752  29.935  32.971  1.00  0.00    -0.206 F 
ATOM     63  C   UNL A   1      35.832  31.850  32.024  1.00  0.00     0.022 A 
BRANCH  60  64
ATOM     64  S   UNL A   1      34.949  33.128  29.746  1.00  0.00     0.124 S 
ATOM     65  O   UNL A   1      34.080  33.624  30.812  1.00  0.00    -0.237 OA
ATOM     66  O   UNL A   1      35.853  34.118  29.168  1.00  0.00    -0.237 OA
ATOM     67  O   UNL A   1      34.311  32.223  28.797  1.00  0.00    -0.744 OA
ENDBRANCH  60  64
ENDBRANCH  43  57
BRANCH  44  68
ATOM     68  C   UNL A   1      46.929  28.123  26.761  1.00  0.00     0.023 A 
ATOM     69  C   UNL A   1      47.131  28.200  25.370  1.00  0.00     0.031 A 
ATOM     70  C   UNL A   1      47.937  27.534  27.542  1.00  0.00     0.131 A 
ATOM     71  C   UNL A   1      48.274  27.626  24.799  1.00  0.00     0.055 A 
ATOM     72  C   UNL A   1      49.110  27.032  26.976  1.00  0.00     0.041 A 
ATOM     73  F   UNL A   1      47.785  27.424  28.871  1.00  0.00    -0.206 F 
ATOM     74  C   UNL A   1      49.274  27.059  25.595  1.00  0.00     0.022 A 
BRANCH  71  75
ATOM     75  S   UNL A   1      48.435  27.471  22.998  1.00  0.00     0.124 S 
ATOM     76  O   UNL A   1      48.350  26.027  22.807  1.00  0.00    -0.237 OA
ATOM     77  O   UNL A   1      47.282  28.238  22.530  1.00  0.00    -0.237 OA
ATOM     78  O   UNL A   1      49.734  28.071  22.714  1.00  0.00    -0.744 OA
ENDBRANCH  71  75
ENDBRANCH  44  68
BRANCH  56  79
ATOM     79  C   UNL A   1      44.622  33.847  30.194  1.00  0.00     0.023 A 
ATOM     80  C   UNL A   1      44.630  34.926  29.286  1.00  0.00     0.031 A 
ATOM     81  C   UNL A   1      45.387  33.960  31.366  1.00  0.00     0.131 A 
ATOM     82  C   UNL A   1      45.453  36.033  29.524  1.00  0.00     0.055 A 
ATOM     83  C   UNL A   1      46.160  35.094  31.628  1.00  0.00     0.041 A 
ATOM     84  F   UNL A   1      45.419  32.957  32.258  1.00  0.00    -0.206 F 
ATOM     85  C   UNL A   1      46.213  36.125  30.695  1.00  0.00     0.022 A 
BRANCH  82  86
ATOM     86  S   UNL A   1      45.663  37.329  28.271  1.00  0.00     0.124 S 
ATOM     87  O   UNL A   1      44.668  36.948  27.272  1.00  0.00    -0.237 OA
ATOM     88  O   UNL A   1      45.355  38.538  29.029  1.00  0.00    -0.237 OA
ATOM     89  O   UNL A   1      47.052  37.188  27.847  1.00  0.00    -0.744 OA
ENDBRANCH  82  86
ENDBRANCH  56  79
ENDBRANCH  30  31
ENDBRANCH  23  25
ENDBRANCH  22  23
ENDBRANCH  21  22
ENDBRANCH   1  21
TORSDOF 17
ENDMDL
MODEL 2
REMARK VINA RESULT:     -11.0      5.152      8.238
REMARK SMILES Cc1cccc2c(C(=O)OCCOCCOC(=O)c3ccc(-c4c5nc(c(-c6cc(S(=O)(=O)[O-])ccc6F)c6ccc([nH]6)c(-c6cc(S(=O)(=O)[O-])ccc6F)c6nc(c(-c7cc(S(=O)(=O)[O-])ccc7F)c7ccc4[nH]7)C=C6)C=C5)cc3)cc(=O)[nH]c12
REMARK SMILES IDX 14 1 13 2 12 3 11 4 10 5 8 6 9 7 7 8 1 9 2 10 3 11 86 12
REMARK SMILES IDX 4 13 6 14 85 15 5 16 83 17 82 19 84 20 15 21 16 22 17 23
REMARK SMILES IDX 18 24 19 25 20 26 81 27 21 28 80 29 22 30 23 31 24 32 74 33
REMARK SMILES IDX 25 34 79 35 73 36 75 37 26 38 78 39 72 40 71 41 27 43 59 44
REMARK SMILES IDX 39 45 58 46 40 47 43 48 57 49 76 50 41 51 42 52 56 54 77 55
REMARK SMILES IDX 44 56 28 57 29 58 37 59 30 60 36 61 38 62 35 63 31 64 32 65
REMARK SMILES IDX 33 66 34 67 60 68 61 69 69 70 62 71 68 72 70 73 67 74 63 75
REMARK SMILES IDX 64 76 65 77 66 78 45 79 46 80 54 81 47 82 53 83 55 84 52 85
REMARK SMILES IDX 48 86 49 87 50 88 51 89
REMARK H PARENT 85 18 75 42 43 53
REMARK Flexibility Score: inf
ROOT
ATOM      1  C   UNL A   1      31.796  31.001  26.566  1.00  0.00     0.202 C 
ENDROOT
BRANCH   1   2
ATOM      2  O   UNL A   1      33.026  30.468  26.071  1.00  0.00    -0.374 OA
BRANCH   2   3
ATOM      3  C   UNL A   1      32.996  29.167  25.487  1.00  0.00     0.202 C 
BRANCH   3   4
ATOM      4  C   UNL A   1      32.521  28.013  26.378  1.00  0.00     0.261 C 
BRANCH   4   5
ATOM      5  O   UNL A   1      33.218  26.796  26.076  1.00  0.00    -0.460 OA
BRANCH   5   6
ATOM      6  C   UNL A   1      32.621  26.019  25.138  1.00  0.00     0.339 C 
ATOM      7  O   UNL A   1      32.468  26.301  23.958  1.00  0.00    -0.246 OA
BRANCH   6   8
ATOM      8  C   UNL A   1      32.301  24.679  25.693  1.00  0.00     0.074 A 
ATOM      9  C   UNL A   1      32.724  19.701  25.292  1.00  0.00     0.046 C 
ATOM     10  C   UNL A   1      33.336  21.072  25.248  1.00  0.00    -0.027 A 
ATOM     11  C   UNL A   1      34.630  21.223  24.728  1.00  0.00     0.005 A 
ATOM     12  C   UNL A   1      32.627  22.223  25.638  1.00  0.00     0.052 A 
ATOM     13  C   UNL A   1      35.193  22.488  24.578  1.00  0.00     0.001 A 
ATOM     14  C   UNL A   1      33.145  23.504  25.394  1.00  0.00     0.013 A 
ATOM     15  N   UNL A   1      31.413  22.119  26.333  1.00  0.00    -0.322 N 
ATOM     16  C   UNL A   1      34.447  23.622  24.887  1.00  0.00     0.011 A 
ATOM     17  C   UNL A   1      30.715  23.189  26.817  1.00  0.00     0.249 A 
ATOM     18  H   UNL A   1      31.041  21.220  26.482  1.00  0.00     0.170 HD
ATOM     19  C   UNL A   1      31.174  24.532  26.406  1.00  0.00     0.088 A 
ATOM     20  O   UNL A   1      29.728  23.050  27.529  1.00  0.00    -0.270 OA
ENDBRANCH   6   8
ENDBRANCH   5   6
ENDBRANCH   4   5
ENDBRANCH   3   4
ENDBRANCH   2   3
ENDBRANCH   1   2
BRANCH   1  21
ATOM     21  C   UNL A   1      31.726  32.504  26.868  1.00  0.00     0.261 C 
BRANCH  21  22
ATOM     22  O   UNL A   1      33.016  33.132  26.818  1.00  0.00    -0.460 OA
BRANCH  22  23
ATOM     23  C   UNL A   1      33.377  33.802  27.942  1.00  0.00     0.338 C 
ATOM     24  O   UNL A   1      32.745  34.678  28.510  1.00  0.00    -0.246 OA
BRANCH  23  25
ATOM     25  C   UNL A   1      34.566  33.148  28.520  1.00  0.00     0.060 A 
ATOM     26  C   UNL A   1      35.842  33.699  28.379  1.00  0.00     0.016 A 
ATOM     27  C   UNL A   1      34.381  31.946  29.214  1.00  0.00     0.016 A 
ATOM     28  C   UNL A   1      36.938  33.041  28.946  1.00  0.00     0.010 A 
ATOM     29  C   UNL A   1      35.476  31.287  29.768  1.00  0.00     0.010 A 
ATOM     30  C   UNL A   1      36.763  31.832  29.644  1.00  0.00    -0.014 A 
BRANCH  30  31
ATOM     31  C   UNL A   1      37.902  31.169  30.324  1.00  0.00     0.031 A 
ATOM     32  C   UNL A   1      38.299  31.561  31.715  1.00  0.00     0.074 A 
ATOM     33  C   UNL A   1      38.612  30.248  29.646  1.00  0.00     0.049 A 
ATOM     34  N   UNL A   1      39.284  31.108  32.445  1.00  0.00    -0.248 NA
ATOM     35  C   UNL A   1      37.490  32.599  32.373  1.00  0.00     0.031 C 
ATOM     36  C   UNL A   1      38.321  29.814  28.281  1.00  0.00     0.029 A 
ATOM     37  N   UNL A   1      39.725  29.525  29.999  1.00  0.00    -0.354 N 
ATOM     38  C   UNL A   1      39.213  31.794  33.651  1.00  0.00     0.074 A 
ATOM     39  C   UNL A   1      38.113  32.729  33.537  1.00  0.00     0.031 C 
ATOM     40  C   UNL A   1      39.225  28.895  27.913  1.00  0.00     0.029 A 
ATOM     41  C   UNL A   1      40.188  28.705  28.996  1.00  0.00     0.049 A 
ATOM     42  H   UNL A   1      40.150  29.588  30.884  1.00  0.00     0.167 HD
ATOM     43  C   UNL A   1      39.986  31.640  34.751  1.00  0.00     0.034 A 
ATOM     44  C   UNL A   1      41.273  27.901  28.946  1.00  0.00     0.034 A 
ATOM     45  C   UNL A   1      41.080  30.703  34.835  1.00  0.00     0.049 A 
ATOM     46  C   UNL A   1      42.148  27.783  30.168  1.00  0.00     0.074 A 
ATOM     47  C   UNL A   1      41.892  30.441  35.924  1.00  0.00     0.029 A 
ATOM     48  N   UNL A   1      41.523  29.889  33.802  1.00  0.00    -0.354 N 
ATOM     49  N   UNL A   1      42.013  28.368  31.335  1.00  0.00    -0.248 NA
ATOM     50  C   UNL A   1      43.317  26.895  30.080  1.00  0.00     0.031 C 
ATOM     51  C   UNL A   1      42.873  29.537  35.528  1.00  0.00     0.029 A 
ATOM     52  C   UNL A   1      42.620  29.154  34.219  1.00  0.00     0.049 A 
ATOM     53  H   UNL A   1      41.117  29.842  32.907  1.00  0.00     0.167 HD
ATOM     54  C   UNL A   1      43.052  27.890  32.130  1.00  0.00     0.074 A 
ATOM     55  C   UNL A   1      43.804  26.960  31.314  1.00  0.00     0.031 C 
ATOM     56  C   UNL A   1      43.347  28.197  33.417  1.00  0.00     0.034 A 
BRANCH  43  57
ATOM     57  C   UNL A   1      39.691  32.469  35.978  1.00  0.00     0.023 A 
ATOM     58  C   UNL A   1      38.770  32.005  36.937  1.00  0.00     0.031 A 
ATOM     59  C   UNL A   1      40.185  33.779  36.111  1.00  0.00     0.131 A 
ATOM     60  C   UNL A   1      38.335  32.861  37.956  1.00  0.00     0.055 A 
ATOM     61  C   UNL A   1      39.785  34.611  37.157  1.00  0.00     0.041 A 
ATOM     62  F   UNL A   1      41.060  34.272  35.220  1.00  0.00    -0.206 F 
ATOM     63  C   UNL A   1      38.842  34.158  38.076  1.00  0.00     0.022 A 
BRANCH  60  64
ATOM     64  S   UNL A   1      37.032  32.355  39.113  1.00  0.00     0.124 S 
ATOM     65  O   UNL A   1      35.824  32.762  38.398  1.00  0.00    -0.237 OA
ATOM     66  O   UNL A   1      37.245  30.913  39.204  1.00  0.00    -0.237 OA
ATOM     67  O   UNL A   1      37.321  33.115  40.324  1.00  0.00    -0.744 OA
ENDBRANCH  60  64
ENDBRANCH  43  57
BRANCH  44  68
ATOM     68  C   UNL A   1      41.532  27.113  27.705  1.00  0.00     0.023 A 
ATOM     69  C   UNL A   1      41.246  25.735  27.650  1.00  0.00     0.031 A 
ATOM     70  C   UNL A   1      42.178  27.697  26.604  1.00  0.00     0.131 A 
ATOM     71  C   UNL A   1      41.674  24.978  26.553  1.00  0.00     0.055 A 
ATOM     72  C   UNL A   1      42.534  26.952  25.478  1.00  0.00     0.041 A 
ATOM     73  F   UNL A   1      42.485  29.003  26.614  1.00  0.00    -0.206 F 
ATOM     74  C   UNL A   1      42.300  25.581  25.457  1.00  0.00     0.022 A 
BRANCH  71  75
ATOM     75  S   UNL A   1      41.559  23.167  26.572  1.00  0.00     0.124 S 
ATOM     76  O   UNL A   1      40.121  22.950  26.453  1.00  0.00    -0.237 OA
ATOM     77  O   UNL A   1      42.351  22.807  25.398  1.00  0.00    -0.237 OA
ATOM     78  O   UNL A   1      42.149  22.798  27.854  1.00  0.00    -0.744 OA
ENDBRANCH  71  75
ENDBRANCH  44  68
BRANCH  56  79
ATOM     79  C   UNL A   1      44.520  27.523  34.091  1.00  0.00     0.023 A 
ATOM     80  C   UNL A   1      44.312  26.327  34.808  1.00  0.00     0.031 A 
ATOM     81  C   UNL A   1      45.762  28.165  34.217  1.00  0.00     0.131 A 
ATOM     82  C   UNL A   1      45.299  25.857  35.683  1.00  0.00     0.055 A 
ATOM     83  C   UNL A   1      46.767  27.658  35.045  1.00  0.00     0.041 A 
ATOM     84  F   UNL A   1      46.006  29.312  33.562  1.00  0.00    -0.206 F 
ATOM     85  C   UNL A   1      46.528  26.513  35.799  1.00  0.00     0.022 A 
BRANCH  82  86
ATOM     86  S   UNL A   1      44.976  24.454  36.788  1.00  0.00     0.124 S 
ATOM     87  O   UNL A   1      46.307  24.177  37.323  1.00  0.00    -0.237 OA
ATOM     88  O   UNL A   1      44.028  25.026  37.739  1.00  0.00    -0.237 OA
ATOM     89  O   UNL A   1      44.438  23.424  35.904  1.00  0.00    -0.744 OA
ENDBRANCH  82  86
ENDBRANCH  56  79
ENDBRANCH  30  31
ENDBRANCH  23  25
ENDBRANCH  22  23
ENDBRANCH  21  22
ENDBRANCH   1  21
TORSDOF 17
ENDMDL
MODEL 3
REMARK VINA RESULT:     -11.0      4.939      9.931
REMARK SMILES Cc1cccc2c(C(=O)OCCOCCOC(=O)c3ccc(-c4c5nc(c(-c6cc(S(=O)(=O)[O-])ccc6F)c6ccc([nH]6)c(-c6cc(S(=O)(=O)[O-])ccc6F)c6nc(c(-c7cc(S(=O)(=O)[O-])ccc7F)c7ccc4[nH]7)C=C6)C=C5)cc3)cc(=O)[nH]c12
REMARK SMILES IDX 14 1 13 2 12 3 11 4 10 5 8 6 9 7 7 8 1 9 2 10 3 11 86 12
REMARK SMILES IDX 4 13 6 14 85 15 5 16 83 17 82 19 84 20 15 21 16 22 17 23
REMARK SMILES IDX 18 24 19 25 20 26 81 27 21 28 80 29 22 30 23 31 24 32 74 33
REMARK SMILES IDX 25 34 79 35 73 36 75 37 26 38 78 39 72 40 71 41 27 43 59 44
REMARK SMILES IDX 39 45 58 46 40 47 43 48 57 49 76 50 41 51 42 52 56 54 77 55
REMARK SMILES IDX 44 56 28 57 29 58 37 59 30 60 36 61 38 62 35 63 31 64 32 65
REMARK SMILES IDX 33 66 34 67 60 68 61 69 69 70 62 71 68 72 70 73 67 74 63 75
REMARK SMILES IDX 64 76 65 77 66 78 45 79 46 80 54 81 47 82 53 83 55 84 52 85
REMARK SMILES IDX 48 86 49 87 50 88 51 89
REMARK H PARENT 85 18 75 42 43 53
REMARK Flexibility Score: inf
ROOT
ATOM      1  C   UNL A   1      31.490  29.507  25.206  1.00  0.00     0.202 C 
ENDROOT
BRANCH   1   2
ATOM      2  O   UNL A   1      32.478  29.034  24.288  1.00  0.00    -0.374 OA
BRANCH   2   3
ATOM      3  C   UNL A   1      32.183  27.852  23.547  1.00  0.00     0.202 C 
BRANCH   3   4
ATOM      4  C   UNL A   1      32.414  26.510  24.252  1.00  0.00     0.261 C 
BRANCH   4   5
ATOM      5  O   UNL A   1      33.781  26.088  24.140  1.00  0.00    -0.460 OA
BRANCH   5   6
ATOM      6  C   UNL A   1      34.020  25.202  23.141  1.00  0.00     0.339 C 
ATOM      7  O   UNL A   1      33.989  25.439  21.942  1.00  0.00    -0.246 OA
BRANCH   6   8
ATOM      8  C   UNL A   1      34.488  23.904  23.692  1.00  0.00     0.074 A 
ATOM      9  C   UNL A   1      33.336  19.275  25.230  1.00  0.00     0.046 C 
ATOM     10  C   UNL A   1      33.207  20.391  24.233  1.00  0.00    -0.027 A 
ATOM     11  C   UNL A   1      32.211  20.310  23.247  1.00  0.00     0.005 A 
ATOM     12  C   UNL A   1      33.998  21.552  24.298  1.00  0.00     0.052 A 
ATOM     13  C   UNL A   1      31.995  21.367  22.366  1.00  0.00     0.001 A 
ATOM     14  C   UNL A   1      33.718  22.660  23.486  1.00  0.00     0.013 A 
ATOM     15  N   UNL A   1      35.123  21.609  25.135  1.00  0.00    -0.322 N 
ATOM     16  C   UNL A   1      32.727  22.544  22.500  1.00  0.00     0.011 A 
ATOM     17  C   UNL A   1      35.985  22.669  25.186  1.00  0.00     0.249 A 
ATOM     18  H   UNL A   1      35.303  20.839  25.721  1.00  0.00     0.170 HD
ATOM     19  C   UNL A   1      35.587  23.894  24.462  1.00  0.00     0.088 A 
ATOM     20  O   UNL A   1      37.024  22.627  25.833  1.00  0.00    -0.270 OA
ENDBRANCH   6   8
ENDBRANCH   5   6
ENDBRANCH   4   5
ENDBRANCH   3   4
ENDBRANCH   2   3
ENDBRANCH   1   2
BRANCH   1  21
ATOM     21  C   UNL A   1      31.963  30.233  26.471  1.00  0.00     0.261 C 
BRANCH  21  22
ATOM     22  O   UNL A   1      33.349  30.604  26.403  1.00  0.00    -0.460 OA
BRANCH  22  23
ATOM     23  C   UNL A   1      33.735  31.562  27.281  1.00  0.00     0.338 C 
ATOM     24  O   UNL A   1      33.062  32.491  27.699  1.00  0.00    -0.246 OA
BRANCH  23  25
ATOM     25  C   UNL A   1      35.044  31.185  27.848  1.00  0.00     0.060 A 
ATOM     26  C   UNL A   1      36.085  32.110  27.959  1.00  0.00     0.016 A 
ATOM     27  C   UNL A   1      35.220  29.860  28.266  1.00  0.00     0.016 A 
ATOM     28  C   UNL A   1      37.307  31.703  28.502  1.00  0.00     0.010 A 
ATOM     29  C   UNL A   1      36.443  29.455  28.797  1.00  0.00     0.010 A 
ATOM     30  C   UNL A   1      37.494  30.375  28.925  1.00  0.00    -0.014 A 
BRANCH  30  31
ATOM     31  C   UNL A   1      38.754  29.951  29.582  1.00  0.00     0.031 A 
ATOM     32  C   UNL A   1      39.639  28.919  28.952  1.00  0.00     0.074 A 
ATOM     33  C   UNL A   1      39.060  30.467  30.788  1.00  0.00     0.049 A 
ATOM     34  N   UNL A   1      40.756  28.412  29.403  1.00  0.00    -0.248 NA
ATOM     35  C   UNL A   1      39.216  28.381  27.649  1.00  0.00     0.031 C 
ATOM     36  C   UNL A   1      38.252  31.459  31.496  1.00  0.00     0.029 A 
ATOM     37  N   UNL A   1      40.112  30.224  31.636  1.00  0.00    -0.354 N 
ATOM     38  C   UNL A   1      41.179  27.502  28.441  1.00  0.00     0.074 A 
ATOM     39  C   UNL A   1      40.172  27.495  27.401  1.00  0.00     0.031 C 
ATOM     40  C   UNL A   1      38.841  31.748  32.665  1.00  0.00     0.029 A 
ATOM     41  C   UNL A   1      40.043  30.929  32.815  1.00  0.00     0.049 A 
ATOM     42  H   UNL A   1      40.846  29.603  31.420  1.00  0.00     0.167 HD
ATOM     43  C   UNL A   1      42.311  26.761  28.426  1.00  0.00     0.034 A 
ATOM     44  C   UNL A   1      40.847  30.911  33.900  1.00  0.00     0.034 A 
ATOM     45  C   UNL A   1      43.296  26.784  29.479  1.00  0.00     0.049 A 
ATOM     46  C   UNL A   1      42.077  30.038  33.881  1.00  0.00     0.074 A 
ATOM     47  C   UNL A   1      44.500  26.103  29.533  1.00  0.00     0.029 A 
ATOM     48  N   UNL A   1      43.195  27.508  30.659  1.00  0.00    -0.354 N 
ATOM     49  N   UNL A   1      42.513  29.255  32.923  1.00  0.00    -0.248 NA
ATOM     50  C   UNL A   1      42.932  30.048  35.077  1.00  0.00     0.031 C 
ATOM     51  C   UNL A   1      45.083  26.347  30.773  1.00  0.00     0.029 A 
ATOM     52  C   UNL A   1      44.297  27.259  31.460  1.00  0.00     0.049 A 
ATOM     53  H   UNL A   1      42.451  28.109  30.891  1.00  0.00     0.167 HD
ATOM     54  C   UNL A   1      43.710  28.711  33.383  1.00  0.00     0.074 A 
ATOM     55  C   UNL A   1      43.934  29.260  34.703  1.00  0.00     0.031 C 
ATOM     56  C   UNL A   1      44.540  27.837  32.761  1.00  0.00     0.034 A 
BRANCH  43  57
ATOM     57  C   UNL A   1      42.590  25.869  27.240  1.00  0.00     0.023 A 
ATOM     58  C   UNL A   1      42.132  24.537  27.236  1.00  0.00     0.031 A 
ATOM     59  C   UNL A   1      43.446  26.280  26.202  1.00  0.00     0.131 A 
ATOM     60  C   UNL A   1      42.571  23.652  26.244  1.00  0.00     0.055 A 
ATOM     61  C   UNL A   1      43.841  25.406  25.188  1.00  0.00     0.041 A 
ATOM     62  F   UNL A   1      43.916  27.537  26.163  1.00  0.00    -0.206 F 
ATOM     63  C   UNL A   1      43.417  24.080  25.217  1.00  0.00     0.022 A 
BRANCH  60  64
ATOM     64  S   UNL A   1      42.133  21.892  26.296  1.00  0.00     0.124 S 
ATOM     65  O   UNL A   1      42.539  21.524  27.651  1.00  0.00    -0.237 OA
ATOM     66  O   UNL A   1      40.691  21.929  26.067  1.00  0.00    -0.237 OA
ATOM     67  O   UNL A   1      42.928  21.299  25.228  1.00  0.00    -0.744 OA
ENDBRANCH  60  64
ENDBRANCH  43  57
BRANCH  44  68
ATOM     68  C   UNL A   1      40.522  31.799  35.055  1.00  0.00     0.023 A 
ATOM     69  C   UNL A   1      39.558  31.422  36.009  1.00  0.00     0.031 A 
ATOM     70  C   UNL A   1      41.082  33.083  35.155  1.00  0.00     0.131 A 
ATOM     71  C   UNL A   1      39.129  32.346  36.970  1.00  0.00     0.055 A 
ATOM     72  C   UNL A   1      40.707  33.974  36.162  1.00  0.00     0.041 A 
ATOM     73  F   UNL A   1      41.994  33.495  34.261  1.00  0.00    -0.206 F 
ATOM     74  C   UNL A   1      39.711  33.615  37.064  1.00  0.00     0.022 A 
BRANCH  71  75
ATOM     75  S   UNL A   1      37.707  31.985  38.037  1.00  0.00     0.124 S 
ATOM     76  O   UNL A   1      38.249  32.242  39.367  1.00  0.00    -0.237 OA
ATOM     77  O   UNL A   1      36.724  32.955  37.558  1.00  0.00    -0.237 OA
ATOM     78  O   UNL A   1      37.397  30.591  37.739  1.00  0.00    -0.744 OA
ENDBRANCH  71  75
ENDBRANCH  44  68
BRANCH  56  79
ATOM     79  C   UNL A   1      45.813  27.405  33.452  1.00  0.00     0.023 A 
ATOM     80  C   UNL A   1      45.775  26.331  34.364  1.00  0.00     0.031 A 
ATOM     81  C   UNL A   1      46.982  28.180  33.387  1.00  0.00     0.131 A 
ATOM     82  C   UNL A   1      46.851  26.113  35.233  1.00  0.00     0.055 A 
ATOM     83  C   UNL A   1      48.078  27.920  34.215  1.00  0.00     0.041 A 
ATOM     84  F   UNL A   1      47.066  29.219  32.541  1.00  0.00    -0.206 F 
ATOM     85  C   UNL A   1      48.006  26.899  35.157  1.00  0.00     0.022 A 
BRANCH  82  86
ATOM     86  S   UNL A   1      46.742  24.889  36.568  1.00  0.00     0.124 S 
ATOM     87  O   UNL A   1      46.365  25.719  37.710  1.00  0.00    -0.237 OA
ATOM     88  O   UNL A   1      45.699  23.994  36.077  1.00  0.00    -0.237 OA
ATOM     89  O   UNL A   1      48.083  24.318  36.634  1.00  0.00    -0.744 OA
ENDBRANCH  82  86
ENDBRANCH  56  79
ENDBRANCH  30  31
ENDBRANCH  23  25
ENDBRANCH  22  23
ENDBRANCH  21  22
ENDBRANCH   1  21
TORSDOF 17
ENDMDL
