MODEL 1
REMARK VINA RESULT:     -12.3      0.000      0.000
REMARK SMILES O=C(OCCOCCOC(=O)[C@H]1CCC(=O)N(C2CCCCC2)[C@H]1c1ccccc1)c1ccc(-c2c3nc(c(-c4cc(S(=O)(=O)[O-])ccc4F)c4ccc([nH]4)c(-c4cc(S(=O)(=O)[O-])ccc4F)c4nc(c(-c5cc(S(=O)(=O)[O-])ccc5F)c5ccc2[nH]5)C=C4)C=C3)cc1
REMARK SMILES IDX 5 1 4 2 3 3 2 4 1 5 31 6 32 7 93 8 33 9 92 10 34 11 35 12
REMARK SMILES IDX 36 13 86 14 37 15 91 16 85 17 87 18 38 19 90 20 84 21 83 22
REMARK SMILES IDX 39 24 71 25 51 26 70 27 52 28 55 29 69 30 88 31 53 32 54 33
REMARK SMILES IDX 68 35 89 36 56 37 40 38 41 39 49 40 42 41 48 42 50 43 47 44
REMARK SMILES IDX 43 45 44 46 45 47 46 48 72 49 73 50 81 51 74 52 80 53 82 54
REMARK SMILES IDX 79 55 75 56 76 57 77 58 78 59 57 60 58 61 66 62 59 63 65 64
REMARK SMILES IDX 67 65 64 66 60 67 61 68 62 69 63 70 6 71 7 72 8 73 9 74
REMARK SMILES IDX 10 75 11 76 12 77 13 78 24 79 14 80 17 81 15 82 16 83 25 84
REMARK SMILES IDX 26 85 30 86 27 87 29 88 28 89 18 90 19 91 23 92 20 93 22 94
REMARK SMILES IDX 21 95
REMARK H PARENT 87 23 55 34
REMARK Flexibility Score: inf
ROOT
ATOM      1  C   UNL A   1      31.552  28.574  24.962  1.00  0.00     0.202 C 
ENDROOT
BRANCH   1   2
ATOM      2  C   UNL A   1      31.774  29.357  26.253  1.00  0.00     0.261 C 
BRANCH   2   3
ATOM      3  O   UNL A   1      32.878  30.260  26.071  1.00  0.00    -0.460 OA
BRANCH   3   4
ATOM      4  C   UNL A   1      33.335  31.159  26.972  1.00  0.00     0.338 C 
ATOM      5  O   UNL A   1      32.666  32.149  27.251  1.00  0.00    -0.246 OA
BRANCH   4   6
ATOM      6  C   UNL A   1      34.624  30.939  27.670  1.00  0.00     0.060 A 
ATOM      7  C   UNL A   1      35.038  29.682  28.097  1.00  0.00     0.016 A 
ATOM      8  C   UNL A   1      35.481  32.022  27.860  1.00  0.00     0.016 A 
ATOM      9  C   UNL A   1      36.205  29.476  28.774  1.00  0.00     0.010 A 
ATOM     10  C   UNL A   1      36.714  31.822  28.483  1.00  0.00     0.010 A 
ATOM     11  C   UNL A   1      37.064  30.542  28.935  1.00  0.00    -0.014 A 
BRANCH  11  12
ATOM     12  C   UNL A   1      38.263  30.257  29.713  1.00  0.00     0.031 A 
ATOM     13  C   UNL A   1      39.316  29.440  29.058  1.00  0.00     0.074 A 
ATOM     14  C   UNL A   1      38.440  30.890  30.885  1.00  0.00     0.049 A 
ATOM     15  N   UNL A   1      40.366  28.882  29.580  1.00  0.00    -0.248 NA
ATOM     16  C   UNL A   1      39.157  29.219  27.610  1.00  0.00     0.031 C 
ATOM     17  C   UNL A   1      37.533  31.900  31.450  1.00  0.00     0.029 A 
ATOM     18  N   UNL A   1      39.449  30.802  31.797  1.00  0.00    -0.354 N 
ATOM     19  C   UNL A   1      40.957  28.178  28.541  1.00  0.00     0.074 A 
ATOM     20  C   UNL A   1      40.158  28.396  27.358  1.00  0.00     0.031 C 
ATOM     21  C   UNL A   1      38.029  32.329  32.618  1.00  0.00     0.029 A 
ATOM     22  C   UNL A   1      39.207  31.537  32.933  1.00  0.00     0.049 A 
ATOM     23  H   UNL A   1      40.264  30.269  31.658  1.00  0.00     0.167 HD
ATOM     24  C   UNL A   1      42.056  27.392  28.619  1.00  0.00     0.034 A 
ATOM     25  C   UNL A   1      39.825  31.482  34.126  1.00  0.00     0.034 A 
ATOM     26  C   UNL A   1      42.771  27.229  29.860  1.00  0.00     0.049 A 
ATOM     27  C   UNL A   1      40.959  30.501  34.243  1.00  0.00     0.074 A 
ATOM     28  C   UNL A   1      43.834  26.401  30.156  1.00  0.00     0.029 A 
ATOM     29  N   UNL A   1      42.467  27.927  31.032  1.00  0.00    -0.354 N 
ATOM     30  N   UNL A   1      41.445  29.695  33.320  1.00  0.00    -0.248 NA
ATOM     31  C   UNL A   1      41.616  30.398  35.545  1.00  0.00     0.031 C 
ATOM     32  C   UNL A   1      44.121  26.544  31.519  1.00  0.00     0.029 A 
ATOM     33  C   UNL A   1      43.305  27.532  32.057  1.00  0.00     0.049 A 
ATOM     34  H   UNL A   1      41.758  28.604  31.115  1.00  0.00     0.167 HD
ATOM     35  C   UNL A   1      42.489  29.009  33.922  1.00  0.00     0.074 A 
ATOM     36  C   UNL A   1      42.558  29.499  35.289  1.00  0.00     0.031 C 
ATOM     37  C   UNL A   1      43.323  28.070  33.401  1.00  0.00     0.034 A 
BRANCH  24  38
ATOM     38  C   UNL A   1      42.392  26.579  27.394  1.00  0.00     0.023 A 
ATOM     39  C   UNL A   1      41.917  25.266  27.214  1.00  0.00     0.031 A 
ATOM     40  C   UNL A   1      43.343  27.062  26.479  1.00  0.00     0.131 A 
ATOM     41  C   UNL A   1      42.485  24.448  26.224  1.00  0.00     0.055 A 
ATOM     42  C   UNL A   1      43.825  26.275  25.430  1.00  0.00     0.041 A 
ATOM     43  F   UNL A   1      43.868  28.289  26.620  1.00  0.00    -0.206 F 
ATOM     44  C   UNL A   1      43.416  24.951  25.313  1.00  0.00     0.022 A 
BRANCH  41  45
ATOM     45  S   UNL A   1      42.161  22.661  26.289  1.00  0.00     0.124 S 
ATOM     46  O   UNL A   1      40.711  22.632  26.464  1.00  0.00    -0.237 OA
ATOM     47  O   UNL A   1      42.658  22.203  24.997  1.00  0.00    -0.237 OA
ATOM     48  O   UNL A   1      42.930  22.214  27.449  1.00  0.00    -0.744 OA
ENDBRANCH  41  45
ENDBRANCH  24  38
BRANCH  25  49
ATOM     49  C   UNL A   1      39.311  32.275  35.278  1.00  0.00     0.023 A 
ATOM     50  C   UNL A   1      39.776  33.570  35.540  1.00  0.00     0.031 A 
ATOM     51  C   UNL A   1      38.321  31.748  36.133  1.00  0.00     0.131 A 
ATOM     52  C   UNL A   1      39.271  34.286  36.639  1.00  0.00     0.055 A 
ATOM     53  C   UNL A   1      37.785  32.483  37.192  1.00  0.00     0.041 A 
ATOM     54  F   UNL A   1      37.835  30.512  35.933  1.00  0.00    -0.206 F 
ATOM     55  C   UNL A   1      38.268  33.758  37.456  1.00  0.00     0.022 A 
BRANCH  52  56
ATOM     56  S   UNL A   1      39.991  35.904  37.028  1.00  0.00     0.124 S 
ATOM     57  O   UNL A   1      39.655  36.673  35.836  1.00  0.00    -0.237 OA
ATOM     58  O   UNL A   1      39.278  36.267  38.249  1.00  0.00    -0.237 OA
ATOM     59  O   UNL A   1      41.412  35.611  37.203  1.00  0.00    -0.744 OA
ENDBRANCH  52  56
ENDBRANCH  25  49
BRANCH  37  60
ATOM     60  C   UNL A   1      44.425  27.584  34.300  1.00  0.00     0.023 A 
ATOM     61  C   UNL A   1      44.307  26.402  35.047  1.00  0.00     0.031 A 
ATOM     62  C   UNL A   1      45.628  28.307  34.366  1.00  0.00     0.131 A 
ATOM     63  C   UNL A   1      45.371  25.994  35.861  1.00  0.00     0.055 A 
ATOM     64  C   UNL A   1      46.706  27.860  35.126  1.00  0.00     0.041 A 
ATOM     65  F   UNL A   1      45.780  29.445  33.670  1.00  0.00    -0.206 F 
ATOM     66  C   UNL A   1      46.577  26.701  35.887  1.00  0.00     0.022 A 
BRANCH  63  67
ATOM     67  S   UNL A   1      45.134  24.562  36.944  1.00  0.00     0.124 S 
ATOM     68  O   UNL A   1      45.219  25.168  38.268  1.00  0.00    -0.237 OA
ATOM     69  O   UNL A   1      43.814  24.082  36.545  1.00  0.00    -0.237 OA
ATOM     70  O   UNL A   1      46.246  23.680  36.593  1.00  0.00    -0.744 OA
ENDBRANCH  63  67
ENDBRANCH  37  60
ENDBRANCH  11  12
ENDBRANCH   4   6
ENDBRANCH   3   4
ENDBRANCH   2   3
ENDBRANCH   1   2
BRANCH   1  71
ATOM     71  O   UNL A   1      31.791  27.173  24.955  1.00  0.00    -0.374 OA
BRANCH  71  72
ATOM     72  C   UNL A   1      32.824  26.695  24.094  1.00  0.00     0.202 C 
BRANCH  72  73
ATOM     73  C   UNL A   1      33.218  25.289  24.549  1.00  0.00     0.261 C 
BRANCH  73  74
ATOM     74  O   UNL A   1      32.079  24.420  24.396  1.00  0.00    -0.463 OA
BRANCH  74  75
ATOM     75  C   UNL A   1      32.016  23.359  25.234  1.00  0.00     0.311 C 
ATOM     76  O   UNL A   1      31.863  23.434  26.441  1.00  0.00    -0.252 OA
BRANCH  75  77
ATOM     77  C   UNL A   1      32.148  22.033  24.508  1.00  0.00     0.127 C 
ATOM     78  C   UNL A   1      32.113  22.186  22.993  1.00  0.00     0.028 C 
ATOM     79  C   UNL A   1      33.293  21.077  24.886  1.00  0.00     0.130 C 
ATOM     80  C   UNL A   1      31.780  20.884  22.325  1.00  0.00     0.101 C 
ATOM     81  N   UNL A   1      33.059  19.790  24.177  1.00  0.00    -0.332 N 
ATOM     82  C   UNL A   1      32.491  19.685  22.905  1.00  0.00     0.223 C 
ATOM     83  O   UNL A   1      32.443  18.629  22.270  1.00  0.00    -0.275 OA
BRANCH  79  84
ATOM     84  C   UNL A   1      34.772  21.502  24.763  1.00  0.00    -0.025 A 
ATOM     85  C   UNL A   1      35.758  21.111  25.685  1.00  0.00     0.006 A 
ATOM     86  C   UNL A   1      35.175  22.407  23.758  1.00  0.00     0.006 A 
ATOM     87  C   UNL A   1      37.072  21.593  25.601  1.00  0.00     0.000 A 
ATOM     88  C   UNL A   1      36.501  22.839  23.633  1.00  0.00     0.000 A 
ATOM     89  C   UNL A   1      37.449  22.440  24.563  1.00  0.00     0.000 A 
ENDBRANCH  79  84
BRANCH  81  90
ATOM     90  C   UNL A   1      33.442  18.568  24.890  1.00  0.00     0.085 C 
ATOM     91  C   UNL A   1      32.196  17.690  25.089  1.00  0.00     0.025 C 
ATOM     92  C   UNL A   1      34.636  17.841  24.252  1.00  0.00     0.025 C 
ATOM     93  C   UNL A   1      32.527  16.356  25.731  1.00  0.00     0.002 C 
ATOM     94  C   UNL A   1      34.901  16.499  24.920  1.00  0.00     0.002 C 
ATOM     95  C   UNL A   1      33.638  15.646  24.968  1.00  0.00     0.000 C 
ENDBRANCH  81  90
ENDBRANCH  75  77
ENDBRANCH  74  75
ENDBRANCH  73  74
ENDBRANCH  72  73
ENDBRANCH  71  72
ENDBRANCH   1  71
TORSDOF 19
ENDMDL
MODEL 2
REMARK VINA RESULT:     -12.0      5.013     10.476
REMARK SMILES O=C(OCCOCCOC(=O)[C@H]1CCC(=O)N(C2CCCCC2)[C@H]1c1ccccc1)c1ccc(-c2c3nc(c(-c4cc(S(=O)(=O)[O-])ccc4F)c4ccc([nH]4)c(-c4cc(S(=O)(=O)[O-])ccc4F)c4nc(c(-c5cc(S(=O)(=O)[O-])ccc5F)c5ccc2[nH]5)C=C4)C=C3)cc1
REMARK SMILES IDX 5 1 4 2 3 3 2 4 1 5 31 6 32 7 93 8 33 9 92 10 34 11 35 12
REMARK SMILES IDX 36 13 86 14 37 15 91 16 85 17 87 18 38 19 90 20 84 21 83 22
REMARK SMILES IDX 39 24 71 25 51 26 70 27 52 28 55 29 69 30 88 31 53 32 54 33
REMARK SMILES IDX 68 35 89 36 56 37 40 38 41 39 49 40 42 41 48 42 50 43 47 44
REMARK SMILES IDX 43 45 44 46 45 47 46 48 72 49 73 50 81 51 74 52 80 53 82 54
REMARK SMILES IDX 79 55 75 56 76 57 77 58 78 59 57 60 58 61 66 62 59 63 65 64
REMARK SMILES IDX 67 65 64 66 60 67 61 68 62 69 63 70 6 71 7 72 8 73 9 74
REMARK SMILES IDX 10 75 11 76 12 77 13 78 24 79 14 80 17 81 15 82 16 83 25 84
REMARK SMILES IDX 26 85 30 86 27 87 29 88 28 89 18 90 19 91 23 92 20 93 22 94
REMARK SMILES IDX 21 95
REMARK H PARENT 87 23 55 34
REMARK Flexibility Score: inf
ROOT
ATOM      1  C   UNL A   1      35.337  21.912  25.862  1.00  0.00     0.202 C 
ENDROOT
BRANCH   1   2
ATOM      2  C   UNL A   1      36.417  21.076  25.181  1.00  0.00     0.261 C 
BRANCH   2   3
ATOM      3  O   UNL A   1      37.634  21.841  25.120  1.00  0.00    -0.460 OA
BRANCH   3   4
ATOM      4  C   UNL A   1      38.714  21.694  25.920  1.00  0.00     0.338 C 
ATOM      5  O   UNL A   1      39.151  20.574  26.168  1.00  0.00    -0.246 OA
BRANCH   4   6
ATOM      6  C   UNL A   1      39.413  22.879  26.469  1.00  0.00     0.060 A 
ATOM      7  C   UNL A   1      39.107  24.177  26.076  1.00  0.00     0.016 A 
ATOM      8  C   UNL A   1      40.379  22.694  27.458  1.00  0.00     0.016 A 
ATOM      9  C   UNL A   1      39.771  25.271  26.548  1.00  0.00     0.010 A 
ATOM     10  C   UNL A   1      41.020  23.804  28.010  1.00  0.00     0.010 A 
ATOM     11  C   UNL A   1      40.705  25.089  27.545  1.00  0.00    -0.014 A 
BRANCH  11  12
ATOM     12  C   UNL A   1      41.410  26.296  27.960  1.00  0.00     0.031 A 
ATOM     13  C   UNL A   1      40.669  27.250  28.823  1.00  0.00     0.074 A 
ATOM     14  C   UNL A   1      42.726  26.396  27.708  1.00  0.00     0.049 A 
ATOM     15  N   UNL A   1      40.978  28.464  29.159  1.00  0.00    -0.248 NA
ATOM     16  C   UNL A   1      39.395  26.762  29.381  1.00  0.00     0.031 C 
ATOM     17  C   UNL A   1      43.549  25.357  27.074  1.00  0.00     0.029 A 
ATOM     18  N   UNL A   1      43.607  27.400  27.975  1.00  0.00    -0.354 N 
ATOM     19  C   UNL A   1      39.903  28.920  29.908  1.00  0.00     0.074 A 
ATOM     20  C   UNL A   1      38.944  27.843  29.991  1.00  0.00     0.031 C 
ATOM     21  C   UNL A   1      44.816  25.788  26.996  1.00  0.00     0.029 A 
ATOM     22  C   UNL A   1      44.857  27.167  27.455  1.00  0.00     0.049 A 
ATOM     23  H   UNL A   1      43.373  28.208  28.487  1.00  0.00     0.167 HD
ATOM     24  C   UNL A   1      39.749  30.157  30.433  1.00  0.00     0.034 A 
ATOM     25  C   UNL A   1      45.879  28.025  27.286  1.00  0.00     0.034 A 
ATOM     26  C   UNL A   1      40.764  31.168  30.274  1.00  0.00     0.049 A 
ATOM     27  C   UNL A   1      45.645  29.437  27.747  1.00  0.00     0.074 A 
ATOM     28  C   UNL A   1      40.742  32.497  30.642  1.00  0.00     0.029 A 
ATOM     29  N   UNL A   1      42.005  30.938  29.675  1.00  0.00    -0.354 N 
ATOM     30  N   UNL A   1      44.572  29.946  28.318  1.00  0.00    -0.248 NA
ATOM     31  C   UNL A   1      46.730  30.393  27.534  1.00  0.00     0.031 C 
ATOM     32  C   UNL A   1      41.934  33.084  30.199  1.00  0.00     0.029 A 
ATOM     33  C   UNL A   1      42.746  32.103  29.641  1.00  0.00     0.049 A 
ATOM     34  H   UNL A   1      42.309  30.069  29.326  1.00  0.00     0.167 HD
ATOM     35  C   UNL A   1      44.864  31.280  28.562  1.00  0.00     0.074 A 
ATOM     36  C   UNL A   1      46.216  31.492  28.072  1.00  0.00     0.031 C 
ATOM     37  C   UNL A   1      44.098  32.242  29.142  1.00  0.00     0.034 A 
BRANCH  24  38
ATOM     38  C   UNL A   1      38.405  30.469  31.044  1.00  0.00     0.023 A 
ATOM     39  C   UNL A   1      37.359  31.044  30.299  1.00  0.00     0.031 A 
ATOM     40  C   UNL A   1      38.229  30.349  32.434  1.00  0.00     0.131 A 
ATOM     41  C   UNL A   1      36.246  31.586  30.961  1.00  0.00     0.055 A 
ATOM     42  C   UNL A   1      37.071  30.796  33.073  1.00  0.00     0.041 A 
ATOM     43  F   UNL A   1      39.206  29.850  33.207  1.00  0.00    -0.206 F 
ATOM     44  C   UNL A   1      36.081  31.442  32.340  1.00  0.00     0.022 A 
BRANCH  41  45
ATOM     45  S   UNL A   1      35.133  32.679  30.029  1.00  0.00     0.124 S 
ATOM     46  O   UNL A   1      36.061  33.701  29.548  1.00  0.00    -0.237 OA
ATOM     47  O   UNL A   1      34.588  31.785  29.014  1.00  0.00    -0.237 OA
ATOM     48  O   UNL A   1      34.179  33.139  31.036  1.00  0.00    -0.744 OA
ENDBRANCH  41  45
ENDBRANCH  24  38
BRANCH  25  49
ATOM     49  C   UNL A   1      47.111  27.595  26.568  1.00  0.00     0.023 A 
ATOM     50  C   UNL A   1      47.251  27.770  25.185  1.00  0.00     0.031 A 
ATOM     51  C   UNL A   1      48.188  27.011  27.266  1.00  0.00     0.131 A 
ATOM     52  C   UNL A   1      48.426  27.348  24.541  1.00  0.00     0.055 A 
ATOM     53  C   UNL A   1      49.375  26.642  26.630  1.00  0.00     0.041 A 
ATOM     54  F   UNL A   1      48.115  26.818  28.593  1.00  0.00    -0.206 F 
ATOM     55  C   UNL A   1      49.494  26.801  25.256  1.00  0.00     0.022 A 
BRANCH  52  56
ATOM     56  S   UNL A   1      48.518  27.466  22.733  1.00  0.00     0.124 S 
ATOM     57  O   UNL A   1      47.293  28.193  22.421  1.00  0.00    -0.237 OA
ATOM     58  O   UNL A   1      49.766  28.198  22.541  1.00  0.00    -0.237 OA
ATOM     59  O   UNL A   1      48.543  26.070  22.301  1.00  0.00    -0.744 OA
ENDBRANCH  52  56
ENDBRANCH  25  49
BRANCH  37  60
ATOM     60  C   UNL A   1      44.751  33.581  29.345  1.00  0.00     0.023 A 
ATOM     61  C   UNL A   1      44.790  34.549  28.331  1.00  0.00     0.031 A 
ATOM     62  C   UNL A   1      45.302  33.894  30.600  1.00  0.00     0.131 A 
ATOM     63  C   UNL A   1      45.404  35.783  28.583  1.00  0.00     0.055 A 
ATOM     64  C   UNL A   1      45.851  35.146  30.863  1.00  0.00     0.041 A 
ATOM     65  F   UNL A   1      45.288  32.994  31.595  1.00  0.00    -0.206 F 
ATOM     66  C   UNL A   1      45.913  36.096  29.847  1.00  0.00     0.022 A 
BRANCH  63  67
ATOM     67  S   UNL A   1      45.594  36.951  27.212  1.00  0.00     0.124 S 
ATOM     68  O   UNL A   1      46.707  37.776  27.670  1.00  0.00    -0.237 OA
ATOM     69  O   UNL A   1      45.876  36.069  26.084  1.00  0.00    -0.237 OA
ATOM     70  O   UNL A   1      44.300  37.630  27.159  1.00  0.00    -0.744 OA
ENDBRANCH  63  67
ENDBRANCH  37  60
ENDBRANCH  11  12
ENDBRANCH   4   6
ENDBRANCH   3   4
ENDBRANCH   2   3
ENDBRANCH   1   2
BRANCH   1  71
ATOM     71  O   UNL A   1      34.890  23.106  25.233  1.00  0.00    -0.374 OA
BRANCH  71  72
ATOM     72  C   UNL A   1      35.042  23.189  23.816  1.00  0.00     0.202 C 
BRANCH  72  73
ATOM     73  C   UNL A   1      33.686  23.551  23.206  1.00  0.00     0.261 C 
BRANCH  73  74
ATOM     74  O   UNL A   1      33.349  24.895  23.602  1.00  0.00    -0.463 OA
BRANCH  74  75
ATOM     75  C   UNL A   1      33.022  25.750  22.605  1.00  0.00     0.311 C 
ATOM     76  O   UNL A   1      33.717  25.979  21.630  1.00  0.00    -0.252 OA
BRANCH  75  77
ATOM     77  C   UNL A   1      31.669  26.403  22.816  1.00  0.00     0.127 C 
ATOM     78  C   UNL A   1      30.721  25.538  23.638  1.00  0.00     0.028 C 
ATOM     79  C   UNL A   1      31.602  27.849  23.336  1.00  0.00     0.130 C 
ATOM     80  C   UNL A   1      29.295  25.965  23.445  1.00  0.00     0.101 C 
ATOM     81  N   UNL A   1      30.185  28.295  23.249  1.00  0.00    -0.332 N 
ATOM     82  C   UNL A   1      29.084  27.460  23.450  1.00  0.00     0.223 C 
ATOM     83  O   UNL A   1      27.925  27.874  23.525  1.00  0.00    -0.275 OA
BRANCH  79  84
ATOM     84  C   UNL A   1      32.212  28.245  24.698  1.00  0.00    -0.025 A 
ATOM     85  C   UNL A   1      31.431  28.492  25.840  1.00  0.00     0.006 A 
ATOM     86  C   UNL A   1      33.597  28.483  24.818  1.00  0.00     0.006 A 
ATOM     87  C   UNL A   1      32.008  28.945  27.037  1.00  0.00     0.000 A 
ATOM     88  C   UNL A   1      34.183  28.873  26.029  1.00  0.00     0.000 A 
ATOM     89  C   UNL A   1      33.385  29.115  27.138  1.00  0.00     0.000 A 
ENDBRANCH  79  84
BRANCH  81  90
ATOM     90  C   UNL A   1      29.960  29.703  22.910  1.00  0.00     0.085 C 
ATOM     91  C   UNL A   1      29.090  29.784  21.645  1.00  0.00     0.025 C 
ATOM     92  C   UNL A   1      29.440  30.537  24.092  1.00  0.00     0.025 C 
ATOM     93  C   UNL A   1      28.725  31.212  21.286  1.00  0.00     0.002 C 
ATOM     94  C   UNL A   1      29.065  31.949  23.664  1.00  0.00     0.002 C 
ATOM     95  C   UNL A   1      28.108  31.932  22.478  1.00  0.00     0.000 C 
ENDBRANCH  81  90
ENDBRANCH  75  77
ENDBRANCH  74  75
ENDBRANCH  73  74
ENDBRANCH  72  73
ENDBRANCH  71  72
ENDBRANCH   1  71
TORSDOF 19
ENDMDL
MODEL 3
REMARK VINA RESULT:     -11.8      4.664     10.321
REMARK SMILES O=C(OCCOCCOC(=O)[C@H]1CCC(=O)N(C2CCCCC2)[C@H]1c1ccccc1)c1ccc(-c2c3nc(c(-c4cc(S(=O)(=O)[O-])ccc4F)c4ccc([nH]4)c(-c4cc(S(=O)(=O)[O-])ccc4F)c4nc(c(-c5cc(S(=O)(=O)[O-])ccc5F)c5ccc2[nH]5)C=C4)C=C3)cc1
REMARK SMILES IDX 5 1 4 2 3 3 2 4 1 5 31 6 32 7 93 8 33 9 92 10 34 11 35 12
REMARK SMILES IDX 36 13 86 14 37 15 91 16 85 17 87 18 38 19 90 20 84 21 83 22
REMARK SMILES IDX 39 24 71 25 51 26 70 27 52 28 55 29 69 30 88 31 53 32 54 33
REMARK SMILES IDX 68 35 89 36 56 37 40 38 41 39 49 40 42 41 48 42 50 43 47 44
REMARK SMILES IDX 43 45 44 46 45 47 46 48 72 49 73 50 81 51 74 52 80 53 82 54
REMARK SMILES IDX 79 55 75 56 76 57 77 58 78 59 57 60 58 61 66 62 59 63 65 64
REMARK SMILES IDX 67 65 64 66 60 67 61 68 62 69 63 70 6 71 7 72 8 73 9 74
REMARK SMILES IDX 10 75 11 76 12 77 13 78 24 79 14 80 17 81 15 82 16 83 25 84
REMARK SMILES IDX 26 85 30 86 27 87 29 88 28 89 18 90 19 91 23 92 20 93 22 94
REMARK SMILES IDX 21 95
REMARK H PARENT 87 23 55 34
REMARK Flexibility Score: inf
ROOT
ATOM      1  C   UNL A   1      35.390  22.759  24.277  1.00  0.00     0.202 C 
ENDROOT
BRANCH   1   2
ATOM      2  C   UNL A   1      36.532  21.746  24.257  1.00  0.00     0.261 C 
BRANCH   2   3
ATOM      3  O   UNL A   1      37.088  21.640  25.579  1.00  0.00    -0.460 OA
BRANCH   3   4
ATOM      4  C   UNL A   1      38.398  21.517  25.889  1.00  0.00     0.338 C 
ATOM      5  O   UNL A   1      38.982  20.455  25.695  1.00  0.00    -0.246 OA
BRANCH   4   6
ATOM      6  C   UNL A   1      39.159  22.672  26.421  1.00  0.00     0.060 A 
ATOM      7  C   UNL A   1      38.839  23.987  26.107  1.00  0.00     0.016 A 
ATOM      8  C   UNL A   1      40.205  22.437  27.314  1.00  0.00     0.016 A 
ATOM      9  C   UNL A   1      39.556  25.055  26.562  1.00  0.00     0.010 A 
ATOM     10  C   UNL A   1      40.907  23.517  27.851  1.00  0.00     0.010 A 
ATOM     11  C   UNL A   1      40.571  24.823  27.466  1.00  0.00    -0.014 A 
BRANCH  11  12
ATOM     12  C   UNL A   1      41.326  26.004  27.864  1.00  0.00     0.031 A 
ATOM     13  C   UNL A   1      40.639  26.981  28.747  1.00  0.00     0.074 A 
ATOM     14  C   UNL A   1      42.638  26.061  27.580  1.00  0.00     0.049 A 
ATOM     15  N   UNL A   1      40.997  28.184  29.077  1.00  0.00    -0.248 NA
ATOM     16  C   UNL A   1      39.364  26.535  29.336  1.00  0.00     0.031 C 
ATOM     17  C   UNL A   1      43.410  24.996  26.924  1.00  0.00     0.029 A 
ATOM     18  N   UNL A   1      43.558  27.035  27.826  1.00  0.00    -0.354 N 
ATOM     19  C   UNL A   1      39.957  28.674  29.853  1.00  0.00     0.074 A 
ATOM     20  C   UNL A   1      38.964  27.629  29.959  1.00  0.00     0.031 C 
ATOM     21  C   UNL A   1      44.688  25.384  26.816  1.00  0.00     0.029 A 
ATOM     22  C   UNL A   1      44.787  26.760  27.275  1.00  0.00     0.049 A 
ATOM     23  H   UNL A   1      43.364  27.849  28.344  1.00  0.00     0.167 HD
ATOM     24  C   UNL A   1      39.858  29.915  30.383  1.00  0.00     0.034 A 
ATOM     25  C   UNL A   1      45.832  27.584  27.082  1.00  0.00     0.034 A 
ATOM     26  C   UNL A   1      40.902  30.891  30.200  1.00  0.00     0.049 A 
ATOM     27  C   UNL A   1      45.657  29.002  27.550  1.00  0.00     0.074 A 
ATOM     28  C   UNL A   1      40.934  32.219  30.570  1.00  0.00     0.029 A 
ATOM     29  N   UNL A   1      42.119  30.620  29.570  1.00  0.00    -0.354 N 
ATOM     30  N   UNL A   1      44.617  29.546  28.148  1.00  0.00    -0.248 NA
ATOM     31  C   UNL A   1      46.768  29.922  27.311  1.00  0.00     0.031 C 
ATOM     32  C   UNL A   1      42.133  32.767  30.098  1.00  0.00     0.029 A 
ATOM     33  C   UNL A   1      42.898  31.761  29.518  1.00  0.00     0.049 A 
ATOM     34  H   UNL A   1      42.385  29.742  29.213  1.00  0.00     0.167 HD
ATOM     35  C   UNL A   1      44.959  30.869  28.387  1.00  0.00     0.074 A 
ATOM     36  C   UNL A   1      46.305  31.036  27.863  1.00  0.00     0.031 C 
ATOM     37  C   UNL A   1      44.241  31.855  28.986  1.00  0.00     0.034 A 
BRANCH  24  38
ATOM     38  C   UNL A   1      38.541  30.270  31.028  1.00  0.00     0.023 A 
ATOM     39  C   UNL A   1      37.489  30.863  30.305  1.00  0.00     0.031 A 
ATOM     40  C   UNL A   1      38.402  30.173  32.423  1.00  0.00     0.131 A 
ATOM     41  C   UNL A   1      36.410  31.444  30.991  1.00  0.00     0.055 A 
ATOM     42  C   UNL A   1      37.274  30.659  33.089  1.00  0.00     0.041 A 
ATOM     43  F   UNL A   1      39.387  29.658  33.175  1.00  0.00    -0.206 F 
ATOM     44  C   UNL A   1      36.282  31.322  32.376  1.00  0.00     0.022 A 
BRANCH  41  45
ATOM     45  S   UNL A   1      35.301  32.554  30.076  1.00  0.00     0.124 S 
ATOM     46  O   UNL A   1      36.205  33.645  29.722  1.00  0.00    -0.237 OA
ATOM     47  O   UNL A   1      34.852  31.714  28.972  1.00  0.00    -0.237 OA
ATOM     48  O   UNL A   1      34.274  32.900  31.057  1.00  0.00    -0.744 OA
ENDBRANCH  41  45
ENDBRANCH  24  38
BRANCH  25  49
ATOM     49  C   UNL A   1      47.032  27.114  26.333  1.00  0.00     0.023 A 
ATOM     50  C   UNL A   1      48.103  26.489  26.985  1.00  0.00     0.031 A 
ATOM     51  C   UNL A   1      47.118  27.271  24.934  1.00  0.00     0.131 A 
ATOM     52  C   UNL A   1      49.220  26.064  26.247  1.00  0.00     0.055 A 
ATOM     53  C   UNL A   1      48.206  26.800  24.198  1.00  0.00     0.041 A 
ATOM     54  F   UNL A   1      46.123  27.862  24.252  1.00  0.00    -0.206 F 
ATOM     55  C   UNL A   1      49.272  26.200  24.857  1.00  0.00     0.022 A 
BRANCH  52  56
ATOM     56  S   UNL A   1      50.644  25.382  27.139  1.00  0.00     0.124 S 
ATOM     57  O   UNL A   1      51.074  26.528  27.931  1.00  0.00    -0.237 OA
ATOM     58  O   UNL A   1      50.038  24.281  27.879  1.00  0.00    -0.237 OA
ATOM     59  O   UNL A   1      51.557  24.984  26.069  1.00  0.00    -0.744 OA
ENDBRANCH  52  56
ENDBRANCH  25  49
BRANCH  37  60
ATOM     60  C   UNL A   1      44.943  33.170  29.175  1.00  0.00     0.023 A 
ATOM     61  C   UNL A   1      44.756  34.245  28.293  1.00  0.00     0.031 A 
ATOM     62  C   UNL A   1      45.780  33.350  30.290  1.00  0.00     0.131 A 
ATOM     63  C   UNL A   1      45.430  35.450  28.526  1.00  0.00     0.055 A 
ATOM     64  C   UNL A   1      46.395  34.572  30.551  1.00  0.00     0.041 A 
ATOM     65  F   UNL A   1      45.988  32.345  31.156  1.00  0.00    -0.206 F 
ATOM     66  C   UNL A   1      46.228  35.629  29.660  1.00  0.00     0.022 A 
BRANCH  63  67
ATOM     67  S   UNL A   1      45.308  36.764  27.285  1.00  0.00     0.124 S 
ATOM     68  O   UNL A   1      45.494  37.963  28.096  1.00  0.00    -0.237 OA
ATOM     69  O   UNL A   1      46.399  36.437  26.372  1.00  0.00    -0.237 OA
ATOM     70  O   UNL A   1      43.965  36.590  26.734  1.00  0.00    -0.744 OA
ENDBRANCH  63  67
ENDBRANCH  37  60
ENDBRANCH  11  12
ENDBRANCH   4   6
ENDBRANCH   3   4
ENDBRANCH   2   3
ENDBRANCH   1   2
BRANCH   1  71
ATOM     71  O   UNL A   1      34.057  22.297  24.104  1.00  0.00    -0.374 OA
BRANCH  71  72
ATOM     72  C   UNL A   1      33.219  22.286  25.260  1.00  0.00     0.202 C 
BRANCH  72  73
ATOM     73  C   UNL A   1      32.052  23.245  25.018  1.00  0.00     0.261 C 
BRANCH  73  74
ATOM     74  O   UNL A   1      32.197  24.377  25.899  1.00  0.00    -0.463 OA
BRANCH  74  75
ATOM     75  C   UNL A   1      31.059  25.028  26.232  1.00  0.00     0.311 C 
ATOM     76  O   UNL A   1      30.047  24.491  26.648  1.00  0.00    -0.252 OA
BRANCH  75  77
ATOM     77  C   UNL A   1      31.168  26.529  26.043  1.00  0.00     0.127 C 
ATOM     78  C   UNL A   1      32.489  27.091  26.556  1.00  0.00     0.028 C 
ATOM     79  C   UNL A   1      30.869  27.140  24.664  1.00  0.00     0.130 C 
ATOM     80  C   UNL A   1      32.393  28.571  26.789  1.00  0.00     0.101 C 
ATOM     81  N   UNL A   1      30.850  28.620  24.820  1.00  0.00    -0.332 N 
ATOM     82  C   UNL A   1      31.668  29.328  25.702  1.00  0.00     0.223 C 
ATOM     83  O   UNL A   1      31.749  30.559  25.712  1.00  0.00    -0.275 OA
BRANCH  79  84
ATOM     84  C   UNL A   1      31.677  26.738  23.411  1.00  0.00    -0.025 A 
ATOM     85  C   UNL A   1      33.043  27.032  23.258  1.00  0.00     0.006 A 
ATOM     86  C   UNL A   1      31.033  26.144  22.306  1.00  0.00     0.006 A 
ATOM     87  C   UNL A   1      33.725  26.740  22.067  1.00  0.00     0.000 A 
ATOM     88  C   UNL A   1      31.726  25.793  21.141  1.00  0.00     0.000 A 
ATOM     89  C   UNL A   1      33.073  26.102  21.017  1.00  0.00     0.000 A 
ENDBRANCH  79  84
BRANCH  81  90
ATOM     90  C   UNL A   1      29.886  29.355  23.996  1.00  0.00     0.085 C 
ATOM     91  C   UNL A   1      30.579  29.821  22.705  1.00  0.00     0.025 C 
ATOM     92  C   UNL A   1      28.572  28.591  23.770  1.00  0.00     0.025 C 
ATOM     93  C   UNL A   1      29.618  30.504  21.749  1.00  0.00     0.002 C 
ATOM     94  C   UNL A   1      27.664  29.309  22.783  1.00  0.00     0.002 C 
ATOM     95  C   UNL A   1      28.399  29.628  21.486  1.00  0.00     0.000 C 
ENDBRANCH  81  90
ENDBRANCH  75  77
ENDBRANCH  74  75
ENDBRANCH  73  74
ENDBRANCH  72  73
ENDBRANCH  71  72
ENDBRANCH   1  71
TORSDOF 19
ENDMDL
