MODEL 1
REMARK VINA RESULT:     -10.5      0.000      0.000
REMARK SMILES N#Cc1ccc(/C=C/C(=O)N[C@H]2C=C[C@H](C(=O)OCCOCCOC(=O)c3ccc(-c4c5nc(c(-c6cc(S(=O)(=O)[O-])ccc6F)c6ccc([nH]6)c(-c6cc(S(=O)(=O)[O-])ccc6F)c6nc(c(-c7cc(S(=O)(=O)[O-])ccc7F)c7ccc4[nH]7)C=C6)C=C5)cc3)C2)cc1
REMARK SMILES IDX 20 1 19 2 18 3 16 4 17 5 15 6 12 7 13 8 90 9 14 10 11 11
REMARK SMILES IDX 9 12 10 13 8 15 7 16 6 17 3 18 4 19 92 20 5 21 91 22 2 23
REMARK SMILES IDX 1 24 21 25 22 26 23 27 24 28 25 29 26 30 27 31 28 32 89 33
REMARK SMILES IDX 29 34 88 35 30 36 31 37 32 38 82 39 33 40 87 41 81 42 83 43
REMARK SMILES IDX 34 44 86 45 80 46 79 47 35 49 67 50 47 51 66 52 48 53 51 54
REMARK SMILES IDX 65 55 84 56 49 57 50 58 64 60 85 61 52 62 36 63 37 64 45 65
REMARK SMILES IDX 38 66 44 67 46 68 43 69 39 70 40 71 41 72 42 73 68 74 69 75
REMARK SMILES IDX 77 76 70 77 76 78 78 79 75 80 71 81 72 82 73 83 74 84 53 85
REMARK SMILES IDX 54 86 62 87 55 88 61 89 63 90 60 91 56 92 57 93 58 94 59 95
REMARK H PARENT 11 14 83 48 51 59
REMARK Flexibility Score: inf
ROOT
ATOM      1  C   UNL A   1      33.279  23.843  26.545  1.00  0.00     0.202 C 
ENDROOT
BRANCH   1   2
ATOM      2  C   UNL A   1      31.839  24.198  26.940  1.00  0.00     0.261 C 
BRANCH   2   3
ATOM      3  O   UNL A   1      31.082  24.727  25.837  1.00  0.00    -0.463 OA
BRANCH   3   4
ATOM      4  C   UNL A   1      30.720  26.037  25.941  1.00  0.00     0.312 C 
ATOM      5  O   UNL A   1      31.000  26.766  26.887  1.00  0.00    -0.252 OA
BRANCH   4   6
ATOM      6  C   UNL A   1      30.083  26.531  24.636  1.00  0.00     0.124 C 
ATOM      7  C   UNL A   1      31.932  26.372  23.101  1.00  0.00     0.106 C 
ATOM      8  C   UNL A   1      31.545  27.803  23.282  1.00  0.00    -0.006 C 
ATOM      9  C   UNL A   1      30.618  25.688  23.472  1.00  0.00     0.048 C 
ATOM     10  C   UNL A   1      30.566  27.891  24.202  1.00  0.00    -0.014 C 
BRANCH   7  11
ATOM     11  N   UNL A   1      32.390  26.011  21.793  1.00  0.00    -0.346 N 
ATOM     12  C   UNL A   1      32.927  24.833  21.360  1.00  0.00     0.244 C 
ATOM     13  O   UNL A   1      33.220  24.735  20.164  1.00  0.00    -0.270 OA
ATOM     14  H   UNL A   1      32.306  26.713  21.108  1.00  0.00     0.164 HD
BRANCH  12  15
ATOM     15  C   UNL A   1      33.129  23.615  22.222  1.00  0.00     0.072 C 
ATOM     16  C   UNL A   1      32.428  22.473  22.277  1.00  0.00     0.014 C 
BRANCH  16  17
ATOM     17  C   UNL A   1      32.651  21.255  23.079  1.00  0.00    -0.025 A 
ATOM     18  C   UNL A   1      32.976  18.791  24.424  1.00  0.00     0.052 A 
ATOM     19  C   UNL A   1      33.497  19.974  24.962  1.00  0.00     0.020 A 
ATOM     20  C   UNL A   1      32.279  18.838  23.220  1.00  0.00     0.020 A 
ATOM     21  C   UNL A   1      33.338  21.200  24.293  1.00  0.00     0.009 A 
ATOM     22  C   UNL A   1      32.115  20.058  22.564  1.00  0.00     0.009 A 
BRANCH  18  23
ATOM     23  C   UNL A   1      33.144  17.538  25.102  1.00  0.00     0.099 C 
ATOM     24  N   UNL A   1      33.286  16.533  25.659  1.00  0.00    -0.192 NA
ENDBRANCH  18  23
ENDBRANCH  16  17
ENDBRANCH  12  15
ENDBRANCH   7  11
ENDBRANCH   4   6
ENDBRANCH   3   4
ENDBRANCH   2   3
ENDBRANCH   1   2
BRANCH   1  25
ATOM     25  O   UNL A   1      34.110  24.847  25.970  1.00  0.00    -0.374 OA
BRANCH  25  26
ATOM     26  C   UNL A   1      35.190  24.442  25.139  1.00  0.00     0.202 C 
BRANCH  26  27
ATOM     27  C   UNL A   1      36.244  23.448  25.644  1.00  0.00     0.261 C 
BRANCH  27  28
ATOM     28  O   UNL A   1      37.589  23.792  25.292  1.00  0.00    -0.460 OA
BRANCH  28  29
ATOM     29  C   UNL A   1      38.516  23.322  26.169  1.00  0.00     0.338 C 
ATOM     30  O   UNL A   1      38.849  22.161  26.327  1.00  0.00    -0.246 OA
BRANCH  29  31
ATOM     31  C   UNL A   1      39.234  24.453  26.779  1.00  0.00     0.060 A 
ATOM     32  C   UNL A   1      39.064  24.672  28.152  1.00  0.00     0.016 A 
ATOM     33  C   UNL A   1      39.998  25.326  26.004  1.00  0.00     0.016 A 
ATOM     34  C   UNL A   1      39.631  25.790  28.754  1.00  0.00     0.010 A 
ATOM     35  C   UNL A   1      40.556  26.454  26.608  1.00  0.00     0.010 A 
ATOM     36  C   UNL A   1      40.347  26.708  27.977  1.00  0.00    -0.014 A 
BRANCH  36  37
ATOM     37  C   UNL A   1      40.757  28.004  28.566  1.00  0.00     0.031 A 
ATOM     38  C   UNL A   1      42.219  28.308  28.722  1.00  0.00     0.074 A 
ATOM     39  C   UNL A   1      39.832  28.907  28.936  1.00  0.00     0.049 A 
ATOM     40  N   UNL A   1      42.800  29.351  29.255  1.00  0.00    -0.248 NA
ATOM     41  C   UNL A   1      43.149  27.287  28.219  1.00  0.00     0.031 C 
ATOM     42  C   UNL A   1      38.387  28.747  28.776  1.00  0.00     0.029 A 
ATOM     43  N   UNL A   1      39.973  30.139  29.520  1.00  0.00    -0.354 N 
ATOM     44  C   UNL A   1      44.168  29.106  29.169  1.00  0.00     0.074 A 
ATOM     45  C   UNL A   1      44.319  27.794  28.575  1.00  0.00     0.031 C 
ATOM     46  C   UNL A   1      37.775  29.848  29.241  1.00  0.00     0.029 A 
ATOM     47  C   UNL A   1      38.778  30.765  29.779  1.00  0.00     0.049 A 
ATOM     48  H   UNL A   1      40.847  30.537  29.734  1.00  0.00     0.167 HD
ATOM     49  C   UNL A   1      45.196  29.908  29.544  1.00  0.00     0.034 A 
ATOM     50  C   UNL A   1      38.523  31.934  30.398  1.00  0.00     0.034 A 
ATOM     51  C   UNL A   1      45.018  31.206  30.149  1.00  0.00     0.049 A 
ATOM     52  C   UNL A   1      39.678  32.756  30.912  1.00  0.00     0.074 A 
ATOM     53  C   UNL A   1      45.985  32.112  30.545  1.00  0.00     0.029 A 
ATOM     54  N   UNL A   1      43.790  31.774  30.470  1.00  0.00    -0.354 N 
ATOM     55  N   UNL A   1      40.968  32.524  30.819  1.00  0.00    -0.248 NA
ATOM     56  C   UNL A   1      39.340  34.001  31.613  1.00  0.00     0.031 C 
ATOM     57  C   UNL A   1      45.350  33.174  31.199  1.00  0.00     0.029 A 
ATOM     58  C   UNL A   1      43.979  32.991  31.109  1.00  0.00     0.049 A 
ATOM     59  H   UNL A   1      42.914  31.372  30.272  1.00  0.00     0.167 HD
ATOM     60  C   UNL A   1      41.595  33.618  31.413  1.00  0.00     0.074 A 
ATOM     61  C   UNL A   1      40.540  34.508  31.854  1.00  0.00     0.031 C 
ATOM     62  C   UNL A   1      42.922  33.867  31.566  1.00  0.00     0.034 A 
BRANCH  49  63
ATOM     63  C   UNL A   1      46.597  29.359  29.374  1.00  0.00     0.023 A 
ATOM     64  C   UNL A   1      47.265  29.395  28.138  1.00  0.00     0.031 A 
ATOM     65  C   UNL A   1      47.247  28.728  30.450  1.00  0.00     0.131 A 
ATOM     66  C   UNL A   1      48.482  28.715  27.980  1.00  0.00     0.055 A 
ATOM     67  C   UNL A   1      48.510  28.149  30.313  1.00  0.00     0.041 A 
ATOM     68  F   UNL A   1      46.653  28.638  31.651  1.00  0.00    -0.206 F 
ATOM     69  C   UNL A   1      49.125  28.119  29.067  1.00  0.00     0.022 A 
BRANCH  66  70
ATOM     70  S   UNL A   1      49.100  28.436  26.297  1.00  0.00     0.124 S 
ATOM     71  O   UNL A   1      47.904  28.695  25.499  1.00  0.00    -0.237 OA
ATOM     72  O   UNL A   1      50.168  29.423  26.186  1.00  0.00    -0.237 OA
ATOM     73  O   UNL A   1      49.535  27.042  26.318  1.00  0.00    -0.744 OA
ENDBRANCH  66  70
ENDBRANCH  49  63
BRANCH  50  74
ATOM     74  C   UNL A   1      37.118  32.397  30.575  1.00  0.00     0.023 A 
ATOM     75  C   UNL A   1      36.412  32.962  29.503  1.00  0.00     0.031 A 
ATOM     76  C   UNL A   1      36.471  32.309  31.820  1.00  0.00     0.131 A 
ATOM     77  C   UNL A   1      35.113  33.451  29.702  1.00  0.00     0.055 A 
ATOM     78  C   UNL A   1      35.156  32.743  31.999  1.00  0.00     0.041 A 
ATOM     79  F   UNL A   1      37.103  31.781  32.880  1.00  0.00    -0.206 F 
ATOM     80  C   UNL A   1      34.473  33.329  30.938  1.00  0.00     0.022 A 
BRANCH  77  81
ATOM     81  S   UNL A   1      34.301  34.328  28.339  1.00  0.00     0.124 S 
ATOM     82  O   UNL A   1      33.943  35.592  28.973  1.00  0.00    -0.237 OA
ATOM     83  O   UNL A   1      35.364  34.388  27.341  1.00  0.00    -0.237 OA
ATOM     84  O   UNL A   1      33.177  33.458  27.999  1.00  0.00    -0.744 OA
ENDBRANCH  77  81
ENDBRANCH  50  74
BRANCH  62  85
ATOM     85  C   UNL A   1      43.311  35.186  32.196  1.00  0.00     0.023 A 
ATOM     86  C   UNL A   1      43.385  35.355  33.590  1.00  0.00     0.031 A 
ATOM     87  C   UNL A   1      43.604  36.296  31.384  1.00  0.00     0.131 A 
ATOM     88  C   UNL A   1      43.680  36.618  34.128  1.00  0.00     0.055 A 
ATOM     89  C   UNL A   1      43.975  37.530  31.922  1.00  0.00     0.041 A 
ATOM     90  F   UNL A   1      43.541  36.201  30.045  1.00  0.00    -0.206 F 
ATOM     91  C   UNL A   1      43.999  37.699  33.303  1.00  0.00     0.022 A 
BRANCH  88  92
ATOM     92  S   UNL A   1      43.523  36.861  35.918  1.00  0.00     0.124 S 
ATOM     93  O   UNL A   1      44.498  35.908  36.439  1.00  0.00    -0.237 OA
ATOM     94  O   UNL A   1      43.864  38.271  36.074  1.00  0.00    -0.237 OA
ATOM     95  O   UNL A   1      42.126  36.527  36.189  1.00  0.00    -0.744 OA
ENDBRANCH  88  92
ENDBRANCH  62  85
ENDBRANCH  36  37
ENDBRANCH  29  31
ENDBRANCH  28  29
ENDBRANCH  27  28
ENDBRANCH  26  27
ENDBRANCH  25  26
ENDBRANCH   1  25
TORSDOF 21
ENDMDL
MODEL 2
REMARK VINA RESULT:     -10.0      6.083     13.111
REMARK SMILES N#Cc1ccc(/C=C/C(=O)N[C@H]2C=C[C@H](C(=O)OCCOCCOC(=O)c3ccc(-c4c5nc(c(-c6cc(S(=O)(=O)[O-])ccc6F)c6ccc([nH]6)c(-c6cc(S(=O)(=O)[O-])ccc6F)c6nc(c(-c7cc(S(=O)(=O)[O-])ccc7F)c7ccc4[nH]7)C=C6)C=C5)cc3)C2)cc1
REMARK SMILES IDX 20 1 19 2 18 3 16 4 17 5 15 6 12 7 13 8 90 9 14 10 11 11
REMARK SMILES IDX 9 12 10 13 8 15 7 16 6 17 3 18 4 19 92 20 5 21 91 22 2 23
REMARK SMILES IDX 1 24 21 25 22 26 23 27 24 28 25 29 26 30 27 31 28 32 89 33
REMARK SMILES IDX 29 34 88 35 30 36 31 37 32 38 82 39 33 40 87 41 81 42 83 43
REMARK SMILES IDX 34 44 86 45 80 46 79 47 35 49 67 50 47 51 66 52 48 53 51 54
REMARK SMILES IDX 65 55 84 56 49 57 50 58 64 60 85 61 52 62 36 63 37 64 45 65
REMARK SMILES IDX 38 66 44 67 46 68 43 69 39 70 40 71 41 72 42 73 68 74 69 75
REMARK SMILES IDX 77 76 70 77 76 78 78 79 75 80 71 81 72 82 73 83 74 84 53 85
REMARK SMILES IDX 54 86 62 87 55 88 61 89 63 90 60 91 56 92 57 93 58 94 59 95
REMARK H PARENT 11 14 83 48 51 59
REMARK Flexibility Score: inf
ROOT
ATOM      1  C   UNL A   1      36.536  32.881  32.846  1.00  0.00     0.202 C 
ENDROOT
BRANCH   1   2
ATOM      2  C   UNL A   1      37.334  34.175  33.055  1.00  0.00     0.261 C 
BRANCH   2   3
ATOM      3  O   UNL A   1      37.032  34.809  34.311  1.00  0.00    -0.463 OA
BRANCH   3   4
ATOM      4  C   UNL A   1      36.948  33.978  35.389  1.00  0.00     0.312 C 
ATOM      5  O   UNL A   1      35.901  33.535  35.849  1.00  0.00    -0.252 OA
BRANCH   4   6
ATOM      6  C   UNL A   1      38.342  33.517  35.830  1.00  0.00     0.124 C 
ATOM      7  C   UNL A   1      37.942  32.868  38.114  1.00  0.00     0.106 C 
ATOM      8  C   UNL A   1      38.857  34.047  38.076  1.00  0.00    -0.006 C 
ATOM      9  C   UNL A   1      38.197  32.282  36.727  1.00  0.00     0.048 C 
ATOM     10  C   UNL A   1      39.011  34.455  36.802  1.00  0.00    -0.014 C 
BRANCH   7  11
ATOM     11  N   UNL A   1      38.185  31.924  39.163  1.00  0.00    -0.346 N 
ATOM     12  C   UNL A   1      37.370  31.542  40.190  1.00  0.00     0.244 C 
ATOM     13  O   UNL A   1      37.782  30.674  40.964  1.00  0.00    -0.270 OA
ATOM     14  H   UNL A   1      39.067  31.487  39.141  1.00  0.00     0.164 HD
BRANCH  12  15
ATOM     15  C   UNL A   1      35.973  32.058  40.410  1.00  0.00     0.072 C 
ATOM     16  C   UNL A   1      35.515  32.948  41.303  1.00  0.00     0.014 C 
BRANCH  16  17
ATOM     17  C   UNL A   1      34.160  33.501  41.491  1.00  0.00    -0.025 A 
ATOM     18  C   UNL A   1      31.604  34.541  42.098  1.00  0.00     0.052 A 
ATOM     19  C   UNL A   1      32.063  34.498  40.776  1.00  0.00     0.020 A 
ATOM     20  C   UNL A   1      32.414  34.052  43.118  1.00  0.00     0.020 A 
ATOM     21  C   UNL A   1      33.335  33.983  40.473  1.00  0.00     0.009 A 
ATOM     22  C   UNL A   1      33.673  33.532  42.812  1.00  0.00     0.009 A 
BRANCH  18  23
ATOM     23  C   UNL A   1      30.308  35.074  42.410  1.00  0.00     0.099 C 
ATOM     24  N   UNL A   1      29.269  35.515  42.669  1.00  0.00    -0.192 NA
ENDBRANCH  18  23
ENDBRANCH  16  17
ENDBRANCH  12  15
ENDBRANCH   7  11
ENDBRANCH   4   6
ENDBRANCH   3   4
ENDBRANCH   2   3
ENDBRANCH   1   2
BRANCH   1  25
ATOM     25  O   UNL A   1      35.134  32.960  32.604  1.00  0.00    -0.374 OA
BRANCH  25  26
ATOM     26  C   UNL A   1      34.634  34.062  31.857  1.00  0.00     0.202 C 
BRANCH  26  27
ATOM     27  C   UNL A   1      34.356  33.933  30.354  1.00  0.00     0.261 C 
BRANCH  27  28
ATOM     28  O   UNL A   1      34.220  32.582  29.897  1.00  0.00    -0.460 OA
BRANCH  28  29
ATOM     29  C   UNL A   1      34.786  32.361  28.681  1.00  0.00     0.338 C 
ATOM     30  O   UNL A   1      34.432  32.832  27.614  1.00  0.00    -0.246 OA
BRANCH  29  31
ATOM     31  C   UNL A   1      36.045  31.619  28.853  1.00  0.00     0.060 A 
ATOM     32  C   UNL A   1      35.964  30.254  29.161  1.00  0.00     0.016 A 
ATOM     33  C   UNL A   1      37.279  32.265  28.788  1.00  0.00     0.016 A 
ATOM     34  C   UNL A   1      37.119  29.534  29.441  1.00  0.00     0.010 A 
ATOM     35  C   UNL A   1      38.438  31.543  29.081  1.00  0.00     0.010 A 
ATOM     36  C   UNL A   1      38.359  30.184  29.441  1.00  0.00    -0.014 A 
BRANCH  36  37
ATOM     37  C   UNL A   1      39.556  29.478  29.955  1.00  0.00     0.031 A 
ATOM     38  C   UNL A   1      40.192  29.950  31.231  1.00  0.00     0.074 A 
ATOM     39  C   UNL A   1      40.052  28.413  29.301  1.00  0.00     0.049 A 
ATOM     40  N   UNL A   1      41.268  29.517  31.835  1.00  0.00    -0.248 NA
ATOM     41  C   UNL A   1      39.529  31.074  31.907  1.00  0.00     0.031 C 
ATOM     42  C   UNL A   1      39.482  27.828  28.089  1.00  0.00     0.029 A 
ATOM     43  N   UNL A   1      41.148  27.635  29.570  1.00  0.00    -0.354 N 
ATOM     44  C   UNL A   1      41.424  30.326  32.956  1.00  0.00     0.074 A 
ATOM     45  C   UNL A   1      40.357  31.305  32.914  1.00  0.00     0.031 C 
ATOM     46  C   UNL A   1      40.228  26.773  27.725  1.00  0.00     0.029 A 
ATOM     47  C   UNL A   1      41.356  26.641  28.645  1.00  0.00     0.049 A 
ATOM     48  H   UNL A   1      41.730  27.774  30.351  1.00  0.00     0.167 HD
ATOM     49  C   UNL A   1      42.366  30.252  33.929  1.00  0.00     0.034 A 
ATOM     50  C   UNL A   1      42.354  25.742  28.542  1.00  0.00     0.034 A 
ATOM     51  C   UNL A   1      43.431  29.278  33.938  1.00  0.00     0.049 A 
ATOM     52  C   UNL A   1      43.457  25.752  29.571  1.00  0.00     0.074 A 
ATOM     53  C   UNL A   1      44.424  29.094  34.883  1.00  0.00     0.029 A 
ATOM     54  N   UNL A   1      43.657  28.336  32.940  1.00  0.00    -0.354 N 
ATOM     55  N   UNL A   1      43.593  26.513  30.633  1.00  0.00    -0.248 NA
ATOM     56  C   UNL A   1      44.538  24.777  29.387  1.00  0.00     0.031 C 
ATOM     57  C   UNL A   1      45.307  28.119  34.408  1.00  0.00     0.029 A 
ATOM     58  C   UNL A   1      44.805  27.608  33.221  1.00  0.00     0.049 A 
ATOM     59  H   UNL A   1      43.086  28.203  32.150  1.00  0.00     0.167 HD
ATOM     60  C   UNL A   1      44.755  26.077  31.267  1.00  0.00     0.074 A 
ATOM     61  C   UNL A   1      45.275  24.985  30.469  1.00  0.00     0.031 C 
ATOM     62  C   UNL A   1      45.331  26.532  32.411  1.00  0.00     0.034 A 
BRANCH  49  63
ATOM     63  C   UNL A   1      42.321  31.304  35.016  1.00  0.00     0.023 A 
ATOM     64  C   UNL A   1      42.841  32.596  34.824  1.00  0.00     0.031 A 
ATOM     65  C   UNL A   1      41.811  30.987  36.289  1.00  0.00     0.131 A 
ATOM     66  C   UNL A   1      42.944  33.478  35.910  1.00  0.00     0.055 A 
ATOM     67  C   UNL A   1      41.817  31.909  37.337  1.00  0.00     0.041 A 
ATOM     68  F   UNL A   1      41.324  29.763  36.547  1.00  0.00    -0.206 F 
ATOM     69  C   UNL A   1      42.407  33.156  37.159  1.00  0.00     0.022 A 
BRANCH  66  70
ATOM     70  S   UNL A   1      43.979  34.956  35.723  1.00  0.00     0.124 S 
ATOM     71  O   UNL A   1      43.998  35.119  34.271  1.00  0.00    -0.237 OA
ATOM     72  O   UNL A   1      43.233  35.961  36.470  1.00  0.00    -0.237 OA
ATOM     73  O   UNL A   1      45.256  34.557  36.312  1.00  0.00    -0.744 OA
ENDBRANCH  66  70
ENDBRANCH  49  63
BRANCH  50  74
ATOM     74  C   UNL A   1      42.366  24.761  27.421  1.00  0.00     0.023 A 
ATOM     75  C   UNL A   1      41.611  23.582  27.496  1.00  0.00     0.031 A 
ATOM     76  C   UNL A   1      43.150  24.972  26.273  1.00  0.00     0.131 A 
ATOM     77  C   UNL A   1      41.682  22.638  26.460  1.00  0.00     0.055 A 
ATOM     78  C   UNL A   1      43.172  24.059  25.217  1.00  0.00     0.041 A 
ATOM     79  F   UNL A   1      43.895  26.082  26.152  1.00  0.00    -0.206 F 
ATOM     80  C   UNL A   1      42.443  22.877  25.313  1.00  0.00     0.022 A 
BRANCH  77  81
ATOM     81  S   UNL A   1      40.829  21.054  26.673  1.00  0.00     0.124 S 
ATOM     82  O   UNL A   1      39.553  21.315  26.018  1.00  0.00    -0.237 OA
ATOM     83  O   UNL A   1      41.727  20.131  25.986  1.00  0.00    -0.237 OA
ATOM     84  O   UNL A   1      40.767  20.895  28.124  1.00  0.00    -0.744 OA
ENDBRANCH  77  81
ENDBRANCH  50  74
BRANCH  62  85
ATOM     85  C   UNL A   1      46.568  25.810  32.898  1.00  0.00     0.023 A 
ATOM     86  C   UNL A   1      46.496  24.713  33.774  1.00  0.00     0.031 A 
ATOM     87  C   UNL A   1      47.842  26.237  32.483  1.00  0.00     0.131 A 
ATOM     88  C   UNL A   1      47.675  24.122  34.255  1.00  0.00     0.055 A 
ATOM     89  C   UNL A   1      49.009  25.595  32.902  1.00  0.00     0.041 A 
ATOM     90  F   UNL A   1      47.977  27.285  31.655  1.00  0.00    -0.206 F 
ATOM     91  C   UNL A   1      48.930  24.541  33.805  1.00  0.00     0.022 A 
BRANCH  88  92
ATOM     92  S   UNL A   1      47.553  22.879  35.570  1.00  0.00     0.124 S 
ATOM     93  O   UNL A   1      47.977  21.665  34.879  1.00  0.00    -0.237 OA
ATOM     94  O   UNL A   1      48.478  23.394  36.575  1.00  0.00    -0.237 OA
ATOM     95  O   UNL A   1      46.143  22.916  35.949  1.00  0.00    -0.744 OA
ENDBRANCH  88  92
ENDBRANCH  62  85
ENDBRANCH  36  37
ENDBRANCH  29  31
ENDBRANCH  28  29
ENDBRANCH  27  28
ENDBRANCH  26  27
ENDBRANCH  25  26
ENDBRANCH   1  25
TORSDOF 21
ENDMDL
MODEL 3
REMARK VINA RESULT:      -9.5      5.810     12.509
REMARK SMILES N#Cc1ccc(/C=C/C(=O)N[C@H]2C=C[C@H](C(=O)OCCOCCOC(=O)c3ccc(-c4c5nc(c(-c6cc(S(=O)(=O)[O-])ccc6F)c6ccc([nH]6)c(-c6cc(S(=O)(=O)[O-])ccc6F)c6nc(c(-c7cc(S(=O)(=O)[O-])ccc7F)c7ccc4[nH]7)C=C6)C=C5)cc3)C2)cc1
REMARK SMILES IDX 20 1 19 2 18 3 16 4 17 5 15 6 12 7 13 8 90 9 14 10 11 11
REMARK SMILES IDX 9 12 10 13 8 15 7 16 6 17 3 18 4 19 92 20 5 21 91 22 2 23
REMARK SMILES IDX 1 24 21 25 22 26 23 27 24 28 25 29 26 30 27 31 28 32 89 33
REMARK SMILES IDX 29 34 88 35 30 36 31 37 32 38 82 39 33 40 87 41 81 42 83 43
REMARK SMILES IDX 34 44 86 45 80 46 79 47 35 49 67 50 47 51 66 52 48 53 51 54
REMARK SMILES IDX 65 55 84 56 49 57 50 58 64 60 85 61 52 62 36 63 37 64 45 65
REMARK SMILES IDX 38 66 44 67 46 68 43 69 39 70 40 71 41 72 42 73 68 74 69 75
REMARK SMILES IDX 77 76 70 77 76 78 78 79 75 80 71 81 72 82 73 83 74 84 53 85
REMARK SMILES IDX 54 86 62 87 55 88 61 89 63 90 60 91 56 92 57 93 58 94 59 95
REMARK H PARENT 11 14 83 48 51 59
REMARK Flexibility Score: inf
ROOT
ATOM      1  C   UNL A   1      36.515  32.835  32.875  1.00  0.00     0.202 C 
ENDROOT
BRANCH   1   2
ATOM      2  C   UNL A   1      37.395  34.058  33.170  1.00  0.00     0.261 C 
BRANCH   2   3
ATOM      3  O   UNL A   1      37.075  34.674  34.430  1.00  0.00    -0.463 OA
BRANCH   3   4
ATOM      4  C   UNL A   1      37.197  33.875  35.528  1.00  0.00     0.312 C 
ATOM      5  O   UNL A   1      36.270  33.284  36.069  1.00  0.00    -0.252 OA
BRANCH   4   6
ATOM      6  C   UNL A   1      38.675  33.661  35.881  1.00  0.00     0.124 C 
ATOM      7  C   UNL A   1      38.559  33.282  38.257  1.00  0.00     0.106 C 
ATOM      8  C   UNL A   1      39.295  34.552  37.981  1.00  0.00    -0.006 C 
ATOM      9  C   UNL A   1      38.778  32.550  36.934  1.00  0.00     0.048 C 
ATOM     10  C   UNL A   1      39.284  34.799  36.658  1.00  0.00    -0.014 C 
BRANCH   7  11
ATOM     11  N   UNL A   1      39.018  32.528  39.384  1.00  0.00    -0.346 N 
ATOM     12  C   UNL A   1      38.314  32.065  40.459  1.00  0.00     0.244 C 
ATOM     13  O   UNL A   1      38.919  31.398  41.303  1.00  0.00    -0.270 OA
ATOM     14  H   UNL A   1      39.978  32.313  39.385  1.00  0.00     0.164 HD
BRANCH  12  15
ATOM     15  C   UNL A   1      36.834  32.254  40.659  1.00  0.00     0.072 C 
ATOM     16  C   UNL A   1      36.173  33.179  41.371  1.00  0.00     0.014 C 
BRANCH  16  17
ATOM     17  C   UNL A   1      34.723  33.405  41.529  1.00  0.00    -0.025 A 
ATOM     18  C   UNL A   1      31.980  33.800  42.076  1.00  0.00     0.052 A 
ATOM     19  C   UNL A   1      32.490  34.012  40.790  1.00  0.00     0.020 A 
ATOM     20  C   UNL A   1      32.836  33.377  43.088  1.00  0.00     0.020 A 
ATOM     21  C   UNL A   1      33.855  33.818  40.517  1.00  0.00     0.009 A 
ATOM     22  C   UNL A   1      34.188  33.176  42.811  1.00  0.00     0.009 A 
BRANCH  18  23
ATOM     23  C   UNL A   1      30.588  34.005  42.359  1.00  0.00     0.099 C 
ATOM     24  N   UNL A   1      29.465  34.161  42.597  1.00  0.00    -0.192 NA
ENDBRANCH  18  23
ENDBRANCH  16  17
ENDBRANCH  12  15
ENDBRANCH   7  11
ENDBRANCH   4   6
ENDBRANCH   3   4
ENDBRANCH   2   3
ENDBRANCH   1   2
BRANCH   1  25
ATOM     25  O   UNL A   1      35.142  33.030  32.545  1.00  0.00    -0.374 OA
BRANCH  25  26
ATOM     26  C   UNL A   1      34.804  34.059  31.624  1.00  0.00     0.202 C 
BRANCH  26  27
ATOM     27  C   UNL A   1      34.481  33.731  30.161  1.00  0.00     0.261 C 
BRANCH  27  28
ATOM     28  O   UNL A   1      34.161  32.354  29.926  1.00  0.00    -0.460 OA
BRANCH  28  29
ATOM     29  C   UNL A   1      34.631  31.883  28.741  1.00  0.00     0.338 C 
ATOM     30  O   UNL A   1      34.193  32.130  27.631  1.00  0.00    -0.246 OA
BRANCH  29  31
ATOM     31  C   UNL A   1      35.903  31.176  28.962  1.00  0.00     0.060 A 
ATOM     32  C   UNL A   1      35.893  30.062  29.812  1.00  0.00     0.016 A 
ATOM     33  C   UNL A   1      37.094  31.641  28.407  1.00  0.00     0.016 A 
ATOM     34  C   UNL A   1      37.086  29.427  30.141  1.00  0.00     0.010 A 
ATOM     35  C   UNL A   1      38.292  31.010  28.748  1.00  0.00     0.010 A 
ATOM     36  C   UNL A   1      38.296  29.922  29.641  1.00  0.00    -0.014 A 
BRANCH  36  37
ATOM     37  C   UNL A   1      39.576  29.391  30.166  1.00  0.00     0.031 A 
ATOM     38  C   UNL A   1      40.260  28.273  29.432  1.00  0.00     0.074 A 
ATOM     39  C   UNL A   1      40.130  29.919  31.271  1.00  0.00     0.049 A 
ATOM     40  N   UNL A   1      41.354  27.625  29.735  1.00  0.00    -0.248 NA
ATOM     41  C   UNL A   1      39.610  27.818  28.195  1.00  0.00     0.031 C 
ATOM     42  C   UNL A   1      39.589  31.045  32.029  1.00  0.00     0.029 A 
ATOM     43  N   UNL A   1      41.275  29.576  31.943  1.00  0.00    -0.354 N 
ATOM     44  C   UNL A   1      41.518  26.671  28.736  1.00  0.00     0.074 A 
ATOM     45  C   UNL A   1      40.381  26.800  27.848  1.00  0.00     0.031 C 
ATOM     46  C   UNL A   1      40.410  31.308  33.059  1.00  0.00     0.029 A 
ATOM     47  C   UNL A   1      41.502  30.338  33.064  1.00  0.00     0.049 A 
ATOM     48  H   UNL A   1      41.875  28.853  31.652  1.00  0.00     0.167 HD
ATOM     49  C   UNL A   1      42.527  25.779  28.574  1.00  0.00     0.034 A 
ATOM     50  C   UNL A   1      42.470  30.248  33.996  1.00  0.00     0.034 A 
ATOM     51  C   UNL A   1      43.641  25.660  29.484  1.00  0.00     0.049 A 
ATOM     52  C   UNL A   1      43.519  29.172  33.860  1.00  0.00     0.074 A 
ATOM     53  C   UNL A   1      44.730  24.811  29.406  1.00  0.00     0.029 A 
ATOM     54  N   UNL A   1      43.797  26.395  30.654  1.00  0.00    -0.354 N 
ATOM     55  N   UNL A   1      43.673  28.280  32.908  1.00  0.00    -0.248 NA
ATOM     56  C   UNL A   1      44.526  29.096  34.925  1.00  0.00     0.031 C 
ATOM     57  C   UNL A   1      45.485  24.956  30.576  1.00  0.00     0.029 A 
ATOM     58  C   UNL A   1      44.934  25.979  31.332  1.00  0.00     0.049 A 
ATOM     59  H   UNL A   1      43.190  27.108  30.957  1.00  0.00     0.167 HD
ATOM     60  C   UNL A   1      44.822  27.564  33.240  1.00  0.00     0.074 A 
ATOM     61  C   UNL A   1      45.320  28.134  34.477  1.00  0.00     0.031 C 
ATOM     62  C   UNL A   1      45.416  26.538  32.576  1.00  0.00     0.034 A 
BRANCH  49  63
ATOM     63  C   UNL A   1      42.420  24.819  27.409  1.00  0.00     0.023 A 
ATOM     64  C   UNL A   1      41.519  23.740  27.414  1.00  0.00     0.031 A 
ATOM     65  C   UNL A   1      43.283  24.945  26.305  1.00  0.00     0.131 A 
ATOM     66  C   UNL A   1      41.580  22.772  26.400  1.00  0.00     0.055 A 
ATOM     67  C   UNL A   1      43.262  24.038  25.244  1.00  0.00     0.041 A 
ATOM     68  F   UNL A   1      44.185  25.938  26.250  1.00  0.00    -0.206 F 
ATOM     69  C   UNL A   1      42.424  22.929  25.298  1.00  0.00     0.022 A 
BRANCH  66  70
ATOM     70  S   UNL A   1      40.702  21.205  26.653  1.00  0.00     0.124 S 
ATOM     71  O   UNL A   1      41.490  20.291  25.829  1.00  0.00    -0.237 OA
ATOM     72  O   UNL A   1      40.804  21.015  28.095  1.00  0.00    -0.237 OA
ATOM     73  O   UNL A   1      39.358  21.480  26.151  1.00  0.00    -0.744 OA
ENDBRANCH  66  70
ENDBRANCH  49  63
BRANCH  50  74
ATOM     74  C   UNL A   1      42.494  31.195  35.145  1.00  0.00     0.023 A 
ATOM     75  C   UNL A   1      42.938  32.515  34.974  1.00  0.00     0.031 A 
ATOM     76  C   UNL A   1      42.102  30.792  36.434  1.00  0.00     0.131 A 
ATOM     77  C   UNL A   1      43.015  33.375  36.079  1.00  0.00     0.055 A 
ATOM     78  C   UNL A   1      42.122  31.669  37.519  1.00  0.00     0.041 A 
ATOM     79  F   UNL A   1      41.673  29.538  36.653  1.00  0.00    -0.206 F 
ATOM     80  C   UNL A   1      42.592  32.967  37.347  1.00  0.00     0.022 A 
BRANCH  77  81
ATOM     81  S   UNL A   1      43.755  35.013  35.850  1.00  0.00     0.124 S 
ATOM     82  O   UNL A   1      42.576  35.840  35.618  1.00  0.00    -0.237 OA
ATOM     83  O   UNL A   1      44.442  35.217  37.121  1.00  0.00    -0.237 OA
ATOM     84  O   UNL A   1      44.629  34.831  34.693  1.00  0.00    -0.744 OA
ENDBRANCH  77  81
ENDBRANCH  50  74
BRANCH  62  85
ATOM     85  C   UNL A   1      46.707  25.997  33.149  1.00  0.00     0.023 A 
ATOM     86  C   UNL A   1      47.956  26.567  32.846  1.00  0.00     0.031 A 
ATOM     87  C   UNL A   1      46.685  24.882  34.007  1.00  0.00     0.131 A 
ATOM     88  C   UNL A   1      49.132  25.985  33.345  1.00  0.00     0.055 A 
ATOM     89  C   UNL A   1      47.852  24.355  34.564  1.00  0.00     0.041 A 
ATOM     90  F   UNL A   1      45.524  24.286  34.325  1.00  0.00    -0.206 F 
ATOM     91  C   UNL A   1      49.085  24.898  34.221  1.00  0.00     0.022 A 
BRANCH  88  92
ATOM     92  S   UNL A   1      50.730  26.590  32.737  1.00  0.00     0.124 S 
ATOM     93  O   UNL A   1      50.987  27.715  33.632  1.00  0.00    -0.237 OA
ATOM     94  O   UNL A   1      51.593  25.427  32.913  1.00  0.00    -0.237 OA
ATOM     95  O   UNL A   1      50.454  26.954  31.349  1.00  0.00    -0.744 OA
ENDBRANCH  88  92
ENDBRANCH  62  85
ENDBRANCH  36  37
ENDBRANCH  29  31
ENDBRANCH  28  29
ENDBRANCH  27  28
ENDBRANCH  26  27
ENDBRANCH  25  26
ENDBRANCH   1  25
TORSDOF 21
ENDMDL
