MODEL 1
REMARK VINA RESULT:     -11.5      0.000      0.000
REMARK SMILES C[NH+](C)Cc1ccccc1[C@H]1[NH2+][C@@H](C(=O)OCCOCCOC(=O)c2ccc(-c3c4nc(c(-c5cc(S(=O)(=O)[O-])ccc5F)c5ccc([nH]5)c(-c5cc(S(=O)(=O)[O-])ccc5F)c5nc(c(-c6cc(S(=O)(=O)[O-])ccc6F)c6ccc3[nH]6)C=C5)C=C4)cc2)C(C)(C)S1
REMARK SMILES IDX 19 1 18 2 17 3 16 4 14 5 15 6 13 7 11 8 12 9 91 10 88 13
REMARK SMILES IDX 89 14 90 15 10 16 5 17 6 18 7 19 9 20 8 21 4 22 2 23 1 24
REMARK SMILES IDX 3 25 20 27 21 28 22 29 23 30 24 31 25 32 26 33 87 34 27 35
REMARK SMILES IDX 86 36 28 37 29 38 30 39 80 40 31 41 85 42 79 43 81 44 32 45
REMARK SMILES IDX 84 46 78 47 77 48 33 50 65 51 45 52 64 53 46 54 49 55 63 56
REMARK SMILES IDX 82 57 47 58 48 59 62 61 83 62 50 63 34 64 35 65 43 66 36 67
REMARK SMILES IDX 42 68 44 69 41 70 37 71 38 72 39 73 40 74 66 75 67 76 75 77
REMARK SMILES IDX 68 78 74 79 76 80 73 81 69 82 70 83 71 84 72 85 51 86 52 87
REMARK SMILES IDX 60 88 53 89 59 90 61 91 58 92 54 93 55 94 56 95 57 96
REMARK H PARENT 12 11 12 12 2 26 81 49 49 60
REMARK Flexibility Score: inf
ROOT
ATOM      1  O   UNL A   1      31.907  29.980  26.603  1.00  0.00    -0.374 OA
ENDROOT
BRANCH   1   2
ATOM      2  C   UNL A   1      31.816  28.778  25.833  1.00  0.00     0.202 C 
BRANCH   2   3
ATOM      3  C   UNL A   1      31.677  27.469  26.619  1.00  0.00     0.261 C 
BRANCH   3   4
ATOM      4  O   UNL A   1      30.985  26.450  25.869  1.00  0.00    -0.459 OA
BRANCH   4   5
ATOM      5  C   UNL A   1      31.382  25.174  26.113  1.00  0.00     0.366 C 
ATOM      6  O   UNL A   1      31.446  24.666  27.229  1.00  0.00    -0.245 OA
BRANCH   5   7
ATOM      7  C   UNL A   1      31.762  24.401  24.848  1.00  0.00     0.310 C 
ATOM      8  C   UNL A   1      32.587  22.442  23.925  1.00  0.00     0.275 C 
ATOM      9  N   UNL A   1      32.437  23.129  25.208  1.00  0.00    -0.319 N 
ATOM     10  S   UNL A   1      33.150  23.645  22.718  1.00  0.00    -0.081 SA
ATOM     11  H   UNL A   1      33.347  23.307  25.635  1.00  0.00     0.348 HD
ATOM     12  H   UNL A   1      31.913  22.582  25.892  1.00  0.00     0.348 HD
ATOM     13  C   UNL A   1      32.588  25.101  23.739  1.00  0.00     0.079 C 
ATOM     14  C   UNL A   1      33.824  25.871  24.212  1.00  0.00     0.030 C 
ATOM     15  C   UNL A   1      31.729  25.995  22.838  1.00  0.00     0.030 C 
BRANCH   8  16
ATOM     16  C   UNL A   1      33.179  21.053  24.078  1.00  0.00     0.029 A 
ATOM     17  C   UNL A   1      34.381  20.648  24.698  1.00  0.00     0.016 A 
ATOM     18  C   UNL A   1      34.670  19.254  24.750  1.00  0.00     0.010 A 
ATOM     19  C   UNL A   1      33.804  18.280  24.254  1.00  0.00     0.001 A 
ATOM     20  C   UNL A   1      32.307  20.024  23.605  1.00  0.00     0.011 A 
ATOM     21  C   UNL A   1      32.610  18.668  23.684  1.00  0.00     0.001 A 
BRANCH  17  22
ATOM     22  C   UNL A   1      35.514  21.511  25.228  1.00  0.00     0.299 C 
BRANCH  22  23
ATOM     23  N   UNL A   1      36.715  21.652  24.403  1.00  0.00    -0.336 N 
ATOM     24  C   UNL A   1      37.894  21.721  25.278  1.00  0.00     0.332 C 
ATOM     25  C   UNL A   1      36.653  22.835  23.543  1.00  0.00     0.332 C 
ATOM     26  H   UNL A   1      36.782  20.838  23.791  1.00  0.00     0.347 HD
ENDBRANCH  22  23
ENDBRANCH  17  22
ENDBRANCH   8  16
ENDBRANCH   5   7
ENDBRANCH   4   5
ENDBRANCH   3   4
ENDBRANCH   2   3
ENDBRANCH   1   2
BRANCH   1  27
ATOM     27  C   UNL A   1      31.275  31.131  26.053  1.00  0.00     0.202 C 
BRANCH  27  28
ATOM     28  C   UNL A   1      31.442  32.452  26.815  1.00  0.00     0.261 C 
BRANCH  28  29
ATOM     29  O   UNL A   1      32.753  33.011  26.647  1.00  0.00    -0.460 OA
BRANCH  29  30
ATOM     30  C   UNL A   1      33.275  33.536  27.782  1.00  0.00     0.338 C 
ATOM     31  O   UNL A   1      32.721  34.317  28.544  1.00  0.00    -0.246 OA
BRANCH  30  32
ATOM     32  C   UNL A   1      34.558  32.881  28.104  1.00  0.00     0.060 A 
ATOM     33  C   UNL A   1      34.508  31.526  28.454  1.00  0.00     0.016 A 
ATOM     34  C   UNL A   1      35.774  33.569  28.108  1.00  0.00     0.016 A 
ATOM     35  C   UNL A   1      35.657  30.872  28.883  1.00  0.00     0.010 A 
ATOM     36  C   UNL A   1      36.931  32.909  28.541  1.00  0.00     0.010 A 
ATOM     37  C   UNL A   1      36.867  31.571  28.973  1.00  0.00    -0.014 A 
BRANCH  37  38
ATOM     38  C   UNL A   1      38.007  30.948  29.693  1.00  0.00     0.031 A 
ATOM     39  C   UNL A   1      38.251  31.334  31.128  1.00  0.00     0.074 A 
ATOM     40  C   UNL A   1      38.765  30.008  29.103  1.00  0.00     0.049 A 
ATOM     41  N   UNL A   1      39.181  30.929  31.952  1.00  0.00    -0.248 NA
ATOM     42  C   UNL A   1      37.318  32.313  31.709  1.00  0.00     0.031 C 
ATOM     43  C   UNL A   1      38.585  29.514  27.739  1.00  0.00     0.029 A 
ATOM     44  N   UNL A   1      39.837  29.295  29.579  1.00  0.00    -0.354 N 
ATOM     45  C   UNL A   1      38.948  31.601  33.147  1.00  0.00     0.074 A 
ATOM     46  C   UNL A   1      37.820  32.478  32.923  1.00  0.00     0.031 C 
ATOM     47  C   UNL A   1      39.515  28.577  27.487  1.00  0.00     0.029 A 
ATOM     48  C   UNL A   1      40.382  28.434  28.655  1.00  0.00     0.049 A 
ATOM     49  H   UNL A   1      40.183  29.392  30.495  1.00  0.00     0.167 HD
ATOM     50  C   UNL A   1      39.607  31.488  34.327  1.00  0.00     0.034 A 
ATOM     51  C   UNL A   1      41.469  27.641  28.738  1.00  0.00     0.034 A 
ATOM     52  C   UNL A   1      40.737  30.615  34.530  1.00  0.00     0.049 A 
ATOM     53  C   UNL A   1      42.251  27.606  30.031  1.00  0.00     0.074 A 
ATOM     54  C   UNL A   1      41.477  30.414  35.682  1.00  0.00     0.029 A 
ATOM     55  N   UNL A   1      41.302  29.805  33.552  1.00  0.00    -0.354 N 
ATOM     56  N   UNL A   1      42.018  28.246  31.156  1.00  0.00    -0.248 NA
ATOM     57  C   UNL A   1      43.435  26.739  30.068  1.00  0.00     0.031 C 
ATOM     58  C   UNL A   1      42.533  29.549  35.380  1.00  0.00     0.029 A 
ATOM     59  C   UNL A   1      42.402  29.136  34.065  1.00  0.00     0.049 A 
ATOM     60  H   UNL A   1      40.969  29.718  32.630  1.00  0.00     0.167 HD
ATOM     61  C   UNL A   1      43.008  27.827  32.043  1.00  0.00     0.074 A 
ATOM     62  C   UNL A   1      43.828  26.872  31.326  1.00  0.00     0.031 C 
ATOM     63  C   UNL A   1      43.217  28.191  33.334  1.00  0.00     0.034 A 
BRANCH  50  64
ATOM     64  C   UNL A   1      39.150  32.368  35.467  1.00  0.00     0.023 A 
ATOM     65  C   UNL A   1      39.591  33.695  35.604  1.00  0.00     0.031 A 
ATOM     66  C   UNL A   1      38.279  31.861  36.450  1.00  0.00     0.131 A 
ATOM     67  C   UNL A   1      39.222  34.445  36.733  1.00  0.00     0.055 A 
ATOM     68  C   UNL A   1      37.848  32.639  37.524  1.00  0.00     0.041 A 
ATOM     69  F   UNL A   1      37.844  30.593  36.387  1.00  0.00    -0.206 F 
ATOM     70  C   UNL A   1      38.331  33.935  37.679  1.00  0.00     0.022 A 
BRANCH  67  71
ATOM     71  S   UNL A   1      40.042  36.036  37.023  1.00  0.00     0.124 S 
ATOM     72  O   UNL A   1      41.417  35.617  37.281  1.00  0.00    -0.237 OA
ATOM     73  O   UNL A   1      39.813  36.743  35.769  1.00  0.00    -0.237 OA
ATOM     74  O   UNL A   1      39.337  36.578  38.184  1.00  0.00    -0.744 OA
ENDBRANCH  67  71
ENDBRANCH  50  64
BRANCH  51  75
ATOM     75  C   UNL A   1      41.917  26.841  27.559  1.00  0.00     0.023 A 
ATOM     76  C   UNL A   1      41.741  25.449  27.513  1.00  0.00     0.031 A 
ATOM     77  C   UNL A   1      42.587  27.455  26.485  1.00  0.00     0.131 A 
ATOM     78  C   UNL A   1      42.274  24.711  26.444  1.00  0.00     0.055 A 
ATOM     79  C   UNL A   1      43.062  26.724  25.394  1.00  0.00     0.041 A 
ATOM     80  F   UNL A   1      42.788  28.783  26.477  1.00  0.00    -0.206 F 
ATOM     81  C   UNL A   1      42.919  25.341  25.377  1.00  0.00     0.022 A 
BRANCH  78  82
ATOM     82  S   UNL A   1      42.204  22.900  26.519  1.00  0.00     0.124 S 
ATOM     83  O   UNL A   1      43.290  22.600  27.446  1.00  0.00    -0.237 OA
ATOM     84  O   UNL A   1      40.852  22.671  27.016  1.00  0.00    -0.237 OA
ATOM     85  O   UNL A   1      42.435  22.494  25.135  1.00  0.00    -0.744 OA
ENDBRANCH  78  82
ENDBRANCH  51  75
BRANCH  63  86
ATOM     86  C   UNL A   1      44.351  27.515  34.069  1.00  0.00     0.023 A 
ATOM     87  C   UNL A   1      44.148  26.370  34.858  1.00  0.00     0.031 A 
ATOM     88  C   UNL A   1      45.657  28.033  33.979  1.00  0.00     0.131 A 
ATOM     89  C   UNL A   1      45.222  25.813  35.571  1.00  0.00     0.055 A 
ATOM     90  C   UNL A   1      46.732  27.433  34.637  1.00  0.00     0.041 A 
ATOM     91  F   UNL A   1      45.910  29.127  33.243  1.00  0.00    -0.206 F 
ATOM     92  C   UNL A   1      46.515  26.326  35.449  1.00  0.00     0.022 A 
BRANCH  89  93
ATOM     93  S   UNL A   1      44.886  24.466  36.739  1.00  0.00     0.124 S 
ATOM     94  O   UNL A   1      46.167  24.332  37.423  1.00  0.00    -0.237 OA
ATOM     95  O   UNL A   1      43.791  25.010  37.536  1.00  0.00    -0.237 OA
ATOM     96  O   UNL A   1      44.525  23.345  35.874  1.00  0.00    -0.744 OA
ENDBRANCH  89  93
ENDBRANCH  63  86
ENDBRANCH  37  38
ENDBRANCH  30  32
ENDBRANCH  29  30
ENDBRANCH  28  29
ENDBRANCH  27  28
ENDBRANCH   1  27
TORSDOF 20
ENDMDL
MODEL 2
REMARK VINA RESULT:     -11.0      1.606      2.278
REMARK SMILES C[NH+](C)Cc1ccccc1[C@H]1[NH2+][C@@H](C(=O)OCCOCCOC(=O)c2ccc(-c3c4nc(c(-c5cc(S(=O)(=O)[O-])ccc5F)c5ccc([nH]5)c(-c5cc(S(=O)(=O)[O-])ccc5F)c5nc(c(-c6cc(S(=O)(=O)[O-])ccc6F)c6ccc3[nH]6)C=C5)C=C4)cc2)C(C)(C)S1
REMARK SMILES IDX 19 1 18 2 17 3 16 4 14 5 15 6 13 7 11 8 12 9 91 10 88 13
REMARK SMILES IDX 89 14 90 15 10 16 5 17 6 18 7 19 9 20 8 21 4 22 2 23 1 24
REMARK SMILES IDX 3 25 20 27 21 28 22 29 23 30 24 31 25 32 26 33 87 34 27 35
REMARK SMILES IDX 86 36 28 37 29 38 30 39 80 40 31 41 85 42 79 43 81 44 32 45
REMARK SMILES IDX 84 46 78 47 77 48 33 50 65 51 45 52 64 53 46 54 49 55 63 56
REMARK SMILES IDX 82 57 47 58 48 59 62 61 83 62 50 63 34 64 35 65 43 66 36 67
REMARK SMILES IDX 42 68 44 69 41 70 37 71 38 72 39 73 40 74 66 75 67 76 75 77
REMARK SMILES IDX 68 78 74 79 76 80 73 81 69 82 70 83 71 84 72 85 51 86 52 87
REMARK SMILES IDX 60 88 53 89 59 90 61 91 58 92 54 93 55 94 56 95 57 96
REMARK H PARENT 12 11 12 12 2 26 81 49 49 60
REMARK Flexibility Score: inf
ROOT
ATOM      1  O   UNL A   1      32.010  30.576  27.047  1.00  0.00    -0.374 OA
ENDROOT
BRANCH   1   2
ATOM      2  C   UNL A   1      32.871  29.730  26.280  1.00  0.00     0.202 C 
BRANCH   2   3
ATOM      3  C   UNL A   1      33.548  28.578  27.033  1.00  0.00     0.261 C 
BRANCH   3   4
ATOM      4  O   UNL A   1      33.636  27.379  26.235  1.00  0.00    -0.459 OA
BRANCH   4   5
ATOM      5  C   UNL A   1      32.468  26.709  26.057  1.00  0.00     0.366 C 
ATOM      6  O   UNL A   1      31.381  27.074  26.498  1.00  0.00    -0.245 OA
BRANCH   5   7
ATOM      7  C   UNL A   1      32.623  25.421  25.246  1.00  0.00     0.310 C 
ATOM      8  C   UNL A   1      33.915  23.560  24.755  1.00  0.00     0.275 C 
ATOM      9  N   UNL A   1      33.976  24.845  25.452  1.00  0.00    -0.319 N 
ATOM     10  S   UNL A   1      33.094  23.823  23.181  1.00  0.00    -0.081 SA
ATOM     11  H   UNL A   1      34.693  25.446  25.044  1.00  0.00     0.348 HD
ATOM     12  H   UNL A   1      34.221  24.751  26.438  1.00  0.00     0.348 HD
ATOM     13  C   UNL A   1      32.316  25.428  23.726  1.00  0.00     0.079 C 
ATOM     14  C   UNL A   1      32.944  26.571  22.924  1.00  0.00     0.030 C 
ATOM     15  C   UNL A   1      30.816  25.341  23.426  1.00  0.00     0.030 C 
BRANCH   8  16
ATOM     16  C   UNL A   1      35.186  22.749  24.925  1.00  0.00     0.029 A 
ATOM     17  C   UNL A   1      35.393  21.358  24.785  1.00  0.00     0.016 A 
ATOM     18  C   UNL A   1      36.719  20.861  24.947  1.00  0.00     0.010 A 
ATOM     19  C   UNL A   1      37.815  21.687  25.195  1.00  0.00     0.001 A 
ATOM     20  C   UNL A   1      36.337  23.563  25.153  1.00  0.00     0.011 A 
ATOM     21  C   UNL A   1      37.623  23.048  25.292  1.00  0.00     0.001 A 
BRANCH  17  22
ATOM     22  C   UNL A   1      34.361  20.257  24.606  1.00  0.00     0.299 C 
BRANCH  22  23
ATOM     23  N   UNL A   1      33.816  19.623  25.807  1.00  0.00    -0.336 N 
ATOM     24  C   UNL A   1      32.744  18.696  25.416  1.00  0.00     0.332 C 
ATOM     25  C   UNL A   1      33.309  20.609  26.763  1.00  0.00     0.332 C 
ATOM     26  H   UNL A   1      34.568  19.113  26.270  1.00  0.00     0.347 HD
ENDBRANCH  22  23
ENDBRANCH  17  22
ENDBRANCH   8  16
ENDBRANCH   5   7
ENDBRANCH   4   5
ENDBRANCH   3   4
ENDBRANCH   2   3
ENDBRANCH   1   2
BRANCH   1  27
ATOM     27  C   UNL A   1      31.431  31.679  26.358  1.00  0.00     0.202 C 
BRANCH  27  28
ATOM     28  C   UNL A   1      31.687  33.077  26.934  1.00  0.00     0.261 C 
BRANCH  28  29
ATOM     29  O   UNL A   1      33.082  33.419  26.920  1.00  0.00    -0.460 OA
BRANCH  29  30
ATOM     30  C   UNL A   1      33.574  33.758  28.137  1.00  0.00     0.338 C 
ATOM     31  O   UNL A   1      33.013  34.439  28.985  1.00  0.00    -0.246 OA
BRANCH  30  32
ATOM     32  C   UNL A   1      34.826  33.024  28.403  1.00  0.00     0.060 A 
ATOM     33  C   UNL A   1      34.704  31.690  28.811  1.00  0.00     0.016 A 
ATOM     34  C   UNL A   1      36.086  33.619  28.300  1.00  0.00     0.016 A 
ATOM     35  C   UNL A   1      35.830  30.969  29.193  1.00  0.00     0.010 A 
ATOM     36  C   UNL A   1      37.219  32.893  28.684  1.00  0.00     0.010 A 
ATOM     37  C   UNL A   1      37.090  31.580  29.176  1.00  0.00    -0.014 A 
BRANCH  37  38
ATOM     38  C   UNL A   1      38.228  30.902  29.847  1.00  0.00     0.031 A 
ATOM     39  C   UNL A   1      38.501  31.214  31.294  1.00  0.00     0.074 A 
ATOM     40  C   UNL A   1      38.959  29.978  29.200  1.00  0.00     0.049 A 
ATOM     41  N   UNL A   1      39.436  30.752  32.082  1.00  0.00    -0.248 NA
ATOM     42  C   UNL A   1      37.596  32.181  31.936  1.00  0.00     0.031 C 
ATOM     43  C   UNL A   1      38.749  29.554  27.816  1.00  0.00     0.029 A 
ATOM     44  N   UNL A   1      40.024  29.223  29.623  1.00  0.00    -0.354 N 
ATOM     45  C   UNL A   1      39.234  31.371  33.312  1.00  0.00     0.074 A 
ATOM     46  C   UNL A   1      38.119  32.278  33.148  1.00  0.00     0.031 C 
ATOM     47  C   UNL A   1      39.656  28.613  27.505  1.00  0.00     0.029 A 
ATOM     48  C   UNL A   1      40.538  28.398  28.651  1.00  0.00     0.049 A 
ATOM     49  H   UNL A   1      40.386  29.270  30.537  1.00  0.00     0.167 HD
ATOM     50  C   UNL A   1      39.908  31.188  34.474  1.00  0.00     0.034 A 
ATOM     51  C   UNL A   1      41.612  27.582  28.678  1.00  0.00     0.034 A 
ATOM     52  C   UNL A   1      41.024  30.286  34.617  1.00  0.00     0.049 A 
ATOM     53  C   UNL A   1      42.412  27.470  29.955  1.00  0.00     0.074 A 
ATOM     54  C   UNL A   1      41.778  30.016  35.746  1.00  0.00     0.029 A 
ATOM     55  N   UNL A   1      41.559  29.513  33.592  1.00  0.00    -0.354 N 
ATOM     56  N   UNL A   1      42.208  28.059  31.113  1.00  0.00    -0.248 NA
ATOM     57  C   UNL A   1      43.579  26.580  29.931  1.00  0.00     0.031 C 
ATOM     58  C   UNL A   1      42.813  29.147  35.386  1.00  0.00     0.029 A 
ATOM     59  C   UNL A   1      42.653  28.800  34.054  1.00  0.00     0.049 A 
ATOM     60  H   UNL A   1      41.210  29.477  32.672  1.00  0.00     0.167 HD
ATOM     61  C   UNL A   1      43.203  27.580  31.963  1.00  0.00     0.074 A 
ATOM     62  C   UNL A   1      43.994  26.646  31.188  1.00  0.00     0.031 C 
ATOM     63  C   UNL A   1      43.439  27.877  33.266  1.00  0.00     0.034 A 
BRANCH  50  64
ATOM     64  C   UNL A   1      39.486  32.020  35.662  1.00  0.00     0.023 A 
ATOM     65  C   UNL A   1      38.714  31.484  36.708  1.00  0.00     0.031 A 
ATOM     66  C   UNL A   1      39.837  33.380  35.737  1.00  0.00     0.131 A 
ATOM     67  C   UNL A   1      38.257  32.317  37.742  1.00  0.00     0.055 A 
ATOM     68  C   UNL A   1      39.452  34.184  36.811  1.00  0.00     0.041 A 
ATOM     69  F   UNL A   1      40.551  33.955  34.756  1.00  0.00    -0.206 F 
ATOM     70  C   UNL A   1      38.645  33.657  37.815  1.00  0.00     0.022 A 
BRANCH  67  71
ATOM     71  S   UNL A   1      37.029  31.664  38.905  1.00  0.00     0.124 S 
ATOM     72  O   UNL A   1      35.945  32.633  38.764  1.00  0.00    -0.237 OA
ATOM     73  O   UNL A   1      36.769  30.331  38.375  1.00  0.00    -0.237 OA
ATOM     74  O   UNL A   1      37.722  31.700  40.192  1.00  0.00    -0.744 OA
ENDBRANCH  67  71
ENDBRANCH  50  64
BRANCH  51  75
ATOM     75  C   UNL A   1      42.026  26.832  27.455  1.00  0.00     0.023 A 
ATOM     76  C   UNL A   1      41.858  25.441  27.361  1.00  0.00     0.031 A 
ATOM     77  C   UNL A   1      42.655  27.492  26.384  1.00  0.00     0.131 A 
ATOM     78  C   UNL A   1      42.361  24.749  26.247  1.00  0.00     0.055 A 
ATOM     79  C   UNL A   1      43.099  26.808  25.250  1.00  0.00     0.041 A 
ATOM     80  F   UNL A   1      42.847  28.821  26.421  1.00  0.00    -0.206 F 
ATOM     81  C   UNL A   1      42.966  25.425  25.185  1.00  0.00     0.022 A 
BRANCH  78  82
ATOM     82  S   UNL A   1      42.307  22.936  26.254  1.00  0.00     0.124 S 
ATOM     83  O   UNL A   1      43.248  22.616  27.322  1.00  0.00    -0.237 OA
ATOM     84  O   UNL A   1      40.900  22.678  26.538  1.00  0.00    -0.237 OA
ATOM     85  O   UNL A   1      42.745  22.578  24.908  1.00  0.00    -0.744 OA
ENDBRANCH  78  82
ENDBRANCH  51  75
BRANCH  63  86
ATOM     86  C   UNL A   1      44.571  27.145  33.949  1.00  0.00     0.023 A 
ATOM     87  C   UNL A   1      44.373  25.924  34.616  1.00  0.00     0.031 A 
ATOM     88  C   UNL A   1      45.870  27.686  33.935  1.00  0.00     0.131 A 
ATOM     89  C   UNL A   1      45.442  25.312  35.288  1.00  0.00     0.055 A 
ATOM     90  C   UNL A   1      46.944  27.038  34.548  1.00  0.00     0.041 A 
ATOM     91  F   UNL A   1      46.119  28.852  33.317  1.00  0.00    -0.206 F 
ATOM     92  C   UNL A   1      46.730  25.852  35.241  1.00  0.00     0.022 A 
BRANCH  89  93
ATOM     93  S   UNL A   1      45.107  23.851  36.309  1.00  0.00     0.124 S 
ATOM     94  O   UNL A   1      44.681  24.454  37.569  1.00  0.00    -0.237 OA
ATOM     95  O   UNL A   1      44.069  23.168  35.546  1.00  0.00    -0.237 OA
ATOM     96  O   UNL A   1      46.396  23.163  36.357  1.00  0.00    -0.744 OA
ENDBRANCH  89  93
ENDBRANCH  63  86
ENDBRANCH  37  38
ENDBRANCH  30  32
ENDBRANCH  29  30
ENDBRANCH  28  29
ENDBRANCH  27  28
ENDBRANCH   1  27
TORSDOF 20
ENDMDL
MODEL 3
REMARK VINA RESULT:     -11.0      4.612     10.462
REMARK SMILES C[NH+](C)Cc1ccccc1[C@H]1[NH2+][C@@H](C(=O)OCCOCCOC(=O)c2ccc(-c3c4nc(c(-c5cc(S(=O)(=O)[O-])ccc5F)c5ccc([nH]5)c(-c5cc(S(=O)(=O)[O-])ccc5F)c5nc(c(-c6cc(S(=O)(=O)[O-])ccc6F)c6ccc3[nH]6)C=C5)C=C4)cc2)C(C)(C)S1
REMARK SMILES IDX 19 1 18 2 17 3 16 4 14 5 15 6 13 7 11 8 12 9 91 10 88 13
REMARK SMILES IDX 89 14 90 15 10 16 5 17 6 18 7 19 9 20 8 21 4 22 2 23 1 24
REMARK SMILES IDX 3 25 20 27 21 28 22 29 23 30 24 31 25 32 26 33 87 34 27 35
REMARK SMILES IDX 86 36 28 37 29 38 30 39 80 40 31 41 85 42 79 43 81 44 32 45
REMARK SMILES IDX 84 46 78 47 77 48 33 50 65 51 45 52 64 53 46 54 49 55 63 56
REMARK SMILES IDX 82 57 47 58 48 59 62 61 83 62 50 63 34 64 35 65 43 66 36 67
REMARK SMILES IDX 42 68 44 69 41 70 37 71 38 72 39 73 40 74 66 75 67 76 75 77
REMARK SMILES IDX 68 78 74 79 76 80 73 81 69 82 70 83 71 84 72 85 51 86 52 87
REMARK SMILES IDX 60 88 53 89 59 90 61 91 58 92 54 93 55 94 56 95 57 96
REMARK H PARENT 12 11 12 12 2 26 81 49 49 60
REMARK Flexibility Score: inf
ROOT
ATOM      1  O   UNL A   1      34.892  20.280  25.047  1.00  0.00    -0.374 OA
ENDROOT
BRANCH   1   2
ATOM      2  C   UNL A   1      33.706  20.775  25.673  1.00  0.00     0.202 C 
BRANCH   2   3
ATOM      3  C   UNL A   1      32.437  20.800  24.813  1.00  0.00     0.261 C 
BRANCH   3   4
ATOM      4  O   UNL A   1      32.043  22.142  24.455  1.00  0.00    -0.459 OA
BRANCH   4   5
ATOM      5  C   UNL A   1      31.646  22.929  25.489  1.00  0.00     0.366 C 
ATOM      6  O   UNL A   1      30.925  22.558  26.411  1.00  0.00    -0.245 OA
BRANCH   5   7
ATOM      7  C   UNL A   1      32.181  24.360  25.405  1.00  0.00     0.310 C 
ATOM      8  C   UNL A   1      31.761  26.579  24.885  1.00  0.00     0.275 C 
ATOM      9  N   UNL A   1      31.184  25.242  24.747  1.00  0.00    -0.319 N 
ATOM     10  S   UNL A   1      33.509  26.470  24.497  1.00  0.00    -0.081 SA
ATOM     11  H   UNL A   1      31.071  24.994  23.763  1.00  0.00     0.348 HD
ATOM     12  H   UNL A   1      30.254  25.166  25.161  1.00  0.00     0.348 HD
ATOM     13  C   UNL A   1      33.569  24.625  24.768  1.00  0.00     0.079 C 
ATOM     14  C   UNL A   1      33.828  23.943  23.421  1.00  0.00     0.030 C 
ATOM     15  C   UNL A   1      34.726  24.336  25.731  1.00  0.00     0.030 C 
BRANCH   8  16
ATOM     16  C   UNL A   1      30.840  27.664  24.357  1.00  0.00     0.029 A 
ATOM     17  C   UNL A   1      31.006  29.067  24.359  1.00  0.00     0.016 A 
ATOM     18  C   UNL A   1      29.999  29.860  23.737  1.00  0.00     0.010 A 
ATOM     19  C   UNL A   1      28.888  29.311  23.097  1.00  0.00     0.001 A 
ATOM     20  C   UNL A   1      29.703  27.140  23.668  1.00  0.00     0.011 A 
ATOM     21  C   UNL A   1      28.744  27.941  23.056  1.00  0.00     0.001 A 
BRANCH  17  22
ATOM     22  C   UNL A   1      32.070  29.897  25.059  1.00  0.00     0.299 C 
BRANCH  22  23
ATOM     23  N   UNL A   1      31.861  30.237  26.467  1.00  0.00    -0.336 N 
ATOM     24  C   UNL A   1      31.424  31.637  26.564  1.00  0.00     0.332 C 
ATOM     25  C   UNL A   1      33.070  30.028  27.265  1.00  0.00     0.332 C 
ATOM     26  H   UNL A   1      31.141  29.619  26.843  1.00  0.00     0.347 HD
ENDBRANCH  22  23
ENDBRANCH  17  22
ENDBRANCH   8  16
ENDBRANCH   5   7
ENDBRANCH   4   5
ENDBRANCH   3   4
ENDBRANCH   2   3
ENDBRANCH   1   2
BRANCH   1  27
ATOM     27  C   UNL A   1      36.079  21.039  25.254  1.00  0.00     0.202 C 
BRANCH  27  28
ATOM     28  C   UNL A   1      37.414  20.338  24.977  1.00  0.00     0.261 C 
BRANCH  28  29
ATOM     29  O   UNL A   1      38.525  21.247  25.034  1.00  0.00    -0.460 OA
BRANCH  29  30
ATOM     30  C   UNL A   1      39.400  20.981  26.034  1.00  0.00     0.338 C 
ATOM     31  O   UNL A   1      39.914  19.898  26.282  1.00  0.00    -0.246 OA
BRANCH  30  32
ATOM     32  C   UNL A   1      39.824  22.234  26.688  1.00  0.00     0.060 A 
ATOM     33  C   UNL A   1      39.182  23.410  26.281  1.00  0.00     0.016 A 
ATOM     34  C   UNL A   1      40.845  22.279  27.640  1.00  0.00     0.016 A 
ATOM     35  C   UNL A   1      39.606  24.642  26.765  1.00  0.00     0.010 A 
ATOM     36  C   UNL A   1      41.272  23.520  28.127  1.00  0.00     0.010 A 
ATOM     37  C   UNL A   1      40.685  24.709  27.656  1.00  0.00    -0.014 A 
BRANCH  37  38
ATOM     38  C   UNL A   1      41.304  26.029  27.939  1.00  0.00     0.031 A 
ATOM     39  C   UNL A   1      42.706  26.286  27.455  1.00  0.00     0.074 A 
ATOM     40  C   UNL A   1      40.607  27.000  28.555  1.00  0.00     0.049 A 
ATOM     41  N   UNL A   1      43.449  27.354  27.588  1.00  0.00    -0.248 NA
ATOM     42  C   UNL A   1      43.356  25.188  26.722  1.00  0.00     0.031 C 
ATOM     43  C   UNL A   1      39.225  26.883  29.016  1.00  0.00     0.029 A 
ATOM     44  N   UNL A   1      40.966  28.281  28.893  1.00  0.00    -0.354 N 
ATOM     45  C   UNL A   1      44.654  27.057  26.958  1.00  0.00     0.074 A 
ATOM     46  C   UNL A   1      44.558  25.692  26.488  1.00  0.00     0.031 C 
ATOM     47  C   UNL A   1      38.851  28.046  29.576  1.00  0.00     0.029 A 
ATOM     48  C   UNL A   1      39.979  28.975  29.553  1.00  0.00     0.049 A 
ATOM     49  H   UNL A   1      41.847  28.665  28.683  1.00  0.00     0.167 HD
ATOM     50  C   UNL A   1      45.735  27.855  26.776  1.00  0.00     0.034 A 
ATOM     51  C   UNL A   1      39.995  30.210  30.095  1.00  0.00     0.034 A 
ATOM     52  C   UNL A   1      45.817  29.211  27.260  1.00  0.00     0.049 A 
ATOM     53  C   UNL A   1      41.248  31.045  29.971  1.00  0.00     0.074 A 
ATOM     54  C   UNL A   1      46.859  30.113  27.128  1.00  0.00     0.029 A 
ATOM     55  N   UNL A   1      44.822  29.860  27.982  1.00  0.00    -0.354 N 
ATOM     56  N   UNL A   1      42.381  30.754  29.370  1.00  0.00    -0.248 NA
ATOM     57  C   UNL A   1      41.223  32.376  30.589  1.00  0.00     0.031 C 
ATOM     58  C   UNL A   1      46.528  31.272  27.838  1.00  0.00     0.029 A 
ATOM     59  C   UNL A   1      45.242  31.132  28.335  1.00  0.00     0.049 A 
ATOM     60  H   UNL A   1      43.946  29.472  28.209  1.00  0.00     0.167 HD
ATOM     61  C   UNL A   1      43.187  31.882  29.509  1.00  0.00     0.074 A 
ATOM     62  C   UNL A   1      42.405  32.860  30.238  1.00  0.00     0.031 C 
ATOM     63  C   UNL A   1      44.453  32.095  29.070  1.00  0.00     0.034 A 
BRANCH  50  64
ATOM     64  C   UNL A   1      46.930  27.258  26.070  1.00  0.00     0.023 A 
ATOM     65  C   UNL A   1      47.928  26.553  26.764  1.00  0.00     0.031 A 
ATOM     66  C   UNL A   1      47.088  27.422  24.681  1.00  0.00     0.131 A 
ATOM     67  C   UNL A   1      49.071  26.103  26.085  1.00  0.00     0.055 A 
ATOM     68  C   UNL A   1      48.185  26.898  23.997  1.00  0.00     0.041 A 
ATOM     69  F   UNL A   1      46.181  28.108  23.967  1.00  0.00    -0.206 F 
ATOM     70  C   UNL A   1      49.193  26.246  24.701  1.00  0.00     0.022 A 
BRANCH  67  71
ATOM     71  S   UNL A   1      50.463  25.464  27.057  1.00  0.00     0.124 S 
ATOM     72  O   UNL A   1      49.871  24.281  27.676  1.00  0.00    -0.237 OA
ATOM     73  O   UNL A   1      51.473  25.214  26.036  1.00  0.00    -0.237 OA
ATOM     74  O   UNL A   1      50.766  26.556  27.981  1.00  0.00    -0.744 OA
ENDBRANCH  67  71
ENDBRANCH  50  64
BRANCH  51  75
ATOM     75  C   UNL A   1      38.810  30.726  30.841  1.00  0.00     0.023 A 
ATOM     76  C   UNL A   1      37.821  31.490  30.200  1.00  0.00     0.031 A 
ATOM     77  C   UNL A   1      38.682  30.515  32.226  1.00  0.00     0.131 A 
ATOM     78  C   UNL A   1      36.779  32.058  30.951  1.00  0.00     0.055 A 
ATOM     79  C   UNL A   1      37.610  31.030  32.958  1.00  0.00     0.041 A 
ATOM     80  F   UNL A   1      39.600  29.796  32.893  1.00  0.00    -0.206 F 
ATOM     81  C   UNL A   1      36.659  31.820  32.322  1.00  0.00     0.022 A 
BRANCH  78  82
ATOM     82  S   UNL A   1      35.638  33.201  30.126  1.00  0.00     0.124 S 
ATOM     83  O   UNL A   1      34.632  32.285  29.599  1.00  0.00    -0.237 OA
ATOM     84  O   UNL A   1      35.214  34.054  31.231  1.00  0.00    -0.237 OA
ATOM     85  O   UNL A   1      36.475  33.853  29.123  1.00  0.00    -0.744 OA
ENDBRANCH  78  82
ENDBRANCH  51  75
BRANCH  63  86
ATOM     86  C   UNL A   1      45.054  33.459  29.324  1.00  0.00     0.023 A 
ATOM     87  C   UNL A   1      44.900  34.521  28.416  1.00  0.00     0.031 A 
ATOM     88  C   UNL A   1      45.797  33.694  30.496  1.00  0.00     0.131 A 
ATOM     89  C   UNL A   1      45.528  35.751  28.667  1.00  0.00     0.055 A 
ATOM     90  C   UNL A   1      46.362  34.940  30.771  1.00  0.00     0.041 A 
ATOM     91  F   UNL A   1      45.981  32.716  31.397  1.00  0.00    -0.206 F 
ATOM     92  C   UNL A   1      46.241  35.973  29.847  1.00  0.00     0.022 A 
BRANCH  89  93
ATOM     93  S   UNL A   1      45.483  37.028  27.380  1.00  0.00     0.124 S 
ATOM     94  O   UNL A   1      46.022  38.187  28.085  1.00  0.00    -0.237 OA
ATOM     95  O   UNL A   1      46.337  36.458  26.343  1.00  0.00    -0.237 OA
ATOM     96  O   UNL A   1      44.065  37.117  27.035  1.00  0.00    -0.744 OA
ENDBRANCH  89  93
ENDBRANCH  63  86
ENDBRANCH  37  38
ENDBRANCH  30  32
ENDBRANCH  29  30
ENDBRANCH  28  29
ENDBRANCH  27  28
ENDBRANCH   1  27
TORSDOF 20
ENDMDL
