MODEL 1
REMARK VINA RESULT:     -12.0      0.000      0.000
REMARK SMILES Cc1cc(C)c2c(c1)C=C(C(=O)OCCOCCOC(=O)c1ccc(-c3c4nc(c(-c5cc(S(=O)(=O)[O-])ccc5F)c5ccc([nH]5)c(-c5cc(S(=O)(=O)[O-])ccc5F)c5nc(c(-c6cc(S(=O)(=O)[O-])ccc6F)c6ccc3[nH]6)C=C5)C=C4)cc1)[C@@H](C(F)(F)F)O2
REMARK SMILES IDX 17 1 16 2 15 3 14 4 13 5 11 6 12 7 10 8 1 9 2 10 3 11 8 12
REMARK SMILES IDX 4 13 7 14 5 15 6 16 9 17 90 18 85 19 86 20 87 21 88 22 89 23
REMARK SMILES IDX 18 24 19 25 20 26 21 27 22 28 23 29 84 30 24 31 83 32 25 33
REMARK SMILES IDX 26 34 27 35 77 36 28 37 82 38 76 39 78 40 29 41 81 42 75 43
REMARK SMILES IDX 74 44 30 46 62 47 42 48 61 49 43 50 46 51 60 52 79 53 44 54
REMARK SMILES IDX 45 55 59 57 80 58 47 59 31 60 32 61 40 62 33 63 39 64 41 65
REMARK SMILES IDX 38 66 34 67 35 68 36 69 37 70 63 71 64 72 72 73 65 74 71 75
REMARK SMILES IDX 73 76 70 77 66 78 67 79 68 80 69 81 48 82 49 83 57 84 50 85
REMARK SMILES IDX 56 86 58 87 55 88 51 89 52 90 53 91 54 92
REMARK H PARENT 78 45 46 56
REMARK Flexibility Score: inf
ROOT
ATOM      1  C   UNL A   1      35.575  21.319  24.809  1.00  0.00     0.202 C 
ENDROOT
BRANCH   1   2
ATOM      2  O   UNL A   1      34.396  21.284  25.615  1.00  0.00    -0.374 OA
BRANCH   2   3
ATOM      3  C   UNL A   1      34.439  21.924  26.888  1.00  0.00     0.202 C 
BRANCH   3   4
ATOM      4  C   UNL A   1      33.098  22.342  27.501  1.00  0.00     0.261 C 
BRANCH   4   5
ATOM      5  O   UNL A   1      32.051  22.389  26.519  1.00  0.00    -0.460 OA
BRANCH   5   6
ATOM      6  C   UNL A   1      31.221  23.450  26.633  1.00  0.00     0.338 C 
ATOM      7  O   UNL A   1      30.172  23.499  27.258  1.00  0.00    -0.246 OA
BRANCH   6   8
ATOM      8  C   UNL A   1      31.826  24.632  25.990  1.00  0.00     0.087 C 
ATOM      9  C   UNL A   1      31.951  30.751  26.610  1.00  0.00     0.044 C 
ATOM     10  C   UNL A   1      32.257  29.426  25.982  1.00  0.00    -0.050 A 
ATOM     11  C   UNL A   1      32.834  29.362  24.707  1.00  0.00     0.010 A 
ATOM     12  C   UNL A   1      31.906  28.237  26.626  1.00  0.00     0.015 A 
ATOM     13  C   UNL A   1      33.091  28.125  24.090  1.00  0.00    -0.008 A 
ATOM     14  C   UNL A   1      32.140  27.000  26.014  1.00  0.00     0.018 A 
ATOM     15  C   UNL A   1      33.687  28.085  22.711  1.00  0.00     0.048 C 
ATOM     16  C   UNL A   1      32.755  26.941  24.762  1.00  0.00     0.130 A 
ATOM     17  C   UNL A   1      31.674  25.784  26.652  1.00  0.00     0.027 C 
ATOM     18  O   UNL A   1      33.059  25.761  24.138  1.00  0.00    -0.475 OA
ATOM     19  C   UNL A   1      32.534  24.511  24.669  1.00  0.00     0.316 C 
BRANCH  19  20
ATOM     20  C   UNL A   1      31.659  23.865  23.586  1.00  0.00     0.430 C 
ATOM     21  F   UNL A   1      31.794  22.517  23.586  1.00  0.00    -0.167 F 
ATOM     22  F   UNL A   1      30.345  24.125  23.775  1.00  0.00    -0.167 F 
ATOM     23  F   UNL A   1      31.985  24.304  22.348  1.00  0.00    -0.167 F 
ENDBRANCH  19  20
ENDBRANCH   6   8
ENDBRANCH   5   6
ENDBRANCH   4   5
ENDBRANCH   3   4
ENDBRANCH   2   3
ENDBRANCH   1   2
BRANCH   1  24
ATOM     24  C   UNL A   1      36.822  20.598  25.337  1.00  0.00     0.261 C 
BRANCH  24  25
ATOM     25  O   UNL A   1      38.031  21.332  25.070  1.00  0.00    -0.460 OA
BRANCH  25  26
ATOM     26  C   UNL A   1      39.055  21.064  25.916  1.00  0.00     0.338 C 
ATOM     27  O   UNL A   1      39.618  19.989  26.072  1.00  0.00    -0.246 OA
BRANCH  26  28
ATOM     28  C   UNL A   1      39.556  22.316  26.508  1.00  0.00     0.060 A 
ATOM     29  C   UNL A   1      38.978  23.517  26.077  1.00  0.00     0.016 A 
ATOM     30  C   UNL A   1      40.629  22.321  27.400  1.00  0.00     0.016 A 
ATOM     31  C   UNL A   1      39.501  24.734  26.509  1.00  0.00     0.010 A 
ATOM     32  C   UNL A   1      41.160  23.545  27.822  1.00  0.00     0.010 A 
ATOM     33  C   UNL A   1      40.620  24.755  27.351  1.00  0.00    -0.014 A 
BRANCH  33  34
ATOM     34  C   UNL A   1      41.314  26.043  27.591  1.00  0.00     0.031 A 
ATOM     35  C   UNL A   1      40.612  27.104  28.396  1.00  0.00     0.074 A 
ATOM     36  C   UNL A   1      42.575  26.237  27.165  1.00  0.00     0.049 A 
ATOM     37  N   UNL A   1      41.026  28.296  28.735  1.00  0.00    -0.248 NA
ATOM     38  C   UNL A   1      39.264  26.772  28.888  1.00  0.00     0.031 C 
ATOM     39  C   UNL A   1      43.378  25.256  26.435  1.00  0.00     0.029 A 
ATOM     40  N   UNL A   1      43.407  27.320  27.299  1.00  0.00    -0.354 N 
ATOM     41  C   UNL A   1      39.999  28.853  29.488  1.00  0.00     0.074 A 
ATOM     42  C   UNL A   1      38.924  27.885  29.520  1.00  0.00     0.031 C 
ATOM     43  C   UNL A   1      44.593  25.780  26.195  1.00  0.00     0.029 A 
ATOM     44  C   UNL A   1      44.642  27.143  26.722  1.00  0.00     0.049 A 
ATOM     45  H   UNL A   1      43.144  28.147  27.765  1.00  0.00     0.167 HD
ATOM     46  C   UNL A   1      39.963  30.055  30.109  1.00  0.00     0.034 A 
ATOM     47  C   UNL A   1      45.688  27.990  26.620  1.00  0.00     0.034 A 
ATOM     48  C   UNL A   1      41.036  31.014  30.070  1.00  0.00     0.049 A 
ATOM     49  C   UNL A   1      45.576  29.371  27.217  1.00  0.00     0.074 A 
ATOM     50  C   UNL A   1      41.100  32.257  30.672  1.00  0.00     0.029 A 
ATOM     51  N   UNL A   1      42.230  30.839  29.385  1.00  0.00    -0.354 N 
ATOM     52  N   UNL A   1      44.589  29.892  27.908  1.00  0.00    -0.248 NA
ATOM     53  C   UNL A   1      46.712  30.280  27.011  1.00  0.00     0.031 C 
ATOM     54  C   UNL A   1      42.305  32.861  30.299  1.00  0.00     0.029 A 
ATOM     55  C   UNL A   1      43.021  31.967  29.518  1.00  0.00     0.049 A 
ATOM     56  H   UNL A   1      42.479  30.030  28.881  1.00  0.00     0.167 HD
ATOM     57  C   UNL A   1      44.990  31.186  28.229  1.00  0.00     0.074 A 
ATOM     58  C   UNL A   1      46.314  31.364  27.666  1.00  0.00     0.031 C 
ATOM     59  C   UNL A   1      44.327  32.138  28.930  1.00  0.00     0.034 A 
BRANCH  46  60
ATOM     60  C   UNL A   1      38.708  30.414  30.860  1.00  0.00     0.023 A 
ATOM     61  C   UNL A   1      37.659  31.112  30.240  1.00  0.00     0.031 A 
ATOM     62  C   UNL A   1      38.555  30.040  32.206  1.00  0.00     0.131 A 
ATOM     63  C   UNL A   1      36.515  31.450  30.978  1.00  0.00     0.055 A 
ATOM     64  C   UNL A   1      37.390  30.327  32.919  1.00  0.00     0.041 A 
ATOM     65  F   UNL A   1      39.538  29.390  32.849  1.00  0.00    -0.206 F 
ATOM     66  C   UNL A   1      36.363  31.042  32.306  1.00  0.00     0.022 A 
BRANCH  63  67
ATOM     67  S   UNL A   1      35.256  32.499  30.202  1.00  0.00     0.124 S 
ATOM     68  O   UNL A   1      34.336  32.725  31.314  1.00  0.00    -0.237 OA
ATOM     69  O   UNL A   1      36.031  33.657  29.769  1.00  0.00    -0.237 OA
ATOM     70  O   UNL A   1      34.731  31.664  29.124  1.00  0.00    -0.744 OA
ENDBRANCH  63  67
ENDBRANCH  46  60
BRANCH  47  71
ATOM     71  C   UNL A   1      46.919  27.575  25.893  1.00  0.00     0.023 A 
ATOM     72  C   UNL A   1      47.074  27.831  24.523  1.00  0.00     0.031 A 
ATOM     73  C   UNL A   1      47.955  26.896  26.562  1.00  0.00     0.131 A 
ATOM     74  C   UNL A   1      48.230  27.393  23.856  1.00  0.00     0.055 A 
ATOM     75  C   UNL A   1      49.118  26.496  25.903  1.00  0.00     0.041 A 
ATOM     76  F   UNL A   1      47.854  26.626  27.872  1.00  0.00    -0.206 F 
ATOM     77  C   UNL A   1      49.258  26.739  24.541  1.00  0.00     0.022 A 
BRANCH  74  78
ATOM     78  S   UNL A   1      48.359  27.660  22.067  1.00  0.00     0.124 S 
ATOM     79  O   UNL A   1      47.060  28.249  21.762  1.00  0.00    -0.237 OA
ATOM     80  O   UNL A   1      49.508  28.554  21.973  1.00  0.00    -0.237 OA
ATOM     81  O   UNL A   1      48.575  26.315  21.538  1.00  0.00    -0.744 OA
ENDBRANCH  74  78
ENDBRANCH  47  71
BRANCH  59  82
ATOM     82  C   UNL A   1      45.013  33.461  29.135  1.00  0.00     0.023 A 
ATOM     83  C   UNL A   1      44.749  34.555  28.294  1.00  0.00     0.031 A 
ATOM     84  C   UNL A   1      45.883  33.651  30.223  1.00  0.00     0.131 A 
ATOM     85  C   UNL A   1      45.363  35.790  28.545  1.00  0.00     0.055 A 
ATOM     86  C   UNL A   1      46.457  34.892  30.493  1.00  0.00     0.041 A 
ATOM     87  F   UNL A   1      46.161  32.637  31.058  1.00  0.00    -0.206 F 
ATOM     88  C   UNL A   1      46.201  35.970  29.649  1.00  0.00     0.022 A 
BRANCH  85  89
ATOM     89  S   UNL A   1      45.064  37.162  27.399  1.00  0.00     0.124 S 
ATOM     90  O   UNL A   1      45.060  38.311  28.299  1.00  0.00    -0.237 OA
ATOM     91  O   UNL A   1      46.200  37.071  26.489  1.00  0.00    -0.237 OA
ATOM     92  O   UNL A   1      43.769  36.837  26.804  1.00  0.00    -0.744 OA
ENDBRANCH  85  89
ENDBRANCH  59  82
ENDBRANCH  33  34
ENDBRANCH  26  28
ENDBRANCH  25  26
ENDBRANCH  24  25
ENDBRANCH   1  24
TORSDOF 18
ENDMDL
MODEL 2
REMARK VINA RESULT:     -11.7      2.288      8.295
REMARK SMILES Cc1cc(C)c2c(c1)C=C(C(=O)OCCOCCOC(=O)c1ccc(-c3c4nc(c(-c5cc(S(=O)(=O)[O-])ccc5F)c5ccc([nH]5)c(-c5cc(S(=O)(=O)[O-])ccc5F)c5nc(c(-c6cc(S(=O)(=O)[O-])ccc6F)c6ccc3[nH]6)C=C5)C=C4)cc1)[C@@H](C(F)(F)F)O2
REMARK SMILES IDX 17 1 16 2 15 3 14 4 13 5 11 6 12 7 10 8 1 9 2 10 3 11 8 12
REMARK SMILES IDX 4 13 7 14 5 15 6 16 9 17 90 18 85 19 86 20 87 21 88 22 89 23
REMARK SMILES IDX 18 24 19 25 20 26 21 27 22 28 23 29 84 30 24 31 83 32 25 33
REMARK SMILES IDX 26 34 27 35 77 36 28 37 82 38 76 39 78 40 29 41 81 42 75 43
REMARK SMILES IDX 74 44 30 46 62 47 42 48 61 49 43 50 46 51 60 52 79 53 44 54
REMARK SMILES IDX 45 55 59 57 80 58 47 59 31 60 32 61 40 62 33 63 39 64 41 65
REMARK SMILES IDX 38 66 34 67 35 68 36 69 37 70 63 71 64 72 72 73 65 74 71 75
REMARK SMILES IDX 73 76 70 77 66 78 67 79 68 80 69 81 48 82 49 83 57 84 50 85
REMARK SMILES IDX 56 86 58 87 55 88 51 89 52 90 53 91 54 92
REMARK H PARENT 78 45 46 56
REMARK Flexibility Score: inf
ROOT
ATOM      1  C   UNL A   1      36.406  20.552  25.064  1.00  0.00     0.202 C 
ENDROOT
BRANCH   1   2
ATOM      2  O   UNL A   1      36.169  21.628  25.974  1.00  0.00    -0.374 OA
BRANCH   2   3
ATOM      3  C   UNL A   1      36.096  22.949  25.439  1.00  0.00     0.202 C 
BRANCH   3   4
ATOM      4  C   UNL A   1      35.053  23.888  26.053  1.00  0.00     0.261 C 
BRANCH   4   5
ATOM      5  O   UNL A   1      33.893  23.176  26.510  1.00  0.00    -0.460 OA
BRANCH   5   6
ATOM      6  C   UNL A   1      32.799  23.322  25.729  1.00  0.00     0.338 C 
ATOM      7  O   UNL A   1      32.134  24.336  25.575  1.00  0.00    -0.246 OA
BRANCH   6   8
ATOM      8  C   UNL A   1      32.572  22.090  24.950  1.00  0.00     0.087 C 
ATOM      9  C   UNL A   1      33.290  16.004  25.500  1.00  0.00     0.044 C 
ATOM     10  C   UNL A   1      32.939  17.292  24.819  1.00  0.00    -0.050 A 
ATOM     11  C   UNL A   1      32.695  17.321  23.440  1.00  0.00     0.010 A 
ATOM     12  C   UNL A   1      32.922  18.492  25.535  1.00  0.00     0.015 A 
ATOM     13  C   UNL A   1      32.403  18.528  22.781  1.00  0.00    -0.008 A 
ATOM     14  C   UNL A   1      32.650  19.703  24.887  1.00  0.00     0.018 A 
ATOM     15  C   UNL A   1      32.170  18.535  21.297  1.00  0.00     0.048 C 
ATOM     16  C   UNL A   1      32.364  19.720  23.520  1.00  0.00     0.130 A 
ATOM     17  C   UNL A   1      32.739  20.947  25.626  1.00  0.00     0.027 C 
ATOM     18  O   UNL A   1      32.038  20.863  22.844  1.00  0.00    -0.475 OA
ATOM     19  C   UNL A   1      32.205  22.156  23.494  1.00  0.00     0.316 C 
BRANCH  19  20
ATOM     20  C   UNL A   1      33.206  22.978  22.668  1.00  0.00     0.430 C 
ATOM     21  F   UNL A   1      34.482  22.699  23.025  1.00  0.00    -0.167 F 
ATOM     22  F   UNL A   1      33.104  22.716  21.344  1.00  0.00    -0.167 F 
ATOM     23  F   UNL A   1      33.021  24.308  22.832  1.00  0.00    -0.167 F 
ENDBRANCH  19  20
ENDBRANCH   6   8
ENDBRANCH   5   6
ENDBRANCH   4   5
ENDBRANCH   3   4
ENDBRANCH   2   3
ENDBRANCH   1   2
BRANCH   1  24
ATOM     24  C   UNL A   1      37.791  19.894  25.081  1.00  0.00     0.261 C 
BRANCH  24  25
ATOM     25  O   UNL A   1      38.854  20.862  25.153  1.00  0.00    -0.460 OA
BRANCH  25  26
ATOM     26  C   UNL A   1      39.748  20.649  26.149  1.00  0.00     0.338 C 
ATOM     27  O   UNL A   1      40.330  19.604  26.404  1.00  0.00    -0.246 OA
BRANCH  26  28
ATOM     28  C   UNL A   1      40.094  21.928  26.793  1.00  0.00     0.060 A 
ATOM     29  C   UNL A   1      39.459  23.085  26.326  1.00  0.00     0.016 A 
ATOM     30  C   UNL A   1      41.085  22.004  27.774  1.00  0.00     0.016 A 
ATOM     31  C   UNL A   1      39.842  24.333  26.813  1.00  0.00     0.010 A 
ATOM     32  C   UNL A   1      41.477  23.260  28.250  1.00  0.00     0.010 A 
ATOM     33  C   UNL A   1      40.881  24.430  27.747  1.00  0.00    -0.014 A 
BRANCH  33  34
ATOM     34  C   UNL A   1      41.446  25.765  28.058  1.00  0.00     0.031 A 
ATOM     35  C   UNL A   1      42.846  26.081  27.605  1.00  0.00     0.074 A 
ATOM     36  C   UNL A   1      40.700  26.705  28.666  1.00  0.00     0.049 A 
ATOM     37  N   UNL A   1      43.538  27.179  27.759  1.00  0.00    -0.248 NA
ATOM     38  C   UNL A   1      43.558  25.017  26.877  1.00  0.00     0.031 C 
ATOM     39  C   UNL A   1      39.311  26.535  29.089  1.00  0.00     0.029 A 
ATOM     40  N   UNL A   1      41.003  27.997  29.018  1.00  0.00    -0.354 N 
ATOM     41  C   UNL A   1      44.761  26.944  27.139  1.00  0.00     0.074 A 
ATOM     42  C   UNL A   1      44.732  25.585  26.644  1.00  0.00     0.031 C 
ATOM     43  C   UNL A   1      38.877  27.685  29.635  1.00  0.00     0.029 A 
ATOM     44  C   UNL A   1      39.967  28.659  29.633  1.00  0.00     0.049 A 
ATOM     45  H   UNL A   1      41.881  28.409  28.848  1.00  0.00     0.167 HD
ATOM     46  C   UNL A   1      45.804  27.792  26.982  1.00  0.00     0.034 A 
ATOM     47  C   UNL A   1      39.911  29.906  30.146  1.00  0.00     0.034 A 
ATOM     48  C   UNL A   1      45.826  29.143  27.479  1.00  0.00     0.049 A 
ATOM     49  C   UNL A   1      41.131  30.790  30.066  1.00  0.00     0.074 A 
ATOM     50  C   UNL A   1      46.834  30.084  27.367  1.00  0.00     0.029 A 
ATOM     51  N   UNL A   1      44.796  29.742  28.189  1.00  0.00    -0.354 N 
ATOM     52  N   UNL A   1      42.288  30.546  29.496  1.00  0.00    -0.248 NA
ATOM     53  C   UNL A   1      41.042  32.108  30.708  1.00  0.00     0.031 C 
ATOM     54  C   UNL A   1      46.439  31.230  28.063  1.00  0.00     0.029 A 
ATOM     55  C   UNL A   1      45.159  31.027  28.555  1.00  0.00     0.049 A 
ATOM     56  H   UNL A   1      43.933  29.317  28.400  1.00  0.00     0.167 HD
ATOM     57  C   UNL A   1      43.060  31.686  29.700  1.00  0.00     0.074 A 
ATOM     58  C   UNL A   1      42.235  32.623  30.436  1.00  0.00     0.031 C 
ATOM     59  C   UNL A   1      44.334  31.938  29.310  1.00  0.00     0.034 A 
BRANCH  46  60
ATOM     60  C   UNL A   1      47.024  27.271  26.268  1.00  0.00     0.023 A 
ATOM     61  C   UNL A   1      48.016  26.545  26.948  1.00  0.00     0.031 A 
ATOM     62  C   UNL A   1      47.188  27.491  24.890  1.00  0.00     0.131 A 
ATOM     63  C   UNL A   1      49.149  26.096  26.255  1.00  0.00     0.055 A 
ATOM     64  C   UNL A   1      48.288  26.991  24.193  1.00  0.00     0.041 A 
ATOM     65  F   UNL A   1      46.278  28.197  24.199  1.00  0.00    -0.206 F 
ATOM     66  C   UNL A   1      49.281  26.293  24.878  1.00  0.00     0.022 A 
BRANCH  63  67
ATOM     67  S   UNL A   1      50.490  25.315  27.192  1.00  0.00     0.124 S 
ATOM     68  O   UNL A   1      49.794  24.200  27.828  1.00  0.00    -0.237 OA
ATOM     69  O   UNL A   1      51.443  24.960  26.146  1.00  0.00    -0.237 OA
ATOM     70  O   UNL A   1      50.931  26.370  28.103  1.00  0.00    -0.744 OA
ENDBRANCH  63  67
ENDBRANCH  46  60
BRANCH  47  71
ATOM     71  C   UNL A   1      38.670  30.384  30.815  1.00  0.00     0.023 A 
ATOM     72  C   UNL A   1      37.664  31.044  30.091  1.00  0.00     0.031 A 
ATOM     73  C   UNL A   1      38.481  30.203  32.197  1.00  0.00     0.131 A 
ATOM     74  C   UNL A   1      36.523  31.519  30.757  1.00  0.00     0.055 A 
ATOM     75  C   UNL A   1      37.327  30.643  32.847  1.00  0.00     0.041 A 
ATOM     76  F   UNL A   1      39.414  29.580  32.933  1.00  0.00    -0.206 F 
ATOM     77  C   UNL A   1      36.342  31.311  32.127  1.00  0.00     0.022 A 
BRANCH  74  78
ATOM     78  S   UNL A   1      35.284  32.446  29.810  1.00  0.00     0.124 S 
ATOM     79  O   UNL A   1      34.315  32.786  30.844  1.00  0.00    -0.237 OA
ATOM     80  O   UNL A   1      36.071  33.552  29.277  1.00  0.00    -0.237 OA
ATOM     81  O   UNL A   1      34.823  31.478  28.816  1.00  0.00    -0.744 OA
ENDBRANCH  74  78
ENDBRANCH  47  71
BRANCH  59  82
ATOM     82  C   UNL A   1      44.923  33.276  29.665  1.00  0.00     0.023 A 
ATOM     83  C   UNL A   1      44.755  34.391  28.827  1.00  0.00     0.031 A 
ATOM     84  C   UNL A   1      45.598  33.454  30.885  1.00  0.00     0.131 A 
ATOM     85  C   UNL A   1      45.271  35.636  29.214  1.00  0.00     0.055 A 
ATOM     86  C   UNL A   1      46.071  34.704  31.285  1.00  0.00     0.041 A 
ATOM     87  F   UNL A   1      45.778  32.420  31.723  1.00  0.00    -0.206 F 
ATOM     88  C   UNL A   1      45.911  35.803  30.445  1.00  0.00     0.022 A 
BRANCH  85  89
ATOM     89  S   UNL A   1      45.106  37.040  28.078  1.00  0.00     0.124 S 
ATOM     90  O   UNL A   1      44.805  38.135  28.994  1.00  0.00    -0.237 OA
ATOM     91  O   UNL A   1      46.417  37.087  27.439  1.00  0.00    -0.237 OA
ATOM     92  O   UNL A   1      44.006  36.645  27.201  1.00  0.00    -0.744 OA
ENDBRANCH  85  89
ENDBRANCH  59  82
ENDBRANCH  33  34
ENDBRANCH  26  28
ENDBRANCH  25  26
ENDBRANCH  24  25
ENDBRANCH   1  24
TORSDOF 18
ENDMDL
MODEL 3
REMARK VINA RESULT:     -11.7      1.309      1.815
REMARK SMILES Cc1cc(C)c2c(c1)C=C(C(=O)OCCOCCOC(=O)c1ccc(-c3c4nc(c(-c5cc(S(=O)(=O)[O-])ccc5F)c5ccc([nH]5)c(-c5cc(S(=O)(=O)[O-])ccc5F)c5nc(c(-c6cc(S(=O)(=O)[O-])ccc6F)c6ccc3[nH]6)C=C5)C=C4)cc1)[C@@H](C(F)(F)F)O2
REMARK SMILES IDX 17 1 16 2 15 3 14 4 13 5 11 6 12 7 10 8 1 9 2 10 3 11 8 12
REMARK SMILES IDX 4 13 7 14 5 15 6 16 9 17 90 18 85 19 86 20 87 21 88 22 89 23
REMARK SMILES IDX 18 24 19 25 20 26 21 27 22 28 23 29 84 30 24 31 83 32 25 33
REMARK SMILES IDX 26 34 27 35 77 36 28 37 82 38 76 39 78 40 29 41 81 42 75 43
REMARK SMILES IDX 74 44 30 46 62 47 42 48 61 49 43 50 46 51 60 52 79 53 44 54
REMARK SMILES IDX 45 55 59 57 80 58 47 59 31 60 32 61 40 62 33 63 39 64 41 65
REMARK SMILES IDX 38 66 34 67 35 68 36 69 37 70 63 71 64 72 72 73 65 74 71 75
REMARK SMILES IDX 73 76 70 77 66 78 67 79 68 80 69 81 48 82 49 83 57 84 50 85
REMARK SMILES IDX 56 86 58 87 55 88 51 89 52 90 53 91 54 92
REMARK H PARENT 78 45 46 56
REMARK Flexibility Score: inf
ROOT
ATOM      1  C   UNL A   1      35.338  20.655  24.825  1.00  0.00     0.202 C 
ENDROOT
BRANCH   1   2
ATOM      2  O   UNL A   1      34.419  19.567  24.937  1.00  0.00    -0.374 OA
BRANCH   2   3
ATOM      3  C   UNL A   1      33.032  19.876  25.064  1.00  0.00     0.202 C 
BRANCH   3   4
ATOM      4  C   UNL A   1      32.357  20.542  23.861  1.00  0.00     0.261 C 
BRANCH   4   5
ATOM      5  O   UNL A   1      31.885  21.862  24.173  1.00  0.00    -0.460 OA
BRANCH   5   6
ATOM      6  C   UNL A   1      32.327  22.829  23.337  1.00  0.00     0.338 C 
ATOM      7  O   UNL A   1      32.819  22.676  22.230  1.00  0.00    -0.246 OA
BRANCH   6   8
ATOM      8  C   UNL A   1      32.010  24.157  23.897  1.00  0.00     0.087 C 
ATOM      9  C   UNL A   1      29.962  29.653  22.040  1.00  0.00     0.044 C 
ATOM     10  C   UNL A   1      30.488  28.635  23.006  1.00  0.00    -0.050 A 
ATOM     11  C   UNL A   1      30.918  29.024  24.281  1.00  0.00     0.010 A 
ATOM     12  C   UNL A   1      30.624  27.298  22.624  1.00  0.00     0.015 A 
ATOM     13  C   UNL A   1      31.449  28.087  25.183  1.00  0.00    -0.008 A 
ATOM     14  C   UNL A   1      31.167  26.358  23.508  1.00  0.00     0.018 A 
ATOM     15  C   UNL A   1      31.927  28.535  26.536  1.00  0.00     0.048 C 
ATOM     16  C   UNL A   1      31.554  26.744  24.793  1.00  0.00     0.130 A 
ATOM     17  C   UNL A   1      31.396  24.999  23.058  1.00  0.00     0.027 C 
ATOM     18  O   UNL A   1      32.041  25.861  25.719  1.00  0.00    -0.475 OA
ATOM     19  C   UNL A   1      32.391  24.508  25.308  1.00  0.00     0.316 C 
BRANCH  19  20
ATOM     20  C   UNL A   1      33.886  24.298  25.588  1.00  0.00     0.430 C 
ATOM     21  F   UNL A   1      34.556  23.975  24.456  1.00  0.00    -0.167 F 
ATOM     22  F   UNL A   1      34.469  25.414  26.082  1.00  0.00    -0.167 F 
ATOM     23  F   UNL A   1      34.095  23.302  26.480  1.00  0.00    -0.167 F 
ENDBRANCH  19  20
ENDBRANCH   6   8
ENDBRANCH   5   6
ENDBRANCH   4   5
ENDBRANCH   3   4
ENDBRANCH   2   3
ENDBRANCH   1   2
BRANCH   1  24
ATOM     24  C   UNL A   1      36.828  20.354  25.027  1.00  0.00     0.261 C 
BRANCH  24  25
ATOM     25  O   UNL A   1      37.567  21.515  25.449  1.00  0.00    -0.460 OA
BRANCH  25  26
ATOM     26  C   UNL A   1      38.787  21.250  25.978  1.00  0.00     0.338 C 
ATOM     27  O   UNL A   1      39.425  20.212  25.869  1.00  0.00    -0.246 OA
BRANCH  26  28
ATOM     28  C   UNL A   1      39.357  22.476  26.562  1.00  0.00     0.060 A 
ATOM     29  C   UNL A   1      38.792  23.701  26.184  1.00  0.00     0.016 A 
ATOM     30  C   UNL A   1      40.478  22.433  27.392  1.00  0.00     0.016 A 
ATOM     31  C   UNL A   1      39.374  24.894  26.607  1.00  0.00     0.010 A 
ATOM     32  C   UNL A   1      41.068  23.633  27.804  1.00  0.00     0.010 A 
ATOM     33  C   UNL A   1      40.539  24.867  27.385  1.00  0.00    -0.014 A 
BRANCH  33  34
ATOM     34  C   UNL A   1      41.284  26.129  27.607  1.00  0.00     0.031 A 
ATOM     35  C   UNL A   1      40.648  27.206  28.446  1.00  0.00     0.074 A 
ATOM     36  C   UNL A   1      42.533  26.286  27.133  1.00  0.00     0.049 A 
ATOM     37  N   UNL A   1      41.115  28.381  28.777  1.00  0.00    -0.248 NA
ATOM     38  C   UNL A   1      39.311  26.913  28.988  1.00  0.00     0.031 C 
ATOM     39  C   UNL A   1      43.275  25.286  26.366  1.00  0.00     0.029 A 
ATOM     40  N   UNL A   1      43.405  27.340  27.243  1.00  0.00    -0.354 N 
ATOM     41  C   UNL A   1      40.136  28.965  29.574  1.00  0.00     0.074 A 
ATOM     42  C   UNL A   1      39.032  28.032  29.641  1.00  0.00     0.031 C 
ATOM     43  C   UNL A   1      44.496  25.772  26.083  1.00  0.00     0.029 A 
ATOM     44  C   UNL A   1      44.610  27.128  26.617  1.00  0.00     0.049 A 
ATOM     45  H   UNL A   1      43.187  28.171  27.724  1.00  0.00     0.167 HD
ATOM     46  C   UNL A   1      40.163  30.161  30.205  1.00  0.00     0.034 A 
ATOM     47  C   UNL A   1      45.678  27.941  26.480  1.00  0.00     0.034 A 
ATOM     48  C   UNL A   1      41.265  31.085  30.131  1.00  0.00     0.049 A 
ATOM     49  C   UNL A   1      45.635  29.320  27.091  1.00  0.00     0.074 A 
ATOM     50  C   UNL A   1      41.392  32.321  30.738  1.00  0.00     0.029 A 
ATOM     51  N   UNL A   1      42.425  30.877  29.399  1.00  0.00    -0.354 N 
ATOM     52  N   UNL A   1      44.692  29.867  27.824  1.00  0.00    -0.248 NA
ATOM     53  C   UNL A   1      46.791  30.194  26.847  1.00  0.00     0.031 C 
ATOM     54  C   UNL A   1      42.602  32.888  30.324  1.00  0.00     0.029 A 
ATOM     55  C   UNL A   1      43.257  31.979  29.508  1.00  0.00     0.049 A 
ATOM     56  H   UNL A   1      42.627  30.066  28.879  1.00  0.00     0.167 HD
ATOM     57  C   UNL A   1      45.148  31.144  28.138  1.00  0.00     0.074 A 
ATOM     58  C   UNL A   1      46.454  31.284  27.526  1.00  0.00     0.031 C 
ATOM     59  C   UNL A   1      44.545  32.111  28.872  1.00  0.00     0.034 A 
BRANCH  46  60
ATOM     60  C   UNL A   1      38.951  30.555  31.006  1.00  0.00     0.023 A 
ATOM     61  C   UNL A   1      37.858  31.205  30.409  1.00  0.00     0.031 A 
ATOM     62  C   UNL A   1      38.882  30.262  32.380  1.00  0.00     0.131 A 
ATOM     63  C   UNL A   1      36.756  31.577  31.193  1.00  0.00     0.055 A 
ATOM     64  C   UNL A   1      37.758  30.582  33.142  1.00  0.00     0.041 A 
ATOM     65  F   UNL A   1      39.909  29.661  33.000  1.00  0.00    -0.206 F 
ATOM     66  C   UNL A   1      36.688  31.249  32.550  1.00  0.00     0.022 A 
BRANCH  63  67
ATOM     67  S   UNL A   1      35.441  32.566  30.433  1.00  0.00     0.124 S 
ATOM     68  O   UNL A   1      36.098  33.862  30.283  1.00  0.00    -0.237 OA
ATOM     69  O   UNL A   1      35.172  31.840  29.197  1.00  0.00    -0.237 OA
ATOM     70  O   UNL A   1      34.367  32.528  31.423  1.00  0.00    -0.744 OA
ENDBRANCH  63  67
ENDBRANCH  46  60
BRANCH  47  71
ATOM     71  C   UNL A   1      46.866  27.493  25.703  1.00  0.00     0.023 A 
ATOM     72  C   UNL A   1      47.018  27.832  24.350  1.00  0.00     0.031 A 
ATOM     73  C   UNL A   1      47.861  26.699  26.304  1.00  0.00     0.131 A 
ATOM     74  C   UNL A   1      48.130  27.361  23.633  1.00  0.00     0.055 A 
ATOM     75  C   UNL A   1      48.983  26.266  25.597  1.00  0.00     0.041 A 
ATOM     76  F   UNL A   1      47.761  26.347  27.594  1.00  0.00    -0.206 F 
ATOM     77  C   UNL A   1      49.120  26.591  24.251  1.00  0.00     0.022 A 
BRANCH  74  78
ATOM     78  S   UNL A   1      48.251  27.742  21.864  1.00  0.00     0.124 S 
ATOM     79  O   UNL A   1      46.961  28.371  21.608  1.00  0.00    -0.237 OA
ATOM     80  O   UNL A   1      49.415  28.619  21.819  1.00  0.00    -0.237 OA
ATOM     81  O   UNL A   1      48.440  26.430  21.247  1.00  0.00    -0.744 OA
ENDBRANCH  74  78
ENDBRANCH  47  71
BRANCH  59  82
ATOM     82  C   UNL A   1      45.280  33.410  29.059  1.00  0.00     0.023 A 
ATOM     83  C   UNL A   1      45.172  34.449  28.120  1.00  0.00     0.031 A 
ATOM     84  C   UNL A   1      46.039  33.637  30.221  1.00  0.00     0.131 A 
ATOM     85  C   UNL A   1      45.828  35.667  28.352  1.00  0.00     0.055 A 
ATOM     86  C   UNL A   1      46.653  34.864  30.467  1.00  0.00     0.041 A 
ATOM     87  F   UNL A   1      46.166  32.676  31.151  1.00  0.00    -0.206 F 
ATOM     88  C   UNL A   1      46.551  35.887  29.527  1.00  0.00     0.022 A 
BRANCH  85  89
ATOM     89  S   UNL A   1      45.734  36.963  27.088  1.00  0.00     0.124 S 
ATOM     90  O   UNL A   1      44.306  37.264  27.069  1.00  0.00    -0.237 OA
ATOM     91  O   UNL A   1      46.596  38.005  27.636  1.00  0.00    -0.237 OA
ATOM     92  O   UNL A   1      46.245  36.308  25.886  1.00  0.00    -0.744 OA
ENDBRANCH  85  89
ENDBRANCH  59  82
ENDBRANCH  33  34
ENDBRANCH  26  28
ENDBRANCH  25  26
ENDBRANCH  24  25
ENDBRANCH   1  24
TORSDOF 18
ENDMDL
