MODEL 1
REMARK VINA RESULT:     -10.9      0.000      0.000
REMARK SMILES O=C(OCCOCCOC(=O)[C@@H]1CC=CC[C@@H]1C(=O)Nc1ccc(O)cc1)c1ccc(-c2c3nc(c(-c4cc(S(=O)(=O)[O-])ccc4F)c4ccc([nH]4)c(-c4cc(S(=O)(=O)[O-])ccc4F)c4nc(c(-c5cc(S(=O)(=O)[O-])ccc5F)c5ccc2[nH]5)C=C4)C=C3)cc1
REMARK SMILES IDX 6 1 5 2 4 3 3 4 2 5 1 6 28 7 29 8 90 9 30 10 89 11 31 12
REMARK SMILES IDX 32 13 33 14 83 15 34 16 88 17 82 18 84 19 35 20 87 21 81 22
REMARK SMILES IDX 80 23 36 25 68 26 48 27 67 28 49 29 52 30 66 31 85 32 50 33
REMARK SMILES IDX 51 34 65 36 86 37 53 38 37 39 38 40 46 41 39 42 45 43 47 44
REMARK SMILES IDX 44 45 40 46 41 47 42 48 43 49 69 50 70 51 78 52 71 53 77 54
REMARK SMILES IDX 79 55 76 56 72 57 73 58 74 59 75 60 54 61 55 62 63 63 56 64
REMARK SMILES IDX 62 65 64 66 61 67 57 68 58 69 59 70 60 71 7 72 8 73 9 74
REMARK SMILES IDX 10 75 11 76 12 77 13 78 17 79 14 80 16 81 15 82 18 83 19 84
REMARK SMILES IDX 20 85 21 87 22 88 27 89 23 90 26 91 24 92 25 93
REMARK H PARENT 84 24 52 35 20 86 25 94
REMARK Flexibility Score: inf
ROOT
ATOM      1  O   UNL A   1      37.980  21.805  25.749  1.00  0.00    -0.374 OA
ENDROOT
BRANCH   1   2
ATOM      2  C   UNL A   1      38.135  20.604  24.992  1.00  0.00     0.202 C 
BRANCH   2   3
ATOM      3  C   UNL A   1      38.760  19.417  25.739  1.00  0.00     0.261 C 
BRANCH   3   4
ATOM      4  O   UNL A   1      40.148  19.265  25.402  1.00  0.00    -0.460 OA
BRANCH   4   5
ATOM      5  C   UNL A   1      41.235  19.660  26.109  1.00  0.00     0.338 C 
ATOM      6  O   UNL A   1      42.031  18.794  26.468  1.00  0.00    -0.246 OA
BRANCH   5   7
ATOM      7  C   UNL A   1      41.491  21.071  26.544  1.00  0.00     0.060 A 
ATOM      8  C   UNL A   1      41.423  22.190  25.716  1.00  0.00     0.016 A 
ATOM      9  C   UNL A   1      41.724  21.295  27.914  1.00  0.00     0.016 A 
ATOM     10  C   UNL A   1      41.517  23.475  26.198  1.00  0.00     0.010 A 
ATOM     11  C   UNL A   1      41.883  22.593  28.415  1.00  0.00     0.010 A 
ATOM     12  C   UNL A   1      41.780  23.679  27.542  1.00  0.00    -0.014 A 
BRANCH  12  13
ATOM     13  C   UNL A   1      42.212  25.041  27.866  1.00  0.00     0.031 A 
ATOM     14  C   UNL A   1      43.547  25.458  27.330  1.00  0.00     0.074 A 
ATOM     15  C   UNL A   1      41.309  25.919  28.332  1.00  0.00     0.049 A 
ATOM     16  N   UNL A   1      44.144  26.613  27.391  1.00  0.00    -0.248 NA
ATOM     17  C   UNL A   1      44.293  24.430  26.580  1.00  0.00     0.031 C 
ATOM     18  C   UNL A   1      39.905  25.605  28.626  1.00  0.00     0.029 A 
ATOM     19  N   UNL A   1      41.409  27.258  28.574  1.00  0.00    -0.354 N 
ATOM     20  C   UNL A   1      45.347  26.444  26.716  1.00  0.00     0.074 A 
ATOM     21  C   UNL A   1      45.392  25.080  26.244  1.00  0.00     0.031 C 
ATOM     22  C   UNL A   1      39.275  26.731  28.995  1.00  0.00     0.029 A 
ATOM     23  C   UNL A   1      40.242  27.820  29.035  1.00  0.00     0.049 A 
ATOM     24  H   UNL A   1      42.237  27.772  28.431  1.00  0.00     0.167 HD
ATOM     25  C   UNL A   1      46.331  27.355  26.537  1.00  0.00     0.034 A 
ATOM     26  C   UNL A   1      40.019  29.073  29.475  1.00  0.00     0.034 A 
ATOM     27  C   UNL A   1      46.233  28.690  27.068  1.00  0.00     0.049 A 
ATOM     28  C   UNL A   1      41.190  30.024  29.428  1.00  0.00     0.074 A 
ATOM     29  C   UNL A   1      47.183  29.689  27.099  1.00  0.00     0.029 A 
ATOM     30  N   UNL A   1      45.090  29.203  27.681  1.00  0.00    -0.354 N 
ATOM     31  N   UNL A   1      42.390  29.831  28.925  1.00  0.00    -0.248 NA
ATOM     32  C   UNL A   1      40.986  31.351  30.013  1.00  0.00     0.031 C 
ATOM     33  C   UNL A   1      46.643  30.774  27.801  1.00  0.00     0.029 A 
ATOM     34  C   UNL A   1      45.323  30.492  28.122  1.00  0.00     0.049 A 
ATOM     35  H   UNL A   1      44.240  28.717  27.785  1.00  0.00     0.167 HD
ATOM     36  C   UNL A   1      43.077  31.026  29.102  1.00  0.00     0.074 A 
ATOM     37  C   UNL A   1      42.146  31.934  29.749  1.00  0.00     0.031 C 
ATOM     38  C   UNL A   1      44.352  31.354  28.764  1.00  0.00     0.034 A 
BRANCH  25  39
ATOM     39  C   UNL A   1      47.608  26.853  25.908  1.00  0.00     0.023 A 
ATOM     40  C   UNL A   1      48.616  26.213  26.654  1.00  0.00     0.031 A 
ATOM     41  C   UNL A   1      47.886  27.169  24.566  1.00  0.00     0.131 A 
ATOM     42  C   UNL A   1      49.885  26.013  26.086  1.00  0.00     0.055 A 
ATOM     43  C   UNL A   1      49.120  26.879  23.979  1.00  0.00     0.041 A 
ATOM     44  F   UNL A   1      46.983  27.818  23.815  1.00  0.00    -0.206 F 
ATOM     45  C   UNL A   1      50.136  26.318  24.746  1.00  0.00     0.022 A 
BRANCH  42  46
ATOM     46  S   UNL A   1      51.263  25.548  27.176  1.00  0.00     0.124 S 
ATOM     47  O   UNL A   1      52.111  24.781  26.267  1.00  0.00    -0.237 OA
ATOM     48  O   UNL A   1      51.786  26.843  27.596  1.00  0.00    -0.237 OA
ATOM     49  O   UNL A   1      50.620  24.762  28.228  1.00  0.00    -0.744 OA
ENDBRANCH  42  46
ENDBRANCH  25  39
BRANCH  26  50
ATOM     50  C   UNL A   1      38.703  29.465  30.062  1.00  0.00     0.023 A 
ATOM     51  C   UNL A   1      37.736  30.149  29.309  1.00  0.00     0.031 A 
ATOM     52  C   UNL A   1      38.413  29.211  31.418  1.00  0.00     0.131 A 
ATOM     53  C   UNL A   1      36.552  30.594  29.924  1.00  0.00     0.055 A 
ATOM     54  C   UNL A   1      37.211  29.603  32.008  1.00  0.00     0.041 A 
ATOM     55  F   UNL A   1      39.301  28.571  32.196  1.00  0.00    -0.206 F 
ATOM     56  C   UNL A   1      36.277  30.313  31.263  1.00  0.00     0.022 A 
BRANCH  53  57
ATOM     57  S   UNL A   1      35.413  31.638  28.972  1.00  0.00     0.124 S 
ATOM     58  O   UNL A   1      36.335  32.553  28.308  1.00  0.00    -0.237 OA
ATOM     59  O   UNL A   1      34.750  30.661  28.116  1.00  0.00    -0.237 OA
ATOM     60  O   UNL A   1      34.566  32.243  29.998  1.00  0.00    -0.744 OA
ENDBRANCH  53  57
ENDBRANCH  26  50
BRANCH  38  61
ATOM     61  C   UNL A   1      44.771  32.775  29.034  1.00  0.00     0.023 A 
ATOM     62  C   UNL A   1      44.535  33.806  28.111  1.00  0.00     0.031 A 
ATOM     63  C   UNL A   1      45.422  33.093  30.240  1.00  0.00     0.131 A 
ATOM     64  C   UNL A   1      45.011  35.095  28.378  1.00  0.00     0.055 A 
ATOM     65  C   UNL A   1      45.824  34.395  30.532  1.00  0.00     0.041 A 
ATOM     66  F   UNL A   1      45.671  32.142  31.154  1.00  0.00    -0.206 F 
ATOM     67  C   UNL A   1      45.633  35.402  29.591  1.00  0.00     0.022 A 
BRANCH  64  68
ATOM     68  S   UNL A   1      44.910  36.342  27.066  1.00  0.00     0.124 S 
ATOM     69  O   UNL A   1      45.994  35.935  26.178  1.00  0.00    -0.237 OA
ATOM     70  O   UNL A   1      43.558  36.146  26.553  1.00  0.00    -0.237 OA
ATOM     71  O   UNL A   1      45.128  37.602  27.774  1.00  0.00    -0.744 OA
ENDBRANCH  64  68
ENDBRANCH  38  61
ENDBRANCH  12  13
ENDBRANCH   5   7
ENDBRANCH   4   5
ENDBRANCH   3   4
ENDBRANCH   2   3
ENDBRANCH   1   2
BRANCH   1  72
ATOM     72  C   UNL A   1      36.954  22.708  25.318  1.00  0.00     0.202 C 
BRANCH  72  73
ATOM     73  C   UNL A   1      35.610  22.159  25.751  1.00  0.00     0.261 C 
BRANCH  73  74
ATOM     74  O   UNL A   1      34.652  22.936  25.027  1.00  0.00    -0.463 OA
BRANCH  74  75
ATOM     75  C   UNL A   1      33.664  22.238  24.415  1.00  0.00     0.310 C 
ATOM     76  O   UNL A   1      33.344  21.087  24.670  1.00  0.00    -0.252 OA
BRANCH  75  77
ATOM     77  C   UNL A   1      33.001  23.147  23.400  1.00  0.00     0.116 C 
ATOM     78  C   UNL A   1      33.971  24.303  23.104  1.00  0.00     0.043 C 
ATOM     79  C   UNL A   1      31.546  23.490  23.762  1.00  0.00     0.097 C 
ATOM     80  C   UNL A   1      33.342  25.536  22.562  1.00  0.00    -0.030 C 
ATOM     81  C   UNL A   1      31.019  24.794  23.123  1.00  0.00     0.041 C 
ATOM     82  C   UNL A   1      32.027  25.755  22.577  1.00  0.00    -0.030 C 
BRANCH  79  83
ATOM     83  C   UNL A   1      31.256  23.432  25.256  1.00  0.00     0.228 C 
ATOM     84  O   UNL A   1      30.697  22.437  25.734  1.00  0.00    -0.274 OA
ATOM     85  N   UNL A   1      31.522  24.448  26.131  1.00  0.00    -0.326 N 
ATOM     86  H   UNL A   1      31.203  24.229  27.036  1.00  0.00     0.169 HD
BRANCH  85  87
ATOM     87  C   UNL A   1      32.127  25.726  26.101  1.00  0.00     0.041 A 
ATOM     88  C   UNL A   1      33.496  26.010  26.074  1.00  0.00     0.030 A 
ATOM     89  C   UNL A   1      31.239  26.814  26.031  1.00  0.00     0.030 A 
ATOM     90  C   UNL A   1      33.961  27.319  25.855  1.00  0.00     0.048 A 
ATOM     91  C   UNL A   1      31.697  28.123  25.842  1.00  0.00     0.048 A 
ATOM     92  C   UNL A   1      33.056  28.360  25.717  1.00  0.00     0.115 A 
BRANCH  92  93
ATOM     93  O   UNL A   1      33.464  29.627  25.430  1.00  0.00    -0.508 OA
ATOM     94  H   UNL A   1      34.256  29.960  25.806  1.00  0.00     0.293 HD
ENDBRANCH  92  93
ENDBRANCH  85  87
ENDBRANCH  79  83
ENDBRANCH  75  77
ENDBRANCH  74  75
ENDBRANCH  73  74
ENDBRANCH  72  73
ENDBRANCH   1  72
TORSDOF 20
ENDMDL
MODEL 2
REMARK VINA RESULT:     -10.8      1.811      2.614
REMARK SMILES O=C(OCCOCCOC(=O)[C@@H]1CC=CC[C@@H]1C(=O)Nc1ccc(O)cc1)c1ccc(-c2c3nc(c(-c4cc(S(=O)(=O)[O-])ccc4F)c4ccc([nH]4)c(-c4cc(S(=O)(=O)[O-])ccc4F)c4nc(c(-c5cc(S(=O)(=O)[O-])ccc5F)c5ccc2[nH]5)C=C4)C=C3)cc1
REMARK SMILES IDX 6 1 5 2 4 3 3 4 2 5 1 6 28 7 29 8 90 9 30 10 89 11 31 12
REMARK SMILES IDX 32 13 33 14 83 15 34 16 88 17 82 18 84 19 35 20 87 21 81 22
REMARK SMILES IDX 80 23 36 25 68 26 48 27 67 28 49 29 52 30 66 31 85 32 50 33
REMARK SMILES IDX 51 34 65 36 86 37 53 38 37 39 38 40 46 41 39 42 45 43 47 44
REMARK SMILES IDX 44 45 40 46 41 47 42 48 43 49 69 50 70 51 78 52 71 53 77 54
REMARK SMILES IDX 79 55 76 56 72 57 73 58 74 59 75 60 54 61 55 62 63 63 56 64
REMARK SMILES IDX 62 65 64 66 61 67 57 68 58 69 59 70 60 71 7 72 8 73 9 74
REMARK SMILES IDX 10 75 11 76 12 77 13 78 17 79 14 80 16 81 15 82 18 83 19 84
REMARK SMILES IDX 20 85 21 87 22 88 27 89 23 90 26 91 24 92 25 93
REMARK H PARENT 84 24 52 35 20 86 25 94
REMARK Flexibility Score: inf
ROOT
ATOM      1  O   UNL A   1      36.259  22.597  24.138  1.00  0.00    -0.374 OA
ENDROOT
BRANCH   1   2
ATOM      2  C   UNL A   1      36.892  21.322  24.248  1.00  0.00     0.202 C 
BRANCH   2   3
ATOM      3  C   UNL A   1      37.515  20.998  25.613  1.00  0.00     0.261 C 
BRANCH   3   4
ATOM      4  O   UNL A   1      38.848  20.484  25.466  1.00  0.00    -0.460 OA
BRANCH   4   5
ATOM      5  C   UNL A   1      39.916  20.666  26.280  1.00  0.00     0.338 C 
ATOM      6  O   UNL A   1      40.509  19.665  26.681  1.00  0.00    -0.246 OA
BRANCH   5   7
ATOM      7  C   UNL A   1      40.376  22.001  26.783  1.00  0.00     0.060 A 
ATOM      8  C   UNL A   1      39.917  23.233  26.319  1.00  0.00     0.016 A 
ATOM      9  C   UNL A   1      41.266  22.012  27.874  1.00  0.00     0.016 A 
ATOM     10  C   UNL A   1      40.258  24.423  26.919  1.00  0.00     0.010 A 
ATOM     11  C   UNL A   1      41.672  23.217  28.459  1.00  0.00     0.010 A 
ATOM     12  C   UNL A   1      41.161  24.421  27.968  1.00  0.00    -0.014 A 
BRANCH  12  13
ATOM     13  C   UNL A   1      41.716  25.740  28.281  1.00  0.00     0.031 A 
ATOM     14  C   UNL A   1      43.043  26.064  27.666  1.00  0.00     0.074 A 
ATOM     15  C   UNL A   1      40.915  26.676  28.816  1.00  0.00     0.049 A 
ATOM     16  N   UNL A   1      43.730  27.169  27.704  1.00  0.00    -0.248 NA
ATOM     17  C   UNL A   1      43.659  24.996  26.857  1.00  0.00     0.031 C 
ATOM     18  C   UNL A   1      39.513  26.465  29.195  1.00  0.00     0.029 A 
ATOM     19  N   UNL A   1      41.133  27.999  29.067  1.00  0.00    -0.354 N 
ATOM     20  C   UNL A   1      44.871  26.921  26.950  1.00  0.00     0.074 A 
ATOM     21  C   UNL A   1      44.781  25.566  26.459  1.00  0.00     0.031 C 
ATOM     22  C   UNL A   1      38.995  27.629  29.618  1.00  0.00     0.029 A 
ATOM     23  C   UNL A   1      40.044  28.641  29.610  1.00  0.00     0.049 A 
ATOM     24  H   UNL A   1      41.987  28.451  28.878  1.00  0.00     0.167 HD
ATOM     25  C   UNL A   1      45.910  27.758  26.721  1.00  0.00     0.034 A 
ATOM     26  C   UNL A   1      39.946  29.899  30.079  1.00  0.00     0.034 A 
ATOM     27  C   UNL A   1      45.948  29.087  27.273  1.00  0.00     0.049 A 
ATOM     28  C   UNL A   1      41.181  30.759  29.969  1.00  0.00     0.074 A 
ATOM     29  C   UNL A   1      46.972  30.010  27.256  1.00  0.00     0.029 A 
ATOM     30  N   UNL A   1      44.888  29.675  27.965  1.00  0.00    -0.354 N 
ATOM     31  N   UNL A   1      42.329  30.484  29.387  1.00  0.00    -0.248 NA
ATOM     32  C   UNL A   1      41.118  32.087  30.583  1.00  0.00     0.031 C 
ATOM     33  C   UNL A   1      46.563  31.121  28.005  1.00  0.00     0.029 A 
ATOM     34  C   UNL A   1      45.247  30.934  28.407  1.00  0.00     0.049 A 
ATOM     35  H   UNL A   1      44.012  29.253  28.117  1.00  0.00     0.167 HD
ATOM     36  C   UNL A   1      43.116  31.620  29.535  1.00  0.00     0.074 A 
ATOM     37  C   UNL A   1      42.300  32.584  30.252  1.00  0.00     0.031 C 
ATOM     38  C   UNL A   1      44.389  31.856  29.121  1.00  0.00     0.034 A 
BRANCH  25  39
ATOM     39  C   UNL A   1      47.101  27.171  26.004  1.00  0.00     0.023 A 
ATOM     40  C   UNL A   1      48.074  26.398  26.666  1.00  0.00     0.031 A 
ATOM     41  C   UNL A   1      47.350  27.532  24.668  1.00  0.00     0.131 A 
ATOM     42  C   UNL A   1      49.291  26.109  26.027  1.00  0.00     0.055 A 
ATOM     43  C   UNL A   1      48.522  27.159  24.007  1.00  0.00     0.041 A 
ATOM     44  F   UNL A   1      46.482  28.305  23.996  1.00  0.00    -0.206 F 
ATOM     45  C   UNL A   1      49.511  26.462  24.693  1.00  0.00     0.022 A 
BRANCH  42  46
ATOM     46  S   UNL A   1      50.663  25.455  27.022  1.00  0.00     0.124 S 
ATOM     47  O   UNL A   1      50.028  24.324  27.694  1.00  0.00    -0.237 OA
ATOM     48  O   UNL A   1      51.657  25.119  26.010  1.00  0.00    -0.237 OA
ATOM     49  O   UNL A   1      51.016  26.571  27.898  1.00  0.00    -0.744 OA
ENDBRANCH  42  46
ENDBRANCH  25  39
BRANCH  26  50
ATOM     50  C   UNL A   1      38.704  30.379  30.754  1.00  0.00     0.023 A 
ATOM     51  C   UNL A   1      37.674  31.010  30.038  1.00  0.00     0.031 A 
ATOM     52  C   UNL A   1      38.553  30.268  32.151  1.00  0.00     0.131 A 
ATOM     53  C   UNL A   1      36.567  31.543  30.722  1.00  0.00     0.055 A 
ATOM     54  C   UNL A   1      37.424  30.746  32.818  1.00  0.00     0.041 A 
ATOM     55  F   UNL A   1      39.507  29.686  32.896  1.00  0.00    -0.206 F 
ATOM     56  C   UNL A   1      36.428  31.402  32.104  1.00  0.00     0.022 A 
BRANCH  53  57
ATOM     57  S   UNL A   1      35.351  32.515  29.791  1.00  0.00     0.124 S 
ATOM     58  O   UNL A   1      35.015  31.605  28.701  1.00  0.00    -0.237 OA
ATOM     59  O   UNL A   1      34.310  32.735  30.788  1.00  0.00    -0.237 OA
ATOM     60  O   UNL A   1      36.097  33.709  29.399  1.00  0.00    -0.744 OA
ENDBRANCH  53  57
ENDBRANCH  26  50
BRANCH  38  61
ATOM     61  C   UNL A   1      44.932  33.236  29.381  1.00  0.00     0.023 A 
ATOM     62  C   UNL A   1      44.913  34.238  28.398  1.00  0.00     0.031 A 
ATOM     63  C   UNL A   1      45.481  33.543  30.639  1.00  0.00     0.131 A 
ATOM     64  C   UNL A   1      45.498  35.481  28.667  1.00  0.00     0.055 A 
ATOM     65  C   UNL A   1      45.991  34.808  30.924  1.00  0.00     0.041 A 
ATOM     66  F   UNL A   1      45.523  32.618  31.611  1.00  0.00    -0.206 F 
ATOM     67  C   UNL A   1      46.016  35.781  29.930  1.00  0.00     0.022 A 
BRANCH  64  68
ATOM     68  S   UNL A   1      45.678  36.664  27.305  1.00  0.00     0.124 S 
ATOM     69  O   UNL A   1      44.509  37.519  27.491  1.00  0.00    -0.237 OA
ATOM     70  O   UNL A   1      46.969  37.278  27.594  1.00  0.00    -0.237 OA
ATOM     71  O   UNL A   1      45.645  35.820  26.112  1.00  0.00    -0.744 OA
ENDBRANCH  64  68
ENDBRANCH  38  61
ENDBRANCH  12  13
ENDBRANCH   5   7
ENDBRANCH   4   5
ENDBRANCH   3   4
ENDBRANCH   2   3
ENDBRANCH   1   2
BRANCH   1  72
ATOM     72  C   UNL A   1      34.852  22.594  23.869  1.00  0.00     0.202 C 
BRANCH  72  73
ATOM     73  C   UNL A   1      34.422  24.003  23.511  1.00  0.00     0.261 C 
BRANCH  73  74
ATOM     74  O   UNL A   1      33.695  24.460  24.653  1.00  0.00    -0.463 OA
BRANCH  74  75
ATOM     75  C   UNL A   1      32.636  25.268  24.398  1.00  0.00     0.310 C 
ATOM     76  O   UNL A   1      31.582  24.918  23.888  1.00  0.00    -0.252 OA
BRANCH  75  77
ATOM     77  C   UNL A   1      32.969  26.659  24.897  1.00  0.00     0.116 C 
ATOM     78  C   UNL A   1      31.771  27.161  25.719  1.00  0.00     0.043 C 
ATOM     79  C   UNL A   1      33.531  27.574  23.794  1.00  0.00     0.097 C 
ATOM     80  C   UNL A   1      31.668  28.637  25.856  1.00  0.00    -0.030 C 
ATOM     81  C   UNL A   1      33.363  29.084  24.070  1.00  0.00     0.041 C 
ATOM     82  C   UNL A   1      32.374  29.492  25.115  1.00  0.00    -0.030 C 
BRANCH  79  83
ATOM     83  C   UNL A   1      33.070  27.197  22.393  1.00  0.00     0.228 C 
ATOM     84  O   UNL A   1      33.849  26.615  21.627  1.00  0.00    -0.274 OA
ATOM     85  N   UNL A   1      31.844  27.511  21.875  1.00  0.00    -0.326 N 
ATOM     86  H   UNL A   1      31.772  27.229  20.936  1.00  0.00     0.169 HD
BRANCH  85  87
ATOM     87  C   UNL A   1      30.649  28.129  22.313  1.00  0.00     0.041 A 
ATOM     88  C   UNL A   1      30.269  29.460  22.120  1.00  0.00     0.030 A 
ATOM     89  C   UNL A   1      29.732  27.281  22.958  1.00  0.00     0.030 A 
ATOM     90  C   UNL A   1      28.972  29.898  22.440  1.00  0.00     0.048 A 
ATOM     91  C   UNL A   1      28.448  27.719  23.307  1.00  0.00     0.048 A 
ATOM     92  C   UNL A   1      28.066  29.017  23.009  1.00  0.00     0.115 A 
BRANCH  92  93
ATOM     93  O   UNL A   1      26.779  29.382  23.265  1.00  0.00    -0.508 OA
ATOM     94  H   UNL A   1      26.211  29.623  22.559  1.00  0.00     0.293 HD
ENDBRANCH  92  93
ENDBRANCH  85  87
ENDBRANCH  79  83
ENDBRANCH  75  77
ENDBRANCH  74  75
ENDBRANCH  73  74
ENDBRANCH  72  73
ENDBRANCH   1  72
TORSDOF 20
ENDMDL
MODEL 3
REMARK VINA RESULT:     -10.6      5.028     10.414
REMARK SMILES O=C(OCCOCCOC(=O)[C@@H]1CC=CC[C@@H]1C(=O)Nc1ccc(O)cc1)c1ccc(-c2c3nc(c(-c4cc(S(=O)(=O)[O-])ccc4F)c4ccc([nH]4)c(-c4cc(S(=O)(=O)[O-])ccc4F)c4nc(c(-c5cc(S(=O)(=O)[O-])ccc5F)c5ccc2[nH]5)C=C4)C=C3)cc1
REMARK SMILES IDX 6 1 5 2 4 3 3 4 2 5 1 6 28 7 29 8 90 9 30 10 89 11 31 12
REMARK SMILES IDX 32 13 33 14 83 15 34 16 88 17 82 18 84 19 35 20 87 21 81 22
REMARK SMILES IDX 80 23 36 25 68 26 48 27 67 28 49 29 52 30 66 31 85 32 50 33
REMARK SMILES IDX 51 34 65 36 86 37 53 38 37 39 38 40 46 41 39 42 45 43 47 44
REMARK SMILES IDX 44 45 40 46 41 47 42 48 43 49 69 50 70 51 78 52 71 53 77 54
REMARK SMILES IDX 79 55 76 56 72 57 73 58 74 59 75 60 54 61 55 62 63 63 56 64
REMARK SMILES IDX 62 65 64 66 61 67 57 68 58 69 59 70 60 71 7 72 8 73 9 74
REMARK SMILES IDX 10 75 11 76 12 77 13 78 17 79 14 80 16 81 15 82 18 83 19 84
REMARK SMILES IDX 20 85 21 87 22 88 27 89 23 90 26 91 24 92 25 93
REMARK H PARENT 84 24 52 35 20 86 25 94
REMARK Flexibility Score: inf
ROOT
ATOM      1  O   UNL A   1      31.709  29.885  26.753  1.00  0.00    -0.374 OA
ENDROOT
BRANCH   1   2
ATOM      2  C   UNL A   1      32.637  30.958  26.589  1.00  0.00     0.202 C 
BRANCH   2   3
ATOM      3  C   UNL A   1      32.103  32.361  26.907  1.00  0.00     0.261 C 
BRANCH   3   4
ATOM      4  O   UNL A   1      32.782  32.931  28.038  1.00  0.00    -0.460 OA
BRANCH   4   5
ATOM      5  C   UNL A   1      34.006  33.508  28.083  1.00  0.00     0.338 C 
ATOM      6  O   UNL A   1      34.113  34.661  27.665  1.00  0.00    -0.246 OA
BRANCH   5   7
ATOM      7  C   UNL A   1      35.252  32.811  28.540  1.00  0.00     0.060 A 
ATOM      8  C   UNL A   1      35.304  31.513  29.046  1.00  0.00     0.016 A 
ATOM      9  C   UNL A   1      36.476  33.481  28.354  1.00  0.00     0.016 A 
ATOM     10  C   UNL A   1      36.490  30.867  29.307  1.00  0.00     0.010 A 
ATOM     11  C   UNL A   1      37.691  32.862  28.671  1.00  0.00     0.010 A 
ATOM     12  C   UNL A   1      37.684  31.551  29.152  1.00  0.00    -0.014 A 
BRANCH  12  13
ATOM     13  C   UNL A   1      38.831  30.901  29.791  1.00  0.00     0.031 A 
ATOM     14  C   UNL A   1      39.040  31.204  31.243  1.00  0.00     0.074 A 
ATOM     15  C   UNL A   1      39.429  29.871  29.171  1.00  0.00     0.049 A 
ATOM     16  N   UNL A   1      39.914  30.720  32.077  1.00  0.00    -0.248 NA
ATOM     17  C   UNL A   1      38.093  32.161  31.847  1.00  0.00     0.031 C 
ATOM     18  C   UNL A   1      39.072  29.373  27.837  1.00  0.00     0.029 A 
ATOM     19  N   UNL A   1      40.403  29.017  29.597  1.00  0.00    -0.354 N 
ATOM     20  C   UNL A   1      39.644  31.334  33.295  1.00  0.00     0.074 A 
ATOM     21  C   UNL A   1      38.519  32.217  33.096  1.00  0.00     0.031 C 
ATOM     22  C   UNL A   1      39.814  28.287  27.564  1.00  0.00     0.029 A 
ATOM     23  C   UNL A   1      40.742  28.064  28.665  1.00  0.00     0.049 A 
ATOM     24  H   UNL A   1      40.823  29.077  30.485  1.00  0.00     0.167 HD
ATOM     25  C   UNL A   1      40.307  31.180  34.464  1.00  0.00     0.034 A 
ATOM     26  C   UNL A   1      41.728  27.147  28.707  1.00  0.00     0.034 A 
ATOM     27  C   UNL A   1      41.446  30.306  34.580  1.00  0.00     0.049 A 
ATOM     28  C   UNL A   1      42.568  27.116  29.960  1.00  0.00     0.074 A 
ATOM     29  C   UNL A   1      42.310  30.136  35.642  1.00  0.00     0.029 A 
ATOM     30  N   UNL A   1      41.880  29.452  33.566  1.00  0.00    -0.354 N 
ATOM     31  N   UNL A   1      42.417  27.802  31.073  1.00  0.00    -0.248 NA
ATOM     32  C   UNL A   1      43.713  26.204  29.965  1.00  0.00     0.031 C 
ATOM     33  C   UNL A   1      43.311  29.242  35.240  1.00  0.00     0.029 A 
ATOM     34  C   UNL A   1      43.018  28.778  33.965  1.00  0.00     0.049 A 
ATOM     35  H   UNL A   1      41.439  29.346  32.692  1.00  0.00     0.167 HD
ATOM     36  C   UNL A   1      43.429  27.380  31.926  1.00  0.00     0.074 A 
ATOM     37  C   UNL A   1      44.175  26.369  31.195  1.00  0.00     0.031 C 
ATOM     38  C   UNL A   1      43.723  27.777  33.192  1.00  0.00     0.034 A 
BRANCH  25  39
ATOM     39  C   UNL A   1      39.905  32.100  35.592  1.00  0.00     0.023 A 
ATOM     40  C   UNL A   1      39.056  31.685  36.636  1.00  0.00     0.031 A 
ATOM     41  C   UNL A   1      40.248  33.462  35.528  1.00  0.00     0.131 A 
ATOM     42  C   UNL A   1      38.495  32.640  37.501  1.00  0.00     0.055 A 
ATOM     43  C   UNL A   1      39.763  34.391  36.451  1.00  0.00     0.041 A 
ATOM     44  F   UNL A   1      41.019  33.926  34.531  1.00  0.00    -0.206 F 
ATOM     45  C   UNL A   1      38.863  33.986  37.431  1.00  0.00     0.022 A 
BRANCH  42  46
ATOM     46  S   UNL A   1      37.120  32.138  38.578  1.00  0.00     0.124 S 
ATOM     47  O   UNL A   1      37.018  30.711  38.279  1.00  0.00    -0.237 OA
ATOM     48  O   UNL A   1      37.617  32.478  39.906  1.00  0.00    -0.237 OA
ATOM     49  O   UNL A   1      35.999  32.947  38.104  1.00  0.00    -0.744 OA
ENDBRANCH  42  46
ENDBRANCH  25  39
BRANCH  26  50
ATOM     50  C   UNL A   1      42.022  26.273  27.533  1.00  0.00     0.023 A 
ATOM     51  C   UNL A   1      41.594  24.937  27.484  1.00  0.00     0.031 A 
ATOM     52  C   UNL A   1      42.799  26.748  26.457  1.00  0.00     0.131 A 
ATOM     53  C   UNL A   1      41.981  24.114  26.411  1.00  0.00     0.055 A 
ATOM     54  C   UNL A   1      43.130  25.944  25.366  1.00  0.00     0.041 A 
ATOM     55  F   UNL A   1      43.250  28.013  26.449  1.00  0.00    -0.206 F 
ATOM     56  C   UNL A   1      42.732  24.613  25.346  1.00  0.00     0.022 A 
BRANCH  53  57
ATOM     57  S   UNL A   1      41.571  22.348  26.474  1.00  0.00     0.124 S 
ATOM     58  O   UNL A   1      42.031  21.984  27.809  1.00  0.00    -0.237 OA
ATOM     59  O   UNL A   1      40.125  22.365  26.276  1.00  0.00    -0.237 OA
ATOM     60  O   UNL A   1      42.342  21.778  25.371  1.00  0.00    -0.744 OA
ENDBRANCH  53  57
ENDBRANCH  26  50
BRANCH  38  61
ATOM     61  C   UNL A   1      44.858  27.059  33.873  1.00  0.00     0.023 A 
ATOM     62  C   UNL A   1      44.654  25.882  34.610  1.00  0.00     0.031 A 
ATOM     63  C   UNL A   1      46.163  27.572  33.778  1.00  0.00     0.131 A 
ATOM     64  C   UNL A   1      45.731  25.295  35.285  1.00  0.00     0.055 A 
ATOM     65  C   UNL A   1      47.244  26.939  34.389  1.00  0.00     0.041 A 
ATOM     66  F   UNL A   1      46.409  28.696  33.085  1.00  0.00    -0.206 F 
ATOM     67  C   UNL A   1      47.028  25.801  35.161  1.00  0.00     0.022 A 
BRANCH  64  68
ATOM     68  S   UNL A   1      45.393  23.925  36.424  1.00  0.00     0.124 S 
ATOM     69  O   UNL A   1      44.897  24.628  37.603  1.00  0.00    -0.237 OA
ATOM     70  O   UNL A   1      44.408  23.143  35.687  1.00  0.00    -0.237 OA
ATOM     71  O   UNL A   1      46.698  23.286  36.586  1.00  0.00    -0.744 OA
ENDBRANCH  64  68
ENDBRANCH  38  61
ENDBRANCH  12  13
ENDBRANCH   5   7
ENDBRANCH   4   5
ENDBRANCH   3   4
ENDBRANCH   2   3
ENDBRANCH   1   2
BRANCH   1  72
ATOM     72  C   UNL A   1      32.167  28.749  27.497  1.00  0.00     0.202 C 
BRANCH  72  73
ATOM     73  C   UNL A   1      31.626  27.492  26.845  1.00  0.00     0.261 C 
BRANCH  73  74
ATOM     74  O   UNL A   1      31.952  27.634  25.461  1.00  0.00    -0.463 OA
BRANCH  74  75
ATOM     75  C   UNL A   1      33.167  27.162  25.086  1.00  0.00     0.310 C 
ATOM     76  O   UNL A   1      34.233  27.735  25.247  1.00  0.00    -0.252 OA
BRANCH  75  77
ATOM     77  C   UNL A   1      32.973  25.787  24.480  1.00  0.00     0.116 C 
ATOM     78  C   UNL A   1      34.271  24.991  24.701  1.00  0.00     0.043 C 
ATOM     79  C   UNL A   1      32.380  25.833  23.061  1.00  0.00     0.097 C 
ATOM     80  C   UNL A   1      34.486  23.853  23.769  1.00  0.00    -0.030 C 
ATOM     81  C   UNL A   1      32.674  24.583  22.203  1.00  0.00     0.041 C 
ATOM     82  C   UNL A   1      33.777  23.677  22.653  1.00  0.00    -0.030 C 
BRANCH  79  83
ATOM     83  C   UNL A   1      32.689  27.122  22.311  1.00  0.00     0.228 C 
ATOM     84  O   UNL A   1      33.822  27.307  21.848  1.00  0.00    -0.274 OA
ATOM     85  N   UNL A   1      31.801  28.150  22.151  1.00  0.00    -0.326 N 
ATOM     86  H   UNL A   1      32.220  28.911  21.689  1.00  0.00     0.169 HD
BRANCH  85  87
ATOM     87  C   UNL A   1      30.450  28.426  22.463  1.00  0.00     0.041 A 
ATOM     88  C   UNL A   1      29.714  29.557  22.098  1.00  0.00     0.030 A 
ATOM     89  C   UNL A   1      29.774  27.414  23.167  1.00  0.00     0.030 A 
ATOM     90  C   UNL A   1      28.326  29.620  22.312  1.00  0.00     0.048 A 
ATOM     91  C   UNL A   1      28.396  27.484  23.410  1.00  0.00     0.048 A 
ATOM     92  C   UNL A   1      27.676  28.572  22.944  1.00  0.00     0.115 A 
BRANCH  92  93
ATOM     93  O   UNL A   1      26.324  28.562  23.104  1.00  0.00    -0.508 OA
ATOM     94  H   UNL A   1      25.841  27.771  22.963  1.00  0.00     0.293 HD
ENDBRANCH  92  93
ENDBRANCH  85  87
ENDBRANCH  79  83
ENDBRANCH  75  77
ENDBRANCH  74  75
ENDBRANCH  73  74
ENDBRANCH  72  73
ENDBRANCH   1  72
TORSDOF 20
ENDMDL
