MODEL 1
REMARK VINA RESULT:     -10.9      0.000      0.000
REMARK SMILES CCCc1cc2c(cc1Cl)C=C(C(=O)OCCOCCOC(=O)c1ccc(-c3c4nc(c(-c5cc(S(=O)(=O)[O-])ccc5F)c5ccc([nH]5)c(-c5cc(S(=O)(=O)[O-])ccc5F)c5nc(c(-c6cc(S(=O)(=O)[O-])ccc6F)c6ccc3[nH]6)C=C5)C=C4)cc1)[C@@H](C(F)(F)F)O2
REMARK SMILES IDX 19 1 18 2 17 3 16 4 15 5 13 6 14 7 12 8 4 9 5 10 9 11 6 12
REMARK SMILES IDX 8 13 10 14 7 15 92 16 11 17 87 18 3 19 2 20 1 21 88 22 89 23
REMARK SMILES IDX 90 24 91 25 20 26 21 27 22 28 23 29 24 30 25 31 86 32 26 33
REMARK SMILES IDX 85 34 27 35 28 36 29 37 79 38 30 39 84 40 78 41 80 42 31 43
REMARK SMILES IDX 83 44 77 45 76 46 32 48 64 49 44 50 63 51 45 52 48 53 62 54
REMARK SMILES IDX 81 55 46 56 47 57 61 59 82 60 49 61 33 62 34 63 42 64 35 65
REMARK SMILES IDX 41 66 43 67 40 68 36 69 37 70 38 71 39 72 65 73 66 74 74 75
REMARK SMILES IDX 67 76 73 77 75 78 72 79 68 80 69 81 70 82 71 83 50 84 51 85
REMARK SMILES IDX 59 86 52 87 58 88 60 89 57 90 53 91 54 92 55 93 56 94
REMARK H PARENT 80 47 48 58
REMARK Flexibility Score: inf
ROOT
ATOM      1  C   UNL A   1      31.819  29.088  27.043  1.00  0.00     0.202 C 
ENDROOT
BRANCH   1   2
ATOM      2  O   UNL A   1      31.483  28.320  25.888  1.00  0.00    -0.374 OA
BRANCH   2   3
ATOM      3  C   UNL A   1      31.265  29.012  24.659  1.00  0.00     0.202 C 
BRANCH   3   4
ATOM      4  C   UNL A   1      32.350  28.888  23.584  1.00  0.00     0.261 C 
BRANCH   4   5
ATOM      5  O   UNL A   1      33.368  27.953  23.967  1.00  0.00    -0.460 OA
BRANCH   5   6
ATOM      6  C   UNL A   1      33.527  26.917  23.112  1.00  0.00     0.338 C 
ATOM      7  O   UNL A   1      33.923  26.969  21.959  1.00  0.00    -0.246 OA
BRANCH   6   8
ATOM      8  C   UNL A   1      33.286  25.647  23.824  1.00  0.00     0.087 C 
ATOM      9  C   UNL A   1      33.655  20.881  25.286  1.00  0.00    -0.026 A 
ATOM     10  C   UNL A   1      32.646  21.856  25.369  1.00  0.00     0.052 A 
ATOM     11  C   UNL A   1      34.956  21.312  24.957  1.00  0.00     0.045 A 
ATOM     12  C   UNL A   1      32.889  23.176  24.986  1.00  0.00     0.128 A 
ATOM     13  C   UNL A   1      35.209  22.643  24.615  1.00  0.00     0.032 A 
ATOM     14  Cl  UNL A   1      36.300  20.222  24.925  1.00  0.00    -0.084 Cl
ATOM     15  C   UNL A   1      34.162  23.562  24.577  1.00  0.00     0.019 A 
ATOM     16  O   UNL A   1      31.823  24.031  25.029  1.00  0.00    -0.475 OA
ATOM     17  C   UNL A   1      34.371  24.889  24.035  1.00  0.00     0.027 C 
ATOM     18  C   UNL A   1      31.894  25.254  24.240  1.00  0.00     0.316 C 
BRANCH   9  19
ATOM     19  C   UNL A   1      33.374  19.405  25.491  1.00  0.00     0.037 C 
BRANCH  19  20
ATOM     20  C   UNL A   1      33.240  18.495  24.262  1.00  0.00     0.001 C 
ATOM     21  C   UNL A   1      32.672  17.114  24.569  1.00  0.00     0.004 C 
ENDBRANCH  19  20
ENDBRANCH   9  19
BRANCH  18  22
ATOM     22  C   UNL A   1      30.937  25.138  23.044  1.00  0.00     0.430 C 
ATOM     23  F   UNL A   1      29.850  24.392  23.356  1.00  0.00    -0.167 F 
ATOM     24  F   UNL A   1      30.485  26.350  22.650  1.00  0.00    -0.167 F 
ATOM     25  F   UNL A   1      31.534  24.559  21.978  1.00  0.00    -0.167 F 
ENDBRANCH  18  22
ENDBRANCH   6   8
ENDBRANCH   5   6
ENDBRANCH   4   5
ENDBRANCH   3   4
ENDBRANCH   2   3
ENDBRANCH   1   2
BRANCH   1  26
ATOM     26  C   UNL A   1      32.041  30.596  26.870  1.00  0.00     0.261 C 
BRANCH  26  27
ATOM     27  O   UNL A   1      33.421  30.923  26.629  1.00  0.00    -0.460 OA
BRANCH  27  28
ATOM     28  C   UNL A   1      33.942  31.868  27.453  1.00  0.00     0.338 C 
ATOM     29  O   UNL A   1      33.402  32.893  27.833  1.00  0.00    -0.246 OA
BRANCH  28  30
ATOM     30  C   UNL A   1      35.210  31.357  28.009  1.00  0.00     0.060 A 
ATOM     31  C   UNL A   1      36.330  32.182  28.119  1.00  0.00     0.016 A 
ATOM     32  C   UNL A   1      35.262  30.023  28.432  1.00  0.00     0.016 A 
ATOM     33  C   UNL A   1      37.509  31.665  28.660  1.00  0.00     0.010 A 
ATOM     34  C   UNL A   1      36.442  29.508  28.967  1.00  0.00     0.010 A 
ATOM     35  C   UNL A   1      37.572  30.327  29.092  1.00  0.00    -0.014 A 
BRANCH  35  36
ATOM     36  C   UNL A   1      38.791  29.813  29.764  1.00  0.00     0.031 A 
ATOM     37  C   UNL A   1      39.639  28.752  29.129  1.00  0.00     0.074 A 
ATOM     38  C   UNL A   1      39.112  30.303  30.977  1.00  0.00     0.049 A 
ATOM     39  N   UNL A   1      40.751  28.224  29.567  1.00  0.00    -0.248 NA
ATOM     40  C   UNL A   1      39.179  28.210  27.842  1.00  0.00     0.031 C 
ATOM     41  C   UNL A   1      38.337  31.315  31.694  1.00  0.00     0.029 A 
ATOM     42  N   UNL A   1      40.159  30.022  31.818  1.00  0.00    -0.354 N 
ATOM     43  C   UNL A   1      41.137  27.297  28.606  1.00  0.00     0.074 A 
ATOM     44  C   UNL A   1      40.112  27.302  27.585  1.00  0.00     0.031 C 
ATOM     45  C   UNL A   1      38.944  31.586  32.858  1.00  0.00     0.029 A 
ATOM     46  C   UNL A   1      40.129  30.739  32.992  1.00  0.00     0.049 A 
ATOM     47  H   UNL A   1      40.864  29.371  31.602  1.00  0.00     0.167 HD
ATOM     48  C   UNL A   1      42.256  26.534  28.576  1.00  0.00     0.034 A 
ATOM     49  C   UNL A   1      40.954  30.715  34.059  1.00  0.00     0.034 A 
ATOM     50  C   UNL A   1      43.262  26.544  29.611  1.00  0.00     0.049 A 
ATOM     51  C   UNL A   1      42.168  29.822  34.022  1.00  0.00     0.074 A 
ATOM     52  C   UNL A   1      44.457  25.847  29.641  1.00  0.00     0.029 A 
ATOM     53  N   UNL A   1      43.192  27.264  30.795  1.00  0.00    -0.354 N 
ATOM     54  N   UNL A   1      42.581  29.035  33.056  1.00  0.00    -0.248 NA
ATOM     55  C   UNL A   1      43.035  29.814  35.208  1.00  0.00     0.031 C 
ATOM     56  C   UNL A   1      45.067  26.079  30.873  1.00  0.00     0.029 A 
ATOM     57  C   UNL A   1      44.302  26.992  31.581  1.00  0.00     0.049 A 
ATOM     58  H   UNL A   1      42.463  27.879  31.040  1.00  0.00     0.167 HD
ATOM     59  C   UNL A   1      43.764  28.456  33.508  1.00  0.00     0.074 A 
ATOM     60  C   UNL A   1      44.016  29.005  34.824  1.00  0.00     0.031 C 
ATOM     61  C   UNL A   1      44.561  27.549  32.888  1.00  0.00     0.034 A 
BRANCH  48  62
ATOM     62  C   UNL A   1      42.496  25.634  27.387  1.00  0.00     0.023 A 
ATOM     63  C   UNL A   1      41.993  24.319  27.387  1.00  0.00     0.031 A 
ATOM     64  C   UNL A   1      43.353  26.018  26.341  1.00  0.00     0.131 A 
ATOM     65  C   UNL A   1      42.390  23.422  26.387  1.00  0.00     0.055 A 
ATOM     66  C   UNL A   1      43.707  25.135  25.321  1.00  0.00     0.041 A 
ATOM     67  F   UNL A   1      43.865  27.259  26.300  1.00  0.00    -0.206 F 
ATOM     68  C   UNL A   1      43.238  23.825  25.350  1.00  0.00     0.022 A 
BRANCH  65  69
ATOM     69  S   UNL A   1      41.891  21.679  26.438  1.00  0.00     0.124 S 
ATOM     70  O   UNL A   1      40.532  21.740  25.903  1.00  0.00    -0.237 OA
ATOM     71  O   UNL A   1      42.878  21.054  25.562  1.00  0.00    -0.237 OA
ATOM     72  O   UNL A   1      41.986  21.327  27.850  1.00  0.00    -0.744 OA
ENDBRANCH  65  69
ENDBRANCH  48  62
BRANCH  49  73
ATOM     73  C   UNL A   1      40.667  31.613  35.216  1.00  0.00     0.023 A 
ATOM     74  C   UNL A   1      39.642  31.308  36.130  1.00  0.00     0.031 A 
ATOM     75  C   UNL A   1      41.328  32.845  35.355  1.00  0.00     0.131 A 
ATOM     76  C   UNL A   1      39.257  32.253  37.090  1.00  0.00     0.055 A 
ATOM     77  C   UNL A   1      40.995  33.751  36.363  1.00  0.00     0.041 A 
ATOM     78  F   UNL A   1      42.303  33.189  34.500  1.00  0.00    -0.206 F 
ATOM     79  C   UNL A   1      39.940  33.466  37.225  1.00  0.00     0.022 A 
BRANCH  76  80
ATOM     80  S   UNL A   1      37.767  32.002  38.095  1.00  0.00     0.124 S 
ATOM     81  O   UNL A   1      38.252  32.300  39.439  1.00  0.00    -0.237 OA
ATOM     82  O   UNL A   1      36.854  32.985  37.521  1.00  0.00    -0.237 OA
ATOM     83  O   UNL A   1      37.415  30.608  37.846  1.00  0.00    -0.744 OA
ENDBRANCH  76  80
ENDBRANCH  49  73
BRANCH  61  84
ATOM     84  C   UNL A   1      45.800  27.056  33.603  1.00  0.00     0.023 A 
ATOM     85  C   UNL A   1      45.722  25.934  34.452  1.00  0.00     0.031 A 
ATOM     86  C   UNL A   1      46.992  27.798  33.590  1.00  0.00     0.131 A 
ATOM     87  C   UNL A   1      46.795  25.625  35.299  1.00  0.00     0.055 A 
ATOM     88  C   UNL A   1      48.081  27.450  34.395  1.00  0.00     0.041 A 
ATOM     89  F   UNL A   1      47.114  28.881  32.806  1.00  0.00    -0.206 F 
ATOM     90  C   UNL A   1      47.977  26.371  35.268  1.00  0.00     0.022 A 
BRANCH  87  91
ATOM     91  S   UNL A   1      46.656  24.313  36.545  1.00  0.00     0.124 S 
ATOM     92  O   UNL A   1      47.520  24.817  37.612  1.00  0.00    -0.237 OA
ATOM     93  O   UNL A   1      45.226  24.324  36.844  1.00  0.00    -0.237 OA
ATOM     94  O   UNL A   1      47.147  23.123  35.860  1.00  0.00    -0.744 OA
ENDBRANCH  87  91
ENDBRANCH  61  84
ENDBRANCH  35  36
ENDBRANCH  28  30
ENDBRANCH  27  28
ENDBRANCH  26  27
ENDBRANCH   1  26
TORSDOF 20
ENDMDL
MODEL 2
REMARK VINA RESULT:     -10.8      4.938      8.055
REMARK SMILES CCCc1cc2c(cc1Cl)C=C(C(=O)OCCOCCOC(=O)c1ccc(-c3c4nc(c(-c5cc(S(=O)(=O)[O-])ccc5F)c5ccc([nH]5)c(-c5cc(S(=O)(=O)[O-])ccc5F)c5nc(c(-c6cc(S(=O)(=O)[O-])ccc6F)c6ccc3[nH]6)C=C5)C=C4)cc1)[C@@H](C(F)(F)F)O2
REMARK SMILES IDX 19 1 18 2 17 3 16 4 15 5 13 6 14 7 12 8 4 9 5 10 9 11 6 12
REMARK SMILES IDX 8 13 10 14 7 15 92 16 11 17 87 18 3 19 2 20 1 21 88 22 89 23
REMARK SMILES IDX 90 24 91 25 20 26 21 27 22 28 23 29 24 30 25 31 86 32 26 33
REMARK SMILES IDX 85 34 27 35 28 36 29 37 79 38 30 39 84 40 78 41 80 42 31 43
REMARK SMILES IDX 83 44 77 45 76 46 32 48 64 49 44 50 63 51 45 52 48 53 62 54
REMARK SMILES IDX 81 55 46 56 47 57 61 59 82 60 49 61 33 62 34 63 42 64 35 65
REMARK SMILES IDX 41 66 43 67 40 68 36 69 37 70 38 71 39 72 65 73 66 74 74 75
REMARK SMILES IDX 67 76 73 77 75 78 72 79 68 80 69 81 70 82 71 83 50 84 51 85
REMARK SMILES IDX 59 86 52 87 58 88 60 89 57 90 53 91 54 92 55 93 56 94
REMARK H PARENT 80 47 48 58
REMARK Flexibility Score: inf
ROOT
ATOM      1  C   UNL A   1      37.303  21.965  24.586  1.00  0.00     0.202 C 
ENDROOT
BRANCH   1   2
ATOM      2  O   UNL A   1      35.903  21.752  24.406  1.00  0.00    -0.374 OA
BRANCH   2   3
ATOM      3  C   UNL A   1      35.279  20.712  25.156  1.00  0.00     0.202 C 
BRANCH   3   4
ATOM      4  C   UNL A   1      34.380  21.133  26.323  1.00  0.00     0.261 C 
BRANCH   4   5
ATOM      5  O   UNL A   1      34.432  22.550  26.545  1.00  0.00    -0.460 OA
BRANCH   5   6
ATOM      6  C   UNL A   1      33.226  23.133  26.728  1.00  0.00     0.338 C 
ATOM      7  O   UNL A   1      32.455  22.952  27.656  1.00  0.00    -0.246 OA
BRANCH   6   8
ATOM      8  C   UNL A   1      33.013  24.164  25.694  1.00  0.00     0.087 C 
ATOM      9  C   UNL A   1      31.519  28.343  23.394  1.00  0.00    -0.026 A 
ATOM     10  C   UNL A   1      31.935  27.076  22.951  1.00  0.00     0.052 A 
ATOM     11  C   UNL A   1      31.775  28.682  24.738  1.00  0.00     0.045 A 
ATOM     12  C   UNL A   1      32.437  26.130  23.846  1.00  0.00     0.128 A 
ATOM     13  C   UNL A   1      32.318  27.750  25.625  1.00  0.00     0.032 A 
ATOM     14  Cl  UNL A   1      31.402  30.249  25.373  1.00  0.00    -0.084 Cl
ATOM     15  C   UNL A   1      32.597  26.455  25.189  1.00  0.00     0.019 A 
ATOM     16  O   UNL A   1      32.741  24.901  23.330  1.00  0.00    -0.475 OA
ATOM     17  C   UNL A   1      32.970  25.427  26.138  1.00  0.00     0.027 C 
ATOM     18  C   UNL A   1      32.829  23.776  24.252  1.00  0.00     0.316 C 
BRANCH   9  19
ATOM     19  C   UNL A   1      30.778  29.313  22.495  1.00  0.00     0.037 C 
BRANCH  19  20
ATOM     20  C   UNL A   1      29.265  29.492  22.679  1.00  0.00     0.001 C 
ATOM     21  C   UNL A   1      28.539  28.228  23.126  1.00  0.00     0.004 C 
ENDBRANCH  19  20
ENDBRANCH   9  19
BRANCH  18  22
ATOM     22  C   UNL A   1      31.617  22.856  24.042  1.00  0.00     0.430 C 
ATOM     23  F   UNL A   1      31.075  23.030  22.813  1.00  0.00    -0.167 F 
ATOM     24  F   UNL A   1      31.959  21.551  24.143  1.00  0.00    -0.167 F 
ATOM     25  F   UNL A   1      30.644  23.094  24.952  1.00  0.00    -0.167 F 
ENDBRANCH  18  22
ENDBRANCH   6   8
ENDBRANCH   5   6
ENDBRANCH   4   5
ENDBRANCH   3   4
ENDBRANCH   2   3
ENDBRANCH   1   2
BRANCH   1  26
ATOM     26  C   UNL A   1      38.051  21.062  25.576  1.00  0.00     0.261 C 
BRANCH  26  27
ATOM     27  O   UNL A   1      39.468  21.306  25.578  1.00  0.00    -0.460 OA
BRANCH  27  28
ATOM     28  C   UNL A   1      40.065  21.235  26.795  1.00  0.00     0.338 C 
ATOM     29  O   UNL A   1      40.384  20.226  27.401  1.00  0.00    -0.246 OA
BRANCH  28  30
ATOM     30  C   UNL A   1      40.475  22.593  27.197  1.00  0.00     0.060 A 
ATOM     31  C   UNL A   1      41.417  22.790  28.208  1.00  0.00     0.016 A 
ATOM     32  C   UNL A   1      39.902  23.686  26.533  1.00  0.00     0.016 A 
ATOM     33  C   UNL A   1      41.787  24.091  28.553  1.00  0.00     0.010 A 
ATOM     34  C   UNL A   1      40.270  24.984  26.884  1.00  0.00     0.010 A 
ATOM     35  C   UNL A   1      41.221  25.197  27.891  1.00  0.00    -0.014 A 
BRANCH  35  36
ATOM     36  C   UNL A   1      41.696  26.571  28.186  1.00  0.00     0.031 A 
ATOM     37  C   UNL A   1      43.087  27.004  27.835  1.00  0.00     0.074 A 
ATOM     38  C   UNL A   1      40.855  27.424  28.802  1.00  0.00     0.049 A 
ATOM     39  N   UNL A   1      43.643  28.176  27.991  1.00  0.00    -0.248 NA
ATOM     40  C   UNL A   1      43.972  25.992  27.238  1.00  0.00     0.031 C 
ATOM     41  C   UNL A   1      39.491  27.092  29.213  1.00  0.00     0.029 A 
ATOM     42  N   UNL A   1      41.015  28.729  29.192  1.00  0.00    -0.354 N 
ATOM     43  C   UNL A   1      44.937  28.054  27.498  1.00  0.00     0.074 A 
ATOM     44  C   UNL A   1      45.098  26.676  27.084  1.00  0.00     0.031 C 
ATOM     45  C   UNL A   1      38.931  28.170  29.778  1.00  0.00     0.029 A 
ATOM     46  C   UNL A   1      39.906  29.259  29.811  1.00  0.00     0.049 A 
ATOM     47  H   UNL A   1      41.844  29.238  29.042  1.00  0.00     0.167 HD
ATOM     48  C   UNL A   1      45.888  29.012  27.386  1.00  0.00     0.034 A 
ATOM     49  C   UNL A   1      39.698  30.478  30.349  1.00  0.00     0.034 A 
ATOM     50  C   UNL A   1      45.704  30.379  27.813  1.00  0.00     0.049 A 
ATOM     51  C   UNL A   1      40.789  31.514  30.255  1.00  0.00     0.074 A 
ATOM     52  C   UNL A   1      46.590  31.434  27.689  1.00  0.00     0.029 A 
ATOM     53  N   UNL A   1      44.579  30.878  28.454  1.00  0.00    -0.354 N 
ATOM     54  N   UNL A   1      41.967  31.418  29.683  1.00  0.00    -0.248 NA
ATOM     55  C   UNL A   1      40.529  32.825  30.864  1.00  0.00     0.031 C 
ATOM     56  C   UNL A   1      46.038  32.545  28.327  1.00  0.00     0.029 A 
ATOM     57  C   UNL A   1      44.768  32.214  28.772  1.00  0.00     0.049 A 
ATOM     58  H   UNL A   1      43.765  30.360  28.653  1.00  0.00     0.167 HD
ATOM     59  C   UNL A   1      42.578  32.658  29.846  1.00  0.00     0.074 A 
ATOM     60  C   UNL A   1      41.628  33.498  30.545  1.00  0.00     0.031 C 
ATOM     61  C   UNL A   1      43.815  33.057  29.457  1.00  0.00     0.034 A 
BRANCH  48  62
ATOM     62  C   UNL A   1      47.214  28.657  26.759  1.00  0.00     0.023 A 
ATOM     63  C   UNL A   1      47.294  28.405  25.376  1.00  0.00     0.031 A 
ATOM     64  C   UNL A   1      48.351  28.406  27.546  1.00  0.00     0.131 A 
ATOM     65  C   UNL A   1      48.470  27.874  24.831  1.00  0.00     0.055 A 
ATOM     66  C   UNL A   1      49.536  27.922  26.991  1.00  0.00     0.041 A 
ATOM     67  F   UNL A   1      48.324  28.622  28.871  1.00  0.00    -0.206 F 
ATOM     68  C   UNL A   1      49.594  27.638  25.630  1.00  0.00     0.022 A 
BRANCH  65  69
ATOM     69  S   UNL A   1      48.561  27.391  23.085  1.00  0.00     0.124 S 
ATOM     70  O   UNL A   1      47.513  28.216  22.490  1.00  0.00    -0.237 OA
ATOM     71  O   UNL A   1      49.927  27.770  22.735  1.00  0.00    -0.237 OA
ATOM     72  O   UNL A   1      48.287  25.958  23.103  1.00  0.00    -0.744 OA
ENDBRANCH  65  69
ENDBRANCH  48  62
BRANCH  49  73
ATOM     73  C   UNL A   1      38.374  30.777  30.972  1.00  0.00     0.023 A 
ATOM     74  C   UNL A   1      37.339  31.362  30.220  1.00  0.00     0.031 A 
ATOM     75  C   UNL A   1      38.167  30.593  32.349  1.00  0.00     0.131 A 
ATOM     76  C   UNL A   1      36.179  31.813  30.863  1.00  0.00     0.055 A 
ATOM     77  C   UNL A   1      36.976  30.973  32.971  1.00  0.00     0.041 A 
ATOM     78  F   UNL A   1      39.129  30.052  33.112  1.00  0.00    -0.206 F 
ATOM     79  C   UNL A   1      35.982  31.605  32.231  1.00  0.00     0.022 A 
BRANCH  76  80
ATOM     80  S   UNL A   1      34.954  32.814  29.972  1.00  0.00     0.124 S 
ATOM     81  O   UNL A   1      34.031  33.186  31.039  1.00  0.00    -0.237 OA
ATOM     82  O   UNL A   1      35.782  33.896  29.447  1.00  0.00    -0.237 OA
ATOM     83  O   UNL A   1      34.423  31.896  28.970  1.00  0.00    -0.744 OA
ENDBRANCH  76  80
ENDBRANCH  49  73
BRANCH  61  84
ATOM     84  C   UNL A   1      44.260  34.469  29.768  1.00  0.00     0.023 A 
ATOM     85  C   UNL A   1      44.068  35.492  28.818  1.00  0.00     0.031 A 
ATOM     86  C   UNL A   1      45.031  34.757  30.906  1.00  0.00     0.131 A 
ATOM     87  C   UNL A   1      44.692  36.734  28.994  1.00  0.00     0.055 A 
ATOM     88  C   UNL A   1      45.603  36.016  31.106  1.00  0.00     0.041 A 
ATOM     89  F   UNL A   1      45.252  33.815  31.837  1.00  0.00    -0.206 F 
ATOM     90  C   UNL A   1      45.451  37.004  30.137  1.00  0.00     0.022 A 
BRANCH  87  91
ATOM     91  S   UNL A   1      44.633  38.005  27.700  1.00  0.00     0.124 S 
ATOM     92  O   UNL A   1      43.462  37.594  26.927  1.00  0.00    -0.237 OA
ATOM     93  O   UNL A   1      44.467  39.229  28.479  1.00  0.00    -0.237 OA
ATOM     94  O   UNL A   1      45.910  37.864  27.010  1.00  0.00    -0.744 OA
ENDBRANCH  87  91
ENDBRANCH  61  84
ENDBRANCH  35  36
ENDBRANCH  28  30
ENDBRANCH  27  28
ENDBRANCH  26  27
ENDBRANCH   1  26
TORSDOF 20
ENDMDL
MODEL 3
REMARK VINA RESULT:     -10.8      0.658      7.398
REMARK SMILES CCCc1cc2c(cc1Cl)C=C(C(=O)OCCOCCOC(=O)c1ccc(-c3c4nc(c(-c5cc(S(=O)(=O)[O-])ccc5F)c5ccc([nH]5)c(-c5cc(S(=O)(=O)[O-])ccc5F)c5nc(c(-c6cc(S(=O)(=O)[O-])ccc6F)c6ccc3[nH]6)C=C5)C=C4)cc1)[C@@H](C(F)(F)F)O2
REMARK SMILES IDX 19 1 18 2 17 3 16 4 15 5 13 6 14 7 12 8 4 9 5 10 9 11 6 12
REMARK SMILES IDX 8 13 10 14 7 15 92 16 11 17 87 18 3 19 2 20 1 21 88 22 89 23
REMARK SMILES IDX 90 24 91 25 20 26 21 27 22 28 23 29 24 30 25 31 86 32 26 33
REMARK SMILES IDX 85 34 27 35 28 36 29 37 79 38 30 39 84 40 78 41 80 42 31 43
REMARK SMILES IDX 83 44 77 45 76 46 32 48 64 49 44 50 63 51 45 52 48 53 62 54
REMARK SMILES IDX 81 55 46 56 47 57 61 59 82 60 49 61 33 62 34 63 42 64 35 65
REMARK SMILES IDX 41 66 43 67 40 68 36 69 37 70 38 71 39 72 65 73 66 74 74 75
REMARK SMILES IDX 67 76 73 77 75 78 72 79 68 80 69 81 70 82 71 83 50 84 51 85
REMARK SMILES IDX 59 86 52 87 58 88 60 89 57 90 53 91 54 92 55 93 56 94
REMARK H PARENT 80 47 48 58
REMARK Flexibility Score: inf
ROOT
ATOM      1  C   UNL A   1      31.652  28.636  27.087  1.00  0.00     0.202 C 
ENDROOT
BRANCH   1   2
ATOM      2  O   UNL A   1      31.792  27.908  25.868  1.00  0.00    -0.374 OA
BRANCH   2   3
ATOM      3  C   UNL A   1      31.603  28.608  24.639  1.00  0.00     0.202 C 
BRANCH   3   4
ATOM      4  C   UNL A   1      32.751  28.566  23.626  1.00  0.00     0.261 C 
BRANCH   4   5
ATOM      5  O   UNL A   1      33.695  27.533  23.940  1.00  0.00    -0.460 OA
BRANCH   5   6
ATOM      6  C   UNL A   1      33.717  26.508  23.058  1.00  0.00     0.338 C 
ATOM      7  O   UNL A   1      34.040  26.557  21.882  1.00  0.00    -0.246 OA
BRANCH   6   8
ATOM      8  C   UNL A   1      33.428  25.243  23.761  1.00  0.00     0.087 C 
ATOM      9  C   UNL A   1      33.598  20.452  25.177  1.00  0.00    -0.026 A 
ATOM     10  C   UNL A   1      32.636  21.471  25.280  1.00  0.00     0.052 A 
ATOM     11  C   UNL A   1      34.914  20.828  24.838  1.00  0.00     0.045 A 
ATOM     12  C   UNL A   1      32.933  22.782  24.905  1.00  0.00     0.128 A 
ATOM     13  C   UNL A   1      35.222  22.149  24.505  1.00  0.00     0.032 A 
ATOM     14  Cl  UNL A   1      36.208  19.679  24.781  1.00  0.00    -0.084 Cl
ATOM     15  C   UNL A   1      34.217  23.115  24.486  1.00  0.00     0.019 A 
ATOM     16  O   UNL A   1      31.907  23.683  24.968  1.00  0.00    -0.475 OA
ATOM     17  C   UNL A   1      34.479  24.436  23.953  1.00  0.00     0.027 C 
ATOM     18  C   UNL A   1      32.024  24.909  24.189  1.00  0.00     0.316 C 
BRANCH   9  19
ATOM     19  C   UNL A   1      33.254  18.989  25.372  1.00  0.00     0.037 C 
BRANCH  19  20
ATOM     20  C   UNL A   1      33.243  18.058  24.152  1.00  0.00     0.001 C 
ATOM     21  C   UNL A   1      32.263  18.473  23.060  1.00  0.00     0.004 C 
ENDBRANCH  19  20
ENDBRANCH   9  19
BRANCH  18  22
ATOM     22  C   UNL A   1      31.050  24.847  23.003  1.00  0.00     0.430 C 
ATOM     23  F   UNL A   1      31.713  24.744  21.827  1.00  0.00    -0.167 F 
ATOM     24  F   UNL A   1      30.229  23.775  23.089  1.00  0.00    -0.167 F 
ATOM     25  F   UNL A   1      30.272  25.951  22.935  1.00  0.00    -0.167 F 
ENDBRANCH  18  22
ENDBRANCH   6   8
ENDBRANCH   5   6
ENDBRANCH   4   5
ENDBRANCH   3   4
ENDBRANCH   2   3
ENDBRANCH   1   2
BRANCH   1  26
ATOM     26  C   UNL A   1      31.876  30.153  27.053  1.00  0.00     0.261 C 
BRANCH  26  27
ATOM     27  O   UNL A   1      33.228  30.501  26.708  1.00  0.00    -0.460 OA
BRANCH  27  28
ATOM     28  C   UNL A   1      33.736  31.573  27.369  1.00  0.00     0.338 C 
ATOM     29  O   UNL A   1      33.164  32.619  27.623  1.00  0.00    -0.246 OA
BRANCH  28  30
ATOM     30  C   UNL A   1      35.043  31.197  27.937  1.00  0.00     0.060 A 
ATOM     31  C   UNL A   1      36.088  32.120  28.009  1.00  0.00     0.016 A 
ATOM     32  C   UNL A   1      35.213  29.890  28.413  1.00  0.00     0.016 A 
ATOM     33  C   UNL A   1      37.308  31.729  28.563  1.00  0.00     0.010 A 
ATOM     34  C   UNL A   1      36.434  29.502  28.962  1.00  0.00     0.010 A 
ATOM     35  C   UNL A   1      37.489  30.421  29.048  1.00  0.00    -0.014 A 
BRANCH  35  36
ATOM     36  C   UNL A   1      38.749  30.042  29.733  1.00  0.00     0.031 A 
ATOM     37  C   UNL A   1      39.099  30.600  31.079  1.00  0.00     0.074 A 
ATOM     38  C   UNL A   1      39.593  29.199  29.108  1.00  0.00     0.049 A 
ATOM     39  N   UNL A   1      40.140  30.342  31.826  1.00  0.00    -0.248 NA
ATOM     40  C   UNL A   1      38.166  31.577  31.661  1.00  0.00     0.031 C 
ATOM     41  C   UNL A   1      39.360  28.623  27.784  1.00  0.00     0.029 A 
ATOM     42  N   UNL A   1      40.805  28.683  29.491  1.00  0.00    -0.354 N 
ATOM     43  C   UNL A   1      39.985  31.110  32.975  1.00  0.00     0.074 A 
ATOM     44  C   UNL A   1      38.772  31.881  32.802  1.00  0.00     0.031 C 
ATOM     45  C   UNL A   1      40.385  27.817  27.472  1.00  0.00     0.029 A 
ATOM     46  C   UNL A   1      41.369  27.849  28.553  1.00  0.00     0.049 A 
ATOM     47  H   UNL A   1      41.230  28.888  30.354  1.00  0.00     0.167 HD
ATOM     48  C   UNL A   1      40.775  31.145  34.075  1.00  0.00     0.034 A 
ATOM     49  C   UNL A   1      42.547  27.191  28.555  1.00  0.00     0.034 A 
ATOM     50  C   UNL A   1      41.984  30.370  34.220  1.00  0.00     0.049 A 
ATOM     51  C   UNL A   1      43.431  27.283  29.773  1.00  0.00     0.074 A 
ATOM     52  C   UNL A   1      42.819  30.298  35.320  1.00  0.00     0.029 A 
ATOM     53  N   UNL A   1      42.538  29.553  33.245  1.00  0.00    -0.354 N 
ATOM     54  N   UNL A   1      43.217  27.923  30.899  1.00  0.00    -0.248 NA
ATOM     55  C   UNL A   1      44.711  26.562  29.733  1.00  0.00     0.031 C 
ATOM     56  C   UNL A   1      43.918  29.507  34.983  1.00  0.00     0.029 A 
ATOM     57  C   UNL A   1      43.728  29.009  33.704  1.00  0.00     0.049 A 
ATOM     58  H   UNL A   1      42.144  29.383  32.359  1.00  0.00     0.167 HD
ATOM     59  C   UNL A   1      44.321  27.666  31.706  1.00  0.00     0.074 A 
ATOM     60  C   UNL A   1      45.190  26.788  30.950  1.00  0.00     0.031 C 
ATOM     61  C   UNL A   1      44.589  28.123  32.955  1.00  0.00     0.034 A 
BRANCH  48  62
ATOM     62  C   UNL A   1      40.371  32.020  35.237  1.00  0.00     0.023 A 
ATOM     63  C   UNL A   1      39.423  31.559  36.170  1.00  0.00     0.031 A 
ATOM     64  C   UNL A   1      40.794  33.358  35.326  1.00  0.00     0.131 A 
ATOM     65  C   UNL A   1      38.894  32.441  37.121  1.00  0.00     0.055 A 
ATOM     66  C   UNL A   1      40.299  34.220  36.305  1.00  0.00     0.041 A 
ATOM     67  F   UNL A   1      41.690  33.849  34.454  1.00  0.00    -0.206 F 
ATOM     68  C   UNL A   1      39.333  33.768  37.198  1.00  0.00     0.022 A 
BRANCH  65  69
ATOM     69  S   UNL A   1      37.560  31.930  38.238  1.00  0.00     0.124 S 
ATOM     70  O   UNL A   1      36.521  32.910  37.931  1.00  0.00    -0.237 OA
ATOM     71  O   UNL A   1      37.287  30.570  37.784  1.00  0.00    -0.237 OA
ATOM     72  O   UNL A   1      38.150  32.047  39.567  1.00  0.00    -0.744 OA
ENDBRANCH  65  69
ENDBRANCH  48  62
BRANCH  49  73
ATOM     73  C   UNL A   1      42.908  26.350  27.376  1.00  0.00     0.023 A 
ATOM     74  C   UNL A   1      42.604  24.976  27.349  1.00  0.00     0.031 A 
ATOM     75  C   UNL A   1      43.664  26.878  26.317  1.00  0.00     0.131 A 
ATOM     76  C   UNL A   1      43.120  24.167  26.329  1.00  0.00     0.055 A 
ATOM     77  C   UNL A   1      44.109  26.082  25.261  1.00  0.00     0.041 A 
ATOM     78  F   UNL A   1      43.992  28.179  26.304  1.00  0.00    -0.206 F 
ATOM     79  C   UNL A   1      43.855  24.714  25.274  1.00  0.00     0.022 A 
BRANCH  76  80
ATOM     80  S   UNL A   1      42.979  22.359  26.417  1.00  0.00     0.124 S 
ATOM     81  O   UNL A   1      44.320  21.929  26.037  1.00  0.00    -0.237 OA
ATOM     82  O   UNL A   1      42.625  22.158  27.819  1.00  0.00    -0.237 OA
ATOM     83  O   UNL A   1      41.921  22.050  25.460  1.00  0.00    -0.744 OA
ENDBRANCH  76  80
ENDBRANCH  49  73
BRANCH  61  84
ATOM     84  C   UNL A   1      45.881  27.707  33.625  1.00  0.00     0.023 A 
ATOM     85  C   UNL A   1      45.905  26.577  34.467  1.00  0.00     0.031 A 
ATOM     86  C   UNL A   1      47.022  28.524  33.579  1.00  0.00     0.131 A 
ATOM     87  C   UNL A   1      47.022  26.334  35.276  1.00  0.00     0.055 A 
ATOM     88  C   UNL A   1      48.157  28.244  34.344  1.00  0.00     0.041 A 
ATOM     89  F   UNL A   1      47.047  29.618  32.800  1.00  0.00    -0.206 F 
ATOM     90  C   UNL A   1      48.152  27.156  35.212  1.00  0.00     0.022 A 
BRANCH  87  91
ATOM     91  S   UNL A   1      47.010  25.009  36.516  1.00  0.00     0.124 S 
ATOM     92  O   UNL A   1      46.979  23.811  35.679  1.00  0.00    -0.237 OA
ATOM     93  O   UNL A   1      48.265  25.242  37.226  1.00  0.00    -0.237 OA
ATOM     94  O   UNL A   1      45.796  25.259  37.286  1.00  0.00    -0.744 OA
ENDBRANCH  87  91
ENDBRANCH  61  84
ENDBRANCH  35  36
ENDBRANCH  28  30
ENDBRANCH  27  28
ENDBRANCH  26  27
ENDBRANCH   1  26
TORSDOF 20
ENDMDL
