MODEL 1
REMARK VINA RESULT:     -10.5      0.000      0.000
REMARK SMILES [NH3+][C@]1(C(=O)OCCOCCOC(=O)c2ccc(-c3c4nc(c(-c5cc(S(=O)(=O)[O-])ccc5F)c5ccc([nH]5)c(-c5cc(S(=O)(=O)[O-])ccc5F)c5nc(c(-c6cc(S(=O)(=O)[O-])ccc6F)c6ccc3[nH]6)C=C5)C=C4)cc2)CCC[C@@H]1CCOc1ccc(CO)cc1
REMARK SMILES IDX 6 1 5 2 3 3 4 4 2 5 77 6 80 7 78 8 79 9 1 10 81 14 82 15
REMARK SMILES IDX 83 16 84 17 85 18 91 19 86 20 90 21 87 22 88 23 89 24 7 26
REMARK SMILES IDX 8 27 9 28 10 29 11 30 12 31 13 32 14 33 15 34 76 35 16 36
REMARK SMILES IDX 75 37 17 38 18 39 19 40 69 41 20 42 74 43 68 44 70 45 21 46
REMARK SMILES IDX 73 47 67 48 66 49 22 51 54 52 34 53 53 54 35 55 38 56 52 57
REMARK SMILES IDX 71 58 36 59 37 60 51 62 72 63 39 64 23 65 24 66 32 67 25 68
REMARK SMILES IDX 31 69 33 70 30 71 26 72 27 73 28 74 29 75 55 76 56 77 64 78
REMARK SMILES IDX 57 79 63 80 65 81 62 82 58 83 59 84 60 85 61 86 40 87 41 88
REMARK SMILES IDX 49 89 42 90 48 91 50 92 47 93 43 94 44 95 45 96 46 97
REMARK H PARENT 1 11 1 12 1 13 89 25 70 50 38 61
REMARK Flexibility Score: inf
ROOT
ATOM      1  C   UNL A   1      31.713  29.089  24.764  1.00  0.00     0.261 C 
ENDROOT
BRANCH   1   2
ATOM      2  O   UNL A   1      31.940  27.903  23.984  1.00  0.00    -0.459 OA
BRANCH   2   3
ATOM      3  C   UNL A   1      31.583  26.764  24.636  1.00  0.00     0.368 C 
ATOM      4  O   UNL A   1      30.475  26.606  25.137  1.00  0.00    -0.245 OA
BRANCH   3   5
ATOM      5  C   UNL A   1      32.636  25.639  24.573  1.00  0.00     0.195 C 
ATOM      6  C   UNL A   1      34.036  26.123  24.974  1.00  0.00     0.081 C 
ATOM      7  C   UNL A   1      32.348  24.597  25.694  1.00  0.00     0.066 C 
ATOM      8  C   UNL A   1      34.770  24.857  25.409  1.00  0.00     0.008 C 
ATOM      9  C   UNL A   1      33.699  23.917  25.965  1.00  0.00     0.011 C 
BRANCH   5  10
ATOM     10  N   UNL A   1      32.679  25.032  23.222  1.00  0.00    -0.343 N 
ATOM     11  H   UNL A   1      33.049  25.710  22.555  1.00  0.00     0.345 HD
ATOM     12  H   UNL A   1      31.736  24.758  22.942  1.00  0.00     0.345 HD
ATOM     13  H   UNL A   1      33.281  24.208  23.238  1.00  0.00     0.345 HD
ENDBRANCH   5  10
BRANCH   7  14
ATOM     14  C   UNL A   1      31.198  23.599  25.408  1.00  0.00     0.052 C 
BRANCH  14  15
ATOM     15  C   UNL A   1      31.620  22.117  25.435  1.00  0.00     0.230 C 
BRANCH  15  16
ATOM     16  O   UNL A   1      32.072  21.623  24.157  1.00  0.00    -0.494 OA
BRANCH  16  17
ATOM     17  C   UNL A   1      32.277  20.272  24.179  1.00  0.00     0.119 A 
ATOM     18  C   UNL A   1      32.199  19.503  23.026  1.00  0.00     0.047 A 
ATOM     19  C   UNL A   1      32.595  19.681  25.395  1.00  0.00     0.047 A 
ATOM     20  C   UNL A   1      32.604  18.165  23.065  1.00  0.00     0.010 A 
ATOM     21  C   UNL A   1      33.062  18.367  25.426  1.00  0.00     0.010 A 
ATOM     22  C   UNL A   1      33.104  17.606  24.252  1.00  0.00    -0.022 A 
BRANCH  22  23
ATOM     23  C   UNL A   1      33.713  16.229  24.258  1.00  0.00     0.191 C 
BRANCH  23  24
ATOM     24  O   UNL A   1      32.756  15.235  24.582  1.00  0.00    -0.392 OA
ATOM     25  H   UNL A   1      32.942  14.430  24.075  1.00  0.00     0.211 HD
ENDBRANCH  23  24
ENDBRANCH  22  23
ENDBRANCH  16  17
ENDBRANCH  15  16
ENDBRANCH  14  15
ENDBRANCH   7  14
ENDBRANCH   3   5
ENDBRANCH   2   3
ENDBRANCH   1   2
BRANCH   1  26
ATOM     26  C   UNL A   1      32.711  29.353  25.901  1.00  0.00     0.202 C 
BRANCH  26  27
ATOM     27  O   UNL A   1      32.527  30.446  26.793  1.00  0.00    -0.374 OA
BRANCH  27  28
ATOM     28  C   UNL A   1      31.544  31.430  26.495  1.00  0.00     0.202 C 
BRANCH  28  29
ATOM     29  C   UNL A   1      31.842  32.917  26.722  1.00  0.00     0.261 C 
BRANCH  29  30
ATOM     30  O   UNL A   1      32.099  33.259  28.089  1.00  0.00    -0.460 OA
BRANCH  30  31
ATOM     31  C   UNL A   1      33.138  34.114  28.250  1.00  0.00     0.338 C 
ATOM     32  O   UNL A   1      33.075  35.332  28.371  1.00  0.00    -0.246 OA
BRANCH  31  33
ATOM     33  C   UNL A   1      34.388  33.368  28.472  1.00  0.00     0.060 A 
ATOM     34  C   UNL A   1      34.287  32.163  29.176  1.00  0.00     0.016 A 
ATOM     35  C   UNL A   1      35.632  33.862  28.075  1.00  0.00     0.016 A 
ATOM     36  C   UNL A   1      35.437  31.479  29.549  1.00  0.00     0.010 A 
ATOM     37  C   UNL A   1      36.790  33.177  28.460  1.00  0.00     0.010 A 
ATOM     38  C   UNL A   1      36.696  32.008  29.236  1.00  0.00    -0.014 A 
BRANCH  38  39
ATOM     39  C   UNL A   1      37.886  31.401  29.879  1.00  0.00     0.031 A 
ATOM     40  C   UNL A   1      38.197  31.753  31.309  1.00  0.00     0.074 A 
ATOM     41  C   UNL A   1      38.605  30.467  29.230  1.00  0.00     0.049 A 
ATOM     42  N   UNL A   1      39.124  31.276  32.098  1.00  0.00    -0.248 NA
ATOM     43  C   UNL A   1      37.343  32.776  31.932  1.00  0.00     0.031 C 
ATOM     44  C   UNL A   1      38.359  30.019  27.858  1.00  0.00     0.029 A 
ATOM     45  N   UNL A   1      39.674  29.714  29.643  1.00  0.00    -0.354 N 
ATOM     46  C   UNL A   1      38.959  31.930  33.316  1.00  0.00     0.074 A 
ATOM     47  C   UNL A   1      37.873  32.872  33.142  1.00  0.00     0.031 C 
ATOM     48  C   UNL A   1      39.246  29.059  27.549  1.00  0.00     0.029 A 
ATOM     49  C   UNL A   1      40.138  28.843  28.686  1.00  0.00     0.049 A 
ATOM     50  H   UNL A   1      40.070  29.789  30.541  1.00  0.00     0.167 HD
ATOM     51  C   UNL A   1      39.641  31.750  34.473  1.00  0.00     0.034 A 
ATOM     52  C   UNL A   1      41.171  27.978  28.723  1.00  0.00     0.034 A 
ATOM     53  C   UNL A   1      40.732  30.818  34.622  1.00  0.00     0.049 A 
ATOM     54  C   UNL A   1      41.962  27.853  30.003  1.00  0.00     0.074 A 
ATOM     55  C   UNL A   1      41.497  30.555  35.745  1.00  0.00     0.029 A 
ATOM     56  N   UNL A   1      41.221  29.998  33.610  1.00  0.00    -0.354 N 
ATOM     57  N   UNL A   1      41.788  28.471  31.151  1.00  0.00    -0.248 NA
ATOM     58  C   UNL A   1      43.079  26.900  29.996  1.00  0.00     0.031 C 
ATOM     59  C   UNL A   1      42.490  29.632  35.395  1.00  0.00     0.029 A 
ATOM     60  C   UNL A   1      42.297  29.257  34.075  1.00  0.00     0.049 A 
ATOM     61  H   UNL A   1      40.856  29.952  32.698  1.00  0.00     0.167 HD
ATOM     62  C   UNL A   1      42.761  27.959  32.007  1.00  0.00     0.074 A 
ATOM     63  C   UNL A   1      43.492  26.962  31.253  1.00  0.00     0.031 C 
ATOM     64  C   UNL A   1      43.030  28.283  33.299  1.00  0.00     0.034 A 
BRANCH  51  65
ATOM     65  C   UNL A   1      39.254  32.617  35.649  1.00  0.00     0.023 A 
ATOM     66  C   UNL A   1      39.757  33.921  35.809  1.00  0.00     0.031 A 
ATOM     67  C   UNL A   1      38.385  32.121  36.636  1.00  0.00     0.131 A 
ATOM     68  C   UNL A   1      39.433  34.661  36.956  1.00  0.00     0.055 A 
ATOM     69  C   UNL A   1      38.007  32.890  37.740  1.00  0.00     0.041 A 
ATOM     70  F   UNL A   1      37.893  30.874  36.552  1.00  0.00    -0.206 F 
ATOM     71  C   UNL A   1      38.541  34.163  37.911  1.00  0.00     0.022 A 
BRANCH  68  72
ATOM     72  S   UNL A   1      40.288  36.234  37.250  1.00  0.00     0.124 S 
ATOM     73  O   UNL A   1      39.358  36.911  38.150  1.00  0.00    -0.237 OA
ATOM     74  O   UNL A   1      41.549  35.802  37.839  1.00  0.00    -0.237 OA
ATOM     75  O   UNL A   1      40.392  36.822  35.915  1.00  0.00    -0.744 OA
ENDBRANCH  68  72
ENDBRANCH  51  65
BRANCH  52  76
ATOM     76  C   UNL A   1      41.544  27.183  27.517  1.00  0.00     0.023 A 
ATOM     77  C   UNL A   1      41.315  25.800  27.454  1.00  0.00     0.031 A 
ATOM     78  C   UNL A   1      42.203  27.791  26.433  1.00  0.00     0.131 A 
ATOM     79  C   UNL A   1      41.792  25.061  26.360  1.00  0.00     0.055 A 
ATOM     80  C   UNL A   1      42.623  27.061  25.320  1.00  0.00     0.041 A 
ATOM     81  F   UNL A   1      42.449  29.112  26.441  1.00  0.00    -0.206 F 
ATOM     82  C   UNL A   1      42.432  25.684  25.287  1.00  0.00     0.022 A 
BRANCH  79  83
ATOM     83  S   UNL A   1      41.655  23.252  26.407  1.00  0.00     0.124 S 
ATOM     84  O   UNL A   1      42.356  22.932  27.644  1.00  0.00    -0.237 OA
ATOM     85  O   UNL A   1      40.209  23.060  26.419  1.00  0.00    -0.237 OA
ATOM     86  O   UNL A   1      42.327  22.828  25.180  1.00  0.00    -0.744 OA
ENDBRANCH  79  83
ENDBRANCH  52  76
BRANCH  64  87
ATOM     87  C   UNL A   1      44.151  27.522  33.968  1.00  0.00     0.023 A 
ATOM     88  C   UNL A   1      43.911  26.333  34.680  1.00  0.00     0.031 A 
ATOM     89  C   UNL A   1      45.466  28.018  33.936  1.00  0.00     0.131 A 
ATOM     90  C   UNL A   1      44.949  25.728  35.402  1.00  0.00     0.055 A 
ATOM     91  C   UNL A   1      46.512  27.370  34.597  1.00  0.00     0.041 A 
ATOM     92  F   UNL A   1      45.756  29.149  33.273  1.00  0.00    -0.206 F 
ATOM     93  C   UNL A   1      46.253  26.230  35.352  1.00  0.00     0.022 A 
BRANCH  90  94
ATOM     94  S   UNL A   1      44.546  24.354  36.516  1.00  0.00     0.124 S 
ATOM     95  O   UNL A   1      43.086  24.368  36.497  1.00  0.00    -0.237 OA
ATOM     96  O   UNL A   1      45.181  23.220  35.853  1.00  0.00    -0.237 OA
ATOM     97  O   UNL A   1      45.153  24.752  37.784  1.00  0.00    -0.744 OA
ENDBRANCH  90  94
ENDBRANCH  64  87
ENDBRANCH  38  39
ENDBRANCH  31  33
ENDBRANCH  30  31
ENDBRANCH  29  30
ENDBRANCH  28  29
ENDBRANCH  27  28
ENDBRANCH  26  27
ENDBRANCH   1  26
TORSDOF 24
ENDMDL
MODEL 2
REMARK VINA RESULT:     -10.3      1.961      3.918
REMARK SMILES [NH3+][C@]1(C(=O)OCCOCCOC(=O)c2ccc(-c3c4nc(c(-c5cc(S(=O)(=O)[O-])ccc5F)c5ccc([nH]5)c(-c5cc(S(=O)(=O)[O-])ccc5F)c5nc(c(-c6cc(S(=O)(=O)[O-])ccc6F)c6ccc3[nH]6)C=C5)C=C4)cc2)CCC[C@@H]1CCOc1ccc(CO)cc1
REMARK SMILES IDX 6 1 5 2 3 3 4 4 2 5 77 6 80 7 78 8 79 9 1 10 81 14 82 15
REMARK SMILES IDX 83 16 84 17 85 18 91 19 86 20 90 21 87 22 88 23 89 24 7 26
REMARK SMILES IDX 8 27 9 28 10 29 11 30 12 31 13 32 14 33 15 34 76 35 16 36
REMARK SMILES IDX 75 37 17 38 18 39 19 40 69 41 20 42 74 43 68 44 70 45 21 46
REMARK SMILES IDX 73 47 67 48 66 49 22 51 54 52 34 53 53 54 35 55 38 56 52 57
REMARK SMILES IDX 71 58 36 59 37 60 51 62 72 63 39 64 23 65 24 66 32 67 25 68
REMARK SMILES IDX 31 69 33 70 30 71 26 72 27 73 28 74 29 75 55 76 56 77 64 78
REMARK SMILES IDX 57 79 63 80 65 81 62 82 58 83 59 84 60 85 61 86 40 87 41 88
REMARK SMILES IDX 49 89 42 90 48 91 50 92 47 93 43 94 44 95 45 96 46 97
REMARK H PARENT 1 11 1 12 1 13 89 25 70 50 38 61
REMARK Flexibility Score: inf
ROOT
ATOM      1  C   UNL A   1      32.928  27.695  25.843  1.00  0.00     0.261 C 
ENDROOT
BRANCH   1   2
ATOM      2  O   UNL A   1      33.448  26.378  26.089  1.00  0.00    -0.459 OA
BRANCH   2   3
ATOM      3  C   UNL A   1      33.518  25.618  24.964  1.00  0.00     0.368 C 
ATOM      4  O   UNL A   1      33.923  26.055  23.893  1.00  0.00    -0.245 OA
BRANCH   3   5
ATOM      5  C   UNL A   1      33.180  24.129  25.182  1.00  0.00     0.195 C 
ATOM      6  C   UNL A   1      33.575  23.636  26.580  1.00  0.00     0.081 C 
ATOM      7  C   UNL A   1      31.633  23.952  25.230  1.00  0.00     0.066 C 
ATOM      8  C   UNL A   1      32.690  22.416  26.823  1.00  0.00     0.008 C 
ATOM      9  C   UNL A   1      31.402  22.666  26.036  1.00  0.00     0.011 C 
BRANCH   5  10
ATOM     10  N   UNL A   1      33.823  23.284  24.148  1.00  0.00    -0.343 N 
ATOM     11  H   UNL A   1      34.811  23.526  24.078  1.00  0.00     0.345 HD
ATOM     12  H   UNL A   1      33.368  23.444  23.248  1.00  0.00     0.345 HD
ATOM     13  H   UNL A   1      33.730  22.301  24.406  1.00  0.00     0.345 HD
ENDBRANCH   5  10
BRANCH   7  14
ATOM     14  C   UNL A   1      30.910  23.963  23.860  1.00  0.00     0.052 C 
BRANCH  14  15
ATOM     15  C   UNL A   1      30.589  25.370  23.319  1.00  0.00     0.230 C 
BRANCH  15  16
ATOM     16  O   UNL A   1      29.958  26.231  24.290  1.00  0.00    -0.494 OA
BRANCH  16  17
ATOM     17  C   UNL A   1      29.378  27.319  23.700  1.00  0.00     0.119 A 
ATOM     18  C   UNL A   1      28.005  27.402  23.512  1.00  0.00     0.047 A 
ATOM     19  C   UNL A   1      30.202  28.366  23.312  1.00  0.00     0.047 A 
ATOM     20  C   UNL A   1      27.442  28.608  23.084  1.00  0.00     0.010 A 
ATOM     21  C   UNL A   1      29.643  29.591  22.949  1.00  0.00     0.010 A 
ATOM     22  C   UNL A   1      28.252  29.733  22.865  1.00  0.00    -0.022 A 
BRANCH  22  23
ATOM     23  C   UNL A   1      27.640  31.080  22.587  1.00  0.00     0.191 C 
BRANCH  23  24
ATOM     24  O   UNL A   1      27.132  31.678  23.768  1.00  0.00    -0.392 OA
ATOM     25  H   UNL A   1      27.084  32.639  23.649  1.00  0.00     0.211 HD
ENDBRANCH  23  24
ENDBRANCH  22  23
ENDBRANCH  16  17
ENDBRANCH  15  16
ENDBRANCH  14  15
ENDBRANCH   7  14
ENDBRANCH   3   5
ENDBRANCH   2   3
ENDBRANCH   1   2
BRANCH   1  26
ATOM     26  C   UNL A   1      32.655  28.558  27.085  1.00  0.00     0.202 C 
BRANCH  26  27
ATOM     27  O   UNL A   1      31.544  29.446  27.125  1.00  0.00    -0.374 OA
BRANCH  27  28
ATOM     28  C   UNL A   1      31.663  30.737  26.540  1.00  0.00     0.202 C 
BRANCH  28  29
ATOM     29  C   UNL A   1      32.819  31.663  26.932  1.00  0.00     0.261 C 
BRANCH  29  30
ATOM     30  O   UNL A   1      32.437  33.033  27.111  1.00  0.00    -0.460 OA
BRANCH  30  31
ATOM     31  C   UNL A   1      33.145  33.674  28.071  1.00  0.00     0.338 C 
ATOM     32  O   UNL A   1      32.754  34.594  28.781  1.00  0.00    -0.246 OA
BRANCH  31  33
ATOM     33  C   UNL A   1      34.422  32.985  28.316  1.00  0.00     0.060 A 
ATOM     34  C   UNL A   1      34.357  31.743  28.959  1.00  0.00     0.016 A 
ATOM     35  C   UNL A   1      35.654  33.560  28.000  1.00  0.00     0.016 A 
ATOM     36  C   UNL A   1      35.524  31.102  29.353  1.00  0.00     0.010 A 
ATOM     37  C   UNL A   1      36.830  32.918  28.406  1.00  0.00     0.010 A 
ATOM     38  C   UNL A   1      36.766  31.710  29.122  1.00  0.00    -0.014 A 
BRANCH  38  39
ATOM     39  C   UNL A   1      37.957  31.135  29.790  1.00  0.00     0.031 A 
ATOM     40  C   UNL A   1      38.243  31.516  31.219  1.00  0.00     0.074 A 
ATOM     41  C   UNL A   1      38.701  30.204  29.166  1.00  0.00     0.049 A 
ATOM     42  N   UNL A   1      39.167  31.069  32.027  1.00  0.00    -0.248 NA
ATOM     43  C   UNL A   1      37.362  32.533  31.814  1.00  0.00     0.031 C 
ATOM     44  C   UNL A   1      38.482  29.730  27.799  1.00  0.00     0.029 A 
ATOM     45  N   UNL A   1      39.777  29.477  29.605  1.00  0.00    -0.354 N 
ATOM     46  C   UNL A   1      38.974  31.739  33.232  1.00  0.00     0.074 A 
ATOM     47  C   UNL A   1      37.874  32.658  33.029  1.00  0.00     0.031 C 
ATOM     48  C   UNL A   1      39.389  28.780  27.517  1.00  0.00     0.029 A 
ATOM     49  C   UNL A   1      40.270  28.600  28.669  1.00  0.00     0.049 A 
ATOM     50  H   UNL A   1      40.160  29.574  30.507  1.00  0.00     0.167 HD
ATOM     51  C   UNL A   1      39.643  31.590  34.401  1.00  0.00     0.034 A 
ATOM     52  C   UNL A   1      41.318  27.754  28.734  1.00  0.00     0.034 A 
ATOM     53  C   UNL A   1      40.749  30.680  34.579  1.00  0.00     0.049 A 
ATOM     54  C   UNL A   1      42.094  27.663  30.026  1.00  0.00     0.074 A 
ATOM     55  C   UNL A   1      41.503  30.449  35.717  1.00  0.00     0.029 A 
ATOM     56  N   UNL A   1      41.266  29.853  33.588  1.00  0.00    -0.354 N 
ATOM     57  N   UNL A   1      41.893  28.297  31.161  1.00  0.00    -0.248 NA
ATOM     58  C   UNL A   1      43.228  26.731  30.049  1.00  0.00     0.031 C 
ATOM     59  C   UNL A   1      42.517  29.539  35.394  1.00  0.00     0.029 A 
ATOM     60  C   UNL A   1      42.349  29.139  34.078  1.00  0.00     0.049 A 
ATOM     61  H   UNL A   1      40.914  29.786  32.672  1.00  0.00     0.167 HD
ATOM     62  C   UNL A   1      42.863  27.817  32.039  1.00  0.00     0.074 A 
ATOM     63  C   UNL A   1      43.622  26.821  31.310  1.00  0.00     0.031 C 
ATOM     64  C   UNL A   1      43.110  28.166  33.328  1.00  0.00     0.034 A 
BRANCH  51  65
ATOM     65  C   UNL A   1      39.226  32.468  35.557  1.00  0.00     0.023 A 
ATOM     66  C   UNL A   1      39.679  33.793  35.686  1.00  0.00     0.031 A 
ATOM     67  C   UNL A   1      38.377  31.963  36.558  1.00  0.00     0.131 A 
ATOM     68  C   UNL A   1      39.328  34.547  36.817  1.00  0.00     0.055 A 
ATOM     69  C   UNL A   1      37.972  32.743  37.644  1.00  0.00     0.041 A 
ATOM     70  F   UNL A   1      37.932  30.697  36.503  1.00  0.00    -0.206 F 
ATOM     71  C   UNL A   1      38.457  34.039  37.784  1.00  0.00     0.022 A 
BRANCH  68  72
ATOM     72  S   UNL A   1      40.124  36.157  37.072  1.00  0.00     0.124 S 
ATOM     73  O   UNL A   1      39.373  36.680  38.212  1.00  0.00    -0.237 OA
ATOM     74  O   UNL A   1      41.509  35.787  37.334  1.00  0.00    -0.237 OA
ATOM     75  O   UNL A   1      39.893  36.858  35.809  1.00  0.00    -0.744 OA
ENDBRANCH  68  72
ENDBRANCH  51  65
BRANCH  52  76
ATOM     76  C   UNL A   1      41.721  26.947  27.546  1.00  0.00     0.023 A 
ATOM     77  C   UNL A   1      41.497  25.562  27.493  1.00  0.00     0.031 A 
ATOM     78  C   UNL A   1      42.405  27.544  26.472  1.00  0.00     0.131 A 
ATOM     79  C   UNL A   1      42.001  24.812  26.419  1.00  0.00     0.055 A 
ATOM     80  C   UNL A   1      42.853  26.803  25.378  1.00  0.00     0.041 A 
ATOM     81  F   UNL A   1      42.648  28.865  26.471  1.00  0.00    -0.206 F 
ATOM     82  C   UNL A   1      42.665  25.424  25.355  1.00  0.00     0.022 A 
BRANCH  79  83
ATOM     83  S   UNL A   1      41.866  23.004  26.483  1.00  0.00     0.124 S 
ATOM     84  O   UNL A   1      42.865  22.595  25.503  1.00  0.00    -0.237 OA
ATOM     85  O   UNL A   1      42.185  22.727  27.879  1.00  0.00    -0.237 OA
ATOM     86  O   UNL A   1      40.477  22.753  26.101  1.00  0.00    -0.744 OA
ENDBRANCH  79  83
ENDBRANCH  52  76
BRANCH  64  87
ATOM     87  C   UNL A   1      44.235  27.436  34.024  1.00  0.00     0.023 A 
ATOM     88  C   UNL A   1      44.046  26.163  34.591  1.00  0.00     0.031 A 
ATOM     89  C   UNL A   1      45.496  28.042  34.167  1.00  0.00     0.131 A 
ATOM     90  C   UNL A   1      45.071  25.575  35.348  1.00  0.00     0.055 A 
ATOM     91  C   UNL A   1      46.536  27.419  34.858  1.00  0.00     0.041 A 
ATOM     92  F   UNL A   1      45.735  29.257  33.647  1.00  0.00    -0.206 F 
ATOM     93  C   UNL A   1      46.320  26.188  35.471  1.00  0.00     0.022 A 
BRANCH  90  94
ATOM     94  S   UNL A   1      44.703  24.063  36.280  1.00  0.00     0.124 S 
ATOM     95  O   UNL A   1      44.808  24.526  37.660  1.00  0.00    -0.237 OA
ATOM     96  O   UNL A   1      43.358  23.734  35.820  1.00  0.00    -0.237 OA
ATOM     97  O   UNL A   1      45.749  23.136  35.856  1.00  0.00    -0.744 OA
ENDBRANCH  90  94
ENDBRANCH  64  87
ENDBRANCH  38  39
ENDBRANCH  31  33
ENDBRANCH  30  31
ENDBRANCH  29  30
ENDBRANCH  28  29
ENDBRANCH  27  28
ENDBRANCH  26  27
ENDBRANCH   1  26
TORSDOF 24
ENDMDL
MODEL 3
REMARK VINA RESULT:     -10.2      2.242      8.292
REMARK SMILES [NH3+][C@]1(C(=O)OCCOCCOC(=O)c2ccc(-c3c4nc(c(-c5cc(S(=O)(=O)[O-])ccc5F)c5ccc([nH]5)c(-c5cc(S(=O)(=O)[O-])ccc5F)c5nc(c(-c6cc(S(=O)(=O)[O-])ccc6F)c6ccc3[nH]6)C=C5)C=C4)cc2)CCC[C@@H]1CCOc1ccc(CO)cc1
REMARK SMILES IDX 6 1 5 2 3 3 4 4 2 5 77 6 80 7 78 8 79 9 1 10 81 14 82 15
REMARK SMILES IDX 83 16 84 17 85 18 91 19 86 20 90 21 87 22 88 23 89 24 7 26
REMARK SMILES IDX 8 27 9 28 10 29 11 30 12 31 13 32 14 33 15 34 76 35 16 36
REMARK SMILES IDX 75 37 17 38 18 39 19 40 69 41 20 42 74 43 68 44 70 45 21 46
REMARK SMILES IDX 73 47 67 48 66 49 22 51 54 52 34 53 53 54 35 55 38 56 52 57
REMARK SMILES IDX 71 58 36 59 37 60 51 62 72 63 39 64 23 65 24 66 32 67 25 68
REMARK SMILES IDX 31 69 33 70 30 71 26 72 27 73 28 74 29 75 55 76 56 77 64 78
REMARK SMILES IDX 57 79 63 80 65 81 62 82 58 83 59 84 60 85 61 86 40 87 41 88
REMARK SMILES IDX 49 89 42 90 48 91 50 92 47 93 43 94 44 95 45 96 46 97
REMARK H PARENT 1 11 1 12 1 13 89 25 70 50 38 61
REMARK Flexibility Score: inf
ROOT
ATOM      1  C   UNL A   1      33.640  26.358  25.140  1.00  0.00     0.261 C 
ENDROOT
BRANCH   1   2
ATOM      2  O   UNL A   1      34.384  25.211  24.698  1.00  0.00    -0.459 OA
BRANCH   2   3
ATOM      3  C   UNL A   1      34.024  24.067  25.340  1.00  0.00     0.368 C 
ATOM      4  O   UNL A   1      33.169  24.040  26.218  1.00  0.00    -0.245 OA
BRANCH   3   5
ATOM      5  C   UNL A   1      34.679  22.790  24.776  1.00  0.00     0.195 C 
ATOM      6  C   UNL A   1      35.764  22.228  25.704  1.00  0.00     0.081 C 
ATOM      7  C   UNL A   1      33.643  21.627  24.792  1.00  0.00     0.066 C 
ATOM      8  C   UNL A   1      35.873  20.754  25.322  1.00  0.00     0.008 C 
ATOM      9  C   UNL A   1      34.484  20.342  24.831  1.00  0.00     0.011 C 
BRANCH   5  10
ATOM     10  N   UNL A   1      35.244  23.037  23.429  1.00  0.00    -0.343 N 
ATOM     11  H   UNL A   1      35.891  22.286  23.188  1.00  0.00     0.345 HD
ATOM     12  H   UNL A   1      35.742  23.928  23.427  1.00  0.00     0.345 HD
ATOM     13  H   UNL A   1      34.489  23.068  22.743  1.00  0.00     0.345 HD
ENDBRANCH   5  10
BRANCH   7  14
ATOM     14  C   UNL A   1      32.591  21.644  23.654  1.00  0.00     0.052 C 
BRANCH  14  15
ATOM     15  C   UNL A   1      32.266  23.048  23.110  1.00  0.00     0.230 C 
BRANCH  15  16
ATOM     16  O   UNL A   1      30.985  23.553  23.543  1.00  0.00    -0.494 OA
BRANCH  16  17
ATOM     17  C   UNL A   1      30.876  24.899  23.338  1.00  0.00     0.119 A 
ATOM     18  C   UNL A   1      31.519  25.531  22.282  1.00  0.00     0.047 A 
ATOM     19  C   UNL A   1      30.075  25.628  24.206  1.00  0.00     0.047 A 
ATOM     20  C   UNL A   1      31.225  26.869  22.001  1.00  0.00     0.010 A 
ATOM     21  C   UNL A   1      29.726  26.941  23.892  1.00  0.00     0.010 A 
ATOM     22  C   UNL A   1      30.273  27.564  22.762  1.00  0.00    -0.022 A 
BRANCH  22  23
ATOM     23  C   UNL A   1      29.813  28.938  22.353  1.00  0.00     0.191 C 
BRANCH  23  24
ATOM     24  O   UNL A   1      30.860  29.683  21.755  1.00  0.00    -0.392 OA
ATOM     25  H   UNL A   1      30.809  30.606  22.049  1.00  0.00     0.211 HD
ENDBRANCH  23  24
ENDBRANCH  22  23
ENDBRANCH  16  17
ENDBRANCH  15  16
ENDBRANCH  14  15
ENDBRANCH   7  14
ENDBRANCH   3   5
ENDBRANCH   2   3
ENDBRANCH   1   2
BRANCH   1  26
ATOM     26  C   UNL A   1      33.887  27.663  24.368  1.00  0.00     0.202 C 
BRANCH  26  27
ATOM     27  O   UNL A   1      32.900  28.687  24.333  1.00  0.00    -0.374 OA
BRANCH  27  28
ATOM     28  C   UNL A   1      32.194  29.016  25.523  1.00  0.00     0.202 C 
BRANCH  28  29
ATOM     29  C   UNL A   1      31.957  30.482  25.904  1.00  0.00     0.261 C 
BRANCH  29  30
ATOM     30  O   UNL A   1      32.318  30.800  27.254  1.00  0.00    -0.460 OA
BRANCH  30  31
ATOM     31  C   UNL A   1      33.172  31.847  27.356  1.00  0.00     0.338 C 
ATOM     32  O   UNL A   1      32.895  33.035  27.237  1.00  0.00    -0.246 OA
BRANCH  31  33
ATOM     33  C   UNL A   1      34.486  31.394  27.842  1.00  0.00     0.060 A 
ATOM     34  C   UNL A   1      34.593  30.048  28.210  1.00  0.00     0.016 A 
ATOM     35  C   UNL A   1      35.562  32.268  28.009  1.00  0.00     0.016 A 
ATOM     36  C   UNL A   1      35.755  29.583  28.812  1.00  0.00     0.010 A 
ATOM     37  C   UNL A   1      36.729  31.800  28.625  1.00  0.00     0.010 A 
ATOM     38  C   UNL A   1      36.811  30.468  29.068  1.00  0.00    -0.014 A 
BRANCH  38  39
ATOM     39  C   UNL A   1      37.911  30.004  29.947  1.00  0.00     0.031 A 
ATOM     40  C   UNL A   1      38.940  29.061  29.384  1.00  0.00     0.074 A 
ATOM     41  C   UNL A   1      38.046  30.508  31.186  1.00  0.00     0.049 A 
ATOM     42  N   UNL A   1      40.032  28.600  29.934  1.00  0.00    -0.248 NA
ATOM     43  C   UNL A   1      38.706  28.577  28.014  1.00  0.00     0.031 C 
ATOM     44  C   UNL A   1      37.131  31.464  31.810  1.00  0.00     0.029 A 
ATOM     45  N   UNL A   1      39.016  30.303  32.134  1.00  0.00    -0.354 N 
ATOM     46  C   UNL A   1      40.625  27.783  28.976  1.00  0.00     0.074 A 
ATOM     47  C   UNL A   1      39.743  27.775  27.829  1.00  0.00     0.031 C 
ATOM     48  C   UNL A   1      37.591  31.772  33.034  1.00  0.00     0.029 A 
ATOM     49  C   UNL A   1      38.815  31.016  33.292  1.00  0.00     0.049 A 
ATOM     50  H   UNL A   1      39.784  29.703  31.997  1.00  0.00     0.167 HD
ATOM     51  C   UNL A   1      41.803  27.115  29.044  1.00  0.00     0.034 A 
ATOM     52  C   UNL A   1      39.534  31.047  34.431  1.00  0.00     0.034 A 
ATOM     53  C   UNL A   1      42.661  27.123  30.204  1.00  0.00     0.049 A 
ATOM     54  C   UNL A   1      40.804  30.232  34.507  1.00  0.00     0.074 A 
ATOM     55  C   UNL A   1      43.873  26.480  30.386  1.00  0.00     0.029 A 
ATOM     56  N   UNL A   1      42.393  27.803  31.387  1.00  0.00    -0.354 N 
ATOM     57  N   UNL A   1      41.357  29.472  33.589  1.00  0.00    -0.248 NA
ATOM     58  C   UNL A   1      41.552  30.295  35.768  1.00  0.00     0.031 C 
ATOM     59  C   UNL A   1      44.302  26.713  31.698  1.00  0.00     0.029 A 
ATOM     60  C   UNL A   1      43.399  27.567  32.312  1.00  0.00     0.049 A 
ATOM     61  H   UNL A   1      41.604  28.369  31.544  1.00  0.00     0.167 HD
ATOM     62  C   UNL A   1      42.533  28.987  34.157  1.00  0.00     0.074 A 
ATOM     63  C   UNL A   1      42.621  29.568  35.481  1.00  0.00     0.031 C 
ATOM     64  C   UNL A   1      43.457  28.137  33.638  1.00  0.00     0.034 A 
BRANCH  51  65
ATOM     65  C   UNL A   1      42.199  26.283  27.847  1.00  0.00     0.023 A 
ATOM     66  C   UNL A   1      41.941  24.902  27.783  1.00  0.00     0.031 A 
ATOM     67  C   UNL A   1      42.864  26.879  26.761  1.00  0.00     0.131 A 
ATOM     68  C   UNL A   1      42.396  24.154  26.686  1.00  0.00     0.055 A 
ATOM     69  C   UNL A   1      43.250  26.143  25.638  1.00  0.00     0.041 A 
ATOM     70  F   UNL A   1      43.161  28.189  26.776  1.00  0.00    -0.206 F 
ATOM     71  C   UNL A   1      43.027  24.770  25.602  1.00  0.00     0.022 A 
BRANCH  68  72
ATOM     72  S   UNL A   1      42.265  22.346  26.748  1.00  0.00     0.124 S 
ATOM     73  O   UNL A   1      40.844  22.144  26.478  1.00  0.00    -0.237 OA
ATOM     74  O   UNL A   1      43.182  21.926  25.696  1.00  0.00    -0.237 OA
ATOM     75  O   UNL A   1      42.686  22.018  28.110  1.00  0.00    -0.744 OA
ENDBRANCH  68  72
ENDBRANCH  51  65
BRANCH  52  76
ATOM     76  C   UNL A   1      39.071  31.845  35.604  1.00  0.00     0.023 A 
ATOM     77  C   UNL A   1      38.428  31.236  36.693  1.00  0.00     0.031 A 
ATOM     78  C   UNL A   1      39.205  33.245  35.617  1.00  0.00     0.131 A 
ATOM     79  C   UNL A   1      37.892  32.028  37.721  1.00  0.00     0.055 A 
ATOM     80  C   UNL A   1      38.722  34.024  36.670  1.00  0.00     0.041 A 
ATOM     81  F   UNL A   1      39.811  33.879  34.601  1.00  0.00    -0.206 F 
ATOM     82  C   UNL A   1      38.046  33.416  37.724  1.00  0.00     0.022 A 
BRANCH  79  83
ATOM     83  S   UNL A   1      36.896  31.225  39.008  1.00  0.00     0.124 S 
ATOM     84  O   UNL A   1      35.743  32.114  39.091  1.00  0.00    -0.237 OA
ATOM     85  O   UNL A   1      36.653  29.910  38.424  1.00  0.00    -0.237 OA
ATOM     86  O   UNL A   1      37.777  31.233  40.174  1.00  0.00    -0.744 OA
ENDBRANCH  79  83
ENDBRANCH  52  76
BRANCH  64  87
ATOM     87  C   UNL A   1      44.649  27.818  34.511  1.00  0.00     0.023 A 
ATOM     88  C   UNL A   1      44.677  26.673  35.327  1.00  0.00     0.031 A 
ATOM     89  C   UNL A   1      45.747  28.694  34.565  1.00  0.00     0.131 A 
ATOM     90  C   UNL A   1      45.737  26.480  36.224  1.00  0.00     0.055 A 
ATOM     91  C   UNL A   1      46.835  28.458  35.407  1.00  0.00     0.041 A 
ATOM     92  F   UNL A   1      45.776  29.804  33.809  1.00  0.00    -0.206 F 
ATOM     93  C   UNL A   1      46.825  27.357  36.258  1.00  0.00     0.022 A 
BRANCH  90  94
ATOM     94  S   UNL A   1      45.611  25.141  37.442  1.00  0.00     0.124 S 
ATOM     95  O   UNL A   1      45.933  23.968  36.635  1.00  0.00    -0.237 OA
ATOM     96  O   UNL A   1      46.610  25.526  38.432  1.00  0.00    -0.237 OA
ATOM     97  O   UNL A   1      44.224  25.220  37.895  1.00  0.00    -0.744 OA
ENDBRANCH  90  94
ENDBRANCH  64  87
ENDBRANCH  38  39
ENDBRANCH  31  33
ENDBRANCH  30  31
ENDBRANCH  29  30
ENDBRANCH  28  29
ENDBRANCH  27  28
ENDBRANCH  26  27
ENDBRANCH   1  26
TORSDOF 24
ENDMDL
