MODEL 1
REMARK VINA RESULT:     -11.7      0.000      0.000
REMARK SMILES Cc1cc2c(c(C)c1Cl)C=C(C(=O)OCCOCCOC(=O)c1ccc(-c3c4nc(c(-c5cc(S(=O)(=O)[O-])ccc5F)c5ccc([nH]5)c(-c5cc(S(=O)(=O)[O-])ccc5F)c5nc(c(-c6cc(S(=O)(=O)[O-])ccc6F)c6ccc3[nH]6)C=C5)C=C4)cc1)[C@@H](C(F)(F)F)O2
REMARK SMILES IDX 18 1 17 2 16 3 15 4 14 5 12 6 13 7 11 8 1 9 2 10 3 11 8 12
REMARK SMILES IDX 4 13 6 14 9 15 5 16 91 17 7 18 10 19 86 20 87 21 88 22 89 23
REMARK SMILES IDX 90 24 19 25 20 26 21 27 22 28 23 29 24 30 85 31 25 32 84 33
REMARK SMILES IDX 26 34 27 35 28 36 78 37 29 38 83 39 77 40 79 41 30 42 82 43
REMARK SMILES IDX 76 44 75 45 31 47 63 48 43 49 62 50 44 51 47 52 61 53 80 54
REMARK SMILES IDX 45 55 46 56 60 58 81 59 48 60 32 61 33 62 41 63 34 64 40 65
REMARK SMILES IDX 42 66 39 67 35 68 36 69 37 70 38 71 64 72 65 73 73 74 66 75
REMARK SMILES IDX 72 76 74 77 71 78 67 79 68 80 69 81 70 82 49 83 50 84 58 85
REMARK SMILES IDX 51 86 57 87 59 88 56 89 52 90 53 91 54 92 55 93
REMARK H PARENT 79 46 47 57
REMARK Flexibility Score: inf
ROOT
ATOM      1  C   UNL A   1      31.434  31.863  26.805  1.00  0.00     0.202 C 
ENDROOT
BRANCH   1   2
ATOM      2  O   UNL A   1      32.319  30.754  26.633  1.00  0.00    -0.374 OA
BRANCH   2   3
ATOM      3  C   UNL A   1      32.096  29.896  25.514  1.00  0.00     0.202 C 
BRANCH   3   4
ATOM      4  C   UNL A   1      33.248  28.963  25.130  1.00  0.00     0.261 C 
BRANCH   4   5
ATOM      5  O   UNL A   1      32.841  27.585  25.156  1.00  0.00    -0.460 OA
BRANCH   5   6
ATOM      6  C   UNL A   1      33.281  26.849  24.113  1.00  0.00     0.338 C 
ATOM      7  O   UNL A   1      33.769  27.264  23.070  1.00  0.00    -0.246 OA
BRANCH   6   8
ATOM      8  C   UNL A   1      33.223  25.416  24.449  1.00  0.00     0.087 C 
ATOM      9  C   UNL A   1      34.329  19.056  24.629  1.00  0.00     0.046 C 
ATOM     10  C   UNL A   1      34.404  20.553  24.753  1.00  0.00    -0.028 A 
ATOM     11  C   UNL A   1      33.213  21.289  24.805  1.00  0.00     0.052 A 
ATOM     12  C   UNL A   1      35.633  21.242  24.786  1.00  0.00     0.047 A 
ATOM     13  C   UNL A   1      33.234  22.681  24.807  1.00  0.00     0.128 A 
ATOM     14  C   UNL A   1      35.675  22.654  24.826  1.00  0.00    -0.021 A 
ATOM     15  Cl  UNL A   1      37.105  20.316  24.740  1.00  0.00    -0.084 Cl
ATOM     16  C   UNL A   1      34.452  23.369  24.776  1.00  0.00     0.022 A 
ATOM     17  O   UNL A   1      32.009  23.285  24.844  1.00  0.00    -0.475 OA
ATOM     18  C   UNL A   1      36.980  23.413  24.894  1.00  0.00     0.047 C 
ATOM     19  C   UNL A   1      34.410  24.816  24.601  1.00  0.00     0.027 C 
ATOM     20  C   UNL A   1      31.905  24.709  24.564  1.00  0.00     0.316 C 
BRANCH  20  21
ATOM     21  C   UNL A   1      31.021  24.890  23.321  1.00  0.00     0.430 C 
ATOM     22  F   UNL A   1      30.255  23.793  23.103  1.00  0.00    -0.167 F 
ATOM     23  F   UNL A   1      30.177  25.937  23.450  1.00  0.00    -0.167 F 
ATOM     24  F   UNL A   1      31.759  25.096  22.205  1.00  0.00    -0.167 F 
ENDBRANCH  20  21
ENDBRANCH   6   8
ENDBRANCH   5   6
ENDBRANCH   4   5
ENDBRANCH   3   4
ENDBRANCH   2   3
ENDBRANCH   1   2
BRANCH   1  25
ATOM     25  C   UNL A   1      32.057  33.263  26.863  1.00  0.00     0.261 C 
BRANCH  25  26
ATOM     26  O   UNL A   1      32.371  33.666  28.209  1.00  0.00    -0.460 OA
BRANCH  26  27
ATOM     27  C   UNL A   1      33.509  34.392  28.326  1.00  0.00     0.338 C 
ATOM     28  O   UNL A   1      33.599  35.613  28.370  1.00  0.00    -0.246 OA
BRANCH  27  29
ATOM     29  C   UNL A   1      34.655  33.507  28.593  1.00  0.00     0.060 A 
ATOM     30  C   UNL A   1      34.403  32.312  29.281  1.00  0.00     0.016 A 
ATOM     31  C   UNL A   1      35.961  33.880  28.270  1.00  0.00     0.016 A 
ATOM     32  C   UNL A   1      35.463  31.511  29.697  1.00  0.00     0.010 A 
ATOM     33  C   UNL A   1      37.025  33.081  28.703  1.00  0.00     0.010 A 
ATOM     34  C   UNL A   1      36.781  31.916  29.452  1.00  0.00    -0.014 A 
BRANCH  34  35
ATOM     35  C   UNL A   1      37.891  31.214  30.139  1.00  0.00     0.031 A 
ATOM     36  C   UNL A   1      38.196  31.574  31.570  1.00  0.00     0.074 A 
ATOM     37  C   UNL A   1      38.576  30.233  29.526  1.00  0.00     0.049 A 
ATOM     38  N   UNL A   1      39.138  31.124  32.355  1.00  0.00    -0.248 NA
ATOM     39  C   UNL A   1      37.313  32.572  32.197  1.00  0.00     0.031 C 
ATOM     40  C   UNL A   1      38.321  29.746  28.171  1.00  0.00     0.029 A 
ATOM     41  N   UNL A   1      39.622  29.464  29.968  1.00  0.00    -0.354 N 
ATOM     42  C   UNL A   1      38.963  31.778  33.569  1.00  0.00     0.074 A 
ATOM     43  C   UNL A   1      37.841  32.677  33.408  1.00  0.00     0.031 C 
ATOM     44  C   UNL A   1      39.187  28.757  27.894  1.00  0.00     0.029 A 
ATOM     45  C   UNL A   1      40.083  28.567  29.034  1.00  0.00     0.049 A 
ATOM     46  H   UNL A   1      40.006  29.546  30.871  1.00  0.00     0.167 HD
ATOM     47  C   UNL A   1      39.667  31.635  34.718  1.00  0.00     0.034 A 
ATOM     48  C   UNL A   1      41.122  27.710  29.086  1.00  0.00     0.034 A 
ATOM     49  C   UNL A   1      40.788  30.743  34.867  1.00  0.00     0.049 A 
ATOM     50  C   UNL A   1      41.960  27.647  30.338  1.00  0.00     0.074 A 
ATOM     51  C   UNL A   1      41.579  30.533  35.982  1.00  0.00     0.029 A 
ATOM     52  N   UNL A   1      41.280  29.913  33.868  1.00  0.00    -0.354 N 
ATOM     53  N   UNL A   1      41.815  28.309  31.463  1.00  0.00    -0.248 NA
ATOM     54  C   UNL A   1      43.107  26.728  30.325  1.00  0.00     0.031 C 
ATOM     55  C   UNL A   1      42.585  29.623  35.641  1.00  0.00     0.029 A 
ATOM     56  C   UNL A   1      42.382  29.214  34.332  1.00  0.00     0.049 A 
ATOM     57  H   UNL A   1      40.903  29.835  32.963  1.00  0.00     0.167 HD
ATOM     58  C   UNL A   1      42.842  27.873  32.295  1.00  0.00     0.074 A 
ATOM     59  C   UNL A   1      43.594  26.885  31.548  1.00  0.00     0.031 C 
ATOM     60  C   UNL A   1      43.134  28.251  33.566  1.00  0.00     0.034 A 
BRANCH  47  61
ATOM     61  C   UNL A   1      39.273  32.496  35.887  1.00  0.00     0.023 A 
ATOM     62  C   UNL A   1      39.747  33.811  36.028  1.00  0.00     0.031 A 
ATOM     63  C   UNL A   1      38.403  31.994  36.871  1.00  0.00     0.131 A 
ATOM     64  C   UNL A   1      39.379  34.569  37.150  1.00  0.00     0.055 A 
ATOM     65  C   UNL A   1      37.992  32.773  37.954  1.00  0.00     0.041 A 
ATOM     66  F   UNL A   1      37.940  30.737  36.795  1.00  0.00    -0.206 F 
ATOM     67  C   UNL A   1      38.486  34.066  38.101  1.00  0.00     0.022 A 
BRANCH  64  68
ATOM     68  S   UNL A   1      40.138  36.197  37.392  1.00  0.00     0.124 S 
ATOM     69  O   UNL A   1      39.282  36.769  38.428  1.00  0.00    -0.237 OA
ATOM     70  O   UNL A   1      41.496  35.859  37.799  1.00  0.00    -0.237 OA
ATOM     71  O   UNL A   1      40.022  36.827  36.078  1.00  0.00    -0.744 OA
ENDBRANCH  64  68
ENDBRANCH  47  61
BRANCH  48  72
ATOM     72  C   UNL A   1      41.461  26.873  27.903  1.00  0.00     0.023 A 
ATOM     73  C   UNL A   1      41.184  25.497  27.884  1.00  0.00     0.031 A 
ATOM     74  C   UNL A   1      42.090  27.438  26.780  1.00  0.00     0.131 A 
ATOM     75  C   UNL A   1      41.557  24.726  26.772  1.00  0.00     0.055 A 
ATOM     76  C   UNL A   1      42.425  26.676  25.661  1.00  0.00     0.041 A 
ATOM     77  F   UNL A   1      42.375  28.750  26.751  1.00  0.00    -0.206 F 
ATOM     78  C   UNL A   1      42.164  25.308  25.656  1.00  0.00     0.022 A 
BRANCH  75  79
ATOM     79  S   UNL A   1      41.267  22.937  26.814  1.00  0.00     0.124 S 
ATOM     80  O   UNL A   1      41.912  22.561  28.067  1.00  0.00    -0.237 OA
ATOM     81  O   UNL A   1      39.810  22.863  26.794  1.00  0.00    -0.237 OA
ATOM     82  O   UNL A   1      41.929  22.456  25.602  1.00  0.00    -0.744 OA
ENDBRANCH  75  79
ENDBRANCH  48  72
BRANCH  60  83
ATOM     83  C   UNL A   1      44.307  27.581  34.233  1.00  0.00     0.023 A 
ATOM     84  C   UNL A   1      44.158  26.375  34.937  1.00  0.00     0.031 A 
ATOM     85  C   UNL A   1      45.593  28.142  34.138  1.00  0.00     0.131 A 
ATOM     86  C   UNL A   1      45.274  25.784  35.551  1.00  0.00     0.055 A 
ATOM     87  C   UNL A   1      46.706  27.526  34.709  1.00  0.00     0.041 A 
ATOM     88  F   UNL A   1      45.787  29.293  33.473  1.00  0.00    -0.206 F 
ATOM     89  C   UNL A   1      46.549  26.344  35.427  1.00  0.00     0.022 A 
BRANCH  86  90
ATOM     90  S   UNL A   1      45.029  24.297  36.557  1.00  0.00     0.124 S 
ATOM     91  O   UNL A   1      44.087  23.533  35.745  1.00  0.00    -0.237 OA
ATOM     92  O   UNL A   1      46.380  23.752  36.649  1.00  0.00    -0.237 OA
ATOM     93  O   UNL A   1      44.487  24.816  37.812  1.00  0.00    -0.744 OA
ENDBRANCH  86  90
ENDBRANCH  60  83
ENDBRANCH  34  35
ENDBRANCH  27  29
ENDBRANCH  26  27
ENDBRANCH  25  26
ENDBRANCH   1  25
TORSDOF 18
ENDMDL
MODEL 2
REMARK VINA RESULT:     -11.6      1.693      1.982
REMARK SMILES Cc1cc2c(c(C)c1Cl)C=C(C(=O)OCCOCCOC(=O)c1ccc(-c3c4nc(c(-c5cc(S(=O)(=O)[O-])ccc5F)c5ccc([nH]5)c(-c5cc(S(=O)(=O)[O-])ccc5F)c5nc(c(-c6cc(S(=O)(=O)[O-])ccc6F)c6ccc3[nH]6)C=C5)C=C4)cc1)[C@@H](C(F)(F)F)O2
REMARK SMILES IDX 18 1 17 2 16 3 15 4 14 5 12 6 13 7 11 8 1 9 2 10 3 11 8 12
REMARK SMILES IDX 4 13 6 14 9 15 5 16 91 17 7 18 10 19 86 20 87 21 88 22 89 23
REMARK SMILES IDX 90 24 19 25 20 26 21 27 22 28 23 29 24 30 85 31 25 32 84 33
REMARK SMILES IDX 26 34 27 35 28 36 78 37 29 38 83 39 77 40 79 41 30 42 82 43
REMARK SMILES IDX 76 44 75 45 31 47 63 48 43 49 62 50 44 51 47 52 61 53 80 54
REMARK SMILES IDX 45 55 46 56 60 58 81 59 48 60 32 61 33 62 41 63 34 64 40 65
REMARK SMILES IDX 42 66 39 67 35 68 36 69 37 70 38 71 64 72 65 73 73 74 66 75
REMARK SMILES IDX 72 76 74 77 71 78 67 79 68 80 69 81 70 82 49 83 50 84 58 85
REMARK SMILES IDX 51 86 57 87 59 88 56 89 52 90 53 91 54 92 55 93
REMARK H PARENT 79 46 47 57
REMARK Flexibility Score: inf
ROOT
ATOM      1  C   UNL A   1      31.001  30.951  25.475  1.00  0.00     0.202 C 
ENDROOT
BRANCH   1   2
ATOM      2  O   UNL A   1      31.869  29.848  25.204  1.00  0.00    -0.374 OA
BRANCH   2   3
ATOM      3  C   UNL A   1      31.457  28.909  24.211  1.00  0.00     0.202 C 
BRANCH   3   4
ATOM      4  C   UNL A   1      32.532  28.448  23.222  1.00  0.00     0.261 C 
BRANCH   4   5
ATOM      5  O   UNL A   1      33.360  27.417  23.786  1.00  0.00    -0.460 OA
BRANCH   5   6
ATOM      6  C   UNL A   1      33.572  26.360  22.974  1.00  0.00     0.338 C 
ATOM      7  O   UNL A   1      34.050  26.377  21.847  1.00  0.00    -0.246 OA
BRANCH   6   8
ATOM      8  C   UNL A   1      33.267  25.108  23.690  1.00  0.00     0.087 C 
ATOM      9  C   UNL A   1      32.903  18.890  25.393  1.00  0.00     0.046 C 
ATOM     10  C   UNL A   1      33.345  20.296  25.094  1.00  0.00    -0.028 A 
ATOM     11  C   UNL A   1      32.399  21.328  25.144  1.00  0.00     0.052 A 
ATOM     12  C   UNL A   1      34.672  20.604  24.734  1.00  0.00     0.047 A 
ATOM     13  C   UNL A   1      32.737  22.625  24.766  1.00  0.00     0.128 A 
ATOM     14  C   UNL A   1      35.043  21.922  24.383  1.00  0.00    -0.021 A 
ATOM     15  Cl  UNL A   1      35.841  19.317  24.694  1.00  0.00    -0.084 Cl
ATOM     16  C   UNL A   1      34.038  22.921  24.347  1.00  0.00     0.022 A 
ATOM     17  O   UNL A   1      31.724  23.540  24.842  1.00  0.00    -0.475 OA
ATOM     18  C   UNL A   1      36.466  22.283  24.025  1.00  0.00     0.047 C 
ATOM     19  C   UNL A   1      34.288  24.248  23.797  1.00  0.00     0.027 C 
ATOM     20  C   UNL A   1      31.887  24.840  24.210  1.00  0.00     0.316 C 
BRANCH  20  21
ATOM     21  C   UNL A   1      30.804  24.986  23.130  1.00  0.00     0.430 C 
ATOM     22  F   UNL A   1      31.355  25.071  21.895  1.00  0.00    -0.167 F 
ATOM     23  F   UNL A   1      29.963  23.928  23.112  1.00  0.00    -0.167 F 
ATOM     24  F   UNL A   1      30.056  26.098  23.317  1.00  0.00    -0.167 F 
ENDBRANCH  20  21
ENDBRANCH   6   8
ENDBRANCH   5   6
ENDBRANCH   4   5
ENDBRANCH   3   4
ENDBRANCH   2   3
ENDBRANCH   1   2
BRANCH   1  25
ATOM     25  C   UNL A   1      31.466  31.980  26.512  1.00  0.00     0.261 C 
BRANCH  25  26
ATOM     26  O   UNL A   1      32.613  31.526  27.254  1.00  0.00    -0.460 OA
BRANCH  26  27
ATOM     27  C   UNL A   1      33.467  32.510  27.624  1.00  0.00     0.338 C 
ATOM     28  O   UNL A   1      33.196  33.694  27.790  1.00  0.00    -0.246 OA
BRANCH  27  29
ATOM     29  C   UNL A   1      34.772  31.940  27.999  1.00  0.00     0.060 A 
ATOM     30  C   UNL A   1      34.829  30.562  28.244  1.00  0.00     0.016 A 
ATOM     31  C   UNL A   1      35.893  32.747  28.207  1.00  0.00     0.016 A 
ATOM     32  C   UNL A   1      35.994  29.991  28.751  1.00  0.00     0.010 A 
ATOM     33  C   UNL A   1      37.057  32.175  28.731  1.00  0.00     0.010 A 
ATOM     34  C   UNL A   1      37.098  30.803  29.041  1.00  0.00    -0.014 A 
BRANCH  34  35
ATOM     35  C   UNL A   1      38.216  30.243  29.838  1.00  0.00     0.031 A 
ATOM     36  C   UNL A   1      38.375  30.684  31.269  1.00  0.00     0.074 A 
ATOM     37  C   UNL A   1      39.038  29.313  29.319  1.00  0.00     0.049 A 
ATOM     38  N   UNL A   1      39.294  30.360  32.139  1.00  0.00    -0.248 NA
ATOM     39  C   UNL A   1      37.353  31.610  31.786  1.00  0.00     0.031 C 
ATOM     40  C   UNL A   1      38.935  28.754  27.972  1.00  0.00     0.029 A 
ATOM     41  N   UNL A   1      40.117  28.670  29.869  1.00  0.00    -0.354 N 
ATOM     42  C   UNL A   1      38.963  31.037  33.307  1.00  0.00     0.074 A 
ATOM     43  C   UNL A   1      37.775  31.812  33.027  1.00  0.00     0.031 C 
ATOM     44  C   UNL A   1      39.912  27.847  27.801  1.00  0.00     0.029 A 
ATOM     45  C   UNL A   1      40.733  27.791  29.010  1.00  0.00     0.049 A 
ATOM     46  H   UNL A   1      40.422  28.823  30.793  1.00  0.00     0.167 HD
ATOM     47  C   UNL A   1      39.590  31.008  34.509  1.00  0.00     0.034 A 
ATOM     48  C   UNL A   1      41.844  27.045  29.175  1.00  0.00     0.034 A 
ATOM     49  C   UNL A   1      40.778  30.239  34.777  1.00  0.00     0.049 A 
ATOM     50  C   UNL A   1      42.587  27.113  30.485  1.00  0.00     0.074 A 
ATOM     51  C   UNL A   1      41.498  30.151  35.955  1.00  0.00     0.029 A 
ATOM     52  N   UNL A   1      41.423  29.427  33.854  1.00  0.00    -0.354 N 
ATOM     53  N   UNL A   1      42.292  27.798  31.567  1.00  0.00    -0.248 NA
ATOM     54  C   UNL A   1      43.816  26.314  30.595  1.00  0.00     0.031 C 
ATOM     55  C   UNL A   1      42.611  29.335  35.727  1.00  0.00     0.029 A 
ATOM     56  C   UNL A   1      42.549  28.859  34.427  1.00  0.00     0.049 A 
ATOM     57  H   UNL A   1      41.125  29.278  32.928  1.00  0.00     0.167 HD
ATOM     58  C   UNL A   1      43.291  27.498  32.489  1.00  0.00     0.074 A 
ATOM     59  C   UNL A   1      44.191  26.564  31.842  1.00  0.00     0.031 C 
ATOM     60  C   UNL A   1      43.448  27.950  33.760  1.00  0.00     0.034 A 
BRANCH  47  61
ATOM     61  C   UNL A   1      39.026  31.867  35.608  1.00  0.00     0.023 A 
ATOM     62  C   UNL A   1      38.345  31.311  36.703  1.00  0.00     0.031 A 
ATOM     63  C   UNL A   1      39.178  33.264  35.559  1.00  0.00     0.131 A 
ATOM     64  C   UNL A   1      37.809  32.152  37.691  1.00  0.00     0.055 A 
ATOM     65  C   UNL A   1      38.695  34.091  36.575  1.00  0.00     0.041 A 
ATOM     66  F   UNL A   1      39.800  33.847  34.523  1.00  0.00    -0.206 F 
ATOM     67  C   UNL A   1      38.000  33.535  37.645  1.00  0.00     0.022 A 
BRANCH  64  68
ATOM     68  S   UNL A   1      36.793  31.420  39.003  1.00  0.00     0.124 S 
ATOM     69  O   UNL A   1      37.706  31.470  40.142  1.00  0.00    -0.237 OA
ATOM     70  O   UNL A   1      35.649  32.322  39.060  1.00  0.00    -0.237 OA
ATOM     71  O   UNL A   1      36.502  30.078  38.502  1.00  0.00    -0.744 OA
ENDBRANCH  64  68
ENDBRANCH  47  61
BRANCH  48  72
ATOM     72  C   UNL A   1      42.351  26.203  28.057  1.00  0.00     0.023 A 
ATOM     73  C   UNL A   1      41.900  24.887  27.878  1.00  0.00     0.031 A 
ATOM     74  C   UNL A   1      43.317  26.701  27.164  1.00  0.00     0.131 A 
ATOM     75  C   UNL A   1      42.433  24.102  26.841  1.00  0.00     0.055 A 
ATOM     76  C   UNL A   1      43.815  25.932  26.113  1.00  0.00     0.041 A 
ATOM     77  F   UNL A   1      43.778  27.955  27.295  1.00  0.00    -0.206 F 
ATOM     78  C   UNL A   1      43.377  24.620  25.951  1.00  0.00     0.022 A 
BRANCH  75  79
ATOM     79  S   UNL A   1      41.895  22.377  26.690  1.00  0.00     0.124 S 
ATOM     80  O   UNL A   1      42.663  21.733  27.749  1.00  0.00    -0.237 OA
ATOM     81  O   UNL A   1      40.457  22.484  26.912  1.00  0.00    -0.237 OA
ATOM     82  O   UNL A   1      42.287  22.018  25.327  1.00  0.00    -0.744 OA
ENDBRANCH  75  79
ENDBRANCH  48  72
BRANCH  60  83
ATOM     83  C   UNL A   1      44.626  27.426  34.539  1.00  0.00     0.023 A 
ATOM     84  C   UNL A   1      44.526  26.269  35.329  1.00  0.00     0.031 A 
ATOM     85  C   UNL A   1      45.870  28.077  34.464  1.00  0.00     0.131 A 
ATOM     86  C   UNL A   1      45.644  25.816  36.045  1.00  0.00     0.055 A 
ATOM     87  C   UNL A   1      46.991  27.595  35.140  1.00  0.00     0.041 A 
ATOM     88  F   UNL A   1      46.018  29.185  33.719  1.00  0.00    -0.206 F 
ATOM     89  C   UNL A   1      46.880  26.462  35.942  1.00  0.00     0.022 A 
BRANCH  86  90
ATOM     90  S   UNL A   1      45.452  24.396  37.154  1.00  0.00     0.124 S 
ATOM     91  O   UNL A   1      44.608  24.947  38.209  1.00  0.00    -0.237 OA
ATOM     92  O   UNL A   1      44.824  23.402  36.288  1.00  0.00    -0.237 OA
ATOM     93  O   UNL A   1      46.823  24.085  37.556  1.00  0.00    -0.744 OA
ENDBRANCH  86  90
ENDBRANCH  60  83
ENDBRANCH  34  35
ENDBRANCH  27  29
ENDBRANCH  26  27
ENDBRANCH  25  26
ENDBRANCH   1  25
TORSDOF 18
ENDMDL
MODEL 3
REMARK VINA RESULT:     -11.6      4.613     10.472
REMARK SMILES Cc1cc2c(c(C)c1Cl)C=C(C(=O)OCCOCCOC(=O)c1ccc(-c3c4nc(c(-c5cc(S(=O)(=O)[O-])ccc5F)c5ccc([nH]5)c(-c5cc(S(=O)(=O)[O-])ccc5F)c5nc(c(-c6cc(S(=O)(=O)[O-])ccc6F)c6ccc3[nH]6)C=C5)C=C4)cc1)[C@@H](C(F)(F)F)O2
REMARK SMILES IDX 18 1 17 2 16 3 15 4 14 5 12 6 13 7 11 8 1 9 2 10 3 11 8 12
REMARK SMILES IDX 4 13 6 14 9 15 5 16 91 17 7 18 10 19 86 20 87 21 88 22 89 23
REMARK SMILES IDX 90 24 19 25 20 26 21 27 22 28 23 29 24 30 85 31 25 32 84 33
REMARK SMILES IDX 26 34 27 35 28 36 78 37 29 38 83 39 77 40 79 41 30 42 82 43
REMARK SMILES IDX 76 44 75 45 31 47 63 48 43 49 62 50 44 51 47 52 61 53 80 54
REMARK SMILES IDX 45 55 46 56 60 58 81 59 48 60 32 61 33 62 41 63 34 64 40 65
REMARK SMILES IDX 42 66 39 67 35 68 36 69 37 70 38 71 64 72 65 73 73 74 66 75
REMARK SMILES IDX 72 76 74 77 71 78 67 79 68 80 69 81 70 82 49 83 50 84 58 85
REMARK SMILES IDX 51 86 57 87 59 88 56 89 52 90 53 91 54 92 55 93
REMARK H PARENT 79 46 47 57
REMARK Flexibility Score: inf
ROOT
ATOM      1  C   UNL A   1      33.605  35.071  28.602  1.00  0.00     0.202 C 
ENDROOT
BRANCH   1   2
ATOM      2  O   UNL A   1      32.563  35.614  29.416  1.00  0.00    -0.374 OA
BRANCH   2   3
ATOM      3  C   UNL A   1      32.936  36.531  30.444  1.00  0.00     0.202 C 
BRANCH   3   4
ATOM      4  C   UNL A   1      33.983  36.041  31.448  1.00  0.00     0.261 C 
BRANCH   4   5
ATOM      5  O   UNL A   1      33.638  34.753  31.984  1.00  0.00    -0.460 OA
BRANCH   5   6
ATOM      6  C   UNL A   1      34.541  33.780  31.734  1.00  0.00     0.338 C 
ATOM      7  O   UNL A   1      34.348  32.728  31.139  1.00  0.00    -0.246 OA
BRANCH   6   8
ATOM      8  C   UNL A   1      35.881  34.216  32.168  1.00  0.00     0.087 C 
ATOM      9  C   UNL A   1      42.266  34.644  33.028  1.00  0.00     0.046 C 
ATOM     10  C   UNL A   1      40.864  34.657  32.482  1.00  0.00    -0.028 A 
ATOM     11  C   UNL A   1      39.795  34.841  33.369  1.00  0.00     0.052 A 
ATOM     12  C   UNL A   1      40.590  34.457  31.115  1.00  0.00     0.047 A 
ATOM     13  C   UNL A   1      38.478  34.748  32.927  1.00  0.00     0.128 A 
ATOM     14  C   UNL A   1      39.260  34.396  30.641  1.00  0.00    -0.021 A 
ATOM     15  Cl  UNL A   1      41.927  34.248  30.022  1.00  0.00    -0.084 Cl
ATOM     16  C   UNL A   1      38.202  34.486  31.580  1.00  0.00     0.022 A 
ATOM     17  O   UNL A   1      37.524  34.930  33.888  1.00  0.00    -0.475 OA
ATOM     18  C   UNL A   1      38.942  34.215  29.175  1.00  0.00     0.047 C 
ATOM     19  C   UNL A   1      36.817  34.224  31.210  1.00  0.00     0.027 C 
ATOM     20  C   UNL A   1      36.142  34.576  33.600  1.00  0.00     0.316 C 
BRANCH  20  21
ATOM     21  C   UNL A   1      35.716  33.473  34.580  1.00  0.00     0.430 C 
ATOM     22  F   UNL A   1      36.498  32.374  34.448  1.00  0.00    -0.167 F 
ATOM     23  F   UNL A   1      35.819  33.874  35.866  1.00  0.00    -0.167 F 
ATOM     24  F   UNL A   1      34.436  33.085  34.374  1.00  0.00    -0.167 F 
ENDBRANCH  20  21
ENDBRANCH   6   8
ENDBRANCH   5   6
ENDBRANCH   4   5
ENDBRANCH   3   4
ENDBRANCH   2   3
ENDBRANCH   1   2
BRANCH   1  25
ATOM     25  C   UNL A   1      33.370  33.689  27.981  1.00  0.00     0.261 C 
BRANCH  25  26
ATOM     26  O   UNL A   1      34.589  32.934  27.852  1.00  0.00    -0.460 OA
BRANCH  26  27
ATOM     27  C   UNL A   1      34.418  31.590  27.833  1.00  0.00     0.338 C 
ATOM     28  O   UNL A   1      33.418  30.982  27.467  1.00  0.00    -0.246 OA
BRANCH  27  29
ATOM     29  C   UNL A   1      35.686  30.909  28.139  1.00  0.00     0.060 A 
ATOM     30  C   UNL A   1      35.615  29.696  28.839  1.00  0.00     0.016 A 
ATOM     31  C   UNL A   1      36.922  31.488  27.842  1.00  0.00     0.016 A 
ATOM     32  C   UNL A   1      36.782  29.084  29.292  1.00  0.00     0.010 A 
ATOM     33  C   UNL A   1      38.090  30.880  28.312  1.00  0.00     0.010 A 
ATOM     34  C   UNL A   1      38.021  29.698  29.072  1.00  0.00    -0.014 A 
BRANCH  34  35
ATOM     35  C   UNL A   1      39.213  29.196  29.797  1.00  0.00     0.031 A 
ATOM     36  C   UNL A   1      39.994  28.055  29.198  1.00  0.00     0.074 A 
ATOM     37  C   UNL A   1      39.631  29.781  30.933  1.00  0.00     0.049 A 
ATOM     38  N   UNL A   1      41.040  27.430  29.669  1.00  0.00    -0.248 NA
ATOM     39  C   UNL A   1      39.534  27.561  27.890  1.00  0.00     0.031 C 
ATOM     40  C   UNL A   1      39.001  30.939  31.566  1.00  0.00     0.029 A 
ATOM     41  N   UNL A   1      40.690  29.485  31.752  1.00  0.00    -0.354 N 
ATOM     42  C   UNL A   1      41.367  26.471  28.716  1.00  0.00     0.074 A 
ATOM     43  C   UNL A   1      40.391  26.578  27.654  1.00  0.00     0.031 C 
ATOM     44  C   UNL A   1      39.690  31.257  32.675  1.00  0.00     0.029 A 
ATOM     45  C   UNL A   1      40.783  30.303  32.853  1.00  0.00     0.049 A 
ATOM     46  H   UNL A   1      41.325  28.755  31.568  1.00  0.00     0.167 HD
ATOM     47  C   UNL A   1      42.394  25.587  28.723  1.00  0.00     0.034 A 
ATOM     48  C   UNL A   1      41.639  30.269  33.895  1.00  0.00     0.034 A 
ATOM     49  C   UNL A   1      43.357  25.481  29.789  1.00  0.00     0.049 A 
ATOM     50  C   UNL A   1      42.707  29.206  33.933  1.00  0.00     0.074 A 
ATOM     51  C   UNL A   1      44.426  24.611  29.900  1.00  0.00     0.029 A 
ATOM     52  N   UNL A   1      43.365  26.271  30.931  1.00  0.00    -0.354 N 
ATOM     53  N   UNL A   1      42.974  28.271  33.050  1.00  0.00    -0.248 NA
ATOM     54  C   UNL A   1      43.584  29.187  35.113  1.00  0.00     0.031 C 
ATOM     55  C   UNL A   1      45.045  24.833  31.135  1.00  0.00     0.029 A 
ATOM     56  C   UNL A   1      44.403  25.887  31.766  1.00  0.00     0.049 A 
ATOM     57  H   UNL A   1      42.727  26.996  31.121  1.00  0.00     0.167 HD
ATOM     58  C   UNL A   1      44.060  27.565  33.562  1.00  0.00     0.074 A 
ATOM     59  C   UNL A   1      44.405  28.186  34.824  1.00  0.00     0.031 C 
ATOM     60  C   UNL A   1      44.717  26.502  33.032  1.00  0.00     0.034 A 
BRANCH  47  61
ATOM     61  C   UNL A   1      42.499  24.635  27.562  1.00  0.00     0.023 A 
ATOM     62  C   UNL A   1      41.743  23.452  27.507  1.00  0.00     0.031 A 
ATOM     63  C   UNL A   1      43.364  24.921  26.492  1.00  0.00     0.131 A 
ATOM     64  C   UNL A   1      41.895  22.578  26.421  1.00  0.00     0.055 A 
ATOM     65  C   UNL A   1      43.466  24.077  25.385  1.00  0.00     0.041 A 
ATOM     66  F   UNL A   1      44.125  26.026  26.506  1.00  0.00    -0.206 F 
ATOM     67  C   UNL A   1      42.733  22.894  25.349  1.00  0.00     0.022 A 
BRANCH  64  68
ATOM     68  S   UNL A   1      41.034  20.982  26.457  1.00  0.00     0.124 S 
ATOM     69  O   UNL A   1      40.868  20.772  27.894  1.00  0.00    -0.237 OA
ATOM     70  O   UNL A   1      39.816  21.259  25.707  1.00  0.00    -0.237 OA
ATOM     71  O   UNL A   1      41.973  20.072  25.804  1.00  0.00    -0.744 OA
ENDBRANCH  64  68
ENDBRANCH  47  61
BRANCH  48  72
ATOM     72  C   UNL A   1      41.496  31.243  35.011  1.00  0.00     0.023 A 
ATOM     73  C   UNL A   1      40.321  31.302  35.776  1.00  0.00     0.031 A 
ATOM     74  C   UNL A   1      42.530  32.146  35.313  1.00  0.00     0.131 A 
ATOM     75  C   UNL A   1      40.198  32.264  36.792  1.00  0.00     0.055 A 
ATOM     76  C   UNL A   1      42.419  33.074  36.348  1.00  0.00     0.041 A 
ATOM     77  F   UNL A   1      43.674  32.127  34.609  1.00  0.00    -0.206 F 
ATOM     78  C   UNL A   1      41.244  33.141  37.091  1.00  0.00     0.022 A 
BRANCH  75  79
ATOM     79  S   UNL A   1      38.634  32.375  37.703  1.00  0.00     0.124 S 
ATOM     80  O   UNL A   1      39.080  32.199  39.081  1.00  0.00    -0.237 OA
ATOM     81  O   UNL A   1      38.166  33.709  37.344  1.00  0.00    -0.237 OA
ATOM     82  O   UNL A   1      37.844  31.272  37.157  1.00  0.00    -0.744 OA
ENDBRANCH  75  79
ENDBRANCH  48  72
BRANCH  60  83
ATOM     83  C   UNL A   1      45.886  25.955  33.809  1.00  0.00     0.023 A 
ATOM     84  C   UNL A   1      45.709  24.999  34.823  1.00  0.00     0.031 A 
ATOM     85  C   UNL A   1      47.194  26.375  33.510  1.00  0.00     0.131 A 
ATOM     86  C   UNL A   1      46.822  24.518  35.529  1.00  0.00     0.055 A 
ATOM     87  C   UNL A   1      48.301  25.858  34.183  1.00  0.00     0.041 A 
ATOM     88  F   UNL A   1      47.416  27.284  32.548  1.00  0.00    -0.206 F 
ATOM     89  C   UNL A   1      48.118  24.929  35.204  1.00  0.00     0.022 A 
BRANCH  86  90
ATOM     90  S   UNL A   1      46.550  23.382  36.915  1.00  0.00     0.124 S 
ATOM     91  O   UNL A   1      47.297  24.029  37.988  1.00  0.00    -0.237 OA
ATOM     92  O   UNL A   1      45.097  23.394  37.052  1.00  0.00    -0.237 OA
ATOM     93  O   UNL A   1      47.115  22.120  36.440  1.00  0.00    -0.744 OA
ENDBRANCH  86  90
ENDBRANCH  60  83
ENDBRANCH  34  35
ENDBRANCH  27  29
ENDBRANCH  26  27
ENDBRANCH  25  26
ENDBRANCH   1  25
TORSDOF 18
ENDMDL
