MODEL 1
REMARK VINA RESULT:      -9.1      0.000      0.000
REMARK SMILES C[C@@H](CCC(=O)OCCOCCOC(=O)c1ccc(-c2c3nc(c(-c4cc(S(=O)(=O)[O-])ccc4F)c4ccc([nH]4)c(-c4cc(S(=O)(=O)[O-])ccc4F)c4nc(c(-c5cc(S(=O)(=O)[O-])ccc5F)c5ccc2[nH]5)C=C4)C=C3)cc1)[C@@H]1CC[C@@H]2[C@H]3CC[C@@H]4CC(=O)CC[C@]4(C)[C@@H]3CC(=O)[C@]21C
REMARK SMILES IDX 10 1 9 2 8 3 7 4 5 5 6 6 4 7 3 8 2 9 1 10 79 11 80 12 98 13
REMARK SMILES IDX 81 14 82 15 96 16 99 17 83 18 95 19 97 20 84 21 94 22 85 23
REMARK SMILES IDX 92 24 86 25 91 26 93 27 87 28 90 29 88 30 89 31 11 32 12 33
REMARK SMILES IDX 13 34 14 35 15 36 16 37 17 38 78 39 18 40 77 41 19 42 20 43
REMARK SMILES IDX 21 44 71 45 22 46 76 47 70 48 72 49 23 50 75 51 69 52 68 53
REMARK SMILES IDX 24 55 56 56 36 57 55 58 37 59 40 60 54 61 73 62 38 63 39 64
REMARK SMILES IDX 53 66 74 67 41 68 25 69 26 70 34 71 27 72 33 73 35 74 32 75
REMARK SMILES IDX 28 76 29 77 30 78 31 79 57 80 58 81 66 82 59 83 65 84 67 85
REMARK SMILES IDX 64 86 60 87 61 88 62 89 63 90 42 91 43 92 51 93 44 94 50 95
REMARK SMILES IDX 52 96 49 97 45 98 46 99 47 100 48 101
REMARK H PARENT 72 54 40 65
REMARK Flexibility Score: inf
ROOT
ATOM      1  O   UNL A   1      34.963  34.362  31.610  1.00  0.00    -0.374 OA
ENDROOT
BRANCH   1   2
ATOM      2  C   UNL A   1      34.780  32.959  31.391  1.00  0.00     0.202 C 
BRANCH   2   3
ATOM      3  C   UNL A   1      34.772  32.568  29.906  1.00  0.00     0.261 C 
BRANCH   3   4
ATOM      4  O   UNL A   1      35.722  31.510  29.676  1.00  0.00    -0.463 OA
BRANCH   4   5
ATOM      5  C   UNL A   1      36.858  31.806  29.008  1.00  0.00     0.305 C 
ATOM      6  O   UNL A   1      37.270  32.940  28.795  1.00  0.00    -0.252 OA
BRANCH   5   7
ATOM      7  C   UNL A   1      37.566  30.564  28.495  1.00  0.00     0.123 C 
BRANCH   7   8
ATOM      8  C   UNL A   1      38.934  30.239  29.124  1.00  0.00     0.015 C 
BRANCH   8   9
ATOM      9  C   UNL A   1      39.403  28.759  29.176  1.00  0.00    -0.010 C 
ATOM     10  C   UNL A   1      39.232  28.121  30.559  1.00  0.00     0.008 C 
BRANCH   9  11
ATOM     11  C   UNL A   1      40.721  28.416  28.395  1.00  0.00     0.005 C 
ATOM     12  C   UNL A   1      40.694  28.956  26.933  1.00  0.00     0.005 C 
ATOM     13  C   UNL A   1      41.301  26.964  28.260  1.00  0.00     0.032 C 
ATOM     14  C   UNL A   1      41.024  27.771  26.023  1.00  0.00     0.005 C 
ATOM     15  C   UNL A   1      42.015  27.011  26.881  1.00  0.00     0.006 C 
ATOM     16  C   UNL A   1      42.485  26.650  29.165  1.00  0.00     0.139 C 
ATOM     17  C   UNL A   1      40.249  25.853  28.353  1.00  0.00     0.020 C 
ATOM     18  C   UNL A   1      42.527  25.633  26.433  1.00  0.00    -0.003 C 
ATOM     19  C   UNL A   1      43.176  25.314  28.936  1.00  0.00     0.080 C 
ATOM     20  O   UNL A   1      42.915  27.447  29.994  1.00  0.00    -0.299 OA
ATOM     21  C   UNL A   1      43.136  25.668  25.030  1.00  0.00     0.004 C 
ATOM     22  C   UNL A   1      43.600  25.131  27.459  1.00  0.00     0.006 C 
ATOM     23  C   UNL A   1      43.667  24.297  24.627  1.00  0.00     0.005 C 
ATOM     24  C   UNL A   1      44.113  23.684  27.112  1.00  0.00    -0.025 C 
ATOM     25  C   UNL A   1      44.655  23.702  25.650  1.00  0.00     0.002 C 
ATOM     26  C   UNL A   1      43.014  22.602  27.309  1.00  0.00     0.015 C 
ATOM     27  C   UNL A   1      45.279  23.327  28.078  1.00  0.00     0.012 C 
ATOM     28  C   UNL A   1      45.129  22.317  25.196  1.00  0.00     0.079 C 
ATOM     29  C   UNL A   1      42.869  21.532  26.229  1.00  0.00     0.076 C 
ATOM     30  C   UNL A   1      44.082  21.249  25.376  1.00  0.00     0.133 C 
ATOM     31  O   UNL A   1      44.189  20.161  24.804  1.00  0.00    -0.300 OA
ENDBRANCH   9  11
ENDBRANCH   8   9
ENDBRANCH   7   8
ENDBRANCH   5   7
ENDBRANCH   4   5
ENDBRANCH   3   4
ENDBRANCH   2   3
ENDBRANCH   1   2
BRANCH   1  32
ATOM     32  C   UNL A   1      34.765  34.814  32.947  1.00  0.00     0.202 C 
BRANCH  32  33
ATOM     33  C   UNL A   1      35.335  33.930  34.065  1.00  0.00     0.261 C 
BRANCH  33  34
ATOM     34  O   UNL A   1      36.769  33.883  34.157  1.00  0.00    -0.460 OA
BRANCH  34  35
ATOM     35  C   UNL A   1      37.246  33.030  35.097  1.00  0.00     0.338 C 
ATOM     36  O   UNL A   1      36.870  32.972  36.263  1.00  0.00    -0.246 OA
BRANCH  35  37
ATOM     37  C   UNL A   1      38.336  32.159  34.586  1.00  0.00     0.060 A 
ATOM     38  C   UNL A   1      39.648  32.480  34.956  1.00  0.00     0.016 A 
ATOM     39  C   UNL A   1      38.112  31.139  33.653  1.00  0.00     0.016 A 
ATOM     40  C   UNL A   1      40.733  31.829  34.363  1.00  0.00     0.010 A 
ATOM     41  C   UNL A   1      39.204  30.486  33.057  1.00  0.00     0.010 A 
ATOM     42  C   UNL A   1      40.522  30.852  33.381  1.00  0.00    -0.014 A 
BRANCH  42  43
ATOM     43  C   UNL A   1      41.683  30.323  32.614  1.00  0.00     0.031 A 
ATOM     44  C   UNL A   1      42.345  29.046  33.061  1.00  0.00     0.074 A 
ATOM     45  C   UNL A   1      42.119  30.947  31.503  1.00  0.00     0.049 A 
ATOM     46  N   UNL A   1      43.345  28.393  32.523  1.00  0.00    -0.248 NA
ATOM     47  C   UNL A   1      41.805  28.423  34.278  1.00  0.00     0.031 C 
ATOM     48  C   UNL A   1      41.550  32.173  30.947  1.00  0.00     0.029 A 
ATOM     49  N   UNL A   1      43.145  30.633  30.645  1.00  0.00    -0.354 N 
ATOM     50  C   UNL A   1      43.549  27.276  33.328  1.00  0.00     0.074 A 
ATOM     51  C   UNL A   1      42.596  27.369  34.416  1.00  0.00     0.031 C 
ATOM     52  C   UNL A   1      42.241  32.513  29.845  1.00  0.00     0.029 A 
ATOM     53  C   UNL A   1      43.318  31.545  29.631  1.00  0.00     0.049 A 
ATOM     54  H   UNL A   1      43.704  29.830  30.747  1.00  0.00     0.167 HD
ATOM     55  C   UNL A   1      44.436  26.262  33.171  1.00  0.00     0.034 A 
ATOM     56  C   UNL A   1      44.245  31.604  28.653  1.00  0.00     0.034 A 
ATOM     57  C   UNL A   1      45.400  26.188  32.098  1.00  0.00     0.049 A 
ATOM     58  C   UNL A   1      45.282  30.511  28.547  1.00  0.00     0.074 A 
ATOM     59  C   UNL A   1      46.327  25.192  31.838  1.00  0.00     0.029 A 
ATOM     60  N   UNL A   1      45.576  27.155  31.118  1.00  0.00    -0.354 N 
ATOM     61  N   UNL A   1      45.438  29.442  29.294  1.00  0.00    -0.248 NA
ATOM     62  C   UNL A   1      46.263  30.627  27.458  1.00  0.00     0.031 C 
ATOM     63  C   UNL A   1      47.111  25.594  30.749  1.00  0.00     0.029 A 
ATOM     64  C   UNL A   1      46.623  26.801  30.279  1.00  0.00     0.049 A 
ATOM     65  H   UNL A   1      45.036  27.975  31.031  1.00  0.00     0.167 HD
ATOM     66  C   UNL A   1      46.514  28.745  28.745  1.00  0.00     0.074 A 
ATOM     67  C   UNL A   1      46.961  29.510  27.599  1.00  0.00     0.031 C 
ATOM     68  C   UNL A   1      47.074  27.576  29.146  1.00  0.00     0.034 A 
BRANCH  55  69
ATOM     69  C   UNL A   1      44.435  25.176  34.220  1.00  0.00     0.023 A 
ATOM     70  C   UNL A   1      44.976  25.384  35.501  1.00  0.00     0.031 A 
ATOM     71  C   UNL A   1      43.914  23.903  33.925  1.00  0.00     0.131 A 
ATOM     72  C   UNL A   1      45.051  24.319  36.412  1.00  0.00     0.055 A 
ATOM     73  C   UNL A   1      43.924  22.868  34.863  1.00  0.00     0.041 A 
ATOM     74  F   UNL A   1      43.401  23.638  32.713  1.00  0.00    -0.206 F 
ATOM     75  C   UNL A   1      44.509  23.068  36.109  1.00  0.00     0.022 A 
BRANCH  72  76
ATOM     76  S   UNL A   1      45.998  24.551  37.942  1.00  0.00     0.124 S 
ATOM     77  O   UNL A   1      46.725  25.784  37.655  1.00  0.00    -0.237 OA
ATOM     78  O   UNL A   1      44.948  24.646  38.950  1.00  0.00    -0.237 OA
ATOM     79  O   UNL A   1      46.828  23.350  38.017  1.00  0.00    -0.744 OA
ENDBRANCH  72  76
ENDBRANCH  55  69
BRANCH  56  80
ATOM     80  C   UNL A   1      44.273  32.761  27.712  1.00  0.00     0.023 A 
ATOM     81  C   UNL A   1      44.693  34.033  28.129  1.00  0.00     0.031 A 
ATOM     82  C   UNL A   1      43.816  32.617  26.388  1.00  0.00     0.131 A 
ATOM     83  C   UNL A   1      44.606  35.122  27.245  1.00  0.00     0.055 A 
ATOM     84  C   UNL A   1      43.777  33.692  25.500  1.00  0.00     0.041 A 
ATOM     85  F   UNL A   1      43.403  31.421  25.939  1.00  0.00    -0.206 F 
ATOM     86  C   UNL A   1      44.162  34.957  25.931  1.00  0.00     0.022 A 
BRANCH  83  87
ATOM     87  S   UNL A   1      45.009  36.778  27.865  1.00  0.00     0.124 S 
ATOM     88  O   UNL A   1      44.372  36.767  29.178  1.00  0.00    -0.237 OA
ATOM     89  O   UNL A   1      46.467  36.756  27.856  1.00  0.00    -0.237 OA
ATOM     90  O   UNL A   1      44.394  37.666  26.880  1.00  0.00    -0.744 OA
ENDBRANCH  83  87
ENDBRANCH  56  80
BRANCH  68  91
ATOM     91  C   UNL A   1      48.209  27.029  28.312  1.00  0.00     0.023 A 
ATOM     92  C   UNL A   1      49.554  27.234  28.662  1.00  0.00     0.031 A 
ATOM     93  C   UNL A   1      47.935  26.290  27.146  1.00  0.00     0.131 A 
ATOM     94  C   UNL A   1      50.577  26.744  27.832  1.00  0.00     0.055 A 
ATOM     95  C   UNL A   1      48.955  25.760  26.354  1.00  0.00     0.041 A 
ATOM     96  F   UNL A   1      46.669  26.065  26.762  1.00  0.00    -0.206 F 
ATOM     97  C   UNL A   1      50.285  25.996  26.689  1.00  0.00     0.022 A 
BRANCH  94  98
ATOM     98  S   UNL A   1      52.298  27.162  28.225  1.00  0.00     0.124 S 
ATOM     99  O   UNL A   1      52.352  26.909  29.662  1.00  0.00    -0.237 OA
ATOM    100  O   UNL A   1      53.045  26.232  27.386  1.00  0.00    -0.237 OA
ATOM    101  O   UNL A   1      52.408  28.568  27.839  1.00  0.00    -0.744 OA
ENDBRANCH  94  98
ENDBRANCH  68  91
ENDBRANCH  42  43
ENDBRANCH  35  37
ENDBRANCH  34  35
ENDBRANCH  33  34
ENDBRANCH  32  33
ENDBRANCH   1  32
TORSDOF 20
ENDMDL
MODEL 2
REMARK VINA RESULT:      -8.9      3.022      9.401
REMARK SMILES C[C@@H](CCC(=O)OCCOCCOC(=O)c1ccc(-c2c3nc(c(-c4cc(S(=O)(=O)[O-])ccc4F)c4ccc([nH]4)c(-c4cc(S(=O)(=O)[O-])ccc4F)c4nc(c(-c5cc(S(=O)(=O)[O-])ccc5F)c5ccc2[nH]5)C=C4)C=C3)cc1)[C@@H]1CC[C@@H]2[C@H]3CC[C@@H]4CC(=O)CC[C@]4(C)[C@@H]3CC(=O)[C@]21C
REMARK SMILES IDX 10 1 9 2 8 3 7 4 5 5 6 6 4 7 3 8 2 9 1 10 79 11 80 12 98 13
REMARK SMILES IDX 81 14 82 15 96 16 99 17 83 18 95 19 97 20 84 21 94 22 85 23
REMARK SMILES IDX 92 24 86 25 91 26 93 27 87 28 90 29 88 30 89 31 11 32 12 33
REMARK SMILES IDX 13 34 14 35 15 36 16 37 17 38 78 39 18 40 77 41 19 42 20 43
REMARK SMILES IDX 21 44 71 45 22 46 76 47 70 48 72 49 23 50 75 51 69 52 68 53
REMARK SMILES IDX 24 55 56 56 36 57 55 58 37 59 40 60 54 61 73 62 38 63 39 64
REMARK SMILES IDX 53 66 74 67 41 68 25 69 26 70 34 71 27 72 33 73 35 74 32 75
REMARK SMILES IDX 28 76 29 77 30 78 31 79 57 80 58 81 66 82 59 83 65 84 67 85
REMARK SMILES IDX 64 86 60 87 61 88 62 89 63 90 42 91 43 92 51 93 44 94 50 95
REMARK SMILES IDX 52 96 49 97 45 98 46 99 47 100 48 101
REMARK H PARENT 72 54 40 65
REMARK Flexibility Score: inf
ROOT
ATOM      1  O   UNL A   1      42.865  21.806  25.235  1.00  0.00    -0.374 OA
ENDROOT
BRANCH   1   2
ATOM      2  C   UNL A   1      41.605  22.221  25.772  1.00  0.00     0.202 C 
BRANCH   2   3
ATOM      3  C   UNL A   1      41.464  21.955  27.277  1.00  0.00     0.261 C 
BRANCH   3   4
ATOM      4  O   UNL A   1      41.137  23.181  27.959  1.00  0.00    -0.463 OA
BRANCH   4   5
ATOM      5  C   UNL A   1      42.109  23.793  28.672  1.00  0.00     0.305 C 
ATOM      6  O   UNL A   1      42.894  23.223  29.420  1.00  0.00    -0.252 OA
BRANCH   5   7
ATOM      7  C   UNL A   1      42.101  25.300  28.482  1.00  0.00     0.123 C 
BRANCH   7   8
ATOM      8  C   UNL A   1      40.998  25.877  27.574  1.00  0.00     0.015 C 
BRANCH   8   9
ATOM      9  C   UNL A   1      39.689  26.402  28.224  1.00  0.00    -0.010 C 
ATOM     10  C   UNL A   1      38.486  25.484  27.982  1.00  0.00     0.008 C 
BRANCH   9  11
ATOM     11  C   UNL A   1      39.433  27.948  28.129  1.00  0.00     0.005 C 
ATOM     12  C   UNL A   1      40.760  28.757  28.022  1.00  0.00     0.005 C 
ATOM     13  C   UNL A   1      38.571  28.753  29.164  1.00  0.00     0.032 C 
ATOM     14  C   UNL A   1      40.714  29.821  29.120  1.00  0.00     0.005 C 
ATOM     15  C   UNL A   1      39.236  30.157  29.138  1.00  0.00     0.006 C 
ATOM     16  C   UNL A   1      37.165  29.113  28.701  1.00  0.00     0.139 C 
ATOM     17  C   UNL A   1      38.528  28.136  30.566  1.00  0.00     0.020 C 
ATOM     18  C   UNL A   1      38.671  31.099  30.214  1.00  0.00    -0.003 C 
ATOM     19  C   UNL A   1      36.370  30.039  29.609  1.00  0.00     0.080 C 
ATOM     20  O   UNL A   1      36.708  28.741  27.624  1.00  0.00    -0.299 OA
ATOM     21  C   UNL A   1      39.401  32.442  30.251  1.00  0.00     0.004 C 
ATOM     22  C   UNL A   1      37.149  31.336  29.934  1.00  0.00     0.006 C 
ATOM     23  C   UNL A   1      38.798  33.368  31.302  1.00  0.00     0.005 C 
ATOM     24  C   UNL A   1      36.478  32.227  31.045  1.00  0.00    -0.025 C 
ATOM     25  C   UNL A   1      37.277  33.563  31.140  1.00  0.00     0.002 C 
ATOM     26  C   UNL A   1      36.397  31.501  32.417  1.00  0.00     0.015 C 
ATOM     27  C   UNL A   1      35.017  32.543  30.612  1.00  0.00     0.012 C 
ATOM     28  C   UNL A   1      36.734  34.481  32.239  1.00  0.00     0.079 C 
ATOM     29  C   UNL A   1      36.768  32.300  33.665  1.00  0.00     0.076 C 
ATOM     30  C   UNL A   1      36.645  33.802  33.582  1.00  0.00     0.133 C 
ATOM     31  O   UNL A   1      36.509  34.465  34.613  1.00  0.00    -0.300 OA
ENDBRANCH   9  11
ENDBRANCH   8   9
ENDBRANCH   7   8
ENDBRANCH   5   7
ENDBRANCH   4   5
ENDBRANCH   3   4
ENDBRANCH   2   3
ENDBRANCH   1   2
BRANCH   1  32
ATOM     32  C   UNL A   1      43.947  21.745  26.161  1.00  0.00     0.202 C 
BRANCH  32  33
ATOM     33  C   UNL A   1      45.010  22.846  26.052  1.00  0.00     0.261 C 
BRANCH  33  34
ATOM     34  O   UNL A   1      44.698  23.932  25.162  1.00  0.00    -0.460 OA
BRANCH  34  35
ATOM     35  C   UNL A   1      45.667  24.877  25.065  1.00  0.00     0.338 C 
ATOM     36  O   UNL A   1      46.702  24.771  24.414  1.00  0.00    -0.246 OA
BRANCH  35  37
ATOM     37  C   UNL A   1      45.376  26.087  25.875  1.00  0.00     0.060 A 
ATOM     38  C   UNL A   1      46.203  26.343  26.977  1.00  0.00     0.016 A 
ATOM     39  C   UNL A   1      44.243  26.882  25.664  1.00  0.00     0.016 A 
ATOM     40  C   UNL A   1      45.877  27.345  27.893  1.00  0.00     0.010 A 
ATOM     41  C   UNL A   1      43.916  27.891  26.587  1.00  0.00     0.010 A 
ATOM     42  C   UNL A   1      44.711  28.105  27.727  1.00  0.00    -0.014 A 
BRANCH  42  43
ATOM     43  C   UNL A   1      44.272  29.019  28.816  1.00  0.00     0.031 A 
ATOM     44  C   UNL A   1      43.992  28.458  30.186  1.00  0.00     0.074 A 
ATOM     45  C   UNL A   1      44.163  30.344  28.604  1.00  0.00     0.049 A 
ATOM     46  N   UNL A   1      43.631  29.076  31.282  1.00  0.00    -0.248 NA
ATOM     47  C   UNL A   1      44.139  27.002  30.337  1.00  0.00     0.031 C 
ATOM     48  C   UNL A   1      44.432  31.018  27.335  1.00  0.00     0.029 A 
ATOM     49  N   UNL A   1      43.797  31.359  29.453  1.00  0.00    -0.354 N 
ATOM     50  C   UNL A   1      43.518  28.090  32.258  1.00  0.00     0.074 A 
ATOM     51  C   UNL A   1      43.805  26.828  31.607  1.00  0.00     0.031 C 
ATOM     52  C   UNL A   1      44.212  32.336  27.487  1.00  0.00     0.029 A 
ATOM     53  C   UNL A   1      43.761  32.597  28.855  1.00  0.00     0.049 A 
ATOM     54  H   UNL A   1      43.580  31.214  30.402  1.00  0.00     0.167 HD
ATOM     55  C   UNL A   1      43.217  28.222  33.574  1.00  0.00     0.034 A 
ATOM     56  C   UNL A   1      43.394  33.798  29.347  1.00  0.00     0.034 A 
ATOM     57  C   UNL A   1      42.908  29.480  34.211  1.00  0.00     0.049 A 
ATOM     58  C   UNL A   1      42.975  33.911  30.794  1.00  0.00     0.074 A 
ATOM     59  C   UNL A   1      42.611  29.724  35.542  1.00  0.00     0.029 A 
ATOM     60  N   UNL A   1      42.835  30.705  33.562  1.00  0.00    -0.354 N 
ATOM     61  N   UNL A   1      42.910  32.975  31.713  1.00  0.00    -0.248 NA
ATOM     62  C   UNL A   1      42.590  35.247  31.273  1.00  0.00     0.031 C 
ATOM     63  C   UNL A   1      42.287  31.080  35.680  1.00  0.00     0.029 A 
ATOM     64  C   UNL A   1      42.457  31.698  34.454  1.00  0.00     0.049 A 
ATOM     65  H   UNL A   1      43.024  30.849  32.606  1.00  0.00     0.167 HD
ATOM     66  C   UNL A   1      42.507  33.617  32.884  1.00  0.00     0.074 A 
ATOM     67  C   UNL A   1      42.354  35.019  32.557  1.00  0.00     0.031 C 
ATOM     68  C   UNL A   1      42.292  33.094  34.118  1.00  0.00     0.034 A 
BRANCH  55  69
ATOM     69  C   UNL A   1      43.158  26.959  34.398  1.00  0.00     0.023 A 
ATOM     70  C   UNL A   1      44.323  26.327  34.869  1.00  0.00     0.031 A 
ATOM     71  C   UNL A   1      41.920  26.358  34.692  1.00  0.00     0.131 A 
ATOM     72  C   UNL A   1      44.232  25.099  35.541  1.00  0.00     0.055 A 
ATOM     73  C   UNL A   1      41.832  25.175  35.428  1.00  0.00     0.041 A 
ATOM     74  F   UNL A   1      40.775  26.904  34.255  1.00  0.00    -0.206 F 
ATOM     75  C   UNL A   1      42.993  24.529  35.843  1.00  0.00     0.022 A 
BRANCH  72  76
ATOM     76  S   UNL A   1      45.759  24.184  35.887  1.00  0.00     0.124 S 
ATOM     77  O   UNL A   1      46.290  23.975  34.542  1.00  0.00    -0.237 OA
ATOM     78  O   UNL A   1      46.501  25.115  36.730  1.00  0.00    -0.237 OA
ATOM     79  O   UNL A   1      45.289  22.973  36.558  1.00  0.00    -0.744 OA
ENDBRANCH  72  76
ENDBRANCH  55  69
BRANCH  56  80
ATOM     80  C   UNL A   1      43.359  34.995  28.458  1.00  0.00     0.023 A 
ATOM     81  C   UNL A   1      44.536  35.654  28.072  1.00  0.00     0.031 A 
ATOM     82  C   UNL A   1      42.131  35.535  28.032  1.00  0.00     0.131 A 
ATOM     83  C   UNL A   1      44.460  36.839  27.322  1.00  0.00     0.055 A 
ATOM     84  C   UNL A   1      42.063  36.686  27.247  1.00  0.00     0.041 A 
ATOM     85  F   UNL A   1      40.974  34.943  28.374  1.00  0.00    -0.206 F 
ATOM     86  C   UNL A   1      43.233  37.352  26.897  1.00  0.00     0.022 A 
BRANCH  83  87
ATOM     87  S   UNL A   1      45.991  37.747  26.975  1.00  0.00     0.124 S 
ATOM     88  O   UNL A   1      46.578  37.860  28.306  1.00  0.00    -0.237 OA
ATOM     89  O   UNL A   1      46.670  36.850  26.047  1.00  0.00    -0.237 OA
ATOM     90  O   UNL A   1      45.516  39.001  26.392  1.00  0.00    -0.744 OA
ENDBRANCH  83  87
ENDBRANCH  56  80
BRANCH  68  91
ATOM     91  C   UNL A   1      41.909  34.054  35.220  1.00  0.00     0.023 A 
ATOM     92  C   UNL A   1      42.871  34.779  35.942  1.00  0.00     0.031 A 
ATOM     93  C   UNL A   1      40.554  34.244  35.550  1.00  0.00     0.131 A 
ATOM     94  C   UNL A   1      42.470  35.627  36.989  1.00  0.00     0.055 A 
ATOM     95  C   UNL A   1      40.159  35.128  36.555  1.00  0.00     0.041 A 
ATOM     96  F   UNL A   1      39.591  33.577  34.894  1.00  0.00    -0.206 F 
ATOM     97  C   UNL A   1      41.119  35.817  37.288  1.00  0.00     0.022 A 
BRANCH  94  98
ATOM     98  S   UNL A   1      43.744  36.424  38.007  1.00  0.00     0.124 S 
ATOM     99  O   UNL A   1      43.303  36.094  39.358  1.00  0.00    -0.237 OA
ATOM    100  O   UNL A   1      44.964  35.763  37.556  1.00  0.00    -0.237 OA
ATOM    101  O   UNL A   1      43.637  37.837  37.647  1.00  0.00    -0.744 OA
ENDBRANCH  94  98
ENDBRANCH  68  91
ENDBRANCH  42  43
ENDBRANCH  35  37
ENDBRANCH  34  35
ENDBRANCH  33  34
ENDBRANCH  32  33
ENDBRANCH   1  32
TORSDOF 20
ENDMDL
MODEL 3
REMARK VINA RESULT:      -8.6      3.046      7.609
REMARK SMILES C[C@@H](CCC(=O)OCCOCCOC(=O)c1ccc(-c2c3nc(c(-c4cc(S(=O)(=O)[O-])ccc4F)c4ccc([nH]4)c(-c4cc(S(=O)(=O)[O-])ccc4F)c4nc(c(-c5cc(S(=O)(=O)[O-])ccc5F)c5ccc2[nH]5)C=C4)C=C3)cc1)[C@@H]1CC[C@@H]2[C@H]3CC[C@@H]4CC(=O)CC[C@]4(C)[C@@H]3CC(=O)[C@]21C
REMARK SMILES IDX 10 1 9 2 8 3 7 4 5 5 6 6 4 7 3 8 2 9 1 10 79 11 80 12 98 13
REMARK SMILES IDX 81 14 82 15 96 16 99 17 83 18 95 19 97 20 84 21 94 22 85 23
REMARK SMILES IDX 92 24 86 25 91 26 93 27 87 28 90 29 88 30 89 31 11 32 12 33
REMARK SMILES IDX 13 34 14 35 15 36 16 37 17 38 78 39 18 40 77 41 19 42 20 43
REMARK SMILES IDX 21 44 71 45 22 46 76 47 70 48 72 49 23 50 75 51 69 52 68 53
REMARK SMILES IDX 24 55 56 56 36 57 55 58 37 59 40 60 54 61 73 62 38 63 39 64
REMARK SMILES IDX 53 66 74 67 41 68 25 69 26 70 34 71 27 72 33 73 35 74 32 75
REMARK SMILES IDX 28 76 29 77 30 78 31 79 57 80 58 81 66 82 59 83 65 84 67 85
REMARK SMILES IDX 64 86 60 87 61 88 62 89 63 90 42 91 43 92 51 93 44 94 50 95
REMARK SMILES IDX 52 96 49 97 45 98 46 99 47 100 48 101
REMARK H PARENT 72 54 40 65
REMARK Flexibility Score: inf
ROOT
ATOM      1  O   UNL A   1      33.929  34.361  30.742  1.00  0.00    -0.374 OA
ENDROOT
BRANCH   1   2
ATOM      2  C   UNL A   1      34.806  34.735  31.810  1.00  0.00     0.202 C 
BRANCH   2   3
ATOM      3  C   UNL A   1      35.795  33.629  32.205  1.00  0.00     0.261 C 
BRANCH   3   4
ATOM      4  O   UNL A   1      37.139  34.044  31.895  1.00  0.00    -0.463 OA
BRANCH   4   5
ATOM      5  C   UNL A   1      37.925  34.471  32.908  1.00  0.00     0.305 C 
ATOM      6  O   UNL A   1      37.524  34.779  34.024  1.00  0.00    -0.252 OA
BRANCH   5   7
ATOM      7  C   UNL A   1      39.384  34.578  32.500  1.00  0.00     0.123 C 
BRANCH   7   8
ATOM      8  C   UNL A   1      39.778  33.927  31.161  1.00  0.00     0.015 C 
BRANCH   8   9
ATOM      9  C   UNL A   1      40.447  34.805  30.068  1.00  0.00    -0.010 C 
ATOM     10  C   UNL A   1      39.669  34.820  28.748  1.00  0.00     0.008 C 
BRANCH   9  11
ATOM     11  C   UNL A   1      42.011  34.724  29.969  1.00  0.00     0.005 C 
ATOM     12  C   UNL A   1      42.555  35.421  28.685  1.00  0.00     0.005 C 
ATOM     13  C   UNL A   1      42.822  33.383  30.053  1.00  0.00     0.032 C 
ATOM     14  C   UNL A   1      43.450  34.402  27.979  1.00  0.00     0.005 C 
ATOM     15  C   UNL A   1      44.060  33.680  29.163  1.00  0.00     0.006 C 
ATOM     16  C   UNL A   1      43.507  33.119  31.387  1.00  0.00     0.139 C 
ATOM     17  C   UNL A   1      42.041  32.144  29.600  1.00  0.00     0.020 C 
ATOM     18  C   UNL A   1      44.940  32.438  28.941  1.00  0.00    -0.003 C 
ATOM     19  C   UNL A   1      44.438  31.917  31.443  1.00  0.00     0.080 C 
ATOM     20  O   UNL A   1      43.380  33.862  32.355  1.00  0.00    -0.299 OA
ATOM     21  C   UNL A   1      46.099  32.712  27.981  1.00  0.00     0.004 C 
ATOM     22  C   UNL A   1      45.504  31.961  30.322  1.00  0.00     0.006 C 
ATOM     23  C   UNL A   1      46.974  31.475  27.808  1.00  0.00     0.005 C 
ATOM     24  C   UNL A   1      46.350  30.640  30.188  1.00  0.00    -0.025 C 
ATOM     25  C   UNL A   1      47.480  30.896  29.144  1.00  0.00     0.002 C 
ATOM     26  C   UNL A   1      45.476  29.413  29.807  1.00  0.00     0.015 C 
ATOM     27  C   UNL A   1      46.999  30.325  31.567  1.00  0.00     0.012 C 
ATOM     28  C   UNL A   1      48.329  29.645  28.899  1.00  0.00     0.079 C 
ATOM     29  C   UNL A   1      46.011  28.465  28.735  1.00  0.00     0.076 C 
ATOM     30  C   UNL A   1      47.506  28.438  28.527  1.00  0.00     0.133 C 
ATOM     31  O   UNL A   1      48.037  27.446  28.021  1.00  0.00    -0.300 OA
ENDBRANCH   9  11
ENDBRANCH   8   9
ENDBRANCH   7   8
ENDBRANCH   5   7
ENDBRANCH   4   5
ENDBRANCH   3   4
ENDBRANCH   2   3
ENDBRANCH   1   2
BRANCH   1  32
ATOM     32  C   UNL A   1      34.353  33.257  29.947  1.00  0.00     0.202 C 
BRANCH  32  33
ATOM     33  C   UNL A   1      34.057  33.336  28.443  1.00  0.00     0.261 C 
BRANCH  33  34
ATOM     34  O   UNL A   1      34.952  32.603  27.589  1.00  0.00    -0.460 OA
BRANCH  34  35
ATOM     35  C   UNL A   1      34.950  31.261  27.790  1.00  0.00     0.338 C 
ATOM     36  O   UNL A   1      34.084  30.484  27.401  1.00  0.00    -0.246 OA
BRANCH  35  37
ATOM     37  C   UNL A   1      36.114  30.795  28.587  1.00  0.00     0.060 A 
ATOM     38  C   UNL A   1      37.332  31.464  28.405  1.00  0.00     0.016 A 
ATOM     39  C   UNL A   1      36.070  29.646  29.385  1.00  0.00     0.016 A 
ATOM     40  C   UNL A   1      38.508  30.963  28.969  1.00  0.00     0.010 A 
ATOM     41  C   UNL A   1      37.254  29.144  29.952  1.00  0.00     0.010 A 
ATOM     42  C   UNL A   1      38.487  29.779  29.718  1.00  0.00    -0.014 A 
BRANCH  42  43
ATOM     43  C   UNL A   1      39.771  29.151  30.131  1.00  0.00     0.031 A 
ATOM     44  C   UNL A   1      40.468  29.641  31.374  1.00  0.00     0.074 A 
ATOM     45  C   UNL A   1      40.294  28.124  29.434  1.00  0.00     0.049 A 
ATOM     46  N   UNL A   1      41.575  29.216  31.931  1.00  0.00    -0.248 NA
ATOM     47  C   UNL A   1      39.829  30.761  32.081  1.00  0.00     0.031 C 
ATOM     48  C   UNL A   1      39.706  27.537  28.232  1.00  0.00     0.029 A 
ATOM     49  N   UNL A   1      41.440  27.395  29.640  1.00  0.00    -0.354 N 
ATOM     50  C   UNL A   1      41.761  30.007  33.061  1.00  0.00     0.074 A 
ATOM     51  C   UNL A   1      40.676  30.967  33.080  1.00  0.00     0.031 C 
ATOM     52  C   UNL A   1      40.502  26.542  27.800  1.00  0.00     0.029 A 
ATOM     53  C   UNL A   1      41.668  26.439  28.678  1.00  0.00     0.049 A 
ATOM     54  H   UNL A   1      42.042  27.544  30.404  1.00  0.00     0.167 HD
ATOM     55  C   UNL A   1      42.736  29.935  34.001  1.00  0.00     0.034 A 
ATOM     56  C   UNL A   1      42.703  25.590  28.515  1.00  0.00     0.034 A 
ATOM     57  C   UNL A   1      43.829  28.993  33.964  1.00  0.00     0.049 A 
ATOM     58  C   UNL A   1      43.827  25.585  29.525  1.00  0.00     0.074 A 
ATOM     59  C   UNL A   1      44.856  28.824  34.879  1.00  0.00     0.029 A 
ATOM     60  N   UNL A   1      44.052  28.072  32.949  1.00  0.00    -0.354 N 
ATOM     61  N   UNL A   1      43.969  26.314  30.609  1.00  0.00    -0.248 NA
ATOM     62  C   UNL A   1      44.924  24.634  29.296  1.00  0.00     0.031 C 
ATOM     63  C   UNL A   1      45.736  27.856  34.380  1.00  0.00     0.029 A 
ATOM     64  C   UNL A   1      45.220  27.364  33.193  1.00  0.00     0.049 A 
ATOM     65  H   UNL A   1      43.466  27.941  32.168  1.00  0.00     0.167 HD
ATOM     66  C   UNL A   1      45.155  25.886  31.203  1.00  0.00     0.074 A 
ATOM     67  C   UNL A   1      45.683  24.830  30.365  1.00  0.00     0.031 C 
ATOM     68  C   UNL A   1      45.749  26.320  32.344  1.00  0.00     0.034 A 
BRANCH  55  69
ATOM     69  C   UNL A   1      42.687  30.943  35.125  1.00  0.00     0.023 A 
ATOM     70  C   UNL A   1      43.402  32.152  35.066  1.00  0.00     0.031 A 
ATOM     71  C   UNL A   1      41.939  30.677  36.286  1.00  0.00     0.131 A 
ATOM     72  C   UNL A   1      43.415  33.014  36.173  1.00  0.00     0.055 A 
ATOM     73  C   UNL A   1      41.895  31.574  37.355  1.00  0.00     0.041 A 
ATOM     74  F   UNL A   1      41.251  29.531  36.409  1.00  0.00    -0.206 F 
ATOM     75  C   UNL A   1      42.648  32.743  37.310  1.00  0.00     0.022 A 
BRANCH  72  76
ATOM     76  S   UNL A   1      44.561  34.419  36.166  1.00  0.00     0.124 S 
ATOM     77  O   UNL A   1      44.839  34.581  37.591  1.00  0.00    -0.237 OA
ATOM     78  O   UNL A   1      45.664  33.923  35.351  1.00  0.00    -0.237 OA
ATOM     79  O   UNL A   1      43.777  35.498  35.567  1.00  0.00    -0.744 OA
ENDBRANCH  72  76
ENDBRANCH  55  69
BRANCH  56  80
ATOM     80  C   UNL A   1      42.760  24.694  27.323  1.00  0.00     0.023 A 
ATOM     81  C   UNL A   1      42.216  23.401  27.354  1.00  0.00     0.031 A 
ATOM     82  C   UNL A   1      43.421  25.105  26.150  1.00  0.00     0.131 A 
ATOM     83  C   UNL A   1      42.380  22.548  26.251  1.00  0.00     0.055 A 
ATOM     84  C   UNL A   1      43.539  24.270  25.039  1.00  0.00     0.041 A 
ATOM     85  F   UNL A   1      43.959  26.333  26.069  1.00  0.00    -0.206 F 
ATOM     86  C   UNL A   1      43.027  22.978  25.090  1.00  0.00     0.022 A 
BRANCH  83  87
ATOM     87  S   UNL A   1      41.802  20.834  26.384  1.00  0.00     0.124 S 
ATOM     88  O   UNL A   1      40.397  20.964  26.014  1.00  0.00    -0.237 OA
ATOM     89  O   UNL A   1      42.660  20.152  25.422  1.00  0.00    -0.237 OA
ATOM     90  O   UNL A   1      42.052  20.501  27.785  1.00  0.00    -0.744 OA
ENDBRANCH  83  87
ENDBRANCH  56  80
BRANCH  68  91
ATOM     91  C   UNL A   1      47.018  25.623  32.775  1.00  0.00     0.023 A 
ATOM     92  C   UNL A   1      46.998  24.489  33.604  1.00  0.00     0.031 A 
ATOM     93  C   UNL A   1      48.268  26.105  32.345  1.00  0.00     0.131 A 
ATOM     94  C   UNL A   1      48.205  23.901  34.016  1.00  0.00     0.055 A 
ATOM     95  C   UNL A   1      49.462  25.483  32.714  1.00  0.00     0.041 A 
ATOM     96  F   UNL A   1      48.348  27.185  31.552  1.00  0.00    -0.206 F 
ATOM     97  C   UNL A   1      49.436  24.382  33.562  1.00  0.00     0.022 A 
BRANCH  94  98
ATOM     98  S   UNL A   1      48.152  22.539  35.215  1.00  0.00     0.124 S 
ATOM     99  O   UNL A   1      49.280  22.856  36.085  1.00  0.00    -0.237 OA
ATOM    100  O   UNL A   1      46.828  22.695  35.807  1.00  0.00    -0.237 OA
ATOM    101  O   UNL A   1      48.323  21.346  34.388  1.00  0.00    -0.744 OA
ENDBRANCH  94  98
ENDBRANCH  68  91
ENDBRANCH  42  43
ENDBRANCH  35  37
ENDBRANCH  34  35
ENDBRANCH  33  34
ENDBRANCH  32  33
ENDBRANCH   1  32
TORSDOF 20
ENDMDL
