MODEL 1
REMARK VINA RESULT:     -11.8      0.000      0.000
REMARK SMILES O=C(Cc1ccccc1)Nc1cccc(C(=O)Nc2ccccc2C(=O)OCCOCCOC(=O)c2ccc(-c3c4nc(c(-c5cc(S(=O)(=O)[O-])ccc5F)c5ccc([nH]5)c(-c5cc(S(=O)(=O)[O-])ccc5F)c5nc(c(-c6cc(S(=O)(=O)[O-])ccc6F)c6ccc3[nH]6)C=C5)C=C4)cc2)c1
REMARK SMILES IDX 29 1 28 2 27 3 25 4 26 5 24 6 19 7 20 8 21 9 23 10 22 11
REMARK SMILES IDX 18 12 16 13 17 14 15 16 11 17 12 18 99 19 13 20 14 21 10 22
REMARK SMILES IDX 1 23 2 24 3 26 4 27 5 28 9 29 6 30 8 31 7 32 30 33 31 34
REMARK SMILES IDX 32 35 33 36 34 37 35 38 36 39 37 40 98 41 38 42 97 43 39 44
REMARK SMILES IDX 40 45 41 46 91 47 42 48 96 49 90 50 92 51 43 52 95 53 89 54
REMARK SMILES IDX 88 55 44 57 76 58 56 59 75 60 57 61 60 62 74 63 93 64 58 65
REMARK SMILES IDX 59 66 73 68 94 69 61 70 45 71 46 72 54 73 47 74 53 75 55 76
REMARK SMILES IDX 52 77 48 78 49 79 50 80 51 81 77 82 78 83 86 84 79 85 85 86
REMARK SMILES IDX 87 87 84 88 80 89 81 90 82 91 83 92 62 93 63 94 71 95 64 96
REMARK SMILES IDX 70 97 72 98 69 99 65 100 66 101 67 102 68 103
REMARK H PARENT 18 15 10 25 92 56 60 67
REMARK Flexibility Score: inf
ROOT
ATOM      1  C   UNL A   1      36.229  22.677  26.103  1.00  0.00     0.202 C 
ENDROOT
BRANCH   1   2
ATOM      2  C   UNL A   1      35.751  24.129  26.007  1.00  0.00     0.261 C 
BRANCH   2   3
ATOM      3  O   UNL A   1      34.474  24.304  25.367  1.00  0.00    -0.460 OA
BRANCH   3   4
ATOM      4  C   UNL A   1      33.719  25.300  25.891  1.00  0.00     0.340 C 
ATOM      5  O   UNL A   1      34.072  26.468  26.022  1.00  0.00    -0.246 OA
BRANCH   4   6
ATOM      6  C   UNL A   1      32.316  24.890  26.155  1.00  0.00     0.083 A 
ATOM      7  C   UNL A   1      31.836  23.619  26.526  1.00  0.00     0.056 A 
ATOM      8  C   UNL A   1      30.438  23.449  26.632  1.00  0.00     0.027 A 
ATOM      9  C   UNL A   1      29.547  24.514  26.470  1.00  0.00     0.002 A 
ATOM     10  C   UNL A   1      31.396  25.954  25.979  1.00  0.00     0.018 A 
ATOM     11  C   UNL A   1      30.027  25.773  26.152  1.00  0.00     0.001 A 
BRANCH   7  12
ATOM     12  N   UNL A   1      32.562  22.455  26.874  1.00  0.00    -0.321 N 
ATOM     13  C   UNL A   1      32.967  21.330  26.186  1.00  0.00     0.255 C 
ATOM     14  O   UNL A   1      33.473  20.401  26.811  1.00  0.00    -0.269 OA
ATOM     15  H   UNL A   1      32.840  22.445  27.818  1.00  0.00     0.170 HD
BRANCH  13  16
ATOM     16  C   UNL A   1      32.873  21.227  24.716  1.00  0.00     0.042 A 
ATOM     17  C   UNL A   1      32.502  22.327  22.621  1.00  0.00     0.041 A 
ATOM     18  C   UNL A   1      32.048  21.117  22.080  1.00  0.00     0.026 A 
ATOM     19  C   UNL A   1      33.036  22.349  23.904  1.00  0.00     0.040 A 
ATOM     20  C   UNL A   1      32.100  19.941  22.830  1.00  0.00     0.003 A 
ATOM     21  C   UNL A   1      32.489  20.001  24.164  1.00  0.00     0.014 A 
BRANCH  17  22
ATOM     22  N   UNL A   1      32.181  23.508  21.933  1.00  0.00    -0.326 N 
ATOM     23  O   UNL A   1      34.085  24.818  22.223  1.00  0.00    -0.274 OA
ATOM     24  C   UNL A   1      32.917  24.679  21.872  1.00  0.00     0.228 C 
ATOM     25  H   UNL A   1      31.332  23.504  21.434  1.00  0.00     0.169 HD
BRANCH  24  26
ATOM     26  C   UNL A   1      32.111  25.859  21.357  1.00  0.00     0.135 C 
BRANCH  26  27
ATOM     27  C   UNL A   1      31.819  26.977  22.336  1.00  0.00    -0.039 A 
ATOM     28  C   UNL A   1      32.807  27.789  22.912  1.00  0.00     0.004 A 
ATOM     29  C   UNL A   1      30.475  27.271  22.619  1.00  0.00     0.004 A 
ATOM     30  C   UNL A   1      32.465  28.872  23.721  1.00  0.00     0.000 A 
ATOM     31  C   UNL A   1      30.133  28.343  23.447  1.00  0.00     0.000 A 
ATOM     32  C   UNL A   1      31.129  29.150  23.989  1.00  0.00     0.000 A 
ENDBRANCH  26  27
ENDBRANCH  24  26
ENDBRANCH  17  22
ENDBRANCH  13  16
ENDBRANCH   7  12
ENDBRANCH   4   6
ENDBRANCH   3   4
ENDBRANCH   2   3
ENDBRANCH   1   2
BRANCH   1  33
ATOM     33  O   UNL A   1      36.325  21.922  24.902  1.00  0.00    -0.374 OA
BRANCH  33  34
ATOM     34  C   UNL A   1      36.510  20.513  25.001  1.00  0.00     0.202 C 
BRANCH  34  35
ATOM     35  C   UNL A   1      37.934  19.960  25.148  1.00  0.00     0.261 C 
BRANCH  35  36
ATOM     36  O   UNL A   1      38.965  20.964  25.152  1.00  0.00    -0.460 OA
BRANCH  36  37
ATOM     37  C   UNL A   1      39.803  20.901  26.216  1.00  0.00     0.338 C 
ATOM     38  O   UNL A   1      40.449  19.925  26.579  1.00  0.00    -0.246 OA
BRANCH  37  39
ATOM     39  C   UNL A   1      39.970  22.217  26.851  1.00  0.00     0.060 A 
ATOM     40  C   UNL A   1      39.317  23.316  26.278  1.00  0.00     0.016 A 
ATOM     41  C   UNL A   1      40.911  22.400  27.866  1.00  0.00     0.016 A 
ATOM     42  C   UNL A   1      39.648  24.611  26.676  1.00  0.00     0.010 A 
ATOM     43  C   UNL A   1      41.249  23.700  28.256  1.00  0.00     0.010 A 
ATOM     44  C   UNL A   1      40.654  24.812  27.631  1.00  0.00    -0.014 A 
BRANCH  44  45
ATOM     45  C   UNL A   1      41.215  26.171  27.843  1.00  0.00     0.031 A 
ATOM     46  C   UNL A   1      42.596  26.474  27.321  1.00  0.00     0.074 A 
ATOM     47  C   UNL A   1      40.505  27.121  28.478  1.00  0.00     0.049 A 
ATOM     48  N   UNL A   1      43.325  27.550  27.471  1.00  0.00    -0.248 NA
ATOM     49  C   UNL A   1      43.241  25.416  26.527  1.00  0.00     0.031 C 
ATOM     50  C   UNL A   1      39.144  26.962  28.983  1.00  0.00     0.029 A 
ATOM     51  N   UNL A   1      40.844  28.407  28.820  1.00  0.00    -0.354 N 
ATOM     52  C   UNL A   1      44.520  27.294  26.808  1.00  0.00     0.074 A 
ATOM     53  C   UNL A   1      44.424  25.954  26.268  1.00  0.00     0.031 C 
ATOM     54  C   UNL A   1      38.768  28.101  29.590  1.00  0.00     0.029 A 
ATOM     55  C   UNL A   1      39.877  29.053  29.556  1.00  0.00     0.049 A 
ATOM     56  H   UNL A   1      41.697  28.827  28.565  1.00  0.00     0.167 HD
ATOM     57  C   UNL A   1      45.599  28.103  26.664  1.00  0.00     0.034 A 
ATOM     58  C   UNL A   1      39.902  30.258  30.163  1.00  0.00     0.034 A 
ATOM     59  C   UNL A   1      45.682  29.436  27.207  1.00  0.00     0.049 A 
ATOM     60  C   UNL A   1      41.144  31.112  30.048  1.00  0.00     0.074 A 
ATOM     61  C   UNL A   1      46.721  30.346  27.106  1.00  0.00     0.029 A 
ATOM     62  N   UNL A   1      44.691  30.049  27.963  1.00  0.00    -0.354 N 
ATOM     63  N   UNL A   1      42.267  30.860  29.417  1.00  0.00    -0.248 NA
ATOM     64  C   UNL A   1      41.119  32.416  30.727  1.00  0.00     0.031 C 
ATOM     65  C   UNL A   1      46.384  31.482  27.849  1.00  0.00     0.029 A 
ATOM     66  C   UNL A   1      45.106  31.311  28.357  1.00  0.00     0.049 A 
ATOM     67  H   UNL A   1      43.821  29.646  28.185  1.00  0.00     0.167 HD
ATOM     68  C   UNL A   1      43.065  31.988  29.594  1.00  0.00     0.074 A 
ATOM     69  C   UNL A   1      42.293  32.924  30.383  1.00  0.00     0.031 C 
ATOM     70  C   UNL A   1      44.321  32.234  29.140  1.00  0.00     0.034 A 
BRANCH  57  71
ATOM     71  C   UNL A   1      46.799  27.545  25.939  1.00  0.00     0.023 A 
ATOM     72  C   UNL A   1      47.081  27.877  24.603  1.00  0.00     0.031 A 
ATOM     73  C   UNL A   1      47.671  26.663  26.600  1.00  0.00     0.131 A 
ATOM     74  C   UNL A   1      48.181  27.293  23.956  1.00  0.00     0.055 A 
ATOM     75  C   UNL A   1      48.800  26.135  25.972  1.00  0.00     0.041 A 
ATOM     76  F   UNL A   1      47.437  26.296  27.870  1.00  0.00    -0.206 F 
ATOM     77  C   UNL A   1      49.054  26.442  24.638  1.00  0.00     0.022 A 
BRANCH  74  78
ATOM     78  S   UNL A   1      48.401  27.578  22.179  1.00  0.00     0.124 S 
ATOM     79  O   UNL A   1      48.629  26.221  21.688  1.00  0.00    -0.237 OA
ATOM     80  O   UNL A   1      47.134  28.191  21.797  1.00  0.00    -0.237 OA
ATOM     81  O   UNL A   1      49.564  28.460  22.114  1.00  0.00    -0.744 OA
ENDBRANCH  74  78
ENDBRANCH  57  71
BRANCH  58  82
ATOM     82  C   UNL A   1      38.746  30.719  30.986  1.00  0.00     0.023 A 
ATOM     83  C   UNL A   1      37.620  31.310  30.394  1.00  0.00     0.031 A 
ATOM     84  C   UNL A   1      38.790  30.644  32.390  1.00  0.00     0.131 A 
ATOM     85  C   UNL A   1      36.609  31.855  31.202  1.00  0.00     0.055 A 
ATOM     86  C   UNL A   1      37.755  31.134  33.188  1.00  0.00     0.041 A 
ATOM     87  F   UNL A   1      39.847  30.096  33.010  1.00  0.00    -0.206 F 
ATOM     88  C   UNL A   1      36.663  31.758  32.595  1.00  0.00     0.022 A 
BRANCH  85  89
ATOM     89  S   UNL A   1      35.273  32.790  30.408  1.00  0.00     0.124 S 
ATOM     90  O   UNL A   1      34.744  31.812  29.464  1.00  0.00    -0.237 OA
ATOM     91  O   UNL A   1      34.415  33.116  31.542  1.00  0.00    -0.237 OA
ATOM     92  O   UNL A   1      35.965  33.927  29.805  1.00  0.00    -0.744 OA
ENDBRANCH  85  89
ENDBRANCH  58  82
BRANCH  70  93
ATOM     93  C   UNL A   1      44.906  33.593  29.433  1.00  0.00     0.023 A 
ATOM     94  C   UNL A   1      44.655  34.704  28.610  1.00  0.00     0.031 A 
ATOM     95  C   UNL A   1      45.730  33.772  30.558  1.00  0.00     0.131 A 
ATOM     96  C   UNL A   1      45.260  35.936  28.900  1.00  0.00     0.055 A 
ATOM     97  C   UNL A   1      46.287  35.013  30.871  1.00  0.00     0.041 A 
ATOM     98  F   UNL A   1      46.002  32.743  31.378  1.00  0.00    -0.206 F 
ATOM     99  C   UNL A   1      46.062  36.101  30.032  1.00  0.00     0.022 A 
BRANCH  96 100
ATOM    100  S   UNL A   1      45.041  37.312  27.738  1.00  0.00     0.124 S 
ATOM    101  O   UNL A   1      45.467  38.456  28.537  1.00  0.00    -0.237 OA
ATOM    102  O   UNL A   1      45.925  36.938  26.639  1.00  0.00    -0.237 OA
ATOM    103  O   UNL A   1      43.613  37.273  27.424  1.00  0.00    -0.744 OA
ENDBRANCH  96 100
ENDBRANCH  70  93
ENDBRANCH  44  45
ENDBRANCH  37  39
ENDBRANCH  36  37
ENDBRANCH  35  36
ENDBRANCH  34  35
ENDBRANCH  33  34
ENDBRANCH   1  33
TORSDOF 22
ENDMDL
MODEL 2
REMARK VINA RESULT:     -11.6      1.866      7.380
REMARK SMILES O=C(Cc1ccccc1)Nc1cccc(C(=O)Nc2ccccc2C(=O)OCCOCCOC(=O)c2ccc(-c3c4nc(c(-c5cc(S(=O)(=O)[O-])ccc5F)c5ccc([nH]5)c(-c5cc(S(=O)(=O)[O-])ccc5F)c5nc(c(-c6cc(S(=O)(=O)[O-])ccc6F)c6ccc3[nH]6)C=C5)C=C4)cc2)c1
REMARK SMILES IDX 29 1 28 2 27 3 25 4 26 5 24 6 19 7 20 8 21 9 23 10 22 11
REMARK SMILES IDX 18 12 16 13 17 14 15 16 11 17 12 18 99 19 13 20 14 21 10 22
REMARK SMILES IDX 1 23 2 24 3 26 4 27 5 28 9 29 6 30 8 31 7 32 30 33 31 34
REMARK SMILES IDX 32 35 33 36 34 37 35 38 36 39 37 40 98 41 38 42 97 43 39 44
REMARK SMILES IDX 40 45 41 46 91 47 42 48 96 49 90 50 92 51 43 52 95 53 89 54
REMARK SMILES IDX 88 55 44 57 76 58 56 59 75 60 57 61 60 62 74 63 93 64 58 65
REMARK SMILES IDX 59 66 73 68 94 69 61 70 45 71 46 72 54 73 47 74 53 75 55 76
REMARK SMILES IDX 52 77 48 78 49 79 50 80 51 81 77 82 78 83 86 84 79 85 85 86
REMARK SMILES IDX 87 87 84 88 80 89 81 90 82 91 83 92 62 93 63 94 71 95 64 96
REMARK SMILES IDX 70 97 72 98 69 99 65 100 66 101 67 102 68 103
REMARK H PARENT 18 15 10 25 92 56 60 67
REMARK Flexibility Score: inf
ROOT
ATOM      1  C   UNL A   1      36.134  22.692  25.987  1.00  0.00     0.202 C 
ENDROOT
BRANCH   1   2
ATOM      2  C   UNL A   1      35.749  24.162  25.800  1.00  0.00     0.261 C 
BRANCH   2   3
ATOM      3  O   UNL A   1      34.432  24.378  25.261  1.00  0.00    -0.460 OA
BRANCH   3   4
ATOM      4  C   UNL A   1      33.716  25.331  25.905  1.00  0.00     0.340 C 
ATOM      5  O   UNL A   1      34.098  26.473  26.140  1.00  0.00    -0.246 OA
BRANCH   4   6
ATOM      6  C   UNL A   1      32.312  24.923  26.170  1.00  0.00     0.083 A 
ATOM      7  C   UNL A   1      31.831  23.653  26.541  1.00  0.00     0.056 A 
ATOM      8  C   UNL A   1      30.433  23.486  26.649  1.00  0.00     0.027 A 
ATOM      9  C   UNL A   1      29.543  24.552  26.490  1.00  0.00     0.002 A 
ATOM     10  C   UNL A   1      31.394  25.989  25.998  1.00  0.00     0.018 A 
ATOM     11  C   UNL A   1      30.025  25.811  26.172  1.00  0.00     0.001 A 
BRANCH   7  12
ATOM     12  N   UNL A   1      32.555  22.487  26.886  1.00  0.00    -0.321 N 
ATOM     13  C   UNL A   1      32.957  21.362  26.196  1.00  0.00     0.255 C 
ATOM     14  O   UNL A   1      33.462  20.431  26.820  1.00  0.00    -0.269 OA
ATOM     15  H   UNL A   1      32.834  22.476  27.830  1.00  0.00     0.170 HD
BRANCH  13  16
ATOM     16  C   UNL A   1      32.860  21.261  24.726  1.00  0.00     0.042 A 
ATOM     17  C   UNL A   1      32.493  22.365  22.633  1.00  0.00     0.041 A 
ATOM     18  C   UNL A   1      32.031  21.158  22.091  1.00  0.00     0.026 A 
ATOM     19  C   UNL A   1      33.029  22.383  23.915  1.00  0.00     0.040 A 
ATOM     20  C   UNL A   1      32.076  19.982  22.840  1.00  0.00     0.003 A 
ATOM     21  C   UNL A   1      32.467  20.038  24.173  1.00  0.00     0.014 A 
BRANCH  17  22
ATOM     22  N   UNL A   1      32.180  23.549  21.946  1.00  0.00    -0.326 N 
ATOM     23  O   UNL A   1      34.124  24.813  22.164  1.00  0.00    -0.274 OA
ATOM     24  C   UNL A   1      32.942  24.701  21.852  1.00  0.00     0.228 C 
ATOM     25  H   UNL A   1      31.315  23.562  21.475  1.00  0.00     0.169 HD
BRANCH  24  26
ATOM     26  C   UNL A   1      32.149  25.896  21.354  1.00  0.00     0.135 C 
BRANCH  26  27
ATOM     27  C   UNL A   1      31.852  26.994  22.354  1.00  0.00    -0.039 A 
ATOM     28  C   UNL A   1      32.841  27.762  22.988  1.00  0.00     0.004 A 
ATOM     29  C   UNL A   1      30.508  27.319  22.598  1.00  0.00     0.004 A 
ATOM     30  C   UNL A   1      32.500  28.831  23.816  1.00  0.00     0.000 A 
ATOM     31  C   UNL A   1      30.166  28.377  23.444  1.00  0.00     0.000 A 
ATOM     32  C   UNL A   1      31.164  29.140  24.044  1.00  0.00     0.000 A 
ENDBRANCH  26  27
ENDBRANCH  24  26
ENDBRANCH  17  22
ENDBRANCH  13  16
ENDBRANCH   7  12
ENDBRANCH   4   6
ENDBRANCH   3   4
ENDBRANCH   2   3
ENDBRANCH   1   2
BRANCH   1  33
ATOM     33  O   UNL A   1      36.328  21.896  24.824  1.00  0.00    -0.374 OA
BRANCH  33  34
ATOM     34  C   UNL A   1      36.406  20.482  24.976  1.00  0.00     0.202 C 
BRANCH  34  35
ATOM     35  C   UNL A   1      37.785  19.810  24.978  1.00  0.00     0.261 C 
BRANCH  35  36
ATOM     36  O   UNL A   1      38.893  20.727  25.050  1.00  0.00    -0.460 OA
BRANCH  36  37
ATOM     37  C   UNL A   1      39.724  20.518  26.101  1.00  0.00     0.338 C 
ATOM     38  O   UNL A   1      40.262  19.462  26.408  1.00  0.00    -0.246 OA
BRANCH  37  39
ATOM     39  C   UNL A   1      40.033  21.774  26.802  1.00  0.00     0.060 A 
ATOM     40  C   UNL A   1      39.491  22.965  26.298  1.00  0.00     0.016 A 
ATOM     41  C   UNL A   1      40.999  21.805  27.809  1.00  0.00     0.016 A 
ATOM     42  C   UNL A   1      39.959  24.195  26.758  1.00  0.00     0.010 A 
ATOM     43  C   UNL A   1      41.474  23.040  28.262  1.00  0.00     0.010 A 
ATOM     44  C   UNL A   1      40.991  24.239  27.705  1.00  0.00    -0.014 A 
BRANCH  44  45
ATOM     45  C   UNL A   1      41.692  25.520  27.979  1.00  0.00     0.031 A 
ATOM     46  C   UNL A   1      40.942  26.618  28.690  1.00  0.00     0.074 A 
ATOM     47  C   UNL A   1      42.973  25.702  27.611  1.00  0.00     0.049 A 
ATOM     48  N   UNL A   1      41.312  27.846  28.948  1.00  0.00    -0.248 NA
ATOM     49  C   UNL A   1      39.592  26.283  29.169  1.00  0.00     0.031 C 
ATOM     50  C   UNL A   1      43.814  24.699  26.962  1.00  0.00     0.029 A 
ATOM     51  N   UNL A   1      43.784  26.804  27.718  1.00  0.00    -0.354 N 
ATOM     52  C   UNL A   1      40.236  28.437  29.603  1.00  0.00     0.074 A 
ATOM     53  C   UNL A   1      39.193  27.436  29.687  1.00  0.00     0.031 C 
ATOM     54  C   UNL A   1      45.019  25.238  26.709  1.00  0.00     0.029 A 
ATOM     55  C   UNL A   1      45.020  26.636  27.138  1.00  0.00     0.049 A 
ATOM     56  H   UNL A   1      43.507  27.636  28.166  1.00  0.00     0.167 HD
ATOM     57  C   UNL A   1      40.128  29.699  30.088  1.00  0.00     0.034 A 
ATOM     58  C   UNL A   1      46.019  27.521  26.942  1.00  0.00     0.034 A 
ATOM     59  C   UNL A   1      41.174  30.686  29.997  1.00  0.00     0.049 A 
ATOM     60  C   UNL A   1      45.847  28.943  27.427  1.00  0.00     0.074 A 
ATOM     61  C   UNL A   1      41.176  31.988  30.469  1.00  0.00     0.029 A 
ATOM     62  N   UNL A   1      42.405  30.486  29.384  1.00  0.00    -0.354 N 
ATOM     63  N   UNL A   1      44.825  29.489  28.045  1.00  0.00    -0.248 NA
ATOM     64  C   UNL A   1      46.965  29.867  27.189  1.00  0.00     0.031 C 
ATOM     65  C   UNL A   1      42.379  32.592  30.089  1.00  0.00     0.029 A 
ATOM     66  C   UNL A   1      43.159  31.647  29.442  1.00  0.00     0.049 A 
ATOM     67  H   UNL A   1      42.698  29.642  28.971  1.00  0.00     0.167 HD
ATOM     68  C   UNL A   1      45.196  30.807  28.301  1.00  0.00     0.074 A 
ATOM     69  C   UNL A   1      46.534  30.973  27.777  1.00  0.00     0.031 C 
ATOM     70  C   UNL A   1      44.496  31.793  28.919  1.00  0.00     0.034 A 
BRANCH  57  71
ATOM     71  C   UNL A   1      38.812  30.099  30.706  1.00  0.00     0.023 A 
ATOM     72  C   UNL A   1      37.820  30.773  29.972  1.00  0.00     0.031 A 
ATOM     73  C   UNL A   1      38.549  29.802  32.055  1.00  0.00     0.131 A 
ATOM     74  C   UNL A   1      36.632  31.169  30.606  1.00  0.00     0.055 A 
ATOM     75  C   UNL A   1      37.340  30.140  32.662  1.00  0.00     0.041 A 
ATOM     76  F   UNL A   1      39.470  29.177  32.807  1.00  0.00    -0.206 F 
ATOM     77  C   UNL A   1      36.376  30.838  31.939  1.00  0.00     0.022 A 
BRANCH  74  78
ATOM     78  S   UNL A   1      35.464  32.214  29.694  1.00  0.00     0.124 S 
ATOM     79  O   UNL A   1      36.294  33.371  29.368  1.00  0.00    -0.237 OA
ATOM     80  O   UNL A   1      35.086  31.363  28.572  1.00  0.00    -0.237 OA
ATOM     81  O   UNL A   1      34.403  32.472  30.665  1.00  0.00    -0.744 OA
ENDBRANCH  74  78
ENDBRANCH  57  71
BRANCH  58  82
ATOM     82  C   UNL A   1      47.253  27.124  26.203  1.00  0.00     0.023 A 
ATOM     83  C   UNL A   1      48.273  26.392  26.830  1.00  0.00     0.031 A 
ATOM     84  C   UNL A   1      47.463  27.543  24.876  1.00  0.00     0.131 A 
ATOM     85  C   UNL A   1      49.478  26.148  26.152  1.00  0.00     0.055 A 
ATOM     86  C   UNL A   1      48.639  27.247  24.186  1.00  0.00     0.041 A 
ATOM     87  F   UNL A   1      46.524  28.253  24.231  1.00  0.00    -0.206 F 
ATOM     88  C   UNL A   1      49.663  26.559  24.830  1.00  0.00     0.022 A 
BRANCH  85  89
ATOM     89  S   UNL A   1      50.846  25.379  27.062  1.00  0.00     0.124 S 
ATOM     90  O   UNL A   1      51.666  24.851  25.978  1.00  0.00    -0.237 OA
ATOM     91  O   UNL A   1      51.400  26.514  27.792  1.00  0.00    -0.237 OA
ATOM     92  O   UNL A   1      50.182  24.373  27.889  1.00  0.00    -0.744 OA
ENDBRANCH  85  89
ENDBRANCH  58  82
BRANCH  70  93
ATOM     93  C   UNL A   1      45.195  33.114  29.118  1.00  0.00     0.023 A 
ATOM     94  C   UNL A   1      46.016  33.361  30.231  1.00  0.00     0.031 A 
ATOM     95  C   UNL A   1      45.032  34.142  28.172  1.00  0.00     0.131 A 
ATOM     96  C   UNL A   1      46.608  34.623  30.394  1.00  0.00     0.055 A 
ATOM     97  C   UNL A   1      45.666  35.377  28.312  1.00  0.00     0.041 A 
ATOM     98  F   UNL A   1      44.259  33.958  27.089  1.00  0.00    -0.206 F 
ATOM     99  C   UNL A   1      46.450  35.626  29.434  1.00  0.00     0.022 A 
BRANCH  96 100
ATOM    100  S   UNL A   1      47.537  34.962  31.914  1.00  0.00     0.124 S 
ATOM    101  O   UNL A   1      48.561  35.891  31.445  1.00  0.00    -0.237 OA
ATOM    102  O   UNL A   1      46.515  35.530  32.787  1.00  0.00    -0.237 OA
ATOM    103  O   UNL A   1      48.031  33.646  32.317  1.00  0.00    -0.744 OA
ENDBRANCH  96 100
ENDBRANCH  70  93
ENDBRANCH  44  45
ENDBRANCH  37  39
ENDBRANCH  36  37
ENDBRANCH  35  36
ENDBRANCH  34  35
ENDBRANCH  33  34
ENDBRANCH   1  33
TORSDOF 22
ENDMDL
MODEL 3
REMARK VINA RESULT:     -11.3      1.855      3.001
REMARK SMILES O=C(Cc1ccccc1)Nc1cccc(C(=O)Nc2ccccc2C(=O)OCCOCCOC(=O)c2ccc(-c3c4nc(c(-c5cc(S(=O)(=O)[O-])ccc5F)c5ccc([nH]5)c(-c5cc(S(=O)(=O)[O-])ccc5F)c5nc(c(-c6cc(S(=O)(=O)[O-])ccc6F)c6ccc3[nH]6)C=C5)C=C4)cc2)c1
REMARK SMILES IDX 29 1 28 2 27 3 25 4 26 5 24 6 19 7 20 8 21 9 23 10 22 11
REMARK SMILES IDX 18 12 16 13 17 14 15 16 11 17 12 18 99 19 13 20 14 21 10 22
REMARK SMILES IDX 1 23 2 24 3 26 4 27 5 28 9 29 6 30 8 31 7 32 30 33 31 34
REMARK SMILES IDX 32 35 33 36 34 37 35 38 36 39 37 40 98 41 38 42 97 43 39 44
REMARK SMILES IDX 40 45 41 46 91 47 42 48 96 49 90 50 92 51 43 52 95 53 89 54
REMARK SMILES IDX 88 55 44 57 76 58 56 59 75 60 57 61 60 62 74 63 93 64 58 65
REMARK SMILES IDX 59 66 73 68 94 69 61 70 45 71 46 72 54 73 47 74 53 75 55 76
REMARK SMILES IDX 52 77 48 78 49 79 50 80 51 81 77 82 78 83 86 84 79 85 85 86
REMARK SMILES IDX 87 87 84 88 80 89 81 90 82 91 83 92 62 93 63 94 71 95 64 96
REMARK SMILES IDX 70 97 72 98 69 99 65 100 66 101 67 102 68 103
REMARK H PARENT 18 15 10 25 92 56 60 67
REMARK Flexibility Score: inf
ROOT
ATOM      1  C   UNL A   1      36.645  22.830  23.641  1.00  0.00     0.202 C 
ENDROOT
BRANCH   1   2
ATOM      2  C   UNL A   1      35.355  23.363  23.010  1.00  0.00     0.261 C 
BRANCH   2   3
ATOM      3  O   UNL A   1      34.162  23.120  23.777  1.00  0.00    -0.460 OA
BRANCH   3   4
ATOM      4  C   UNL A   1      33.242  22.349  23.146  1.00  0.00     0.340 C 
ATOM      5  O   UNL A   1      32.726  22.599  22.062  1.00  0.00    -0.246 OA
BRANCH   4   6
ATOM      6  C   UNL A   1      33.020  21.043  23.818  1.00  0.00     0.083 A 
ATOM      7  C   UNL A   1      33.317  20.687  25.148  1.00  0.00     0.056 A 
ATOM      8  C   UNL A   1      33.097  19.346  25.534  1.00  0.00     0.027 A 
ATOM      9  C   UNL A   1      32.517  18.411  24.672  1.00  0.00     0.002 A 
ATOM     10  C   UNL A   1      32.447  20.076  22.954  1.00  0.00     0.018 A 
ATOM     11  C   UNL A   1      32.183  18.778  23.379  1.00  0.00     0.001 A 
BRANCH   7  12
ATOM     12  N   UNL A   1      33.769  21.501  26.213  1.00  0.00    -0.321 N 
ATOM     13  C   UNL A   1      33.318  22.667  26.794  1.00  0.00     0.255 C 
ATOM     14  O   UNL A   1      34.023  23.226  27.633  1.00  0.00    -0.269 OA
ATOM     15  H   UNL A   1      34.591  21.158  26.634  1.00  0.00     0.170 HD
BRANCH  13  16
ATOM     16  C   UNL A   1      31.989  23.236  26.493  1.00  0.00     0.042 A 
ATOM     17  C   UNL A   1      30.687  25.160  25.912  1.00  0.00     0.041 A 
ATOM     18  C   UNL A   1      29.573  24.578  26.531  1.00  0.00     0.026 A 
ATOM     19  C   UNL A   1      31.862  24.429  25.782  1.00  0.00     0.040 A 
ATOM     20  C   UNL A   1      29.643  23.283  27.044  1.00  0.00     0.003 A 
ATOM     21  C   UNL A   1      30.865  22.619  27.051  1.00  0.00     0.014 A 
BRANCH  17  22
ATOM     22  N   UNL A   1      30.643  26.541  25.658  1.00  0.00    -0.326 N 
ATOM     23  O   UNL A   1      30.996  26.664  23.359  1.00  0.00    -0.274 OA
ATOM     24  C   UNL A   1      30.902  27.191  24.464  1.00  0.00     0.228 C 
ATOM     25  H   UNL A   1      30.400  27.115  26.421  1.00  0.00     0.169 HD
BRANCH  24  26
ATOM     26  C   UNL A   1      31.123  28.683  24.638  1.00  0.00     0.135 C 
BRANCH  26  27
ATOM     27  C   UNL A   1      32.239  29.113  25.568  1.00  0.00    -0.039 A 
ATOM     28  C   UNL A   1      32.145  30.201  26.449  1.00  0.00     0.004 A 
ATOM     29  C   UNL A   1      33.401  28.327  25.611  1.00  0.00     0.004 A 
ATOM     30  C   UNL A   1      33.166  30.479  27.358  1.00  0.00     0.000 A 
ATOM     31  C   UNL A   1      34.433  28.618  26.507  1.00  0.00     0.000 A 
ATOM     32  C   UNL A   1      34.309  29.688  27.388  1.00  0.00     0.000 A 
ENDBRANCH  26  27
ENDBRANCH  24  26
ENDBRANCH  17  22
ENDBRANCH  13  16
ENDBRANCH   7  12
ENDBRANCH   4   6
ENDBRANCH   3   4
ENDBRANCH   2   3
ENDBRANCH   1   2
BRANCH   1  33
ATOM     33  O   UNL A   1      36.777  21.425  23.814  1.00  0.00    -0.374 OA
BRANCH  33  34
ATOM     34  C   UNL A   1      37.213  20.936  25.079  1.00  0.00     0.202 C 
BRANCH  34  35
ATOM     35  C   UNL A   1      38.439  20.014  25.135  1.00  0.00     0.261 C 
BRANCH  35  36
ATOM     36  O   UNL A   1      39.083  19.959  26.421  1.00  0.00    -0.460 OA
BRANCH  36  37
ATOM     37  C   UNL A   1      40.366  20.395  26.424  1.00  0.00     0.338 C 
ATOM     38  O   UNL A   1      41.329  19.833  25.917  1.00  0.00    -0.246 OA
BRANCH  37  39
ATOM     39  C   UNL A   1      40.479  21.738  27.015  1.00  0.00     0.060 A 
ATOM     40  C   UNL A   1      39.811  22.797  26.385  1.00  0.00     0.016 A 
ATOM     41  C   UNL A   1      41.387  21.984  28.046  1.00  0.00     0.016 A 
ATOM     42  C   UNL A   1      40.096  24.114  26.744  1.00  0.00     0.010 A 
ATOM     43  C   UNL A   1      41.678  23.306  28.398  1.00  0.00     0.010 A 
ATOM     44  C   UNL A   1      41.070  24.378  27.717  1.00  0.00    -0.014 A 
BRANCH  44  45
ATOM     45  C   UNL A   1      41.586  25.759  27.893  1.00  0.00     0.031 A 
ATOM     46  C   UNL A   1      42.969  26.084  27.389  1.00  0.00     0.074 A 
ATOM     47  C   UNL A   1      40.837  26.709  28.481  1.00  0.00     0.049 A 
ATOM     48  N   UNL A   1      43.664  27.186  27.517  1.00  0.00    -0.248 NA
ATOM     49  C   UNL A   1      43.661  25.020  26.645  1.00  0.00     0.031 C 
ATOM     50  C   UNL A   1      39.470  26.527  28.964  1.00  0.00     0.029 A 
ATOM     51  N   UNL A   1      41.131  28.015  28.786  1.00  0.00    -0.354 N 
ATOM     52  C   UNL A   1      44.880  26.943  26.887  1.00  0.00     0.074 A 
ATOM     53  C   UNL A   1      44.833  25.584  26.392  1.00  0.00     0.031 C 
ATOM     54  C   UNL A   1      39.049  27.674  29.523  1.00  0.00     0.029 A 
ATOM     55  C   UNL A   1      40.131  28.657  29.479  1.00  0.00     0.049 A 
ATOM     56  H   UNL A   1      41.977  28.451  28.534  1.00  0.00     0.167 HD
ATOM     57  C   UNL A   1      45.938  27.778  26.737  1.00  0.00     0.034 A 
ATOM     58  C   UNL A   1      40.108  29.882  30.044  1.00  0.00     0.034 A 
ATOM     59  C   UNL A   1      45.971  29.130  27.235  1.00  0.00     0.049 A 
ATOM     60  C   UNL A   1      41.327  30.768  29.926  1.00  0.00     0.074 A 
ATOM     61  C   UNL A   1      46.985  30.067  27.124  1.00  0.00     0.029 A 
ATOM     62  N   UNL A   1      44.947  29.739  27.950  1.00  0.00    -0.354 N 
ATOM     63  N   UNL A   1      42.471  30.527  29.327  1.00  0.00    -0.248 NA
ATOM     64  C   UNL A   1      41.251  32.092  30.559  1.00  0.00     0.031 C 
ATOM     65  C   UNL A   1      46.600  31.217  27.822  1.00  0.00     0.029 A 
ATOM     66  C   UNL A   1      45.318  31.025  28.309  1.00  0.00     0.049 A 
ATOM     67  H   UNL A   1      44.084  29.318  28.168  1.00  0.00     0.167 HD
ATOM     68  C   UNL A   1      43.232  31.684  29.481  1.00  0.00     0.074 A 
ATOM     69  C   UNL A   1      42.418  32.622  30.221  1.00  0.00     0.031 C 
ATOM     70  C   UNL A   1      44.489  31.951  29.044  1.00  0.00     0.034 A 
BRANCH  57  71
ATOM     71  C   UNL A   1      47.168  27.232  26.056  1.00  0.00     0.023 A 
ATOM     72  C   UNL A   1      48.169  26.547  26.767  1.00  0.00     0.031 A 
ATOM     73  C   UNL A   1      47.340  27.403  24.671  1.00  0.00     0.131 A 
ATOM     74  C   UNL A   1      49.319  26.101  26.098  1.00  0.00     0.055 A 
ATOM     75  C   UNL A   1      48.454  26.901  24.000  1.00  0.00     0.041 A 
ATOM     76  F   UNL A   1      46.425  28.067  23.947  1.00  0.00    -0.206 F 
ATOM     77  C   UNL A   1      49.458  26.254  24.716  1.00  0.00     0.022 A 
BRANCH  74  78
ATOM     78  S   UNL A   1      50.682  25.407  27.072  1.00  0.00     0.124 S 
ATOM     79  O   UNL A   1      49.997  24.373  27.844  1.00  0.00    -0.237 OA
ATOM     80  O   UNL A   1      51.599  24.933  26.042  1.00  0.00    -0.237 OA
ATOM     81  O   UNL A   1      51.158  26.546  27.855  1.00  0.00    -0.744 OA
ENDBRANCH  74  78
ENDBRANCH  57  71
BRANCH  58  82
ATOM     82  C   UNL A   1      38.923  30.336  30.828  1.00  0.00     0.023 A 
ATOM     83  C   UNL A   1      37.930  31.140  30.247  1.00  0.00     0.031 A 
ATOM     84  C   UNL A   1      38.809  30.035  32.198  1.00  0.00     0.131 A 
ATOM     85  C   UNL A   1      36.898  31.662  31.042  1.00  0.00     0.055 A 
ATOM     86  C   UNL A   1      37.749  30.509  32.972  1.00  0.00     0.041 A 
ATOM     87  F   UNL A   1      39.735  29.277  32.807  1.00  0.00    -0.206 F 
ATOM     88  C   UNL A   1      36.793  31.340  32.398  1.00  0.00     0.022 A 
BRANCH  85  89
ATOM     89  S   UNL A   1      35.752  32.858  30.302  1.00  0.00     0.124 S 
ATOM     90  O   UNL A   1      36.232  34.116  30.863  1.00  0.00    -0.237 OA
ATOM     91  O   UNL A   1      35.987  32.660  28.877  1.00  0.00    -0.237 OA
ATOM     92  O   UNL A   1      34.444  32.420  30.784  1.00  0.00    -0.744 OA
ENDBRANCH  85  89
ENDBRANCH  58  82
BRANCH  70  93
ATOM     93  C   UNL A   1      45.029  33.335  29.301  1.00  0.00     0.023 A 
ATOM     94  C   UNL A   1      44.832  34.391  28.396  1.00  0.00     0.031 A 
ATOM     95  C   UNL A   1      45.754  33.596  30.478  1.00  0.00     0.131 A 
ATOM     96  C   UNL A   1      45.394  35.650  28.660  1.00  0.00     0.055 A 
ATOM     97  C   UNL A   1      46.266  34.863  30.761  1.00  0.00     0.041 A 
ATOM     98  F   UNL A   1      45.971  32.623  31.378  1.00  0.00    -0.206 F 
ATOM     99  C   UNL A   1      46.096  35.896  29.842  1.00  0.00     0.022 A 
BRANCH  96 100
ATOM    100  S   UNL A   1      45.253  36.950  27.403  1.00  0.00     0.124 S 
ATOM    101  O   UNL A   1      46.307  36.581  26.463  1.00  0.00    -0.237 OA
ATOM    102  O   UNL A   1      43.885  36.779  26.925  1.00  0.00    -0.237 OA
ATOM    103  O   UNL A   1      45.495  38.182  28.153  1.00  0.00    -0.744 OA
ENDBRANCH  96 100
ENDBRANCH  70  93
ENDBRANCH  44  45
ENDBRANCH  37  39
ENDBRANCH  36  37
ENDBRANCH  35  36
ENDBRANCH  34  35
ENDBRANCH  33  34
ENDBRANCH   1  33
TORSDOF 22
ENDMDL
