MODEL 1
REMARK VINA RESULT:      -9.1      0.000      0.000
REMARK SMILES CCCc1nn2c(=O)cc(CSc3ccccc3C(=O)OCCOCCOC(=O)c3ccc(-c4c5nc(c(-c6cc(S(=O)(=O)[O-])ccc6F)c6ccc([nH]6)c(-c6cc(S(=O)(=O)[O-])ccc6F)c6nc(c(-c7cc(S(=O)(=O)[O-])ccc7F)c7ccc4[nH]7)C=C6)C=C5)cc3)nc2s1
REMARK SMILES IDX 23 1 22 2 21 3 19 4 20 5 18 6 13 7 14 8 15 9 17 10 16 11
REMARK SMILES IDX 12 12 11 13 10 14 4 15 5 16 95 17 6 18 94 19 7 20 93 21 8 22
REMARK SMILES IDX 9 23 3 24 2 25 1 26 24 27 25 28 26 29 27 30 28 31 29 32
REMARK SMILES IDX 30 33 31 34 92 35 32 36 91 37 33 38 34 39 35 40 85 41 36 42
REMARK SMILES IDX 90 43 84 44 86 45 37 46 89 47 83 48 82 49 38 51 70 52 50 53
REMARK SMILES IDX 69 54 51 55 54 56 68 57 87 58 52 59 53 60 67 62 88 63 55 64
REMARK SMILES IDX 39 65 40 66 48 67 41 68 47 69 49 70 46 71 42 72 43 73 44 74
REMARK SMILES IDX 45 75 71 76 72 77 80 78 73 79 79 80 81 81 78 82 74 83 75 84
REMARK SMILES IDX 76 85 77 86 56 87 57 88 65 89 58 90 64 91 66 92 63 93 59 94
REMARK SMILES IDX 60 95 61 96 62 97
REMARK H PARENT 86 50 54 61
REMARK Flexibility Score: inf
ROOT
ATOM      1  C   UNL A   1      34.051  35.088  31.418  1.00  0.00     0.202 C 
ENDROOT
BRANCH   1   2
ATOM      2  C   UNL A   1      34.026  34.169  32.640  1.00  0.00     0.261 C 
BRANCH   2   3
ATOM      3  O   UNL A   1      35.333  34.127  33.233  1.00  0.00    -0.460 OA
BRANCH   3   4
ATOM      4  C   UNL A   1      36.134  33.122  32.823  1.00  0.00     0.339 C 
ATOM      5  O   UNL A   1      35.879  31.927  32.856  1.00  0.00    -0.246 OA
BRANCH   4   6
ATOM      6  C   UNL A   1      37.314  33.648  32.092  1.00  0.00     0.073 A 
ATOM      7  C   UNL A   1      38.432  34.261  32.683  1.00  0.00     0.022 A 
ATOM      8  C   UNL A   1      39.536  34.507  31.849  1.00  0.00     0.016 A 
ATOM      9  C   UNL A   1      39.493  34.303  30.469  1.00  0.00     0.001 A 
ATOM     10  C   UNL A   1      37.272  33.440  30.697  1.00  0.00     0.017 A 
ATOM     11  C   UNL A   1      38.346  33.793  29.884  1.00  0.00     0.001 A 
BRANCH   7  12
ATOM     12  S   UNL A   1      38.552  34.628  34.434  1.00  0.00    -0.119 SA
BRANCH  12  13
ATOM     13  C   UNL A   1      38.295  32.977  35.243  1.00  0.00     0.131 C 
BRANCH  13  14
ATOM     14  C   UNL A   1      38.174  33.128  36.749  1.00  0.00     0.060 A 
ATOM     15  C   UNL A   1      37.536  31.534  40.971  1.00  0.00     0.117 A 
ATOM     16  N   UNL A   1      38.379  32.494  40.751  1.00  0.00    -0.156 NA
ATOM     17  S   UNL A   1      36.599  30.970  39.608  1.00  0.00    -0.079 S 
ATOM     18  N   UNL A   1      38.308  32.850  39.425  1.00  0.00    -0.167 N 
ATOM     19  C   UNL A   1      37.459  32.120  38.643  1.00  0.00     0.215 A 
ATOM     20  C   UNL A   1      39.064  33.874  38.897  1.00  0.00     0.275 A 
ATOM     21  N   UNL A   1      37.325  32.234  37.370  1.00  0.00    -0.223 NA
ATOM     22  O   UNL A   1      39.839  34.607  39.505  1.00  0.00    -0.267 OA
ATOM     23  C   UNL A   1      38.950  33.998  37.422  1.00  0.00     0.098 A 
BRANCH  15  24
ATOM     24  C   UNL A   1      37.323  30.851  42.290  1.00  0.00     0.069 C 
BRANCH  24  25
ATOM     25  C   UNL A   1      36.186  31.434  43.124  1.00  0.00     0.004 C 
ATOM     26  C   UNL A   1      36.479  31.434  44.617  1.00  0.00     0.004 C 
ENDBRANCH  24  25
ENDBRANCH  15  24
ENDBRANCH  13  14
ENDBRANCH  12  13
ENDBRANCH   7  12
ENDBRANCH   4   6
ENDBRANCH   3   4
ENDBRANCH   2   3
ENDBRANCH   1   2
BRANCH   1  27
ATOM     27  O   UNL A   1      33.150  34.728  30.366  1.00  0.00    -0.374 OA
BRANCH  27  28
ATOM     28  C   UNL A   1      33.728  34.237  29.156  1.00  0.00     0.202 C 
BRANCH  28  29
ATOM     29  C   UNL A   1      34.137  32.760  29.146  1.00  0.00     0.261 C 
BRANCH  29  30
ATOM     30  O   UNL A   1      34.367  32.261  27.816  1.00  0.00    -0.460 OA
BRANCH  30  31
ATOM     31  C   UNL A   1      34.558  30.920  27.746  1.00  0.00     0.338 C 
ATOM     32  O   UNL A   1      33.914  30.122  27.080  1.00  0.00    -0.246 OA
BRANCH  31  33
ATOM     33  C   UNL A   1      35.793  30.545  28.461  1.00  0.00     0.060 A 
ATOM     34  C   UNL A   1      37.012  30.944  27.897  1.00  0.00     0.016 A 
ATOM     35  C   UNL A   1      35.768  29.764  29.619  1.00  0.00     0.016 A 
ATOM     36  C   UNL A   1      38.213  30.521  28.462  1.00  0.00     0.010 A 
ATOM     37  C   UNL A   1      36.977  29.335  30.180  1.00  0.00     0.010 A 
ATOM     38  C   UNL A   1      38.203  29.684  29.585  1.00  0.00    -0.014 A 
BRANCH  38  39
ATOM     39  C   UNL A   1      39.469  29.055  30.038  1.00  0.00     0.031 A 
ATOM     40  C   UNL A   1      40.173  29.618  31.242  1.00  0.00     0.074 A 
ATOM     41  C   UNL A   1      39.967  27.979  29.403  1.00  0.00     0.049 A 
ATOM     42  N   UNL A   1      41.303  29.255  31.792  1.00  0.00    -0.248 NA
ATOM     43  C   UNL A   1      39.511  30.748  31.909  1.00  0.00     0.031 C 
ATOM     44  C   UNL A   1      39.353  27.321  28.251  1.00  0.00     0.029 A 
ATOM     45  N   UNL A   1      41.109  27.255  29.636  1.00  0.00    -0.354 N 
ATOM     46  C   UNL A   1      41.492  30.113  32.870  1.00  0.00     0.074 A 
ATOM     47  C   UNL A   1      40.381  31.042  32.864  1.00  0.00     0.031 C 
ATOM     48  C   UNL A   1      40.133  26.295  27.870  1.00  0.00     0.029 A 
ATOM     49  C   UNL A   1      41.317  26.246  28.726  1.00  0.00     0.049 A 
ATOM     50  H   UNL A   1      41.722  27.440  30.385  1.00  0.00     0.167 HD
ATOM     51  C   UNL A   1      42.493  30.117  33.787  1.00  0.00     0.034 A 
ATOM     52  C   UNL A   1      42.356  25.400  28.583  1.00  0.00     0.034 A 
ATOM     53  C   UNL A   1      43.602  29.193  33.766  1.00  0.00     0.049 A 
ATOM     54  C   UNL A   1      43.504  25.476  29.559  1.00  0.00     0.074 A 
ATOM     55  C   UNL A   1      44.662  29.097  34.650  1.00  0.00     0.029 A 
ATOM     56  N   UNL A   1      43.803  28.213  32.801  1.00  0.00    -0.354 N 
ATOM     57  N   UNL A   1      43.670  26.285  30.581  1.00  0.00    -0.248 NA
ATOM     58  C   UNL A   1      44.602  24.519  29.365  1.00  0.00     0.031 C 
ATOM     59  C   UNL A   1      45.540  28.114  34.179  1.00  0.00     0.029 A 
ATOM     60  C   UNL A   1      44.989  27.536  33.046  1.00  0.00     0.049 A 
ATOM     61  H   UNL A   1      43.193  28.027  32.051  1.00  0.00     0.167 HD
ATOM     62  C   UNL A   1      44.878  25.916  31.166  1.00  0.00     0.074 A 
ATOM     63  C   UNL A   1      45.392  24.805  30.391  1.00  0.00     0.031 C 
ATOM     64  C   UNL A   1      45.502  26.441  32.252  1.00  0.00     0.034 A 
BRANCH  51  65
ATOM     65  C   UNL A   1      42.451  31.194  34.846  1.00  0.00     0.023 A 
ATOM     66  C   UNL A   1      42.901  32.503  34.591  1.00  0.00     0.031 A 
ATOM     67  C   UNL A   1      42.007  30.897  36.146  1.00  0.00     0.131 A 
ATOM     68  C   UNL A   1      42.980  33.434  35.637  1.00  0.00     0.055 A 
ATOM     69  C   UNL A   1      42.006  31.854  37.162  1.00  0.00     0.041 A 
ATOM     70  F   UNL A   1      41.587  29.661  36.458  1.00  0.00    -0.206 F 
ATOM     71  C   UNL A   1      42.512  33.126  36.915  1.00  0.00     0.022 A 
BRANCH  68  72
ATOM     72  S   UNL A   1      43.861  34.993  35.344  1.00  0.00     0.124 S 
ATOM     73  O   UNL A   1      42.966  35.667  34.406  1.00  0.00    -0.237 OA
ATOM     74  O   UNL A   1      43.936  35.568  36.682  1.00  0.00    -0.237 OA
ATOM     75  O   UNL A   1      45.137  34.564  34.776  1.00  0.00    -0.744 OA
ENDBRANCH  68  72
ENDBRANCH  51  65
BRANCH  52  76
ATOM     76  C   UNL A   1      42.381  24.434  27.448  1.00  0.00     0.023 A 
ATOM     77  C   UNL A   1      41.660  23.231  27.494  1.00  0.00     0.031 A 
ATOM     78  C   UNL A   1      43.160  24.694  26.306  1.00  0.00     0.131 A 
ATOM     79  C   UNL A   1      41.758  22.317  26.432  1.00  0.00     0.055 A 
ATOM     80  C   UNL A   1      43.216  23.805  25.232  1.00  0.00     0.041 A 
ATOM     81  F   UNL A   1      43.871  25.829  26.212  1.00  0.00    -0.206 F 
ATOM     82  C   UNL A   1      42.519  22.602  25.296  1.00  0.00     0.022 A 
BRANCH  79  83
ATOM     83  S   UNL A   1      40.922  20.715  26.584  1.00  0.00     0.124 S 
ATOM     84  O   UNL A   1      40.824  20.567  28.032  1.00  0.00    -0.237 OA
ATOM     85  O   UNL A   1      39.669  20.957  25.877  1.00  0.00    -0.237 OA
ATOM     86  O   UNL A   1      41.839  19.788  25.922  1.00  0.00    -0.744 OA
ENDBRANCH  79  83
ENDBRANCH  52  76
BRANCH  64  87
ATOM     87  C   UNL A   1      46.794  25.789  32.686  1.00  0.00     0.023 A 
ATOM     88  C   UNL A   1      46.821  24.751  33.633  1.00  0.00     0.031 A 
ATOM     89  C   UNL A   1      48.019  26.222  32.144  1.00  0.00     0.131 A 
ATOM     90  C   UNL A   1      48.051  24.217  34.051  1.00  0.00     0.055 A 
ATOM     91  C   UNL A   1      49.233  25.645  32.519  1.00  0.00     0.041 A 
ATOM     92  F   UNL A   1      48.054  27.211  31.238  1.00  0.00    -0.206 F 
ATOM     93  C   UNL A   1      49.255  24.646  33.488  1.00  0.00     0.022 A 
BRANCH  90  94
ATOM     94  S   UNL A   1      48.064  23.015  35.410  1.00  0.00     0.124 S 
ATOM     95  O   UNL A   1      49.315  23.337  36.088  1.00  0.00    -0.237 OA
ATOM     96  O   UNL A   1      46.842  23.348  36.134  1.00  0.00    -0.237 OA
ATOM     97  O   UNL A   1      48.045  21.723  34.726  1.00  0.00    -0.744 OA
ENDBRANCH  90  94
ENDBRANCH  64  87
ENDBRANCH  38  39
ENDBRANCH  31  33
ENDBRANCH  30  31
ENDBRANCH  29  30
ENDBRANCH  28  29
ENDBRANCH  27  28
ENDBRANCH   1  27
TORSDOF 22
ENDMDL
MODEL 2
REMARK VINA RESULT:      -9.0      4.393      9.189
REMARK SMILES CCCc1nn2c(=O)cc(CSc3ccccc3C(=O)OCCOCCOC(=O)c3ccc(-c4c5nc(c(-c6cc(S(=O)(=O)[O-])ccc6F)c6ccc([nH]6)c(-c6cc(S(=O)(=O)[O-])ccc6F)c6nc(c(-c7cc(S(=O)(=O)[O-])ccc7F)c7ccc4[nH]7)C=C6)C=C5)cc3)nc2s1
REMARK SMILES IDX 23 1 22 2 21 3 19 4 20 5 18 6 13 7 14 8 15 9 17 10 16 11
REMARK SMILES IDX 12 12 11 13 10 14 4 15 5 16 95 17 6 18 94 19 7 20 93 21 8 22
REMARK SMILES IDX 9 23 3 24 2 25 1 26 24 27 25 28 26 29 27 30 28 31 29 32
REMARK SMILES IDX 30 33 31 34 92 35 32 36 91 37 33 38 34 39 35 40 85 41 36 42
REMARK SMILES IDX 90 43 84 44 86 45 37 46 89 47 83 48 82 49 38 51 70 52 50 53
REMARK SMILES IDX 69 54 51 55 54 56 68 57 87 58 52 59 53 60 67 62 88 63 55 64
REMARK SMILES IDX 39 65 40 66 48 67 41 68 47 69 49 70 46 71 42 72 43 73 44 74
REMARK SMILES IDX 45 75 71 76 72 77 80 78 73 79 79 80 81 81 78 82 74 83 75 84
REMARK SMILES IDX 76 85 77 86 56 87 57 88 65 89 58 90 64 91 66 92 63 93 59 94
REMARK SMILES IDX 60 95 61 96 62 97
REMARK H PARENT 86 50 54 61
REMARK Flexibility Score: inf
ROOT
ATOM      1  C   UNL A   1      31.615  29.102  26.702  1.00  0.00     0.202 C 
ENDROOT
BRANCH   1   2
ATOM      2  C   UNL A   1      31.451  29.284  25.192  1.00  0.00     0.261 C 
BRANCH   2   3
ATOM      3  O   UNL A   1      31.583  28.012  24.541  1.00  0.00    -0.460 OA
BRANCH   3   4
ATOM      4  C   UNL A   1      32.787  27.756  23.989  1.00  0.00     0.339 C 
ATOM      5  O   UNL A   1      33.827  28.365  24.194  1.00  0.00    -0.246 OA
BRANCH   4   6
ATOM      6  C   UNL A   1      32.769  26.469  23.250  1.00  0.00     0.073 A 
ATOM      7  C   UNL A   1      32.499  25.210  23.811  1.00  0.00     0.022 A 
ATOM      8  C   UNL A   1      32.327  24.139  22.918  1.00  0.00     0.016 A 
ATOM      9  C   UNL A   1      32.559  24.263  21.546  1.00  0.00     0.001 A 
ATOM     10  C   UNL A   1      33.003  26.593  21.863  1.00  0.00     0.017 A 
ATOM     11  C   UNL A   1      32.926  25.490  21.019  1.00  0.00     0.001 A 
BRANCH   7  12
ATOM     12  S   UNL A   1      32.255  24.938  25.567  1.00  0.00    -0.119 SA
BRANCH  12  13
ATOM     13  C   UNL A   1      33.982  24.755  26.223  1.00  0.00     0.131 C 
BRANCH  13  14
ATOM     14  C   UNL A   1      34.449  23.314  26.117  1.00  0.00     0.060 A 
ATOM     15  C   UNL A   1      34.171  19.038  24.565  1.00  0.00     0.117 A 
ATOM     16  N   UNL A   1      35.326  19.600  24.739  1.00  0.00    -0.156 NA
ATOM     17  S   UNL A   1      32.760  19.950  25.048  1.00  0.00    -0.079 S 
ATOM     18  N   UNL A   1      35.135  20.839  25.303  1.00  0.00    -0.167 N 
ATOM     19  C   UNL A   1      33.838  21.227  25.494  1.00  0.00     0.215 A 
ATOM     20  C   UNL A   1      36.185  21.664  25.642  1.00  0.00     0.275 A 
ATOM     21  N   UNL A   1      33.454  22.379  25.915  1.00  0.00    -0.223 NA
ATOM     22  O   UNL A   1      37.382  21.412  25.537  1.00  0.00    -0.267 OA
ATOM     23  C   UNL A   1      35.761  23.012  26.096  1.00  0.00     0.098 A 
BRANCH  15  24
ATOM     24  C   UNL A   1      33.948  17.685  23.955  1.00  0.00     0.069 C 
BRANCH  24  25
ATOM     25  C   UNL A   1      34.393  16.519  24.833  1.00  0.00     0.004 C 
ATOM     26  C   UNL A   1      33.230  15.696  25.368  1.00  0.00     0.004 C 
ENDBRANCH  24  25
ENDBRANCH  15  24
ENDBRANCH  13  14
ENDBRANCH  12  13
ENDBRANCH   7  12
ENDBRANCH   4   6
ENDBRANCH   3   4
ENDBRANCH   2   3
ENDBRANCH   1   2
BRANCH   1  27
ATOM     27  O   UNL A   1      32.323  30.151  27.369  1.00  0.00    -0.374 OA
BRANCH  27  28
ATOM     28  C   UNL A   1      32.603  31.329  26.613  1.00  0.00     0.202 C 
BRANCH  28  29
ATOM     29  C   UNL A   1      32.067  32.648  27.181  1.00  0.00     0.261 C 
BRANCH  29  30
ATOM     30  O   UNL A   1      33.081  33.665  27.263  1.00  0.00    -0.460 OA
BRANCH  30  31
ATOM     31  C   UNL A   1      33.499  33.940  28.524  1.00  0.00     0.338 C 
ATOM     32  O   UNL A   1      32.916  34.621  29.357  1.00  0.00    -0.246 OA
BRANCH  31  33
ATOM     33  C   UNL A   1      34.700  33.147  28.844  1.00  0.00     0.060 A 
ATOM     34  C   UNL A   1      34.515  31.947  29.544  1.00  0.00     0.016 A 
ATOM     35  C   UNL A   1      35.986  33.594  28.531  1.00  0.00     0.016 A 
ATOM     36  C   UNL A   1      35.618  31.214  29.976  1.00  0.00     0.010 A 
ATOM     37  C   UNL A   1      37.092  32.858  28.973  1.00  0.00     0.010 A 
ATOM     38  C   UNL A   1      36.913  31.684  29.726  1.00  0.00    -0.014 A 
BRANCH  38  39
ATOM     39  C   UNL A   1      38.069  31.024  30.385  1.00  0.00     0.031 A 
ATOM     40  C   UNL A   1      38.434  31.424  31.788  1.00  0.00     0.074 A 
ATOM     41  C   UNL A   1      38.762  30.062  29.752  1.00  0.00     0.049 A 
ATOM     42  N   UNL A   1      39.420  31.011  32.542  1.00  0.00    -0.248 NA
ATOM     43  C   UNL A   1      37.571  32.433  32.419  1.00  0.00     0.031 C 
ATOM     44  C   UNL A   1      38.477  29.562  28.408  1.00  0.00     0.029 A 
ATOM     45  N   UNL A   1      39.855  29.337  30.156  1.00  0.00    -0.354 N 
ATOM     46  C   UNL A   1      39.300  31.710  33.739  1.00  0.00     0.074 A 
ATOM     47  C   UNL A   1      38.172  32.606  33.587  1.00  0.00     0.031 C 
ATOM     48  C   UNL A   1      39.381  28.618  28.094  1.00  0.00     0.029 A 
ATOM     49  C   UNL A   1      40.329  28.474  29.197  1.00  0.00     0.049 A 
ATOM     50  H   UNL A   1      40.262  29.427  31.049  1.00  0.00     0.167 HD
ATOM     51  C   UNL A   1      40.052  31.605  34.862  1.00  0.00     0.034 A 
ATOM     52  C   UNL A   1      41.417  27.679  29.199  1.00  0.00     0.034 A 
ATOM     53  C   UNL A   1      41.185  30.718  34.988  1.00  0.00     0.049 A 
ATOM     54  C   UNL A   1      42.296  27.640  30.426  1.00  0.00     0.074 A 
ATOM     55  C   UNL A   1      42.009  30.520  36.083  1.00  0.00     0.029 A 
ATOM     56  N   UNL A   1      41.664  29.891  33.979  1.00  0.00    -0.354 N 
ATOM     57  N   UNL A   1      42.169  28.298  31.556  1.00  0.00    -0.248 NA
ATOM     58  C   UNL A   1      43.460  26.746  30.378  1.00  0.00     0.031 C 
ATOM     59  C   UNL A   1      43.027  29.634  35.711  1.00  0.00     0.029 A 
ATOM     60  C   UNL A   1      42.793  29.212  34.412  1.00  0.00     0.049 A 
ATOM     61  H   UNL A   1      41.260  29.801  33.086  1.00  0.00     0.167 HD
ATOM     62  C   UNL A   1      43.222  27.876  32.363  1.00  0.00     0.074 A 
ATOM     63  C   UNL A   1      43.966  26.899  31.593  1.00  0.00     0.031 C 
ATOM     64  C   UNL A   1      43.540  28.254  33.628  1.00  0.00     0.034 A 
BRANCH  51  65
ATOM     65  C   UNL A   1      39.701  32.519  36.014  1.00  0.00     0.023 A 
ATOM     66  C   UNL A   1      38.871  32.096  37.069  1.00  0.00     0.031 A 
ATOM     67  C   UNL A   1      40.155  33.849  36.031  1.00  0.00     0.131 A 
ATOM     68  C   UNL A   1      38.453  33.015  38.043  1.00  0.00     0.055 A 
ATOM     69  C   UNL A   1      39.805  34.735  37.052  1.00  0.00     0.041 A 
ATOM     70  F   UNL A   1      40.931  34.319  35.041  1.00  0.00    -0.206 F 
ATOM     71  C   UNL A   1      38.934  34.325  38.056  1.00  0.00     0.022 A 
BRANCH  68  72
ATOM     72  S   UNL A   1      37.137  32.521  39.191  1.00  0.00     0.124 S 
ATOM     73  O   UNL A   1      35.937  32.886  38.440  1.00  0.00    -0.237 OA
ATOM     74  O   UNL A   1      37.380  31.092  39.352  1.00  0.00    -0.237 OA
ATOM     75  O   UNL A   1      37.392  33.336  40.376  1.00  0.00    -0.744 OA
ENDBRANCH  68  72
ENDBRANCH  51  65
BRANCH  52  76
ATOM     76  C   UNL A   1      41.765  26.887  27.985  1.00  0.00     0.023 A 
ATOM     77  C   UNL A   1      41.669  25.486  27.973  1.00  0.00     0.031 A 
ATOM     78  C   UNL A   1      42.233  27.527  26.823  1.00  0.00     0.131 A 
ATOM     79  C   UNL A   1      42.065  24.770  26.833  1.00  0.00     0.055 A 
ATOM     80  C   UNL A   1      42.578  26.814  25.675  1.00  0.00     0.041 A 
ATOM     81  F   UNL A   1      42.345  28.864  26.783  1.00  0.00    -0.206 F 
ATOM     82  C   UNL A   1      42.505  25.424  25.680  1.00  0.00     0.022 A 
BRANCH  79  83
ATOM     83  S   UNL A   1      42.056  22.957  26.898  1.00  0.00     0.124 S 
ATOM     84  O   UNL A   1      43.468  22.646  26.698  1.00  0.00    -0.237 OA
ATOM     85  O   UNL A   1      41.526  22.703  28.234  1.00  0.00    -0.237 OA
ATOM     86  O   UNL A   1      41.171  22.581  25.798  1.00  0.00    -0.744 OA
ENDBRANCH  79  83
ENDBRANCH  52  76
BRANCH  64  87
ATOM     87  C   UNL A   1      44.727  27.575  34.270  1.00  0.00     0.023 A 
ATOM     88  C   UNL A   1      44.595  26.380  34.999  1.00  0.00     0.031 A 
ATOM     89  C   UNL A   1      46.010  28.141  34.156  1.00  0.00     0.131 A 
ATOM     90  C   UNL A   1      45.716  25.818  35.631  1.00  0.00     0.055 A 
ATOM     91  C   UNL A   1      47.132  27.544  34.736  1.00  0.00     0.041 A 
ATOM     92  F   UNL A   1      46.197  29.282  33.474  1.00  0.00    -0.206 F 
ATOM     93  C   UNL A   1      46.986  26.383  35.490  1.00  0.00     0.022 A 
BRANCH  90  94
ATOM     94  S   UNL A   1      45.479  24.385  36.718  1.00  0.00     0.124 S 
ATOM     95  O   UNL A   1      44.682  24.953  37.801  1.00  0.00    -0.237 OA
ATOM     96  O   UNL A   1      44.788  23.442  35.845  1.00  0.00    -0.237 OA
ATOM     97  O   UNL A   1      46.841  24.003  37.086  1.00  0.00    -0.744 OA
ENDBRANCH  90  94
ENDBRANCH  64  87
ENDBRANCH  38  39
ENDBRANCH  31  33
ENDBRANCH  30  31
ENDBRANCH  29  30
ENDBRANCH  28  29
ENDBRANCH  27  28
ENDBRANCH   1  27
TORSDOF 22
ENDMDL
MODEL 3
REMARK VINA RESULT:      -8.4      4.450     11.643
REMARK SMILES CCCc1nn2c(=O)cc(CSc3ccccc3C(=O)OCCOCCOC(=O)c3ccc(-c4c5nc(c(-c6cc(S(=O)(=O)[O-])ccc6F)c6ccc([nH]6)c(-c6cc(S(=O)(=O)[O-])ccc6F)c6nc(c(-c7cc(S(=O)(=O)[O-])ccc7F)c7ccc4[nH]7)C=C6)C=C5)cc3)nc2s1
REMARK SMILES IDX 23 1 22 2 21 3 19 4 20 5 18 6 13 7 14 8 15 9 17 10 16 11
REMARK SMILES IDX 12 12 11 13 10 14 4 15 5 16 95 17 6 18 94 19 7 20 93 21 8 22
REMARK SMILES IDX 9 23 3 24 2 25 1 26 24 27 25 28 26 29 27 30 28 31 29 32
REMARK SMILES IDX 30 33 31 34 92 35 32 36 91 37 33 38 34 39 35 40 85 41 36 42
REMARK SMILES IDX 90 43 84 44 86 45 37 46 89 47 83 48 82 49 38 51 70 52 50 53
REMARK SMILES IDX 69 54 51 55 54 56 68 57 87 58 52 59 53 60 67 62 88 63 55 64
REMARK SMILES IDX 39 65 40 66 48 67 41 68 47 69 49 70 46 71 42 72 43 73 44 74
REMARK SMILES IDX 45 75 71 76 72 77 80 78 73 79 79 80 81 81 78 82 74 83 75 84
REMARK SMILES IDX 76 85 77 86 56 87 57 88 65 89 58 90 64 91 66 92 63 93 59 94
REMARK SMILES IDX 60 95 61 96 62 97
REMARK H PARENT 86 50 54 61
REMARK Flexibility Score: inf
ROOT
ATOM      1  C   UNL A   1      33.285  31.116  27.839  1.00  0.00     0.202 C 
ENDROOT
BRANCH   1   2
ATOM      2  C   UNL A   1      32.401  30.723  26.654  1.00  0.00     0.261 C 
BRANCH   2   3
ATOM      3  O   UNL A   1      32.233  29.298  26.636  1.00  0.00    -0.460 OA
BRANCH   3   4
ATOM      4  C   UNL A   1      32.651  28.669  25.519  1.00  0.00     0.339 C 
ATOM      5  O   UNL A   1      33.810  28.456  25.192  1.00  0.00    -0.246 OA
BRANCH   4   6
ATOM      6  C   UNL A   1      31.512  28.039  24.805  1.00  0.00     0.073 A 
ATOM      7  C   UNL A   1      31.071  26.717  24.981  1.00  0.00     0.022 A 
ATOM      8  C   UNL A   1      29.855  26.366  24.370  1.00  0.00     0.016 A 
ATOM      9  C   UNL A   1      29.178  27.224  23.502  1.00  0.00     0.001 A 
ATOM     10  C   UNL A   1      30.826  28.906  23.928  1.00  0.00     0.017 A 
ATOM     11  C   UNL A   1      29.680  28.491  23.256  1.00  0.00     0.001 A 
BRANCH   7  12
ATOM     12  S   UNL A   1      31.910  25.521  26.020  1.00  0.00    -0.119 SA
BRANCH  12  13
ATOM     13  C   UNL A   1      31.248  23.890  25.429  1.00  0.00     0.131 C 
BRANCH  13  14
ATOM     14  C   UNL A   1      32.297  22.801  25.564  1.00  0.00     0.060 A 
ATOM     15  C   UNL A   1      34.145  18.766  24.530  1.00  0.00     0.117 A 
ATOM     16  N   UNL A   1      34.900  19.789  24.783  1.00  0.00    -0.156 NA
ATOM     17  S   UNL A   1      32.421  18.984  24.709  1.00  0.00    -0.079 S 
ATOM     18  N   UNL A   1      34.104  20.844  25.159  1.00  0.00    -0.167 N 
ATOM     19  C   UNL A   1      32.755  20.629  25.131  1.00  0.00     0.215 A 
ATOM     20  C   UNL A   1      34.625  22.065  25.527  1.00  0.00     0.275 A 
ATOM     21  N   UNL A   1      31.848  21.513  25.352  1.00  0.00    -0.223 NA
ATOM     22  O   UNL A   1      35.813  22.363  25.610  1.00  0.00    -0.267 OA
ATOM     23  C   UNL A   1      33.594  23.109  25.751  1.00  0.00     0.098 A 
BRANCH  15  24
ATOM     24  C   UNL A   1      34.630  17.422  24.069  1.00  0.00     0.069 C 
BRANCH  24  25
ATOM     25  C   UNL A   1      34.583  16.335  25.140  1.00  0.00     0.004 C 
ATOM     26  C   UNL A   1      33.251  15.601  25.187  1.00  0.00     0.004 C 
ENDBRANCH  24  25
ENDBRANCH  15  24
ENDBRANCH  13  14
ENDBRANCH  12  13
ENDBRANCH   7  12
ENDBRANCH   4   6
ENDBRANCH   3   4
ENDBRANCH   2   3
ENDBRANCH   1   2
BRANCH   1  27
ATOM     27  O   UNL A   1      34.285  32.099  27.554  1.00  0.00    -0.374 OA
BRANCH  27  28
ATOM     28  C   UNL A   1      33.829  33.402  27.186  1.00  0.00     0.202 C 
BRANCH  28  29
ATOM     29  C   UNL A   1      32.744  34.021  28.074  1.00  0.00     0.261 C 
BRANCH  29  30
ATOM     30  O   UNL A   1      33.207  35.188  28.777  1.00  0.00    -0.460 OA
BRANCH  30  31
ATOM     31  C   UNL A   1      33.398  35.001  30.107  1.00  0.00     0.338 C 
ATOM     32  O   UNL A   1      32.633  35.315  31.008  1.00  0.00    -0.246 OA
BRANCH  31  33
ATOM     33  C   UNL A   1      34.606  34.185  30.336  1.00  0.00     0.060 A 
ATOM     34  C   UNL A   1      34.470  33.041  31.133  1.00  0.00     0.016 A 
ATOM     35  C   UNL A   1      35.857  34.562  29.844  1.00  0.00     0.016 A 
ATOM     36  C   UNL A   1      35.594  32.296  31.481  1.00  0.00     0.010 A 
ATOM     37  C   UNL A   1      36.986  33.815  30.201  1.00  0.00     0.010 A 
ATOM     38  C   UNL A   1      36.864  32.699  31.049  1.00  0.00    -0.014 A 
BRANCH  38  39
ATOM     39  C   UNL A   1      38.070  32.040  31.609  1.00  0.00     0.031 A 
ATOM     40  C   UNL A   1      38.772  30.989  30.794  1.00  0.00     0.074 A 
ATOM     41  C   UNL A   1      38.549  32.396  32.814  1.00  0.00     0.049 A 
ATOM     42  N   UNL A   1      39.815  30.260  31.096  1.00  0.00    -0.248 NA
ATOM     43  C   UNL A   1      38.213  30.723  29.461  1.00  0.00     0.031 C 
ATOM     44  C   UNL A   1      37.978  33.428  33.677  1.00  0.00     0.029 A 
ATOM     45  N   UNL A   1      39.624  31.921  33.523  1.00  0.00    -0.354 N 
ATOM     46  C   UNL A   1      40.040  29.445  29.991  1.00  0.00     0.074 A 
ATOM     47  C   UNL A   1      38.993  29.741  29.035  1.00  0.00     0.031 C 
ATOM     48  C   UNL A   1      38.703  33.501  34.806  1.00  0.00     0.029 A 
ATOM     49  C   UNL A   1      39.765  32.497  34.762  1.00  0.00     0.049 A 
ATOM     50  H   UNL A   1      40.237  31.231  33.176  1.00  0.00     0.167 HD
ATOM     51  C   UNL A   1      41.033  28.544  29.788  1.00  0.00     0.034 A 
ATOM     52  C   UNL A   1      40.633  32.227  35.757  1.00  0.00     0.034 A 
ATOM     53  C   UNL A   1      42.058  28.250  30.762  1.00  0.00     0.049 A 
ATOM     54  C   UNL A   1      41.677  31.158  35.549  1.00  0.00     0.074 A 
ATOM     55  C   UNL A   1      43.120  27.367  30.658  1.00  0.00     0.029 A 
ATOM     56  N   UNL A   1      42.143  28.821  32.026  1.00  0.00    -0.354 N 
ATOM     57  N   UNL A   1      41.887  30.399  34.498  1.00  0.00    -0.248 NA
ATOM     58  C   UNL A   1      42.607  30.915  36.661  1.00  0.00     0.031 C 
ATOM     59  C   UNL A   1      43.797  27.349  31.883  1.00  0.00     0.029 A 
ATOM     60  C   UNL A   1      43.213  28.281  32.725  1.00  0.00     0.049 A 
ATOM     61  H   UNL A   1      41.530  29.508  32.375  1.00  0.00     0.167 HD
ATOM     62  C   UNL A   1      42.989  29.607  34.813  1.00  0.00     0.074 A 
ATOM     63  C   UNL A   1      43.406  29.991  36.147  1.00  0.00     0.031 C 
ATOM     64  C   UNL A   1      43.606  28.657  34.065  1.00  0.00     0.034 A 
BRANCH  51  65
ATOM     65  C   UNL A   1      41.012  27.776  28.487  1.00  0.00     0.023 A 
ATOM     66  C   UNL A   1      40.604  26.431  28.426  1.00  0.00     0.031 A 
ATOM     67  C   UNL A   1      41.457  28.380  27.298  1.00  0.00     0.131 A 
ATOM     68  C   UNL A   1      40.733  25.712  27.228  1.00  0.00     0.055 A 
ATOM     69  C   UNL A   1      41.500  27.684  26.088  1.00  0.00     0.041 A 
ATOM     70  F   UNL A   1      41.880  29.654  27.295  1.00  0.00    -0.206 F 
ATOM     71  C   UNL A   1      41.155  26.336  26.052  1.00  0.00     0.022 A 
BRANCH  68  72
ATOM     72  S   UNL A   1      40.508  23.912  27.269  1.00  0.00     0.124 S 
ATOM     73  O   UNL A   1      39.052  23.798  27.337  1.00  0.00    -0.237 OA
ATOM     74  O   UNL A   1      41.124  23.489  26.017  1.00  0.00    -0.237 OA
ATOM     75  O   UNL A   1      41.214  23.506  28.482  1.00  0.00    -0.744 OA
ENDBRANCH  68  72
ENDBRANCH  51  65
BRANCH  52  76
ATOM     76  C   UNL A   1      40.526  32.948  37.058  1.00  0.00     0.023 A 
ATOM     77  C   UNL A   1      39.608  32.550  38.042  1.00  0.00     0.031 A 
ATOM     78  C   UNL A   1      41.329  34.073  37.319  1.00  0.00     0.131 A 
ATOM     79  C   UNL A   1      39.493  33.292  39.228  1.00  0.00     0.055 A 
ATOM     80  C   UNL A   1      41.245  34.778  38.520  1.00  0.00     0.041 A 
ATOM     81  F   UNL A   1      42.222  34.496  36.409  1.00  0.00    -0.206 F 
ATOM     82  C   UNL A   1      40.314  34.393  39.480  1.00  0.00     0.022 A 
BRANCH  79  83
ATOM     83  S   UNL A   1      38.204  32.832  40.419  1.00  0.00     0.124 S 
ATOM     84  O   UNL A   1      38.171  34.005  41.288  1.00  0.00    -0.237 OA
ATOM     85  O   UNL A   1      37.044  32.641  39.555  1.00  0.00    -0.237 OA
ATOM     86  O   UNL A   1      38.727  31.615  41.035  1.00  0.00    -0.744 OA
ENDBRANCH  79  83
ENDBRANCH  52  76
BRANCH  64  87
ATOM     87  C   UNL A   1      44.825  27.995  34.663  1.00  0.00     0.023 A 
ATOM     88  C   UNL A   1      44.728  26.841  35.461  1.00  0.00     0.031 A 
ATOM     89  C   UNL A   1      46.104  28.534  34.436  1.00  0.00     0.131 A 
ATOM     90  C   UNL A   1      45.881  26.296  36.046  1.00  0.00     0.055 A 
ATOM     91  C   UNL A   1      47.255  27.952  34.972  1.00  0.00     0.041 A 
ATOM     92  F   UNL A   1      46.258  29.636  33.685  1.00  0.00    -0.206 F 
ATOM     93  C   UNL A   1      47.145  26.834  35.793  1.00  0.00     0.022 A 
BRANCH  90  94
ATOM     94  S   UNL A   1      45.700  24.924  37.220  1.00  0.00     0.124 S 
ATOM     95  O   UNL A   1      44.273  24.631  37.127  1.00  0.00    -0.237 OA
ATOM     96  O   UNL A   1      46.596  23.916  36.663  1.00  0.00    -0.237 OA
ATOM     97  O   UNL A   1      46.133  25.500  38.492  1.00  0.00    -0.744 OA
ENDBRANCH  90  94
ENDBRANCH  64  87
ENDBRANCH  38  39
ENDBRANCH  31  33
ENDBRANCH  30  31
ENDBRANCH  29  30
ENDBRANCH  28  29
ENDBRANCH  27  28
ENDBRANCH   1  27
TORSDOF 22
ENDMDL
