MODEL 1
REMARK VINA RESULT:      -9.0      0.000      0.000
REMARK SMILES COc1cc2c(cc1OC)[C@H](c1cccc([N+](=O)[O-])c1)N(C(=O)CCC(=O)OCCOCCOC(=O)c1ccc(-c3c4nc(c(-c5cc(S(=O)(=O)[O-])ccc5F)c5ccc([nH]5)c(-c5cc(S(=O)(=O)[O-])ccc5F)c5nc(c(-c6cc(S(=O)(=O)[O-])ccc6F)c6ccc3[nH]6)C=C5)C=C4)cc1)CC2
REMARK SMILES IDX 30 1 29 2 28 3 26 4 27 5 25 6 24 7 22 8 23 9 21 10 3 11 4 12
REMARK SMILES IDX 8 13 5 14 7 15 6 16 101 17 11 18 100 19 2 20 1 21 9 22 10 23
REMARK SMILES IDX 12 24 13 25 20 26 14 27 16 28 15 29 17 30 18 31 19 32 31 33
REMARK SMILES IDX 32 34 33 35 34 36 35 37 36 38 37 39 38 40 99 41 39 42 98 43
REMARK SMILES IDX 40 44 41 45 42 46 92 47 43 48 97 49 91 50 93 51 44 52 96 53
REMARK SMILES IDX 90 54 89 55 45 57 77 58 57 59 76 60 58 61 61 62 75 63 94 64
REMARK SMILES IDX 59 65 60 66 74 68 95 69 62 70 46 71 47 72 55 73 48 74 54 75
REMARK SMILES IDX 56 76 53 77 49 78 50 79 51 80 52 81 78 82 79 83 87 84 80 85
REMARK SMILES IDX 86 86 88 87 85 88 81 89 82 90 83 91 84 92 63 93 64 94 72 95
REMARK SMILES IDX 65 96 71 97 73 98 70 99 66 100 67 101 68 102 69 103
REMARK H PARENT 93 56 61 67
REMARK Flexibility Score: inf
ROOT
ATOM      1  C   UNL A   1      39.276  32.591  41.274  1.00  0.00     0.202 C 
ENDROOT
BRANCH   1   2
ATOM      2  C   UNL A   1      37.930  32.003  40.817  1.00  0.00     0.261 C 
BRANCH   2   3
ATOM      3  O   UNL A   1      37.826  31.833  39.387  1.00  0.00    -0.463 OA
BRANCH   3   4
ATOM      4  C   UNL A   1      36.919  32.585  38.711  1.00  0.00     0.306 C 
ATOM      5  O   UNL A   1      35.708  32.552  38.875  1.00  0.00    -0.252 OA
BRANCH   4   6
ATOM      6  C   UNL A   1      37.606  33.500  37.717  1.00  0.00     0.132 C 
BRANCH   6   7
ATOM      7  C   UNL A   1      36.751  33.815  36.492  1.00  0.00     0.112 C 
BRANCH   7   8
ATOM      8  C   UNL A   1      37.099  32.900  35.319  1.00  0.00     0.223 C 
ATOM      9  O   UNL A   1      37.401  31.725  35.534  1.00  0.00    -0.275 OA
BRANCH   8  10
ATOM     10  N   UNL A   1      37.081  33.443  34.050  1.00  0.00    -0.331 N 
ATOM     11  C   UNL A   1      38.425  31.290  29.934  1.00  0.00     0.161 A 
ATOM     12  C   UNL A   1      38.746  32.529  30.464  1.00  0.00     0.054 A 
ATOM     13  C   UNL A   1      37.272  30.610  30.363  1.00  0.00     0.161 A 
ATOM     14  C   UNL A   1      37.901  33.093  31.416  1.00  0.00    -0.037 A 
ATOM     15  C   UNL A   1      36.432  31.190  31.338  1.00  0.00     0.057 A 
ATOM     16  C   UNL A   1      36.742  32.443  31.882  1.00  0.00    -0.014 A 
ATOM     17  C   UNL A   1      38.209  34.410  32.034  1.00  0.00     0.057 C 
ATOM     18  C   UNL A   1      36.002  33.094  33.078  1.00  0.00     0.146 C 
ATOM     19  C   UNL A   1      38.153  34.299  33.542  1.00  0.00     0.125 C 
BRANCH  11  20
ATOM     20  O   UNL A   1      39.312  30.743  29.041  1.00  0.00    -0.493 OA
ATOM     21  C   UNL A   1      40.652  30.841  29.531  1.00  0.00     0.278 C 
ENDBRANCH  11  20
BRANCH  13  22
ATOM     22  O   UNL A   1      37.074  29.386  29.782  1.00  0.00    -0.493 OA
ATOM     23  C   UNL A   1      36.150  29.320  28.708  1.00  0.00     0.278 C 
ENDBRANCH  13  22
BRANCH  18  24
ATOM     24  C   UNL A   1      35.156  34.350  32.738  1.00  0.00    -0.014 A 
ATOM     25  C   UNL A   1      34.875  35.333  33.699  1.00  0.00     0.007 A 
ATOM     26  C   UNL A   1      34.595  34.531  31.451  1.00  0.00     0.091 A 
ATOM     27  C   UNL A   1      34.022  36.412  33.407  1.00  0.00     0.007 A 
ATOM     28  C   UNL A   1      33.671  35.554  31.191  1.00  0.00     0.269 A 
ATOM     29  C   UNL A   1      33.396  36.514  32.161  1.00  0.00     0.085 A 
BRANCH  28  30
ATOM     30  N   UNL A   1      32.918  35.537  29.928  1.00  0.00     0.062 N 
ATOM     31  O   UNL A   1      32.379  36.587  29.556  1.00  0.00    -0.258 OA
ATOM     32  O   UNL A   1      32.830  34.455  29.325  1.00  0.00    -0.258 OA
ENDBRANCH  28  30
ENDBRANCH  18  24
ENDBRANCH   8  10
ENDBRANCH   7   8
ENDBRANCH   6   7
ENDBRANCH   4   6
ENDBRANCH   3   4
ENDBRANCH   2   3
ENDBRANCH   1   2
BRANCH   1  33
ATOM     33  O   UNL A   1      39.221  33.990  41.543  1.00  0.00    -0.374 OA
BRANCH  33  34
ATOM     34  C   UNL A   1      40.333  34.765  41.091  1.00  0.00     0.202 C 
BRANCH  34  35
ATOM     35  C   UNL A   1      40.299  35.113  39.588  1.00  0.00     0.261 C 
BRANCH  35  36
ATOM     36  O   UNL A   1      41.537  34.811  38.895  1.00  0.00    -0.460 OA
BRANCH  36  37
ATOM     37  C   UNL A   1      41.455  34.028  37.775  1.00  0.00     0.338 C 
ATOM     38  O   UNL A   1      40.935  32.935  37.704  1.00  0.00    -0.246 OA
BRANCH  37  39
ATOM     39  C   UNL A   1      41.985  34.766  36.585  1.00  0.00     0.060 A 
ATOM     40  C   UNL A   1      41.086  35.243  35.621  1.00  0.00     0.016 A 
ATOM     41  C   UNL A   1      43.343  35.059  36.439  1.00  0.00     0.016 A 
ATOM     42  C   UNL A   1      41.533  36.039  34.543  1.00  0.00     0.010 A 
ATOM     43  C   UNL A   1      43.775  35.882  35.378  1.00  0.00     0.010 A 
ATOM     44  C   UNL A   1      42.887  36.384  34.404  1.00  0.00    -0.014 A 
BRANCH  44  45
ATOM     45  C   UNL A   1      43.391  37.156  33.206  1.00  0.00     0.031 A 
ATOM     46  C   UNL A   1      43.822  36.416  31.965  1.00  0.00     0.074 A 
ATOM     47  C   UNL A   1      43.512  38.503  33.179  1.00  0.00     0.049 A 
ATOM     48  N   UNL A   1      44.272  36.894  30.829  1.00  0.00    -0.248 NA
ATOM     49  C   UNL A   1      43.786  34.952  32.027  1.00  0.00     0.031 C 
ATOM     50  C   UNL A   1      43.238  39.387  34.298  1.00  0.00     0.029 A 
ATOM     51  N   UNL A   1      43.911  39.371  32.181  1.00  0.00    -0.354 N 
ATOM     52  C   UNL A   1      44.567  35.788  30.044  1.00  0.00     0.074 A 
ATOM     53  C   UNL A   1      44.359  34.624  30.881  1.00  0.00     0.031 C 
ATOM     54  C   UNL A   1      43.457  40.663  33.935  1.00  0.00     0.029 A 
ATOM     55  C   UNL A   1      43.905  40.701  32.548  1.00  0.00     0.049 A 
ATOM     56  H   UNL A   1      44.178  39.066  31.283  1.00  0.00     0.167 HD
ATOM     57  C   UNL A   1      44.915  35.724  28.734  1.00  0.00     0.034 A 
ATOM     58  C   UNL A   1      44.214  41.828  31.869  1.00  0.00     0.034 A 
ATOM     59  C   UNL A   1      45.102  36.860  27.870  1.00  0.00     0.049 A 
ATOM     60  C   UNL A   1      44.626  41.745  30.419  1.00  0.00     0.074 A 
ATOM     61  C   UNL A   1      45.362  36.872  26.509  1.00  0.00     0.029 A 
ATOM     62  N   UNL A   1      45.063  38.185  28.275  1.00  0.00    -0.354 N 
ATOM     63  N   UNL A   1      44.782  40.683  29.668  1.00  0.00    -0.248 NA
ATOM     64  C   UNL A   1      44.882  43.016  29.721  1.00  0.00     0.031 C 
ATOM     65  C   UNL A   1      45.531  38.200  26.102  1.00  0.00     0.029 A 
ATOM     66  C   UNL A   1      45.320  39.020  27.197  1.00  0.00     0.049 A 
ATOM     67  H   UNL A   1      44.880  38.490  29.193  1.00  0.00     0.167 HD
ATOM     68  C   UNL A   1      45.107  41.163  28.400  1.00  0.00     0.074 A 
ATOM     69  C   UNL A   1      45.130  42.606  28.488  1.00  0.00     0.031 C 
ATOM     70  C   UNL A   1      45.344  40.461  27.265  1.00  0.00     0.034 A 
BRANCH  57  71
ATOM     71  C   UNL A   1      45.091  34.340  28.164  1.00  0.00     0.023 A 
ATOM     72  C   UNL A   1      46.258  33.602  28.426  1.00  0.00     0.031 A 
ATOM     73  C   UNL A   1      44.143  33.795  27.285  1.00  0.00     0.131 A 
ATOM     74  C   UNL A   1      46.510  32.423  27.716  1.00  0.00     0.055 A 
ATOM     75  C   UNL A   1      44.353  32.565  26.660  1.00  0.00     0.041 A 
ATOM     76  F   UNL A   1      43.019  34.465  26.990  1.00  0.00    -0.206 F 
ATOM     77  C   UNL A   1      45.553  31.884  26.854  1.00  0.00     0.022 A 
BRANCH  74  78
ATOM     78  S   UNL A   1      48.181  31.726  27.788  1.00  0.00     0.124 S 
ATOM     79  O   UNL A   1      48.997  32.936  27.865  1.00  0.00    -0.237 OA
ATOM     80  O   UNL A   1      48.132  30.912  28.996  1.00  0.00    -0.237 OA
ATOM     81  O   UNL A   1      48.295  30.982  26.536  1.00  0.00    -0.744 OA
ENDBRANCH  74  78
ENDBRANCH  57  71
BRANCH  58  82
ATOM     82  C   UNL A   1      44.181  43.170  32.528  1.00  0.00     0.023 A 
ATOM     83  C   UNL A   1      45.258  43.632  33.306  1.00  0.00     0.031 A 
ATOM     84  C   UNL A   1      43.012  43.948  32.497  1.00  0.00     0.131 A 
ATOM     85  C   UNL A   1      45.120  44.805  34.067  1.00  0.00     0.055 A 
ATOM     86  C   UNL A   1      42.895  45.136  33.223  1.00  0.00     0.041 A 
ATOM     87  F   UNL A   1      41.958  43.557  31.764  1.00  0.00    -0.206 F 
ATOM     88  C   UNL A   1      43.950  45.565  34.023  1.00  0.00     0.022 A 
BRANCH  85  89
ATOM     89  S   UNL A   1      46.456  45.272  35.205  1.00  0.00     0.124 S 
ATOM     90  O   UNL A   1      46.228  46.705  35.354  1.00  0.00    -0.237 OA
ATOM     91  O   UNL A   1      46.159  44.449  36.374  1.00  0.00    -0.237 OA
ATOM     92  O   UNL A   1      47.667  44.902  34.478  1.00  0.00    -0.744 OA
ENDBRANCH  85  89
ENDBRANCH  58  82
BRANCH  70  93
ATOM     93  C   UNL A   1      45.576  41.244  25.997  1.00  0.00     0.023 A 
ATOM     94  C   UNL A   1      44.518  41.761  25.230  1.00  0.00     0.031 A 
ATOM     95  C   UNL A   1      46.890  41.468  25.546  1.00  0.00     0.131 A 
ATOM     96  C   UNL A   1      44.788  42.438  24.030  1.00  0.00     0.055 A 
ATOM     97  C   UNL A   1      47.155  42.186  24.378  1.00  0.00     0.041 A 
ATOM     98  F   UNL A   1      47.939  40.992  26.235  1.00  0.00    -0.206 F 
ATOM     99  C   UNL A   1      46.101  42.668  23.608  1.00  0.00     0.022 A 
BRANCH  96 100
ATOM    100  S   UNL A   1      43.400  42.964  22.988  1.00  0.00     0.124 S 
ATOM    101  O   UNL A   1      43.515  42.060  21.849  1.00  0.00    -0.237 OA
ATOM    102  O   UNL A   1      42.251  42.745  23.862  1.00  0.00    -0.237 OA
ATOM    103  O   UNL A   1      43.697  44.367  22.700  1.00  0.00    -0.744 OA
ENDBRANCH  96 100
ENDBRANCH  70  93
ENDBRANCH  44  45
ENDBRANCH  37  39
ENDBRANCH  36  37
ENDBRANCH  35  36
ENDBRANCH  34  35
ENDBRANCH  33  34
ENDBRANCH   1  33
TORSDOF 24
ENDMDL
MODEL 2
REMARK VINA RESULT:      -8.8      8.517     13.556
REMARK SMILES COc1cc2c(cc1OC)[C@H](c1cccc([N+](=O)[O-])c1)N(C(=O)CCC(=O)OCCOCCOC(=O)c1ccc(-c3c4nc(c(-c5cc(S(=O)(=O)[O-])ccc5F)c5ccc([nH]5)c(-c5cc(S(=O)(=O)[O-])ccc5F)c5nc(c(-c6cc(S(=O)(=O)[O-])ccc6F)c6ccc3[nH]6)C=C5)C=C4)cc1)CC2
REMARK SMILES IDX 30 1 29 2 28 3 26 4 27 5 25 6 24 7 22 8 23 9 21 10 3 11 4 12
REMARK SMILES IDX 8 13 5 14 7 15 6 16 101 17 11 18 100 19 2 20 1 21 9 22 10 23
REMARK SMILES IDX 12 24 13 25 20 26 14 27 16 28 15 29 17 30 18 31 19 32 31 33
REMARK SMILES IDX 32 34 33 35 34 36 35 37 36 38 37 39 38 40 99 41 39 42 98 43
REMARK SMILES IDX 40 44 41 45 42 46 92 47 43 48 97 49 91 50 93 51 44 52 96 53
REMARK SMILES IDX 90 54 89 55 45 57 77 58 57 59 76 60 58 61 61 62 75 63 94 64
REMARK SMILES IDX 59 65 60 66 74 68 95 69 62 70 46 71 47 72 55 73 48 74 54 75
REMARK SMILES IDX 56 76 53 77 49 78 50 79 51 80 52 81 78 82 79 83 87 84 80 85
REMARK SMILES IDX 86 86 88 87 85 88 81 89 82 90 83 91 84 92 63 93 64 94 72 95
REMARK SMILES IDX 65 96 71 97 73 98 70 99 66 100 67 101 68 102 69 103
REMARK H PARENT 93 56 61 67
REMARK Flexibility Score: inf
ROOT
ATOM      1  C   UNL A   1      41.505  24.917  26.758  1.00  0.00     0.202 C 
ENDROOT
BRANCH   1   2
ATOM      2  C   UNL A   1      40.054  25.189  26.326  1.00  0.00     0.261 C 
BRANCH   2   3
ATOM      3  O   UNL A   1      39.074  24.443  27.078  1.00  0.00    -0.463 OA
BRANCH   3   4
ATOM      4  C   UNL A   1      38.389  23.455  26.445  1.00  0.00     0.306 C 
ATOM      5  O   UNL A   1      38.838  22.357  26.151  1.00  0.00    -0.252 OA
BRANCH   4   6
ATOM      6  C   UNL A   1      36.965  23.883  26.152  1.00  0.00     0.132 C 
BRANCH   6   7
ATOM      7  C   UNL A   1      36.038  22.718  25.817  1.00  0.00     0.112 C 
BRANCH   7   8
ATOM      8  C   UNL A   1      34.716  22.821  26.578  1.00  0.00     0.223 C 
ATOM      9  O   UNL A   1      34.726  22.890  27.807  1.00  0.00    -0.275 OA
BRANCH   8  10
ATOM     10  N   UNL A   1      33.547  22.812  25.843  1.00  0.00    -0.331 N 
ATOM     11  C   UNL A   1      31.177  26.640  24.081  1.00  0.00     0.161 A 
ATOM     12  C   UNL A   1      30.734  25.547  24.806  1.00  0.00     0.054 A 
ATOM     13  C   UNL A   1      32.388  26.580  23.370  1.00  0.00     0.161 A 
ATOM     14  C   UNL A   1      31.501  24.384  24.807  1.00  0.00    -0.037 A 
ATOM     15  C   UNL A   1      33.160  25.398  23.391  1.00  0.00     0.057 A 
ATOM     16  C   UNL A   1      32.726  24.283  24.118  1.00  0.00    -0.014 A 
ATOM     17  C   UNL A   1      31.085  23.188  25.586  1.00  0.00     0.057 C 
ATOM     18  C   UNL A   1      33.567  23.005  24.362  1.00  0.00     0.146 C 
ATOM     19  C   UNL A   1      32.226  22.720  26.463  1.00  0.00     0.125 C 
BRANCH  11  20
ATOM     20  O   UNL A   1      30.422  27.784  24.152  1.00  0.00    -0.493 OA
ATOM     21  C   UNL A   1      29.321  27.726  23.242  1.00  0.00     0.278 C 
ENDBRANCH  11  20
BRANCH  13  22
ATOM     22  O   UNL A   1      32.729  27.730  22.711  1.00  0.00    -0.493 OA
ATOM     23  C   UNL A   1      33.528  28.667  23.413  1.00  0.00     0.278 C 
ENDBRANCH  13  22
BRANCH  18  24
ATOM     24  C   UNL A   1      33.061  21.724  23.645  1.00  0.00    -0.014 A 
ATOM     25  C   UNL A   1      32.361  21.786  22.430  1.00  0.00     0.007 A 
ATOM     26  C   UNL A   1      33.246  20.442  24.215  1.00  0.00     0.091 A 
ATOM     27  C   UNL A   1      31.819  20.629  21.845  1.00  0.00     0.007 A 
ATOM     28  C   UNL A   1      32.623  19.304  23.680  1.00  0.00     0.269 A 
ATOM     29  C   UNL A   1      31.923  19.388  22.479  1.00  0.00     0.085 A 
BRANCH  28  30
ATOM     30  N   UNL A   1      32.625  18.055  24.454  1.00  0.00     0.062 N 
ATOM     31  O   UNL A   1      32.965  17.012  23.879  1.00  0.00    -0.258 OA
ATOM     32  O   UNL A   1      32.243  18.108  25.635  1.00  0.00    -0.258 OA
ENDBRANCH  28  30
ENDBRANCH  18  24
ENDBRANCH   8  10
ENDBRANCH   7   8
ENDBRANCH   6   7
ENDBRANCH   4   6
ENDBRANCH   3   4
ENDBRANCH   2   3
ENDBRANCH   1   2
BRANCH   1  33
ATOM     33  O   UNL A   1      42.271  24.231  25.769  1.00  0.00    -0.374 OA
BRANCH  33  34
ATOM     34  C   UNL A   1      42.586  22.865  26.050  1.00  0.00     0.202 C 
BRANCH  34  35
ATOM     35  C   UNL A   1      43.037  22.601  27.502  1.00  0.00     0.261 C 
BRANCH  35  36
ATOM     36  O   UNL A   1      44.328  23.179  27.821  1.00  0.00    -0.460 OA
BRANCH  36  37
ATOM     37  C   UNL A   1      44.362  24.144  28.791  1.00  0.00     0.338 C 
ATOM     38  O   UNL A   1      43.940  24.034  29.923  1.00  0.00    -0.246 OA
BRANCH  37  39
ATOM     39  C   UNL A   1      45.125  25.339  28.309  1.00  0.00     0.060 A 
ATOM     40  C   UNL A   1      45.720  26.194  29.247  1.00  0.00     0.016 A 
ATOM     41  C   UNL A   1      45.324  25.591  26.950  1.00  0.00     0.016 A 
ATOM     42  C   UNL A   1      46.539  27.266  28.833  1.00  0.00     0.010 A 
ATOM     43  C   UNL A   1      46.171  26.645  26.546  1.00  0.00     0.010 A 
ATOM     44  C   UNL A   1      46.791  27.509  27.472  1.00  0.00    -0.014 A 
BRANCH  44  45
ATOM     45  C   UNL A   1      47.589  28.708  27.014  1.00  0.00     0.031 A 
ATOM     46  C   UNL A   1      46.916  30.050  26.879  1.00  0.00     0.074 A 
ATOM     47  C   UNL A   1      48.899  28.653  26.678  1.00  0.00     0.049 A 
ATOM     48  N   UNL A   1      47.428  31.202  26.513  1.00  0.00    -0.248 NA
ATOM     49  C   UNL A   1      45.475  30.092  27.146  1.00  0.00     0.031 C 
ATOM     50  C   UNL A   1      49.702  27.443  26.652  1.00  0.00     0.029 A 
ATOM     51  N   UNL A   1      49.789  29.632  26.280  1.00  0.00    -0.354 N 
ATOM     52  C   UNL A   1      46.370  32.101  26.512  1.00  0.00     0.074 A 
ATOM     53  C   UNL A   1      45.176  31.331  26.793  1.00  0.00     0.031 C 
ATOM     54  C   UNL A   1      50.959  27.739  26.278  1.00  0.00     0.029 A 
ATOM     55  C   UNL A   1      51.063  29.170  26.020  1.00  0.00     0.049 A 
ATOM     56  H   UNL A   1      49.535  30.580  26.190  1.00  0.00     0.167 HD
ATOM     57  C   UNL A   1      46.381  33.450  26.357  1.00  0.00     0.034 A 
ATOM     58  C   UNL A   1      52.190  29.802  25.624  1.00  0.00     0.034 A 
ATOM     59  C   UNL A   1      47.553  34.245  26.104  1.00  0.00     0.049 A 
ATOM     60  C   UNL A   1      52.186  31.299  25.429  1.00  0.00     0.074 A 
ATOM     61  C   UNL A   1      47.657  35.625  26.030  1.00  0.00     0.029 A 
ATOM     62  N   UNL A   1      48.824  33.742  25.871  1.00  0.00    -0.354 N 
ATOM     63  N   UNL A   1      51.190  32.142  25.550  1.00  0.00    -0.248 NA
ATOM     64  C   UNL A   1      53.465  31.932  25.064  1.00  0.00     0.031 C 
ATOM     65  C   UNL A   1      48.977  35.953  25.701  1.00  0.00     0.029 A 
ATOM     66  C   UNL A   1      49.710  34.781  25.627  1.00  0.00     0.049 A 
ATOM     67  H   UNL A   1      49.063  32.787  25.877  1.00  0.00     0.167 HD
ATOM     68  C   UNL A   1      51.735  33.405  25.324  1.00  0.00     0.074 A 
ATOM     69  C   UNL A   1      53.142  33.215  25.054  1.00  0.00     0.031 C 
ATOM     70  C   UNL A   1      51.117  34.611  25.359  1.00  0.00     0.034 A 
BRANCH  57  71
ATOM     71  C   UNL A   1      45.048  34.140  26.487  1.00  0.00     0.023 A 
ATOM     72  C   UNL A   1      44.502  34.410  27.754  1.00  0.00     0.031 A 
ATOM     73  C   UNL A   1      44.279  34.444  25.353  1.00  0.00     0.131 A 
ATOM     74  C   UNL A   1      43.176  34.842  27.862  1.00  0.00     0.055 A 
ATOM     75  C   UNL A   1      42.993  34.976  25.467  1.00  0.00     0.041 A 
ATOM     76  F   UNL A   1      44.748  34.194  24.121  1.00  0.00    -0.206 F 
ATOM     77  C   UNL A   1      42.426  35.154  26.727  1.00  0.00     0.022 A 
BRANCH  74  78
ATOM     78  S   UNL A   1      42.395  34.792  29.497  1.00  0.00     0.124 S 
ATOM     79  O   UNL A   1      42.505  33.373  29.827  1.00  0.00    -0.237 OA
ATOM     80  O   UNL A   1      43.233  35.696  30.275  1.00  0.00    -0.237 OA
ATOM     81  O   UNL A   1      41.036  35.263  29.240  1.00  0.00    -0.744 OA
ENDBRANCH  74  78
ENDBRANCH  57  71
BRANCH  58  82
ATOM     82  C   UNL A   1      53.451  29.048  25.348  1.00  0.00     0.023 A 
ATOM     83  C   UNL A   1      54.380  28.774  26.367  1.00  0.00     0.031 A 
ATOM     84  C   UNL A   1      53.804  28.714  24.030  1.00  0.00     0.131 A 
ATOM     85  C   UNL A   1      55.638  28.238  26.043  1.00  0.00     0.055 A 
ATOM     86  C   UNL A   1      55.040  28.141  23.718  1.00  0.00     0.041 A 
ATOM     87  F   UNL A   1      52.951  28.947  23.020  1.00  0.00    -0.206 F 
ATOM     88  C   UNL A   1      55.970  27.911  24.728  1.00  0.00     0.022 A 
BRANCH  85  89
ATOM     89  S   UNL A   1      56.883  28.072  27.355  1.00  0.00     0.124 S 
ATOM     90  O   UNL A   1      58.007  28.809  26.789  1.00  0.00    -0.237 OA
ATOM     91  O   UNL A   1      56.211  28.697  28.491  1.00  0.00    -0.237 OA
ATOM     92  O   UNL A   1      57.072  26.627  27.464  1.00  0.00    -0.744 OA
ENDBRANCH  85  89
ENDBRANCH  58  82
BRANCH  70  93
ATOM     93  C   UNL A   1      51.975  35.838  25.173  1.00  0.00     0.023 A 
ATOM     94  C   UNL A   1      52.314  36.685  26.243  1.00  0.00     0.031 A 
ATOM     95  C   UNL A   1      52.453  36.168  23.893  1.00  0.00     0.131 A 
ATOM     96  C   UNL A   1      53.072  37.843  26.006  1.00  0.00     0.055 A 
ATOM     97  C   UNL A   1      53.250  37.293  23.671  1.00  0.00     0.041 A 
ATOM     98  F   UNL A   1      52.156  35.398  22.833  1.00  0.00    -0.206 F 
ATOM     99  C   UNL A   1      53.555  38.144  24.729  1.00  0.00     0.022 A 
BRANCH  96 100
ATOM    100  S   UNL A   1      53.369  38.993  27.377  1.00  0.00     0.124 S 
ATOM    101  O   UNL A   1      54.107  40.066  26.720  1.00  0.00    -0.237 OA
ATOM    102  O   UNL A   1      52.014  39.322  27.809  1.00  0.00    -0.237 OA
ATOM    103  O   UNL A   1      54.144  38.199  28.331  1.00  0.00    -0.744 OA
ENDBRANCH  96 100
ENDBRANCH  70  93
ENDBRANCH  44  45
ENDBRANCH  37  39
ENDBRANCH  36  37
ENDBRANCH  35  36
ENDBRANCH  34  35
ENDBRANCH  33  34
ENDBRANCH   1  33
TORSDOF 24
ENDMDL
MODEL 3
REMARK VINA RESULT:      -8.6      4.225     10.293
REMARK SMILES COc1cc2c(cc1OC)[C@H](c1cccc([N+](=O)[O-])c1)N(C(=O)CCC(=O)OCCOCCOC(=O)c1ccc(-c3c4nc(c(-c5cc(S(=O)(=O)[O-])ccc5F)c5ccc([nH]5)c(-c5cc(S(=O)(=O)[O-])ccc5F)c5nc(c(-c6cc(S(=O)(=O)[O-])ccc6F)c6ccc3[nH]6)C=C5)C=C4)cc1)CC2
REMARK SMILES IDX 30 1 29 2 28 3 26 4 27 5 25 6 24 7 22 8 23 9 21 10 3 11 4 12
REMARK SMILES IDX 8 13 5 14 7 15 6 16 101 17 11 18 100 19 2 20 1 21 9 22 10 23
REMARK SMILES IDX 12 24 13 25 20 26 14 27 16 28 15 29 17 30 18 31 19 32 31 33
REMARK SMILES IDX 32 34 33 35 34 36 35 37 36 38 37 39 38 40 99 41 39 42 98 43
REMARK SMILES IDX 40 44 41 45 42 46 92 47 43 48 97 49 91 50 93 51 44 52 96 53
REMARK SMILES IDX 90 54 89 55 45 57 77 58 57 59 76 60 58 61 61 62 75 63 94 64
REMARK SMILES IDX 59 65 60 66 74 68 95 69 62 70 46 71 47 72 55 73 48 74 54 75
REMARK SMILES IDX 56 76 53 77 49 78 50 79 51 80 52 81 78 82 79 83 87 84 80 85
REMARK SMILES IDX 86 86 88 87 85 88 81 89 82 90 83 91 84 92 63 93 64 94 72 95
REMARK SMILES IDX 65 96 71 97 73 98 70 99 66 100 67 101 68 102 69 103
REMARK H PARENT 93 56 61 67
REMARK Flexibility Score: inf
ROOT
ATOM      1  C   UNL A   1      35.819  31.471  27.999  1.00  0.00     0.202 C 
ENDROOT
BRANCH   1   2
ATOM      2  C   UNL A   1      35.792  30.064  28.619  1.00  0.00     0.261 C 
BRANCH   2   3
ATOM      3  O   UNL A   1      36.845  29.198  28.144  1.00  0.00    -0.463 OA
BRANCH   3   4
ATOM      4  C   UNL A   1      38.128  29.639  28.219  1.00  0.00     0.306 C 
ATOM      5  O   UNL A   1      38.921  29.673  27.289  1.00  0.00    -0.252 OA
BRANCH   4   6
ATOM      6  C   UNL A   1      38.461  30.107  29.622  1.00  0.00     0.132 C 
BRANCH   6   7
ATOM      7  C   UNL A   1      39.883  30.642  29.761  1.00  0.00     0.112 C 
BRANCH   7   8
ATOM      8  C   UNL A   1      40.831  29.570  30.297  1.00  0.00     0.223 C 
ATOM      9  O   UNL A   1      41.239  28.687  29.542  1.00  0.00    -0.275 OA
BRANCH   8  10
ATOM     10  N   UNL A   1      41.180  29.627  31.632  1.00  0.00    -0.331 N 
ATOM     11  C   UNL A   1      45.504  30.759  33.476  1.00  0.00     0.161 A 
ATOM     12  C   UNL A   1      44.646  29.704  33.740  1.00  0.00     0.054 A 
ATOM     13  C   UNL A   1      45.020  31.938  32.883  1.00  0.00     0.161 A 
ATOM     14  C   UNL A   1      43.297  29.838  33.422  1.00  0.00    -0.037 A 
ATOM     15  C   UNL A   1      43.651  32.053  32.555  1.00  0.00     0.057 A 
ATOM     16  C   UNL A   1      42.771  30.996  32.817  1.00  0.00    -0.014 A 
ATOM     17  C   UNL A   1      42.336  28.729  33.663  1.00  0.00     0.057 C 
ATOM     18  C   UNL A   1      41.298  30.936  32.342  1.00  0.00     0.146 C 
ATOM     19  C   UNL A   1      41.552  28.440  32.402  1.00  0.00     0.125 C 
BRANCH  11  20
ATOM     20  O   UNL A   1      46.835  30.566  33.751  1.00  0.00    -0.493 OA
ATOM     21  C   UNL A   1      47.364  29.488  32.975  1.00  0.00     0.278 C 
ENDBRANCH  11  20
BRANCH  13  22
ATOM     22  O   UNL A   1      45.967  32.899  32.652  1.00  0.00    -0.493 OA
ATOM     23  C   UNL A   1      45.876  34.095  33.409  1.00  0.00     0.278 C 
ENDBRANCH  13  22
BRANCH  18  24
ATOM     24  C   UNL A   1      40.228  31.039  33.464  1.00  0.00    -0.014 A 
ATOM     25  C   UNL A   1      38.886  30.696  33.237  1.00  0.00     0.007 A 
ATOM     26  C   UNL A   1      40.558  31.528  34.750  1.00  0.00     0.091 A 
ATOM     27  C   UNL A   1      37.910  30.893  34.229  1.00  0.00     0.007 A 
ATOM     28  C   UNL A   1      39.569  31.812  35.703  1.00  0.00     0.269 A 
ATOM     29  C   UNL A   1      38.240  31.475  35.456  1.00  0.00     0.085 A 
BRANCH  28  30
ATOM     30  N   UNL A   1      39.932  32.564  36.913  1.00  0.00     0.062 N 
ATOM     31  O   UNL A   1      39.372  33.650  37.115  1.00  0.00    -0.258 OA
ATOM     32  O   UNL A   1      40.815  32.086  37.644  1.00  0.00    -0.258 OA
ENDBRANCH  28  30
ENDBRANCH  18  24
ENDBRANCH   8  10
ENDBRANCH   7   8
ENDBRANCH   6   7
ENDBRANCH   4   6
ENDBRANCH   3   4
ENDBRANCH   2   3
ENDBRANCH   1   2
BRANCH   1  33
ATOM     33  O   UNL A   1      35.131  32.447  28.779  1.00  0.00    -0.374 OA
BRANCH  33  34
ATOM     34  C   UNL A   1      35.163  32.261  30.195  1.00  0.00     0.202 C 
BRANCH  34  35
ATOM     35  C   UNL A   1      35.270  33.569  31.007  1.00  0.00     0.261 C 
BRANCH  35  36
ATOM     36  O   UNL A   1      36.492  34.308  30.757  1.00  0.00    -0.460 OA
BRANCH  36  37
ATOM     37  C   UNL A   1      37.485  34.215  31.695  1.00  0.00     0.338 C 
ATOM     38  O   UNL A   1      37.332  33.997  32.877  1.00  0.00    -0.246 OA
BRANCH  37  39
ATOM     39  C   UNL A   1      38.829  34.287  31.038  1.00  0.00     0.060 A 
ATOM     40  C   UNL A   1      38.903  34.439  29.647  1.00  0.00     0.016 A 
ATOM     41  C   UNL A   1      40.015  34.280  31.776  1.00  0.00     0.016 A 
ATOM     42  C   UNL A   1      40.146  34.623  29.002  1.00  0.00     0.010 A 
ATOM     43  C   UNL A   1      41.249  34.497  31.127  1.00  0.00     0.010 A 
ATOM     44  C   UNL A   1      41.345  34.666  29.731  1.00  0.00    -0.014 A 
BRANCH  44  45
ATOM     45  C   UNL A   1      42.688  34.768  29.044  1.00  0.00     0.031 A 
ATOM     46  C   UNL A   1      43.191  36.111  28.577  1.00  0.00     0.074 A 
ATOM     47  C   UNL A   1      43.481  33.703  28.783  1.00  0.00     0.049 A 
ATOM     48  N   UNL A   1      44.319  36.412  27.978  1.00  0.00    -0.248 NA
ATOM     49  C   UNL A   1      42.291  37.253  28.768  1.00  0.00     0.031 C 
ATOM     50  C   UNL A   1      43.138  32.321  29.068  1.00  0.00     0.029 A 
ATOM     51  N   UNL A   1      44.734  33.607  28.209  1.00  0.00    -0.354 N 
ATOM     52  C   UNL A   1      44.261  37.776  27.728  1.00  0.00     0.074 A 
ATOM     53  C   UNL A   1      42.939  38.211  28.128  1.00  0.00     0.031 C 
ATOM     54  C   UNL A   1      44.146  31.515  28.688  1.00  0.00     0.029 A 
ATOM     55  C   UNL A   1      45.218  32.318  28.114  1.00  0.00     0.049 A 
ATOM     56  H   UNL A   1      45.238  34.392  27.893  1.00  0.00     0.167 HD
ATOM     57  C   UNL A   1      45.226  38.614  27.269  1.00  0.00     0.034 A 
ATOM     58  C   UNL A   1      46.379  31.822  27.631  1.00  0.00     0.034 A 
ATOM     59  C   UNL A   1      46.556  38.216  26.889  1.00  0.00     0.049 A 
ATOM     60  C   UNL A   1      47.435  32.759  27.098  1.00  0.00     0.074 A 
ATOM     61  C   UNL A   1      47.617  39.020  26.505  1.00  0.00     0.029 A 
ATOM     62  N   UNL A   1      47.011  36.908  26.830  1.00  0.00    -0.354 N 
ATOM     63  N   UNL A   1      47.394  34.064  26.982  1.00  0.00    -0.248 NA
ATOM     64  C   UNL A   1      48.703  32.157  26.652  1.00  0.00     0.031 C 
ATOM     65  C   UNL A   1      48.696  38.196  26.165  1.00  0.00     0.029 A 
ATOM     66  C   UNL A   1      48.328  36.882  26.391  1.00  0.00     0.049 A 
ATOM     67  H   UNL A   1      46.479  36.114  27.065  1.00  0.00     0.167 HD
ATOM     68  C   UNL A   1      48.646  34.438  26.495  1.00  0.00     0.074 A 
ATOM     69  C   UNL A   1      49.416  33.225  26.335  1.00  0.00     0.031 C 
ATOM     70  C   UNL A   1      49.112  35.682  26.228  1.00  0.00     0.034 A 
BRANCH  57  71
ATOM     71  C   UNL A   1      44.850  40.070  27.182  1.00  0.00     0.023 A 
ATOM     72  C   UNL A   1      44.312  40.601  25.997  1.00  0.00     0.031 A 
ATOM     73  C   UNL A   1      45.113  40.948  28.244  1.00  0.00     0.131 A 
ATOM     74  C   UNL A   1      44.178  41.986  25.853  1.00  0.00     0.055 A 
ATOM     75  C   UNL A   1      44.877  42.319  28.131  1.00  0.00     0.041 A 
ATOM     76  F   UNL A   1      45.639  40.495  29.393  1.00  0.00    -0.206 F 
ATOM     77  C   UNL A   1      44.431  42.848  26.922  1.00  0.00     0.022 A 
BRANCH  74  78
ATOM     78  S   UNL A   1      43.866  42.644  24.193  1.00  0.00     0.124 S 
ATOM     79  O   UNL A   1      45.054  42.187  23.473  1.00  0.00    -0.237 OA
ATOM     80  O   UNL A   1      42.611  41.998  23.828  1.00  0.00    -0.237 OA
ATOM     81  O   UNL A   1      43.790  44.087  24.407  1.00  0.00    -0.744 OA
ENDBRANCH  74  78
ENDBRANCH  57  71
BRANCH  58  82
ATOM     82  C   UNL A   1      46.640  30.350  27.587  1.00  0.00     0.023 A 
ATOM     83  C   UNL A   1      46.230  29.564  26.496  1.00  0.00     0.031 A 
ATOM     84  C   UNL A   1      47.183  29.693  28.703  1.00  0.00     0.131 A 
ATOM     85  C   UNL A   1      46.315  28.164  26.570  1.00  0.00     0.055 A 
ATOM     86  C   UNL A   1      47.305  28.301  28.755  1.00  0.00     0.041 A 
ATOM     87  F   UNL A   1      47.598  30.396  29.769  1.00  0.00    -0.206 F 
ATOM     88  C   UNL A   1      46.859  27.528  27.687  1.00  0.00     0.022 A 
BRANCH  85  89
ATOM     89  S   UNL A   1      45.604  27.172  25.225  1.00  0.00     0.124 S 
ATOM     90  O   UNL A   1      44.270  27.750  25.107  1.00  0.00    -0.237 OA
ATOM     91  O   UNL A   1      46.523  27.448  24.126  1.00  0.00    -0.237 OA
ATOM     92  O   UNL A   1      45.652  25.808  25.747  1.00  0.00    -0.744 OA
ENDBRANCH  85  89
ENDBRANCH  58  82
BRANCH  70  93
ATOM     93  C   UNL A   1      50.554  35.810  25.802  1.00  0.00     0.023 A 
ATOM     94  C   UNL A   1      51.621  35.572  26.686  1.00  0.00     0.031 A 
ATOM     95  C   UNL A   1      50.861  36.187  24.482  1.00  0.00     0.131 A 
ATOM     96  C   UNL A   1      52.943  35.755  26.251  1.00  0.00     0.055 A 
ATOM     97  C   UNL A   1      52.179  36.318  24.041  1.00  0.00     0.041 A 
ATOM     98  F   UNL A   1      49.881  36.432  23.597  1.00  0.00    -0.206 F 
ATOM     99  C   UNL A   1      53.229  36.112  24.930  1.00  0.00     0.022 A 
BRANCH  96 100
ATOM    100  S   UNL A   1      54.292  35.585  27.452  1.00  0.00     0.124 S 
ATOM    101  O   UNL A   1      54.278  36.886  28.112  1.00  0.00    -0.237 OA
ATOM    102  O   UNL A   1      53.849  34.455  28.263  1.00  0.00    -0.237 OA
ATOM    103  O   UNL A   1      55.465  35.323  26.618  1.00  0.00    -0.744 OA
ENDBRANCH  96 100
ENDBRANCH  70  93
ENDBRANCH  44  45
ENDBRANCH  37  39
ENDBRANCH  36  37
ENDBRANCH  35  36
ENDBRANCH  34  35
ENDBRANCH  33  34
ENDBRANCH   1  33
TORSDOF 24
ENDMDL
