MODEL 1
REMARK VINA RESULT:     -11.3      0.000      0.000
REMARK SMILES N#C/C(=C/c1cccc(OC2CCCC2)c1)C(=O)OCCOCCOC(=O)c1ccc(-c2c3nc(c(-c4cc(S(=O)(=O)[O-])ccc4F)c4ccc([nH]4)c(-c4cc(S(=O)(=O)[O-])ccc4F)c4nc(c(-c5cc(S(=O)(=O)[O-])ccc5F)c5ccc2[nH]5)C=C4)C=C3)cc1
REMARK SMILES IDX 22 1 21 2 20 3 19 4 17 5 18 6 3 7 4 8 2 9 1 10 5 11 6 12
REMARK SMILES IDX 16 13 7 14 9 15 8 16 10 17 11 18 12 19 15 20 13 21 14 22
REMARK SMILES IDX 23 23 24 24 25 25 26 26 27 27 28 28 29 29 90 30 30 31 89 32
REMARK SMILES IDX 31 33 32 34 33 35 83 36 34 37 88 38 82 39 84 40 35 41 87 42
REMARK SMILES IDX 81 43 80 44 36 46 68 47 48 48 67 49 49 50 52 51 66 52 85 53
REMARK SMILES IDX 50 54 51 55 65 57 86 58 53 59 37 60 38 61 46 62 39 63 45 64
REMARK SMILES IDX 47 65 44 66 40 67 41 68 42 69 43 70 69 71 70 72 78 73 71 74
REMARK SMILES IDX 77 75 79 76 76 77 72 78 73 79 74 80 75 81 54 82 55 83 63 84
REMARK SMILES IDX 56 85 62 86 64 87 61 88 57 89 58 90 59 91 60 92
REMARK H PARENT 84 45 52 56
REMARK Flexibility Score: inf
ROOT
ATOM      1  O   UNL A   1      32.682  30.338  25.791  1.00  0.00    -0.374 OA
ENDROOT
BRANCH   1   2
ATOM      2  C   UNL A   1      32.659  29.107  25.076  1.00  0.00     0.202 C 
BRANCH   2   3
ATOM      3  C   UNL A   1      33.724  28.079  25.461  1.00  0.00     0.261 C 
BRANCH   3   4
ATOM      4  O   UNL A   1      33.883  27.056  24.461  1.00  0.00    -0.459 OA
BRANCH   4   5
ATOM      5  C   UNL A   1      33.591  25.798  24.871  1.00  0.00     0.348 C 
ATOM      6  O   UNL A   1      33.416  25.438  26.027  1.00  0.00    -0.245 OA
BRANCH   5   7
ATOM      7  C   UNL A   1      33.363  24.887  23.720  1.00  0.00     0.137 C 
ATOM      8  C   UNL A   1      32.285  24.922  22.918  1.00  0.00     0.035 C 
BRANCH   7   9
ATOM      9  C   UNL A   1      34.613  24.086  23.393  1.00  0.00     0.107 C 
ATOM     10  N   UNL A   1      35.650  23.422  23.122  1.00  0.00    -0.192 NA
ENDBRANCH   7   9
BRANCH   8  11
ATOM     11  C   UNL A   1      31.154  25.859  23.059  1.00  0.00    -0.020 A 
ATOM     12  C   UNL A   1      30.085  25.524  23.893  1.00  0.00     0.008 A 
ATOM     13  C   UNL A   1      31.102  27.065  22.333  1.00  0.00     0.054 A 
ATOM     14  C   UNL A   1      29.009  26.401  24.037  1.00  0.00     0.004 A 
ATOM     15  C   UNL A   1      30.057  27.970  22.511  1.00  0.00     0.120 A 
ATOM     16  C   UNL A   1      29.004  27.620  23.357  1.00  0.00     0.046 A 
BRANCH  15  17
ATOM     17  O   UNL A   1      29.925  29.188  21.915  1.00  0.00    -0.490 OA
BRANCH  17  18
ATOM     18  C   UNL A   1      28.843  30.078  22.173  1.00  0.00     0.173 C 
ATOM     19  C   UNL A   1      29.013  31.077  23.316  1.00  0.00     0.045 C 
ATOM     20  C   UNL A   1      28.337  30.868  20.961  1.00  0.00     0.045 C 
ATOM     21  C   UNL A   1      28.009  32.170  22.987  1.00  0.00     0.004 C 
ATOM     22  C   UNL A   1      28.078  32.286  21.470  1.00  0.00     0.004 C 
ENDBRANCH  17  18
ENDBRANCH  15  17
ENDBRANCH   8  11
ENDBRANCH   5   7
ENDBRANCH   4   5
ENDBRANCH   3   4
ENDBRANCH   2   3
ENDBRANCH   1   2
BRANCH   1  23
ATOM     23  C   UNL A   1      31.432  30.937  26.131  1.00  0.00     0.202 C 
BRANCH  23  24
ATOM     24  C   UNL A   1      31.455  32.246  26.935  1.00  0.00     0.261 C 
BRANCH  24  25
ATOM     25  O   UNL A   1      32.620  33.065  26.700  1.00  0.00    -0.460 OA
BRANCH  25  26
ATOM     26  C   UNL A   1      33.256  33.472  27.826  1.00  0.00     0.338 C 
ATOM     27  O   UNL A   1      32.821  34.257  28.665  1.00  0.00    -0.246 OA
BRANCH  26  28
ATOM     28  C   UNL A   1      34.537  32.776  28.025  1.00  0.00     0.060 A 
ATOM     29  C   UNL A   1      34.512  31.390  28.234  1.00  0.00     0.016 A 
ATOM     30  C   UNL A   1      35.714  33.499  28.232  1.00  0.00     0.016 A 
ATOM     31  C   UNL A   1      35.650  30.733  28.705  1.00  0.00     0.010 A 
ATOM     32  C   UNL A   1      36.851  32.837  28.711  1.00  0.00     0.010 A 
ATOM     33  C   UNL A   1      36.813  31.458  28.993  1.00  0.00    -0.014 A 
BRANCH  33  34
ATOM     34  C   UNL A   1      37.930  30.811  29.733  1.00  0.00     0.031 A 
ATOM     35  C   UNL A   1      38.190  31.201  31.165  1.00  0.00     0.074 A 
ATOM     36  C   UNL A   1      38.695  29.874  29.145  1.00  0.00     0.049 A 
ATOM     37  N   UNL A   1      39.139  30.807  31.977  1.00  0.00    -0.248 NA
ATOM     38  C   UNL A   1      37.256  32.170  31.758  1.00  0.00     0.031 C 
ATOM     39  C   UNL A   1      38.521  29.374  27.783  1.00  0.00     0.029 A 
ATOM     40  N   UNL A   1      39.780  29.182  29.623  1.00  0.00    -0.354 N 
ATOM     41  C   UNL A   1      38.923  31.483  33.173  1.00  0.00     0.074 A 
ATOM     42  C   UNL A   1      37.769  32.334  32.969  1.00  0.00     0.031 C 
ATOM     43  C   UNL A   1      39.477  28.462  27.530  1.00  0.00     0.029 A 
ATOM     44  C   UNL A   1      40.348  28.340  28.697  1.00  0.00     0.049 A 
ATOM     45  H   UNL A   1      40.119  29.279  30.542  1.00  0.00     0.167 HD
ATOM     46  C   UNL A   1      39.616  31.399  34.337  1.00  0.00     0.034 A 
ATOM     47  C   UNL A   1      41.459  27.578  28.774  1.00  0.00     0.034 A 
ATOM     48  C   UNL A   1      40.769  30.552  34.535  1.00  0.00     0.049 A 
ATOM     49  C   UNL A   1      42.266  27.565  30.049  1.00  0.00     0.074 A 
ATOM     50  C   UNL A   1      41.522  30.373  35.683  1.00  0.00     0.029 A 
ATOM     51  N   UNL A   1      41.344  29.753  33.556  1.00  0.00    -0.354 N 
ATOM     52  N   UNL A   1      42.047  28.205  31.174  1.00  0.00    -0.248 NA
ATOM     53  C   UNL A   1      43.473  26.725  30.061  1.00  0.00     0.031 C 
ATOM     54  C   UNL A   1      42.590  29.518  35.381  1.00  0.00     0.029 A 
ATOM     55  C   UNL A   1      42.464  29.109  34.064  1.00  0.00     0.049 A 
ATOM     56  H   UNL A   1      41.007  29.657  32.637  1.00  0.00     0.167 HD
ATOM     57  C   UNL A   1      43.072  27.821  32.035  1.00  0.00     0.074 A 
ATOM     58  C   UNL A   1      43.905  26.891  31.303  1.00  0.00     0.031 C 
ATOM     59  C   UNL A   1      43.299  28.196  33.320  1.00  0.00     0.034 A 
BRANCH  46  60
ATOM     60  C   UNL A   1      39.174  32.292  35.471  1.00  0.00     0.023 A 
ATOM     61  C   UNL A   1      39.622  33.618  35.588  1.00  0.00     0.031 A 
ATOM     62  C   UNL A   1      38.308  31.797  36.464  1.00  0.00     0.131 A 
ATOM     63  C   UNL A   1      39.259  34.382  36.709  1.00  0.00     0.055 A 
ATOM     64  C   UNL A   1      37.895  32.585  37.539  1.00  0.00     0.041 A 
ATOM     65  F   UNL A   1      37.863  30.532  36.413  1.00  0.00    -0.206 F 
ATOM     66  C   UNL A   1      38.382  33.883  37.674  1.00  0.00     0.022 A 
BRANCH  63  67
ATOM     67  S   UNL A   1      40.059  35.992  36.958  1.00  0.00     0.124 S 
ATOM     68  O   UNL A   1      41.449  35.601  37.183  1.00  0.00    -0.237 OA
ATOM     69  O   UNL A   1      39.783  36.678  35.701  1.00  0.00    -0.237 OA
ATOM     70  O   UNL A   1      39.375  36.537  38.129  1.00  0.00    -0.744 OA
ENDBRANCH  63  67
ENDBRANCH  46  60
BRANCH  47  71
ATOM     71  C   UNL A   1      41.913  26.794  27.591  1.00  0.00     0.023 A 
ATOM     72  C   UNL A   1      41.662  25.417  27.494  1.00  0.00     0.031 A 
ATOM     73  C   UNL A   1      42.657  27.406  26.567  1.00  0.00     0.131 A 
ATOM     74  C   UNL A   1      42.185  24.687  26.415  1.00  0.00     0.055 A 
ATOM     75  C   UNL A   1      43.135  26.685  25.472  1.00  0.00     0.041 A 
ATOM     76  F   UNL A   1      42.924  28.721  26.617  1.00  0.00    -0.206 F 
ATOM     77  C   UNL A   1      42.910  25.314  25.398  1.00  0.00     0.022 A 
BRANCH  74  78
ATOM     78  S   UNL A   1      41.961  22.888  26.392  1.00  0.00     0.124 S 
ATOM     79  O   UNL A   1      40.513  22.767  26.510  1.00  0.00    -0.237 OA
ATOM     80  O   UNL A   1      42.532  22.528  25.097  1.00  0.00    -0.237 OA
ATOM     81  O   UNL A   1      42.723  22.435  27.553  1.00  0.00    -0.744 OA
ENDBRANCH  74  78
ENDBRANCH  47  71
BRANCH  59  82
ATOM     82  C   UNL A   1      44.473  27.562  34.023  1.00  0.00     0.023 A 
ATOM     83  C   UNL A   1      44.336  26.388  34.784  1.00  0.00     0.031 A 
ATOM     84  C   UNL A   1      45.747  28.152  33.942  1.00  0.00     0.131 A 
ATOM     85  C   UNL A   1      45.443  25.869  35.474  1.00  0.00     0.055 A 
ATOM     86  C   UNL A   1      46.855  27.604  34.588  1.00  0.00     0.041 A 
ATOM     87  F   UNL A   1      45.935  29.275  33.228  1.00  0.00    -0.206 F 
ATOM     88  C   UNL A   1      46.704  26.462  35.370  1.00  0.00     0.022 A 
BRANCH  85  89
ATOM     89  S   UNL A   1      45.199  24.447  36.575  1.00  0.00     0.124 S 
ATOM     90  O   UNL A   1      46.574  24.057  36.875  1.00  0.00    -0.237 OA
ATOM     91  O   UNL A   1      44.447  25.032  37.680  1.00  0.00    -0.237 OA
ATOM     92  O   UNL A   1      44.451  23.498  35.752  1.00  0.00    -0.744 OA
ENDBRANCH  85  89
ENDBRANCH  59  82
ENDBRANCH  33  34
ENDBRANCH  26  28
ENDBRANCH  25  26
ENDBRANCH  24  25
ENDBRANCH  23  24
ENDBRANCH   1  23
TORSDOF 21
ENDMDL
MODEL 2
REMARK VINA RESULT:     -11.2      4.901      7.691
REMARK SMILES N#C/C(=C/c1cccc(OC2CCCC2)c1)C(=O)OCCOCCOC(=O)c1ccc(-c2c3nc(c(-c4cc(S(=O)(=O)[O-])ccc4F)c4ccc([nH]4)c(-c4cc(S(=O)(=O)[O-])ccc4F)c4nc(c(-c5cc(S(=O)(=O)[O-])ccc5F)c5ccc2[nH]5)C=C4)C=C3)cc1
REMARK SMILES IDX 22 1 21 2 20 3 19 4 17 5 18 6 3 7 4 8 2 9 1 10 5 11 6 12
REMARK SMILES IDX 16 13 7 14 9 15 8 16 10 17 11 18 12 19 15 20 13 21 14 22
REMARK SMILES IDX 23 23 24 24 25 25 26 26 27 27 28 28 29 29 90 30 30 31 89 32
REMARK SMILES IDX 31 33 32 34 33 35 83 36 34 37 88 38 82 39 84 40 35 41 87 42
REMARK SMILES IDX 81 43 80 44 36 46 68 47 48 48 67 49 49 50 52 51 66 52 85 53
REMARK SMILES IDX 50 54 51 55 65 57 86 58 53 59 37 60 38 61 46 62 39 63 45 64
REMARK SMILES IDX 47 65 44 66 40 67 41 68 42 69 43 70 69 71 70 72 78 73 71 74
REMARK SMILES IDX 77 75 79 76 76 77 72 78 73 79 74 80 75 81 54 82 55 83 63 84
REMARK SMILES IDX 56 85 62 86 64 87 61 88 57 89 58 90 59 91 60 92
REMARK H PARENT 84 45 52 56
REMARK Flexibility Score: inf
ROOT
ATOM      1  O   UNL A   1      34.111  20.421  25.206  1.00  0.00    -0.374 OA
ENDROOT
BRANCH   1   2
ATOM      2  C   UNL A   1      32.885  21.040  24.830  1.00  0.00     0.202 C 
BRANCH   2   3
ATOM      3  C   UNL A   1      32.987  22.203  23.841  1.00  0.00     0.261 C 
BRANCH   3   4
ATOM      4  O   UNL A   1      32.715  23.472  24.461  1.00  0.00    -0.459 OA
BRANCH   4   5
ATOM      5  C   UNL A   1      31.422  23.876  24.408  1.00  0.00     0.348 C 
ATOM      6  O   UNL A   1      30.613  23.591  23.535  1.00  0.00    -0.245 OA
BRANCH   5   7
ATOM      7  C   UNL A   1      31.029  24.619  25.633  1.00  0.00     0.137 C 
ATOM      8  C   UNL A   1      31.076  25.956  25.766  1.00  0.00     0.035 C 
BRANCH   7   9
ATOM      9  C   UNL A   1      30.318  23.712  26.624  1.00  0.00     0.107 C 
ATOM     10  N   UNL A   1      29.728  22.959  27.445  1.00  0.00    -0.192 NA
ENDBRANCH   7   9
BRANCH   8  11
ATOM     11  C   UNL A   1      31.534  26.895  24.725  1.00  0.00    -0.020 A 
ATOM     12  C   UNL A   1      32.902  27.131  24.567  1.00  0.00     0.008 A 
ATOM     13  C   UNL A   1      30.622  27.601  23.915  1.00  0.00     0.054 A 
ATOM     14  C   UNL A   1      33.351  28.016  23.586  1.00  0.00     0.004 A 
ATOM     15  C   UNL A   1      31.063  28.445  22.898  1.00  0.00     0.120 A 
ATOM     16  C   UNL A   1      32.435  28.659  22.753  1.00  0.00     0.046 A 
BRANCH  15  17
ATOM     17  O   UNL A   1      30.285  29.133  22.017  1.00  0.00    -0.490 OA
BRANCH  17  18
ATOM     18  C   UNL A   1      29.080  29.800  22.384  1.00  0.00     0.173 C 
ATOM     19  C   UNL A   1      29.163  30.832  23.507  1.00  0.00     0.045 C 
ATOM     20  C   UNL A   1      28.314  30.456  21.230  1.00  0.00     0.045 C 
ATOM     21  C   UNL A   1      27.937  31.703  23.282  1.00  0.00     0.004 C 
ATOM     22  C   UNL A   1      27.833  31.804  21.766  1.00  0.00     0.004 C 
ENDBRANCH  17  18
ENDBRANCH  15  17
ENDBRANCH   8  11
ENDBRANCH   5   7
ENDBRANCH   4   5
ENDBRANCH   3   4
ENDBRANCH   2   3
ENDBRANCH   1   2
BRANCH   1  23
ATOM     23  C   UNL A   1      35.322  20.967  24.686  1.00  0.00     0.202 C 
BRANCH  23  24
ATOM     24  C   UNL A   1      36.497  21.167  25.655  1.00  0.00     0.261 C 
BRANCH  24  25
ATOM     25  O   UNL A   1      37.740  21.522  25.013  1.00  0.00    -0.460 OA
BRANCH  25  26
ATOM     26  C   UNL A   1      38.846  21.276  25.757  1.00  0.00     0.338 C 
ATOM     27  O   UNL A   1      39.489  20.230  25.784  1.00  0.00    -0.246 OA
BRANCH  26  28
ATOM     28  C   UNL A   1      39.300  22.468  26.492  1.00  0.00     0.060 A 
ATOM     29  C   UNL A   1      38.776  23.713  26.120  1.00  0.00     0.016 A 
ATOM     30  C   UNL A   1      40.384  22.392  27.369  1.00  0.00     0.016 A 
ATOM     31  C   UNL A   1      39.372  24.889  26.580  1.00  0.00     0.010 A 
ATOM     32  C   UNL A   1      40.983  23.574  27.824  1.00  0.00     0.010 A 
ATOM     33  C   UNL A   1      40.509  24.829  27.396  1.00  0.00    -0.014 A 
BRANCH  33  34
ATOM     34  C   UNL A   1      41.294  26.062  27.673  1.00  0.00     0.031 A 
ATOM     35  C   UNL A   1      40.654  27.185  28.449  1.00  0.00     0.074 A 
ATOM     36  C   UNL A   1      42.567  26.179  27.256  1.00  0.00     0.049 A 
ATOM     37  N   UNL A   1      41.131  28.365  28.753  1.00  0.00    -0.248 NA
ATOM     38  C   UNL A   1      39.289  26.943  28.941  1.00  0.00     0.031 C 
ATOM     39  C   UNL A   1      43.317  25.152  26.536  1.00  0.00     0.029 A 
ATOM     40  N   UNL A   1      43.450  27.224  27.371  1.00  0.00    -0.354 N 
ATOM     41  C   UNL A   1      40.126  29.011  29.467  1.00  0.00     0.074 A 
ATOM     42  C   UNL A   1      39.002  28.098  29.523  1.00  0.00     0.031 C 
ATOM     43  C   UNL A   1      44.547  25.623  26.263  1.00  0.00     0.029 A 
ATOM     44  C   UNL A   1      44.658  26.995  26.756  1.00  0.00     0.049 A 
ATOM     45  H   UNL A   1      43.238  28.058  27.849  1.00  0.00     0.167 HD
ATOM     46  C   UNL A   1      40.139  30.246  30.031  1.00  0.00     0.034 A 
ATOM     47  C   UNL A   1      45.721  27.808  26.588  1.00  0.00     0.034 A 
ATOM     48  C   UNL A   1      41.260  31.153  29.968  1.00  0.00     0.049 A 
ATOM     49  C   UNL A   1      45.682  29.209  27.147  1.00  0.00     0.074 A 
ATOM     50  C   UNL A   1      41.384  32.413  30.531  1.00  0.00     0.029 A 
ATOM     51  N   UNL A   1      42.447  30.904  29.292  1.00  0.00    -0.354 N 
ATOM     52  N   UNL A   1      44.727  29.805  27.823  1.00  0.00    -0.248 NA
ATOM     53  C   UNL A   1      46.867  30.048  26.916  1.00  0.00     0.031 C 
ATOM     54  C   UNL A   1      42.617  32.951  30.141  1.00  0.00     0.029 A 
ATOM     55  C   UNL A   1      43.292  32.001  29.392  1.00  0.00     0.049 A 
ATOM     56  H   UNL A   1      42.658  30.071  28.812  1.00  0.00     0.167 HD
ATOM     57  C   UNL A   1      45.211  31.076  28.123  1.00  0.00     0.074 A 
ATOM     58  C   UNL A   1      46.541  31.160  27.560  1.00  0.00     0.031 C 
ATOM     59  C   UNL A   1      44.611  32.081  28.811  1.00  0.00     0.034 A 
BRANCH  46  60
ATOM     60  C   UNL A   1      38.875  30.705  30.716  1.00  0.00     0.023 A 
ATOM     61  C   UNL A   1      37.914  31.486  30.052  1.00  0.00     0.031 A 
ATOM     62  C   UNL A   1      38.643  30.378  32.064  1.00  0.00     0.131 A 
ATOM     63  C   UNL A   1      36.799  31.969  30.755  1.00  0.00     0.055 A 
ATOM     64  C   UNL A   1      37.498  30.804  32.738  1.00  0.00     0.041 A 
ATOM     65  F   UNL A   1      39.537  29.652  32.754  1.00  0.00    -0.206 F 
ATOM     66  C   UNL A   1      36.573  31.616  32.088  1.00  0.00     0.022 A 
BRANCH  63  67
ATOM     67  S   UNL A   1      35.717  33.179  29.943  1.00  0.00     0.124 S 
ATOM     68  O   UNL A   1      35.667  34.247  30.938  1.00  0.00    -0.237 OA
ATOM     69  O   UNL A   1      36.447  33.479  28.717  1.00  0.00    -0.237 OA
ATOM     70  O   UNL A   1      34.464  32.449  29.760  1.00  0.00    -0.744 OA
ENDBRANCH  63  67
ENDBRANCH  46  60
BRANCH  47  71
ATOM     71  C   UNL A   1      46.905  27.343  25.813  1.00  0.00     0.023 A 
ATOM     72  C   UNL A   1      47.128  27.777  24.498  1.00  0.00     0.031 A 
ATOM     73  C   UNL A   1      47.801  26.409  26.363  1.00  0.00     0.131 A 
ATOM     74  C   UNL A   1      48.198  27.249  23.760  1.00  0.00     0.055 A 
ATOM     75  C   UNL A   1      48.892  25.921  25.642  1.00  0.00     0.041 A 
ATOM     76  F   UNL A   1      47.629  25.962  27.617  1.00  0.00    -0.206 F 
ATOM     77  C   UNL A   1      49.088  26.332  24.327  1.00  0.00     0.022 A 
BRANCH  74  78
ATOM     78  S   UNL A   1      48.375  27.727  22.020  1.00  0.00     0.124 S 
ATOM     79  O   UNL A   1      47.138  28.464  21.787  1.00  0.00    -0.237 OA
ATOM     80  O   UNL A   1      49.600  28.520  22.046  1.00  0.00    -0.237 OA
ATOM     81  O   UNL A   1      48.480  26.447  21.324  1.00  0.00    -0.744 OA
ENDBRANCH  74  78
ENDBRANCH  47  71
BRANCH  59  82
ATOM     82  C   UNL A   1      45.415  33.340  29.026  1.00  0.00     0.023 A 
ATOM     83  C   UNL A   1      45.429  34.380  28.081  1.00  0.00     0.031 A 
ATOM     84  C   UNL A   1      46.190  33.492  30.190  1.00  0.00     0.131 A 
ATOM     85  C   UNL A   1      46.242  35.505  28.292  1.00  0.00     0.055 A 
ATOM     86  C   UNL A   1      46.957  34.635  30.419  1.00  0.00     0.041 A 
ATOM     87  F   UNL A   1      46.213  32.529  31.125  1.00  0.00    -0.206 F 
ATOM     88  C   UNL A   1      46.995  35.645  29.462  1.00  0.00     0.022 A 
BRANCH  85  89
ATOM     89  S   UNL A   1      46.363  36.756  26.983  1.00  0.00     0.124 S 
ATOM     90  O   UNL A   1      47.348  37.680  27.536  1.00  0.00    -0.237 OA
ATOM     91  O   UNL A   1      46.803  35.966  25.837  1.00  0.00    -0.237 OA
ATOM     92  O   UNL A   1      45.004  37.284  26.884  1.00  0.00    -0.744 OA
ENDBRANCH  85  89
ENDBRANCH  59  82
ENDBRANCH  33  34
ENDBRANCH  26  28
ENDBRANCH  25  26
ENDBRANCH  24  25
ENDBRANCH  23  24
ENDBRANCH   1  23
TORSDOF 21
ENDMDL
MODEL 3
REMARK VINA RESULT:     -11.1      4.517      7.329
REMARK SMILES N#C/C(=C/c1cccc(OC2CCCC2)c1)C(=O)OCCOCCOC(=O)c1ccc(-c2c3nc(c(-c4cc(S(=O)(=O)[O-])ccc4F)c4ccc([nH]4)c(-c4cc(S(=O)(=O)[O-])ccc4F)c4nc(c(-c5cc(S(=O)(=O)[O-])ccc5F)c5ccc2[nH]5)C=C4)C=C3)cc1
REMARK SMILES IDX 22 1 21 2 20 3 19 4 17 5 18 6 3 7 4 8 2 9 1 10 5 11 6 12
REMARK SMILES IDX 16 13 7 14 9 15 8 16 10 17 11 18 12 19 15 20 13 21 14 22
REMARK SMILES IDX 23 23 24 24 25 25 26 26 27 27 28 28 29 29 90 30 30 31 89 32
REMARK SMILES IDX 31 33 32 34 33 35 83 36 34 37 88 38 82 39 84 40 35 41 87 42
REMARK SMILES IDX 81 43 80 44 36 46 68 47 48 48 67 49 49 50 52 51 66 52 85 53
REMARK SMILES IDX 50 54 51 55 65 57 86 58 53 59 37 60 38 61 46 62 39 63 45 64
REMARK SMILES IDX 47 65 44 66 40 67 41 68 42 69 43 70 69 71 70 72 78 73 71 74
REMARK SMILES IDX 77 75 79 76 76 77 72 78 73 79 74 80 75 81 54 82 55 83 63 84
REMARK SMILES IDX 56 85 62 86 64 87 61 88 57 89 58 90 59 91 60 92
REMARK H PARENT 84 45 52 56
REMARK Flexibility Score: inf
ROOT
ATOM      1  O   UNL A   1      34.684  21.472  26.021  1.00  0.00    -0.374 OA
ENDROOT
BRANCH   1   2
ATOM      2  C   UNL A   1      33.302  21.778  25.864  1.00  0.00     0.202 C 
BRANCH   2   3
ATOM      3  C   UNL A   1      32.858  22.216  24.466  1.00  0.00     0.261 C 
BRANCH   3   4
ATOM      4  O   UNL A   1      32.596  23.628  24.394  1.00  0.00    -0.459 OA
BRANCH   4   5
ATOM      5  C   UNL A   1      31.286  23.974  24.410  1.00  0.00     0.348 C 
ATOM      6  O   UNL A   1      30.449  23.671  23.570  1.00  0.00    -0.245 OA
BRANCH   5   7
ATOM      7  C   UNL A   1      30.919  24.672  25.669  1.00  0.00     0.137 C 
ATOM      8  C   UNL A   1      30.904  26.007  25.828  1.00  0.00     0.035 C 
BRANCH   7   9
ATOM      9  C   UNL A   1      30.307  23.711  26.675  1.00  0.00     0.107 C 
ATOM     10  N   UNL A   1      29.799  22.913  27.509  1.00  0.00    -0.192 NA
ENDBRANCH   7   9
BRANCH   8  11
ATOM     11  C   UNL A   1      31.260  26.988  24.786  1.00  0.00    -0.020 A 
ATOM     12  C   UNL A   1      32.583  27.421  24.674  1.00  0.00     0.008 A 
ATOM     13  C   UNL A   1      30.287  27.539  23.928  1.00  0.00     0.054 A 
ATOM     14  C   UNL A   1      32.936  28.349  23.692  1.00  0.00     0.004 A 
ATOM     15  C   UNL A   1      30.639  28.424  22.911  1.00  0.00     0.120 A 
ATOM     16  C   UNL A   1      31.969  28.836  22.812  1.00  0.00     0.046 A 
BRANCH  15  17
ATOM     17  O   UNL A   1      29.804  28.976  21.988  1.00  0.00    -0.490 OA
BRANCH  17  18
ATOM     18  C   UNL A   1      29.431  30.351  21.985  1.00  0.00     0.173 C 
ATOM     19  C   UNL A   1      28.337  30.780  21.009  1.00  0.00     0.045 C 
ATOM     20  C   UNL A   1      29.062  30.936  23.353  1.00  0.00     0.045 C 
ATOM     21  C   UNL A   1      27.811  32.075  21.608  1.00  0.00     0.004 C 
ATOM     22  C   UNL A   1      27.841  31.822  23.109  1.00  0.00     0.004 C 
ENDBRANCH  17  18
ENDBRANCH  15  17
ENDBRANCH   8  11
ENDBRANCH   5   7
ENDBRANCH   4   5
ENDBRANCH   3   4
ENDBRANCH   2   3
ENDBRANCH   1   2
BRANCH   1  23
ATOM     23  C   UNL A   1      35.456  21.245  24.842  1.00  0.00     0.202 C 
BRANCH  23  24
ATOM     24  C   UNL A   1      36.764  20.451  24.980  1.00  0.00     0.261 C 
BRANCH  24  25
ATOM     25  O   UNL A   1      37.959  21.249  24.849  1.00  0.00    -0.460 OA
BRANCH  25  26
ATOM     26  C   UNL A   1      38.940  20.940  25.731  1.00  0.00     0.338 C 
ATOM     27  O   UNL A   1      39.500  19.853  25.845  1.00  0.00    -0.246 OA
BRANCH  26  28
ATOM     28  C   UNL A   1      39.377  22.108  26.512  1.00  0.00     0.060 A 
ATOM     29  C   UNL A   1      38.843  23.361  26.182  1.00  0.00     0.016 A 
ATOM     30  C   UNL A   1      40.456  22.011  27.393  1.00  0.00     0.016 A 
ATOM     31  C   UNL A   1      39.424  24.525  26.689  1.00  0.00     0.010 A 
ATOM     32  C   UNL A   1      41.040  23.181  27.895  1.00  0.00     0.010 A 
ATOM     33  C   UNL A   1      40.557  24.445  27.511  1.00  0.00    -0.014 A 
BRANCH  33  34
ATOM     34  C   UNL A   1      41.327  25.676  27.838  1.00  0.00     0.031 A 
ATOM     35  C   UNL A   1      40.652  26.787  28.600  1.00  0.00     0.074 A 
ATOM     36  C   UNL A   1      42.616  25.799  27.478  1.00  0.00     0.049 A 
ATOM     37  N   UNL A   1      41.114  27.964  28.941  1.00  0.00    -0.248 NA
ATOM     38  C   UNL A   1      39.267  26.538  29.029  1.00  0.00     0.031 C 
ATOM     39  C   UNL A   1      43.399  24.781  26.779  1.00  0.00     0.029 A 
ATOM     40  N   UNL A   1      43.493  26.842  27.646  1.00  0.00    -0.354 N 
ATOM     41  C   UNL A   1      40.078  28.599  29.618  1.00  0.00     0.074 A 
ATOM     42  C   UNL A   1      38.954  27.686  29.612  1.00  0.00     0.031 C 
ATOM     43  C   UNL A   1      44.639  25.257  26.566  1.00  0.00     0.029 A 
ATOM     44  C   UNL A   1      44.726  26.622  27.082  1.00  0.00     0.049 A 
ATOM     45  H   UNL A   1      43.259  27.670  28.125  1.00  0.00     0.167 HD
ATOM     46  C   UNL A   1      40.065  29.826  30.198  1.00  0.00     0.034 A 
ATOM     47  C   UNL A   1      45.795  27.438  26.972  1.00  0.00     0.034 A 
ATOM     48  C   UNL A   1      41.187  30.735  30.198  1.00  0.00     0.049 A 
ATOM     49  C   UNL A   1      45.730  28.832  27.547  1.00  0.00     0.074 A 
ATOM     50  C   UNL A   1      41.284  31.987  30.782  1.00  0.00     0.029 A 
ATOM     51  N   UNL A   1      42.402  30.496  29.571  1.00  0.00    -0.354 N 
ATOM     52  N   UNL A   1      44.746  29.418  28.188  1.00  0.00    -0.248 NA
ATOM     53  C   UNL A   1      46.923  29.675  27.379  1.00  0.00     0.031 C 
ATOM     54  C   UNL A   1      42.533  32.531  30.453  1.00  0.00     0.029 A 
ATOM     55  C   UNL A   1      43.241  31.592  29.722  1.00  0.00     0.049 A 
ATOM     56  H   UNL A   1      42.635  29.670  29.090  1.00  0.00     0.167 HD
ATOM     57  C   UNL A   1      45.214  30.685  28.526  1.00  0.00     0.074 A 
ATOM     58  C   UNL A   1      46.568  30.778  28.023  1.00  0.00     0.031 C 
ATOM     59  C   UNL A   1      44.584  31.681  29.201  1.00  0.00     0.034 A 
BRANCH  46  60
ATOM     60  C   UNL A   1      38.772  30.276  30.834  1.00  0.00     0.023 A 
ATOM     61  C   UNL A   1      37.816  31.021  30.122  1.00  0.00     0.031 A 
ATOM     62  C   UNL A   1      38.505  29.976  32.182  1.00  0.00     0.131 A 
ATOM     63  C   UNL A   1      36.671  31.498  30.780  1.00  0.00     0.055 A 
ATOM     64  C   UNL A   1      37.331  30.394  32.811  1.00  0.00     0.041 A 
ATOM     65  F   UNL A   1      39.391  29.284  32.916  1.00  0.00    -0.206 F 
ATOM     66  C   UNL A   1      36.411  31.172  32.113  1.00  0.00     0.022 A 
BRANCH  63  67
ATOM     67  S   UNL A   1      35.591  32.666  29.906  1.00  0.00     0.124 S 
ATOM     68  O   UNL A   1      34.355  32.562  30.679  1.00  0.00    -0.237 OA
ATOM     69  O   UNL A   1      36.320  33.922  30.031  1.00  0.00    -0.237 OA
ATOM     70  O   UNL A   1      35.518  32.118  28.552  1.00  0.00    -0.744 OA
ENDBRANCH  63  67
ENDBRANCH  46  60
BRANCH  47  71
ATOM     71  C   UNL A   1      47.013  26.984  26.243  1.00  0.00     0.023 A 
ATOM     72  C   UNL A   1      48.071  26.357  26.918  1.00  0.00     0.031 A 
ATOM     73  C   UNL A   1      47.156  27.227  24.865  1.00  0.00     0.131 A 
ATOM     74  C   UNL A   1      49.243  26.026  26.222  1.00  0.00     0.055 A 
ATOM     75  C   UNL A   1      48.306  26.854  24.168  1.00  0.00     0.041 A 
ATOM     76  F   UNL A   1      46.172  27.826  24.176  1.00  0.00    -0.206 F 
ATOM     77  C   UNL A   1      49.364  26.261  24.850  1.00  0.00     0.022 A 
BRANCH  74  78
ATOM     78  S   UNL A   1      50.643  25.345  27.152  1.00  0.00     0.124 S 
ATOM     79  O   UNL A   1      51.577  25.013  26.082  1.00  0.00    -0.237 OA
ATOM     80  O   UNL A   1      51.017  26.470  28.005  1.00  0.00    -0.237 OA
ATOM     81  O   UNL A   1      50.063  24.202  27.853  1.00  0.00    -0.744 OA
ENDBRANCH  74  78
ENDBRANCH  47  71
BRANCH  59  82
ATOM     82  C   UNL A   1      45.376  32.937  29.468  1.00  0.00     0.023 A 
ATOM     83  C   UNL A   1      46.228  33.054  30.579  1.00  0.00     0.031 A 
ATOM     84  C   UNL A   1      45.261  34.040  28.603  1.00  0.00     0.131 A 
ATOM     85  C   UNL A   1      46.896  34.265  30.824  1.00  0.00     0.055 A 
ATOM     86  C   UNL A   1      45.966  35.223  28.822  1.00  0.00     0.041 A 
ATOM     87  F   UNL A   1      44.461  33.982  27.526  1.00  0.00    -0.206 F 
ATOM     88  C   UNL A   1      46.781  35.345  29.944  1.00  0.00     0.022 A 
BRANCH  85  89
ATOM     89  S   UNL A   1      47.862  34.439  32.350  1.00  0.00     0.124 S 
ATOM     90  O   UNL A   1      47.054  35.385  33.114  1.00  0.00    -0.237 OA
ATOM     91  O   UNL A   1      47.892  33.071  32.858  1.00  0.00    -0.237 OA
ATOM     92  O   UNL A   1      49.148  34.955  31.887  1.00  0.00    -0.744 OA
ENDBRANCH  85  89
ENDBRANCH  59  82
ENDBRANCH  33  34
ENDBRANCH  26  28
ENDBRANCH  25  26
ENDBRANCH  24  25
ENDBRANCH  23  24
ENDBRANCH   1  23
TORSDOF 21
ENDMDL
