MODEL 1
REMARK VINA RESULT:     -11.3      0.000      0.000
REMARK SMILES C[C@@H](C(=O)OCCOCCOC(=O)c1ccc(-c2c3nc(c(-c4cc(S(=O)(=O)[O-])ccc4F)c4ccc([nH]4)c(-c4cc(S(=O)(=O)[O-])ccc4F)c4nc(c(-c5cc(S(=O)(=O)[O-])ccc5F)c5ccc2[nH]5)C=C4)C=C3)cc1)c1ccccc1-c1ccn(C(F)F)c(=O)c1
REMARK SMILES IDX 8 1 7 2 6 3 5 4 3 5 4 6 2 7 1 8 77 9 78 10 82 11 79 12 81 13
REMARK SMILES IDX 80 14 83 15 84 16 92 17 85 18 90 19 86 20 91 21 87 22 88 23
REMARK SMILES IDX 89 24 9 25 10 26 11 27 12 28 13 29 14 30 15 31 76 32 16 33
REMARK SMILES IDX 75 34 17 35 18 36 19 37 69 38 20 39 74 40 68 41 70 42 21 43
REMARK SMILES IDX 73 44 67 45 66 46 22 48 54 49 34 50 53 51 35 52 38 53 52 54
REMARK SMILES IDX 71 55 36 56 37 57 51 59 72 60 39 61 23 62 24 63 32 64 25 65
REMARK SMILES IDX 31 66 33 67 30 68 26 69 27 70 28 71 29 72 55 73 56 74 64 75
REMARK SMILES IDX 57 76 63 77 65 78 62 79 58 80 59 81 60 82 61 83 40 84 41 85
REMARK SMILES IDX 49 86 42 87 48 88 50 89 47 90 43 91 44 92 45 93 46 94
REMARK H PARENT 70 47 38 58
REMARK Flexibility Score: inf
ROOT
ATOM      1  O   UNL A   1      31.868  30.748  25.982  1.00  0.00    -0.374 OA
ENDROOT
BRANCH   1   2
ATOM      2  C   UNL A   1      33.161  30.425  26.488  1.00  0.00     0.202 C 
BRANCH   2   3
ATOM      3  C   UNL A   1      33.922  29.243  25.875  1.00  0.00     0.261 C 
BRANCH   3   4
ATOM      4  O   UNL A   1      33.093  28.377  25.084  1.00  0.00    -0.463 OA
BRANCH   4   5
ATOM      5  C   UNL A   1      32.493  27.402  25.817  1.00  0.00     0.313 C 
ATOM      6  O   UNL A   1      32.959  26.978  26.871  1.00  0.00    -0.252 OA
BRANCH   5   7
ATOM      7  C   UNL A   1      31.181  26.898  25.192  1.00  0.00     0.127 C 
ATOM      8  C   UNL A   1      30.326  26.064  26.155  1.00  0.00     0.025 C 
BRANCH   7   9
ATOM      9  C   UNL A   1      31.532  26.184  23.875  1.00  0.00    -0.026 A 
ATOM     10  C   UNL A   1      32.371  25.053  23.878  1.00  0.00     0.005 A 
ATOM     11  C   UNL A   1      31.189  26.773  22.626  1.00  0.00    -0.014 A 
ATOM     12  C   UNL A   1      32.883  24.537  22.688  1.00  0.00     0.000 A 
ATOM     13  C   UNL A   1      31.724  26.250  21.442  1.00  0.00     0.009 A 
ATOM     14  C   UNL A   1      32.573  25.143  21.475  1.00  0.00     0.001 A 
BRANCH  11  15
ATOM     15  C   UNL A   1      30.286  27.944  22.552  1.00  0.00    -0.011 A 
ATOM     16  C   UNL A   1      30.745  29.299  22.317  1.00  0.00     0.027 A 
ATOM     17  C   UNL A   1      28.995  27.740  22.866  1.00  0.00     0.080 A 
ATOM     18  C   UNL A   1      29.971  30.339  22.641  1.00  0.00     0.095 A 
ATOM     19  C   UNL A   1      28.078  28.893  23.083  1.00  0.00     0.255 A 
ATOM     20  N   UNL A   1      28.674  30.145  23.079  1.00  0.00    -0.258 N 
ATOM     21  O   UNL A   1      26.893  28.663  23.299  1.00  0.00    -0.269 OA
BRANCH  20  22
ATOM     22  C   UNL A   1      27.859  31.268  23.463  1.00  0.00     0.451 C 
ATOM     23  F   UNL A   1      28.607  32.221  24.068  1.00  0.00    -0.185 F 
ATOM     24  F   UNL A   1      27.257  31.829  22.385  1.00  0.00    -0.185 F 
ENDBRANCH  20  22
ENDBRANCH  11  15
ENDBRANCH   7   9
ENDBRANCH   5   7
ENDBRANCH   4   5
ENDBRANCH   3   4
ENDBRANCH   2   3
ENDBRANCH   1   2
BRANCH   1  25
ATOM     25  C   UNL A   1      31.183  31.867  26.543  1.00  0.00     0.202 C 
BRANCH  25  26
ATOM     26  C   UNL A   1      31.945  33.189  26.679  1.00  0.00     0.261 C 
BRANCH  26  27
ATOM     27  O   UNL A   1      32.290  33.476  28.045  1.00  0.00    -0.460 OA
BRANCH  27  28
ATOM     28  C   UNL A   1      33.388  34.257  28.186  1.00  0.00     0.338 C 
ATOM     29  O   UNL A   1      33.409  35.478  28.282  1.00  0.00    -0.246 OA
BRANCH  28  30
ATOM     30  C   UNL A   1      34.578  33.423  28.444  1.00  0.00     0.060 A 
ATOM     31  C   UNL A   1      34.363  32.177  29.050  1.00  0.00     0.016 A 
ATOM     32  C   UNL A   1      35.873  33.858  28.154  1.00  0.00     0.016 A 
ATOM     33  C   UNL A   1      35.444  31.390  29.432  1.00  0.00     0.010 A 
ATOM     34  C   UNL A   1      36.959  33.071  28.551  1.00  0.00     0.010 A 
ATOM     35  C   UNL A   1      36.748  31.856  29.232  1.00  0.00    -0.014 A 
BRANCH  35  36
ATOM     36  C   UNL A   1      37.870  31.164  29.911  1.00  0.00     0.031 A 
ATOM     37  C   UNL A   1      38.138  31.480  31.358  1.00  0.00     0.074 A 
ATOM     38  C   UNL A   1      38.597  30.231  29.271  1.00  0.00     0.049 A 
ATOM     39  N   UNL A   1      39.074  31.025  32.150  1.00  0.00    -0.248 NA
ATOM     40  C   UNL A   1      37.225  32.443  31.993  1.00  0.00     0.031 C 
ATOM     41  C   UNL A   1      38.388  29.802  27.889  1.00  0.00     0.029 A 
ATOM     42  N   UNL A   1      39.659  29.477  29.702  1.00  0.00    -0.354 N 
ATOM     43  C   UNL A   1      38.865  31.647  33.377  1.00  0.00     0.074 A 
ATOM     44  C   UNL A   1      37.740  32.543  33.209  1.00  0.00     0.031 C 
ATOM     45  C   UNL A   1      39.303  28.866  27.582  1.00  0.00     0.029 A 
ATOM     46  C   UNL A   1      40.185  28.660  28.730  1.00  0.00     0.049 A 
ATOM     47  H   UNL A   1      40.012  29.517  30.620  1.00  0.00     0.167 HD
ATOM     48  C   UNL A   1      39.542  31.478  34.539  1.00  0.00     0.034 A 
ATOM     49  C   UNL A   1      41.270  27.859  28.757  1.00  0.00     0.034 A 
ATOM     50  C   UNL A   1      40.669  30.589  34.684  1.00  0.00     0.049 A 
ATOM     51  C   UNL A   1      42.070  27.758  30.035  1.00  0.00     0.074 A 
ATOM     52  C   UNL A   1      41.429  30.336  35.812  1.00  0.00     0.029 A 
ATOM     53  N   UNL A   1      41.208  29.815  33.662  1.00  0.00    -0.354 N 
ATOM     54  N   UNL A   1      41.865  28.352  31.189  1.00  0.00    -0.248 NA
ATOM     55  C   UNL A   1      43.241  26.872  30.015  1.00  0.00     0.031 C 
ATOM     56  C   UNL A   1      42.469  29.470  35.456  1.00  0.00     0.029 A 
ATOM     57  C   UNL A   1      42.310  29.113  34.126  1.00  0.00     0.049 A 
ATOM     58  H   UNL A   1      40.858  29.772  32.743  1.00  0.00     0.167 HD
ATOM     59  C   UNL A   1      42.865  27.885  32.039  1.00  0.00     0.074 A 
ATOM     60  C   UNL A   1      43.660  26.952  31.269  1.00  0.00     0.031 C 
ATOM     61  C   UNL A   1      43.101  28.194  33.341  1.00  0.00     0.034 A 
BRANCH  48  62
ATOM     62  C   UNL A   1      39.113  32.314  35.720  1.00  0.00     0.023 A 
ATOM     63  C   UNL A   1      39.561  33.636  35.897  1.00  0.00     0.031 A 
ATOM     64  C   UNL A   1      38.271  31.769  36.706  1.00  0.00     0.131 A 
ATOM     65  C   UNL A   1      39.226  34.339  37.066  1.00  0.00     0.055 A 
ATOM     66  C   UNL A   1      37.874  32.502  37.826  1.00  0.00     0.041 A 
ATOM     67  F   UNL A   1      37.833  30.504  36.606  1.00  0.00    -0.206 F 
ATOM     68  C   UNL A   1      38.364  33.790  38.019  1.00  0.00     0.022 A 
BRANCH  65  69
ATOM     69  S   UNL A   1      40.052  35.920  37.394  1.00  0.00     0.124 S 
ATOM     70  O   UNL A   1      39.311  36.404  38.556  1.00  0.00    -0.237 OA
ATOM     71  O   UNL A   1      41.430  35.511  37.640  1.00  0.00    -0.237 OA
ATOM     72  O   UNL A   1      39.836  36.681  36.166  1.00  0.00    -0.744 OA
ENDBRANCH  65  69
ENDBRANCH  48  62
BRANCH  49  73
ATOM     73  C   UNL A   1      41.697  27.126  27.531  1.00  0.00     0.023 A 
ATOM     74  C   UNL A   1      41.596  25.729  27.443  1.00  0.00     0.031 A 
ATOM     75  C   UNL A   1      42.268  27.815  26.445  1.00  0.00     0.131 A 
ATOM     76  C   UNL A   1      42.098  25.061  26.314  1.00  0.00     0.055 A 
ATOM     77  C   UNL A   1      42.715  27.152  25.301  1.00  0.00     0.041 A 
ATOM     78  F   UNL A   1      42.390  29.151  26.477  1.00  0.00    -0.206 F 
ATOM     79  C   UNL A   1      42.644  25.764  25.237  1.00  0.00     0.022 A 
BRANCH  76  80
ATOM     80  S   UNL A   1      42.104  23.248  26.307  1.00  0.00     0.124 S 
ATOM     81  O   UNL A   1      42.925  22.950  27.476  1.00  0.00    -0.237 OA
ATOM     82  O   UNL A   1      40.683  22.941  26.427  1.00  0.00    -0.237 OA
ATOM     83  O   UNL A   1      42.706  22.914  25.019  1.00  0.00    -0.744 OA
ENDBRANCH  76  80
ENDBRANCH  49  73
BRANCH  61  84
ATOM     84  C   UNL A   1      44.242  27.476  34.023  1.00  0.00     0.023 A 
ATOM     85  C   UNL A   1      44.035  26.326  34.804  1.00  0.00     0.031 A 
ATOM     86  C   UNL A   1      45.557  27.958  33.894  1.00  0.00     0.131 A 
ATOM     87  C   UNL A   1      45.116  25.730  35.472  1.00  0.00     0.055 A 
ATOM     88  C   UNL A   1      46.638  27.324  34.507  1.00  0.00     0.041 A 
ATOM     89  F   UNL A   1      45.814  29.053  33.161  1.00  0.00    -0.206 F 
ATOM     90  C   UNL A   1      46.418  26.211  35.313  1.00  0.00     0.022 A 
BRANCH  87  91
ATOM     91  S   UNL A   1      44.786  24.373  36.629  1.00  0.00     0.124 S 
ATOM     92  O   UNL A   1      46.122  24.077  37.137  1.00  0.00    -0.237 OA
ATOM     93  O   UNL A   1      43.865  24.990  37.579  1.00  0.00    -0.237 OA
ATOM     94  O   UNL A   1      44.199  23.335  35.784  1.00  0.00    -0.744 OA
ENDBRANCH  87  91
ENDBRANCH  61  84
ENDBRANCH  35  36
ENDBRANCH  28  30
ENDBRANCH  27  28
ENDBRANCH  26  27
ENDBRANCH  25  26
ENDBRANCH   1  25
TORSDOF 20
ENDMDL
MODEL 2
REMARK VINA RESULT:     -11.2      2.336      3.284
REMARK SMILES C[C@@H](C(=O)OCCOCCOC(=O)c1ccc(-c2c3nc(c(-c4cc(S(=O)(=O)[O-])ccc4F)c4ccc([nH]4)c(-c4cc(S(=O)(=O)[O-])ccc4F)c4nc(c(-c5cc(S(=O)(=O)[O-])ccc5F)c5ccc2[nH]5)C=C4)C=C3)cc1)c1ccccc1-c1ccn(C(F)F)c(=O)c1
REMARK SMILES IDX 8 1 7 2 6 3 5 4 3 5 4 6 2 7 1 8 77 9 78 10 82 11 79 12 81 13
REMARK SMILES IDX 80 14 83 15 84 16 92 17 85 18 90 19 86 20 91 21 87 22 88 23
REMARK SMILES IDX 89 24 9 25 10 26 11 27 12 28 13 29 14 30 15 31 76 32 16 33
REMARK SMILES IDX 75 34 17 35 18 36 19 37 69 38 20 39 74 40 68 41 70 42 21 43
REMARK SMILES IDX 73 44 67 45 66 46 22 48 54 49 34 50 53 51 35 52 38 53 52 54
REMARK SMILES IDX 71 55 36 56 37 57 51 59 72 60 39 61 23 62 24 63 32 64 25 65
REMARK SMILES IDX 31 66 33 67 30 68 26 69 27 70 28 71 29 72 55 73 56 74 64 75
REMARK SMILES IDX 57 76 63 77 65 78 62 79 58 80 59 81 60 82 61 83 40 84 41 85
REMARK SMILES IDX 49 86 42 87 48 88 50 89 47 90 43 91 44 92 45 93 46 94
REMARK H PARENT 70 47 38 58
REMARK Flexibility Score: inf
ROOT
ATOM      1  O   UNL A   1      31.535  29.897  27.269  1.00  0.00    -0.374 OA
ENDROOT
BRANCH   1   2
ATOM      2  C   UNL A   1      32.531  28.879  27.206  1.00  0.00     0.202 C 
BRANCH   2   3
ATOM      3  C   UNL A   1      32.282  27.654  26.317  1.00  0.00     0.261 C 
BRANCH   3   4
ATOM      4  O   UNL A   1      33.397  27.325  25.472  1.00  0.00    -0.463 OA
BRANCH   4   5
ATOM      5  C   UNL A   1      33.245  27.773  24.198  1.00  0.00     0.313 C 
ATOM      6  O   UNL A   1      33.570  28.904  23.845  1.00  0.00    -0.252 OA
BRANCH   5   7
ATOM      7  C   UNL A   1      32.633  26.721  23.257  1.00  0.00     0.127 C 
ATOM      8  C   UNL A   1      33.325  26.648  21.890  1.00  0.00     0.025 C 
BRANCH   7   9
ATOM      9  C   UNL A   1      31.118  26.977  23.188  1.00  0.00    -0.026 A 
ATOM     10  C   UNL A   1      30.625  28.231  22.780  1.00  0.00     0.005 A 
ATOM     11  C   UNL A   1      30.205  26.030  23.729  1.00  0.00    -0.014 A 
ATOM     12  C   UNL A   1      29.276  28.555  22.932  1.00  0.00     0.000 A 
ATOM     13  C   UNL A   1      28.856  26.377  23.887  1.00  0.00     0.009 A 
ATOM     14  C   UNL A   1      28.398  27.637  23.498  1.00  0.00     0.001 A 
BRANCH  11  15
ATOM     15  C   UNL A   1      30.654  24.683  24.147  1.00  0.00    -0.011 A 
ATOM     16  C   UNL A   1      30.949  24.325  25.520  1.00  0.00     0.027 A 
ATOM     17  C   UNL A   1      30.936  23.803  23.171  1.00  0.00     0.080 A 
ATOM     18  C   UNL A   1      31.704  23.255  25.791  1.00  0.00     0.095 A 
ATOM     19  C   UNL A   1      31.646  22.531  23.480  1.00  0.00     0.255 A 
ATOM     20  N   UNL A   1      32.104  22.399  24.782  1.00  0.00    -0.258 N 
ATOM     21  O   UNL A   1      31.822  21.726  22.571  1.00  0.00    -0.269 OA
BRANCH  20  22
ATOM     22  C   UNL A   1      32.949  21.271  25.076  1.00  0.00     0.451 C 
ATOM     23  F   UNL A   1      32.290  20.108  24.860  1.00  0.00    -0.185 F 
ATOM     24  F   UNL A   1      34.061  21.275  24.300  1.00  0.00    -0.185 F 
ENDBRANCH  20  22
ENDBRANCH  11  15
ENDBRANCH   7   9
ENDBRANCH   5   7
ENDBRANCH   4   5
ENDBRANCH   3   4
ENDBRANCH   2   3
ENDBRANCH   1   2
BRANCH   1  25
ATOM     25  C   UNL A   1      31.610  30.974  26.336  1.00  0.00     0.202 C 
BRANCH  25  26
ATOM     26  C   UNL A   1      31.551  32.406  26.877  1.00  0.00     0.261 C 
BRANCH  26  27
ATOM     27  O   UNL A   1      32.803  33.095  26.724  1.00  0.00    -0.460 OA
BRANCH  27  28
ATOM     28  C   UNL A   1      33.317  33.573  27.883  1.00  0.00     0.338 C 
ATOM     29  O   UNL A   1      32.752  34.306  28.685  1.00  0.00    -0.246 OA
BRANCH  28  30
ATOM     30  C   UNL A   1      34.597  32.905  28.188  1.00  0.00     0.060 A 
ATOM     31  C   UNL A   1      34.553  31.526  28.434  1.00  0.00     0.016 A 
ATOM     32  C   UNL A   1      35.802  33.605  28.282  1.00  0.00     0.016 A 
ATOM     33  C   UNL A   1      35.698  30.852  28.845  1.00  0.00     0.010 A 
ATOM     34  C   UNL A   1      36.950  32.929  28.707  1.00  0.00     0.010 A 
ATOM     35  C   UNL A   1      36.891  31.560  29.033  1.00  0.00    -0.014 A 
BRANCH  35  36
ATOM     36  C   UNL A   1      38.008  30.905  29.756  1.00  0.00     0.031 A 
ATOM     37  C   UNL A   1      38.240  31.268  31.198  1.00  0.00     0.074 A 
ATOM     38  C   UNL A   1      38.762  29.964  29.160  1.00  0.00     0.049 A 
ATOM     39  N   UNL A   1      39.165  30.850  32.023  1.00  0.00    -0.248 NA
ATOM     40  C   UNL A   1      37.300  32.234  31.785  1.00  0.00     0.031 C 
ATOM     41  C   UNL A   1      38.589  29.492  27.787  1.00  0.00     0.029 A 
ATOM     42  N   UNL A   1      39.825  29.239  29.635  1.00  0.00    -0.354 N 
ATOM     43  C   UNL A   1      38.921  31.504  33.226  1.00  0.00     0.074 A 
ATOM     44  C   UNL A   1      37.788  32.378  33.008  1.00  0.00     0.031 C 
ATOM     45  C   UNL A   1      39.523  28.560  27.527  1.00  0.00     0.029 A 
ATOM     46  C   UNL A   1      40.383  28.401  28.699  1.00  0.00     0.049 A 
ATOM     47  H   UNL A   1      40.157  29.312  30.559  1.00  0.00     0.167 HD
ATOM     48  C   UNL A   1      39.576  31.380  34.406  1.00  0.00     0.034 A 
ATOM     49  C   UNL A   1      41.479  27.618  28.773  1.00  0.00     0.034 A 
ATOM     50  C   UNL A   1      40.713  30.512  34.602  1.00  0.00     0.049 A 
ATOM     51  C   UNL A   1      42.252  27.567  30.069  1.00  0.00     0.074 A 
ATOM     52  C   UNL A   1      41.451  30.304  35.753  1.00  0.00     0.029 A 
ATOM     53  N   UNL A   1      41.284  29.717  33.615  1.00  0.00    -0.354 N 
ATOM     54  N   UNL A   1      42.015  28.192  31.200  1.00  0.00    -0.248 NA
ATOM     55  C   UNL A   1      43.436  26.698  30.101  1.00  0.00     0.031 C 
ATOM     56  C   UNL A   1      42.511  29.444  35.444  1.00  0.00     0.029 A 
ATOM     57  C   UNL A   1      42.386  29.046  34.123  1.00  0.00     0.049 A 
ATOM     58  H   UNL A   1      40.954  29.642  32.691  1.00  0.00     0.167 HD
ATOM     59  C   UNL A   1      43.003  27.765  32.085  1.00  0.00     0.074 A 
ATOM     60  C   UNL A   1      43.827  26.821  31.360  1.00  0.00     0.031 C 
ATOM     61  C   UNL A   1      43.207  28.115  33.382  1.00  0.00     0.034 A 
BRANCH  48  62
ATOM     62  C   UNL A   1      39.110  32.244  35.553  1.00  0.00     0.023 A 
ATOM     63  C   UNL A   1      39.542  33.574  35.705  1.00  0.00     0.031 A 
ATOM     64  C   UNL A   1      38.248  31.718  36.533  1.00  0.00     0.131 A 
ATOM     65  C   UNL A   1      39.171  34.306  36.845  1.00  0.00     0.055 A 
ATOM     66  C   UNL A   1      37.816  32.478  37.621  1.00  0.00     0.041 A 
ATOM     67  F   UNL A   1      37.823  30.447  36.456  1.00  0.00    -0.206 F 
ATOM     68  C   UNL A   1      38.290  33.776  37.791  1.00  0.00     0.022 A 
BRANCH  65  69
ATOM     69  S   UNL A   1      39.974  35.903  37.150  1.00  0.00     0.124 S 
ATOM     70  O   UNL A   1      39.707  36.611  35.901  1.00  0.00    -0.237 OA
ATOM     71  O   UNL A   1      39.265  36.393  38.327  1.00  0.00    -0.237 OA
ATOM     72  O   UNL A   1      41.374  35.547  37.368  1.00  0.00    -0.744 OA
ENDBRANCH  65  69
ENDBRANCH  48  62
BRANCH  49  73
ATOM     73  C   UNL A   1      41.943  26.856  27.578  1.00  0.00     0.023 A 
ATOM     74  C   UNL A   1      41.730  25.473  27.466  1.00  0.00     0.031 A 
ATOM     75  C   UNL A   1      42.658  27.497  26.551  1.00  0.00     0.131 A 
ATOM     76  C   UNL A   1      42.265  24.769  26.376  1.00  0.00     0.055 A 
ATOM     77  C   UNL A   1      43.141  26.803  25.441  1.00  0.00     0.041 A 
ATOM     78  F   UNL A   1      42.892  28.818  26.608  1.00  0.00    -0.206 F 
ATOM     79  C   UNL A   1      42.957  25.426  25.356  1.00  0.00     0.022 A 
BRANCH  76  80
ATOM     80  S   UNL A   1      42.117  22.962  26.350  1.00  0.00     0.124 S 
ATOM     81  O   UNL A   1      40.694  22.777  26.613  1.00  0.00    -0.237 OA
ATOM     82  O   UNL A   1      42.567  22.642  24.999  1.00  0.00    -0.237 OA
ATOM     83  O   UNL A   1      43.012  22.531  27.421  1.00  0.00    -0.744 OA
ENDBRANCH  76  80
ENDBRANCH  49  73
BRANCH  61  84
ATOM     84  C   UNL A   1      44.343  27.435  34.109  1.00  0.00     0.023 A 
ATOM     85  C   UNL A   1      44.223  26.131  34.619  1.00  0.00     0.031 A 
ATOM     86  C   UNL A   1      45.562  28.110  34.300  1.00  0.00     0.131 A 
ATOM     87  C   UNL A   1      45.282  25.563  35.343  1.00  0.00     0.055 A 
ATOM     88  C   UNL A   1      46.635  27.516  34.966  1.00  0.00     0.041 A 
ATOM     89  F   UNL A   1      45.733  29.358  33.836  1.00  0.00    -0.206 F 
ATOM     90  C   UNL A   1      46.494  26.241  35.504  1.00  0.00     0.022 A 
BRANCH  87  91
ATOM     91  S   UNL A   1      45.024  23.963  36.158  1.00  0.00     0.124 S 
ATOM     92  O   UNL A   1      45.429  24.254  37.530  1.00  0.00    -0.237 OA
ATOM     93  O   UNL A   1      43.598  23.733  35.949  1.00  0.00    -0.237 OA
ATOM     94  O   UNL A   1      45.911  23.059  35.428  1.00  0.00    -0.744 OA
ENDBRANCH  87  91
ENDBRANCH  61  84
ENDBRANCH  35  36
ENDBRANCH  28  30
ENDBRANCH  27  28
ENDBRANCH  26  27
ENDBRANCH  25  26
ENDBRANCH   1  25
TORSDOF 20
ENDMDL
MODEL 3
REMARK VINA RESULT:     -11.2      4.933     10.497
REMARK SMILES C[C@@H](C(=O)OCCOCCOC(=O)c1ccc(-c2c3nc(c(-c4cc(S(=O)(=O)[O-])ccc4F)c4ccc([nH]4)c(-c4cc(S(=O)(=O)[O-])ccc4F)c4nc(c(-c5cc(S(=O)(=O)[O-])ccc5F)c5ccc2[nH]5)C=C4)C=C3)cc1)c1ccccc1-c1ccn(C(F)F)c(=O)c1
REMARK SMILES IDX 8 1 7 2 6 3 5 4 3 5 4 6 2 7 1 8 77 9 78 10 82 11 79 12 81 13
REMARK SMILES IDX 80 14 83 15 84 16 92 17 85 18 90 19 86 20 91 21 87 22 88 23
REMARK SMILES IDX 89 24 9 25 10 26 11 27 12 28 13 29 14 30 15 31 76 32 16 33
REMARK SMILES IDX 75 34 17 35 18 36 19 37 69 38 20 39 74 40 68 41 70 42 21 43
REMARK SMILES IDX 73 44 67 45 66 46 22 48 54 49 34 50 53 51 35 52 38 53 52 54
REMARK SMILES IDX 71 55 36 56 37 57 51 59 72 60 39 61 23 62 24 63 32 64 25 65
REMARK SMILES IDX 31 66 33 67 30 68 26 69 27 70 28 71 29 72 55 73 56 74 64 75
REMARK SMILES IDX 57 76 63 77 65 78 62 79 58 80 59 81 60 82 61 83 40 84 41 85
REMARK SMILES IDX 49 86 42 87 48 88 50 89 47 90 43 91 44 92 45 93 46 94
REMARK H PARENT 70 47 38 58
REMARK Flexibility Score: inf
ROOT
ATOM      1  O   UNL A   1      36.895  20.807  25.438  1.00  0.00    -0.374 OA
ENDROOT
BRANCH   1   2
ATOM      2  C   UNL A   1      36.876  22.173  25.032  1.00  0.00     0.202 C 
BRANCH   2   3
ATOM      3  C   UNL A   1      35.533  22.913  24.983  1.00  0.00     0.261 C 
BRANCH   3   4
ATOM      4  O   UNL A   1      35.026  23.264  26.281  1.00  0.00    -0.463 OA
BRANCH   4   5
ATOM      5  C   UNL A   1      33.972  22.497  26.663  1.00  0.00     0.313 C 
ATOM      6  O   UNL A   1      34.076  21.572  27.464  1.00  0.00    -0.252 OA
BRANCH   5   7
ATOM      7  C   UNL A   1      32.650  22.910  25.994  1.00  0.00     0.127 C 
ATOM      8  C   UNL A   1      31.502  23.126  26.988  1.00  0.00     0.025 C 
BRANCH   7   9
ATOM      9  C   UNL A   1      32.345  21.887  24.885  1.00  0.00    -0.026 A 
ATOM     10  C   UNL A   1      32.527  20.510  25.116  1.00  0.00     0.005 A 
ATOM     11  C   UNL A   1      32.076  22.325  23.559  1.00  0.00    -0.014 A 
ATOM     12  C   UNL A   1      32.479  19.594  24.065  1.00  0.00     0.000 A 
ATOM     13  C   UNL A   1      32.045  21.393  22.513  1.00  0.00     0.009 A 
ATOM     14  C   UNL A   1      32.255  20.037  22.765  1.00  0.00     0.001 A 
BRANCH  11  15
ATOM     15  C   UNL A   1      31.842  23.755  23.255  1.00  0.00    -0.011 A 
ATOM     16  C   UNL A   1      32.884  24.663  22.814  1.00  0.00     0.027 A 
ATOM     17  C   UNL A   1      30.629  24.252  23.550  1.00  0.00     0.080 A 
ATOM     18  C   UNL A   1      32.719  25.985  22.929  1.00  0.00     0.095 A 
ATOM     19  C   UNL A   1      30.389  25.722  23.536  1.00  0.00     0.255 A 
ATOM     20  N   UNL A   1      31.511  26.512  23.344  1.00  0.00    -0.258 N 
ATOM     21  O   UNL A   1      29.250  26.128  23.742  1.00  0.00    -0.269 OA
BRANCH  20  22
ATOM     22  C   UNL A   1      31.354  27.935  23.503  1.00  0.00     0.451 C 
ATOM     23  F   UNL A   1      31.693  28.319  24.756  1.00  0.00    -0.185 F 
ATOM     24  F   UNL A   1      32.136  28.615  22.629  1.00  0.00    -0.185 F 
ENDBRANCH  20  22
ENDBRANCH  11  15
ENDBRANCH   7   9
ENDBRANCH   5   7
ENDBRANCH   4   5
ENDBRANCH   3   4
ENDBRANCH   2   3
ENDBRANCH   1   2
BRANCH   1  25
ATOM     25  C   UNL A   1      37.768  19.911  24.752  1.00  0.00     0.202 C 
BRANCH  25  26
ATOM     26  C   UNL A   1      38.994  19.380  25.502  1.00  0.00     0.261 C 
BRANCH  26  27
ATOM     27  O   UNL A   1      40.050  20.353  25.566  1.00  0.00    -0.460 OA
BRANCH  27  28
ATOM     28  C   UNL A   1      40.744  20.339  26.730  1.00  0.00     0.338 C 
ATOM     29  O   UNL A   1      41.341  19.385  27.214  1.00  0.00    -0.246 OA
BRANCH  28  30
ATOM     30  C   UNL A   1      40.893  21.712  27.252  1.00  0.00     0.060 A 
ATOM     31  C   UNL A   1      40.207  22.729  26.574  1.00  0.00     0.016 A 
ATOM     32  C   UNL A   1      41.716  22.013  28.340  1.00  0.00     0.016 A 
ATOM     33  C   UNL A   1      40.394  24.059  26.934  1.00  0.00     0.010 A 
ATOM     34  C   UNL A   1      41.913  23.352  28.692  1.00  0.00     0.010 A 
ATOM     35  C   UNL A   1      41.288  24.381  27.962  1.00  0.00    -0.014 A 
BRANCH  35  36
ATOM     36  C   UNL A   1      41.710  25.793  28.130  1.00  0.00     0.031 A 
ATOM     37  C   UNL A   1      43.033  26.220  27.553  1.00  0.00     0.074 A 
ATOM     38  C   UNL A   1      40.908  26.689  28.731  1.00  0.00     0.049 A 
ATOM     39  N   UNL A   1      43.623  27.386  27.596  1.00  0.00    -0.248 NA
ATOM     40  C   UNL A   1      43.791  25.188  26.830  1.00  0.00     0.031 C 
ATOM     41  C   UNL A   1      39.581  26.400  29.274  1.00  0.00     0.029 A 
ATOM     42  N   UNL A   1      41.094  28.024  28.985  1.00  0.00    -0.354 N 
ATOM     43  C   UNL A   1      44.822  27.228  26.911  1.00  0.00     0.074 A 
ATOM     44  C   UNL A   1      44.894  25.842  26.499  1.00  0.00     0.031 C 
ATOM     45  C   UNL A   1      39.076  27.526  29.808  1.00  0.00     0.029 A 
ATOM     46  C   UNL A   1      40.058  28.602  29.680  1.00  0.00     0.049 A 
ATOM     47  H   UNL A   1      41.893  28.522  28.697  1.00  0.00     0.167 HD
ATOM     48  C   UNL A   1      45.772  28.157  26.640  1.00  0.00     0.034 A 
ATOM     49  C   UNL A   1      39.932  29.848  30.180  1.00  0.00     0.034 A 
ATOM     50  C   UNL A   1      45.690  29.533  27.069  1.00  0.00     0.049 A 
ATOM     51  C   UNL A   1      41.045  30.843  29.950  1.00  0.00     0.074 A 
ATOM     52  C   UNL A   1      46.590  30.560  26.850  1.00  0.00     0.029 A 
ATOM     53  N   UNL A   1      44.650  30.070  27.819  1.00  0.00    -0.354 N 
ATOM     54  N   UNL A   1      42.177  30.682  29.302  1.00  0.00    -0.248 NA
ATOM     55  C   UNL A   1      40.861  32.187  30.512  1.00  0.00     0.031 C 
ATOM     56  C   UNL A   1      46.133  31.696  27.528  1.00  0.00     0.029 A 
ATOM     57  C   UNL A   1      44.905  31.404  28.099  1.00  0.00     0.049 A 
ATOM     58  H   UNL A   1      43.849  29.575  28.107  1.00  0.00     0.167 HD
ATOM     59  C   UNL A   1      42.822  31.917  29.353  1.00  0.00     0.074 A 
ATOM     60  C   UNL A   1      41.947  32.810  30.082  1.00  0.00     0.031 C 
ATOM     61  C   UNL A   1      44.026  32.280  28.839  1.00  0.00     0.034 A 
BRANCH  48  62
ATOM     62  C   UNL A   1      47.001  27.695  25.894  1.00  0.00     0.023 A 
ATOM     63  C   UNL A   1      47.199  27.991  24.533  1.00  0.00     0.031 A 
ATOM     64  C   UNL A   1      47.974  26.914  26.544  1.00  0.00     0.131 A 
ATOM     65  C   UNL A   1      48.300  27.449  23.851  1.00  0.00     0.055 A 
ATOM     66  C   UNL A   1      49.109  26.446  25.880  1.00  0.00     0.041 A 
ATOM     67  F   UNL A   1      47.826  26.576  27.835  1.00  0.00    -0.206 F 
ATOM     68  C   UNL A   1      49.270  26.700  24.521  1.00  0.00     0.022 A 
BRANCH  65  69
ATOM     69  S   UNL A   1      48.367  27.610  22.045  1.00  0.00     0.124 S 
ATOM     70  O   UNL A   1      49.496  28.521  21.872  1.00  0.00    -0.237 OA
ATOM     71  O   UNL A   1      48.585  26.234  21.614  1.00  0.00    -0.237 OA
ATOM     72  O   UNL A   1      47.064  28.173  21.702  1.00  0.00    -0.744 OA
ENDBRANCH  65  69
ENDBRANCH  48  62
BRANCH  49  73
ATOM     73  C   UNL A   1      38.733  30.219  30.987  1.00  0.00     0.023 A 
ATOM     74  C   UNL A   1      37.664  30.931  30.421  1.00  0.00     0.031 A 
ATOM     75  C   UNL A   1      38.668  29.912  32.358  1.00  0.00     0.131 A 
ATOM     76  C   UNL A   1      36.597  31.350  31.231  1.00  0.00     0.055 A 
ATOM     77  C   UNL A   1      37.579  30.283  33.147  1.00  0.00     0.041 A 
ATOM     78  F   UNL A   1      39.664  29.234  32.951  1.00  0.00    -0.206 F 
ATOM     79  C   UNL A   1      36.540  31.019  32.587  1.00  0.00     0.022 A 
BRANCH  76  80
ATOM     80  S   UNL A   1      35.318  32.411  30.504  1.00  0.00     0.124 S 
ATOM     81  O   UNL A   1      35.018  31.705  29.262  1.00  0.00    -0.237 OA
ATOM     82  O   UNL A   1      34.280  32.376  31.528  1.00  0.00    -0.237 OA
ATOM     83  O   UNL A   1      35.991  33.698  30.345  1.00  0.00    -0.744 OA
ENDBRANCH  76  80
ENDBRANCH  49  73
BRANCH  61  84
ATOM     84  C   UNL A   1      44.440  33.723  29.010  1.00  0.00     0.023 A 
ATOM     85  C   UNL A   1      43.820  34.764  28.297  1.00  0.00     0.031 A 
ATOM     86  C   UNL A   1      45.480  34.058  29.896  1.00  0.00     0.131 A 
ATOM     87  C   UNL A   1      44.281  36.081  28.440  1.00  0.00     0.055 A 
ATOM     88  C   UNL A   1      45.892  35.378  30.083  1.00  0.00     0.041 A 
ATOM     89  F   UNL A   1      46.110  33.105  30.602  1.00  0.00    -0.206 F 
ATOM     90  C   UNL A   1      45.301  36.397  29.342  1.00  0.00     0.022 A 
BRANCH  87  91
ATOM     91  S   UNL A   1      43.597  37.368  27.361  1.00  0.00     0.124 S 
ATOM     92  O   UNL A   1      42.853  38.193  28.307  1.00  0.00    -0.237 OA
ATOM     93  O   UNL A   1      44.799  37.972  26.795  1.00  0.00    -0.237 OA
ATOM     94  O   UNL A   1      42.775  36.619  26.411  1.00  0.00    -0.744 OA
ENDBRANCH  87  91
ENDBRANCH  61  84
ENDBRANCH  35  36
ENDBRANCH  28  30
ENDBRANCH  27  28
ENDBRANCH  26  27
ENDBRANCH  25  26
ENDBRANCH   1  25
TORSDOF 20
ENDMDL
